MODEL 1
REMARK VINA RESULT:      -9.5      0.000      0.000
REMARK SMILES C[C@@H](C(=O)OCCOC(=O)c1ccc(-c2c3nc(c(-c4cccc(S(=O)(=O)[O-])c4F)c4ccc([nH]4)c(-c4cccc(S(=O)(=O)[O-])c4F)c4nc(c(-c5cccc(S(=O)(=O)[O-])c5F)c5ccc2[nH]5)C=C4)C=C3)cc1)c1ccc(Cc2ccsc2)cc1F
REMARK SMILES IDX 6 1 5 2 3 3 4 4 2 5 1 6 74 7 75 8 85 9 76 10 84 11 86 12
REMARK SMILES IDX 77 13 78 14 79 15 80 16 83 17 81 18 82 19 7 20 8 21 9 22
REMARK SMILES IDX 10 23 11 24 12 25 73 26 13 27 72 28 14 29 15 30 16 31 66 32
REMARK SMILES IDX 17 33 71 34 65 35 67 36 18 37 70 38 64 39 63 40 19 42 51 43
REMARK SMILES IDX 31 44 50 45 32 46 35 47 49 48 68 49 33 50 34 51 48 53 69 54
REMARK SMILES IDX 36 55 20 56 21 57 29 58 22 59 24 60 30 61 23 62 25 63 26 64
REMARK SMILES IDX 27 65 28 66 52 67 53 68 61 69 54 70 56 71 62 72 55 73 57 74
REMARK SMILES IDX 58 75 59 76 60 77 37 78 38 79 46 80 39 81 41 82 47 83 40 84
REMARK SMILES IDX 42 85 43 86 44 87 45 88
REMARK H PARENT 67 41 35 52
REMARK Flexibility Score: inf
ROOT
ATOM      1  C   UNL A   1      42.624  19.999  26.536  1.00  0.00     0.274 C 
ENDROOT
BRANCH   1   2
ATOM      2  O   UNL A   1      43.353  20.311  25.333  1.00  0.00    -0.462 OA
BRANCH   2   3
ATOM      3  C   UNL A   1      43.626  21.628  25.115  1.00  0.00     0.313 C 
ATOM      4  O   UNL A   1      42.771  22.475  24.883  1.00  0.00    -0.252 OA
BRANCH   3   5
ATOM      5  C   UNL A   1      45.129  21.933  25.207  1.00  0.00     0.129 C 
ATOM      6  C   UNL A   1      45.904  20.603  25.295  1.00  0.00     0.025 C 
BRANCH   5   7
ATOM      7  C   UNL A   1      45.511  22.946  26.287  1.00  0.00     0.002 A 
ATOM      8  C   UNL A   1      44.838  23.030  27.513  1.00  0.00     0.008 A 
ATOM      9  C   UNL A   1      46.546  23.870  26.089  1.00  0.00     0.127 A 
ATOM     10  C   UNL A   1      45.277  23.894  28.534  1.00  0.00     0.004 A 
ATOM     11  C   UNL A   1      46.991  24.728  27.101  1.00  0.00     0.043 A 
ATOM     12  F   UNL A   1      47.172  23.946  24.906  1.00  0.00    -0.207 F 
ATOM     13  C   UNL A   1      46.390  24.729  28.366  1.00  0.00    -0.041 A 
BRANCH  13  14
ATOM     14  C   UNL A   1      47.092  25.458  29.501  1.00  0.00     0.072 C 
BRANCH  14  15
ATOM     15  C   UNL A   1      46.190  26.464  30.150  1.00  0.00    -0.033 A 
ATOM     16  C   UNL A   1      45.440  26.255  31.357  1.00  0.00     0.015 A 
ATOM     17  C   UNL A   1      46.087  27.788  29.758  1.00  0.00     0.068 A 
ATOM     18  C   UNL A   1      44.754  27.372  31.774  1.00  0.00     0.065 A 
ATOM     19  S   UNL A   1      45.057  28.713  30.764  1.00  0.00    -0.152 S 
ENDBRANCH  14  15
ENDBRANCH  13  14
ENDBRANCH   5   7
ENDBRANCH   3   5
ENDBRANCH   2   3
ENDBRANCH   1   2
BRANCH   1  20
ATOM     20  C   UNL A   1      41.176  19.702  26.157  1.00  0.00     0.275 C 
BRANCH  20  21
ATOM     21  O   UNL A   1      40.333  20.434  27.063  1.00  0.00    -0.458 OA
BRANCH  21  22
ATOM     22  C   UNL A   1      39.522  21.363  26.515  1.00  0.00     0.338 C 
ATOM     23  O   UNL A   1      38.535  21.171  25.815  1.00  0.00    -0.246 OA
BRANCH  22  24
ATOM     24  C   UNL A   1      40.003  22.694  26.912  1.00  0.00     0.060 A 
ATOM     25  C   UNL A   1      39.493  23.823  26.271  1.00  0.00     0.016 A 
ATOM     26  C   UNL A   1      41.009  22.823  27.871  1.00  0.00     0.016 A 
ATOM     27  C   UNL A   1      40.018  25.080  26.566  1.00  0.00     0.010 A 
ATOM     28  C   UNL A   1      41.494  24.095  28.200  1.00  0.00     0.010 A 
ATOM     29  C   UNL A   1      41.027  25.237  27.527  1.00  0.00    -0.014 A 
BRANCH  29  30
ATOM     30  C   UNL A   1      41.635  26.582  27.756  1.00  0.00     0.031 A 
ATOM     31  C   UNL A   1      42.880  26.982  27.007  1.00  0.00     0.074 A 
ATOM     32  C   UNL A   1      41.061  27.467  28.598  1.00  0.00     0.049 A 
ATOM     33  N   UNL A   1      43.600  28.068  27.128  1.00  0.00    -0.248 NA
ATOM     34  C   UNL A   1      43.390  26.036  26.001  1.00  0.00     0.031 C 
ATOM     35  C   UNL A   1      39.848  27.224  29.376  1.00  0.00     0.029 A 
ATOM     36  N   UNL A   1      41.405  28.760  28.917  1.00  0.00    -0.354 N 
ATOM     37  C   UNL A   1      44.707  27.882  26.309  1.00  0.00     0.074 A 
ATOM     38  C   UNL A   1      44.533  26.606  25.647  1.00  0.00     0.031 C 
ATOM     39  C   UNL A   1      39.502  28.355  30.014  1.00  0.00     0.029 A 
ATOM     40  C   UNL A   1      40.499  29.387  29.745  1.00  0.00     0.049 A 
ATOM     41  H   UNL A   1      42.223  29.196  28.587  1.00  0.00     0.167 HD
ATOM     42  C   UNL A   1      45.780  28.688  26.138  1.00  0.00     0.034 A 
ATOM     43  C   UNL A   1      40.473  30.650  30.223  1.00  0.00     0.034 A 
ATOM     44  C   UNL A   1      45.917  29.995  26.721  1.00  0.00     0.049 A 
ATOM     45  C   UNL A   1      41.629  31.571  29.921  1.00  0.00     0.074 A 
ATOM     46  C   UNL A   1      46.978  30.878  26.614  1.00  0.00     0.029 A 
ATOM     47  N   UNL A   1      44.956  30.617  27.499  1.00  0.00    -0.354 N 
ATOM     48  N   UNL A   1      42.660  31.379  29.135  1.00  0.00    -0.248 NA
ATOM     49  C   UNL A   1      41.625  32.880  30.594  1.00  0.00     0.031 C 
ATOM     50  C   UNL A   1      46.657  32.037  27.327  1.00  0.00     0.029 A 
ATOM     51  C   UNL A   1      45.394  31.876  27.874  1.00  0.00     0.049 A 
ATOM     52  H   UNL A   1      44.090  30.223  27.750  1.00  0.00     0.167 HD
ATOM     53  C   UNL A   1      43.429  32.534  29.227  1.00  0.00     0.074 A 
ATOM     54  C   UNL A   1      42.714  33.447  30.093  1.00  0.00     0.031 C 
ATOM     55  C   UNL A   1      44.647  32.796  28.690  1.00  0.00     0.034 A 
BRANCH  42  56
ATOM     56  C   UNL A   1      46.913  28.169  25.297  1.00  0.00     0.023 A 
ATOM     57  C   UNL A   1      46.803  28.149  23.894  1.00  0.00     0.012 A 
ATOM     58  C   UNL A   1      48.112  27.749  25.907  1.00  0.00     0.148 A 
ATOM     59  C   UNL A   1      47.866  27.696  23.110  1.00  0.00     0.002 A 
ATOM     60  C   UNL A   1      49.177  27.332  25.119  1.00  0.00     0.091 A 
ATOM     61  F   UNL A   1      48.182  27.748  27.247  1.00  0.00    -0.205 F 
ATOM     62  C   UNL A   1      49.054  27.299  23.721  1.00  0.00     0.022 A 
BRANCH  60  63
ATOM     63  S   UNL A   1      50.763  26.869  25.822  1.00  0.00     0.127 S 
ATOM     64  O   UNL A   1      50.484  25.524  26.322  1.00  0.00    -0.237 OA
ATOM     65  O   UNL A   1      51.648  26.914  24.656  1.00  0.00    -0.237 OA
ATOM     66  O   UNL A   1      51.056  27.872  26.837  1.00  0.00    -0.744 OA
ENDBRANCH  60  63
ENDBRANCH  42  56
BRANCH  43  67
ATOM     67  C   UNL A   1      39.288  31.156  30.979  1.00  0.00     0.023 A 
ATOM     68  C   UNL A   1      39.267  31.008  32.382  1.00  0.00     0.012 A 
ATOM     69  C   UNL A   1      38.206  31.800  30.354  1.00  0.00     0.148 A 
ATOM     70  C   UNL A   1      38.195  31.484  33.141  1.00  0.00     0.002 A 
ATOM     71  C   UNL A   1      37.177  32.339  31.122  1.00  0.00     0.091 A 
ATOM     72  F   UNL A   1      38.199  31.892  29.016  1.00  0.00    -0.205 F 
ATOM     73  C   UNL A   1      37.159  32.167  32.512  1.00  0.00     0.022 A 
BRANCH  71  74
ATOM     74  S   UNL A   1      35.924  33.388  30.375  1.00  0.00     0.127 S 
ATOM     75  O   UNL A   1      35.532  34.240  31.493  1.00  0.00    -0.237 OA
ATOM     76  O   UNL A   1      36.668  34.066  29.313  1.00  0.00    -0.237 OA
ATOM     77  O   UNL A   1      34.916  32.454  29.884  1.00  0.00    -0.744 OA
ENDBRANCH  71  74
ENDBRANCH  43  67
BRANCH  55  78
ATOM     78  C   UNL A   1      45.300  34.107  29.044  1.00  0.00     0.023 A 
ATOM     79  C   UNL A   1      46.104  34.178  30.200  1.00  0.00     0.012 A 
ATOM     80  C   UNL A   1      45.193  35.232  28.205  1.00  0.00     0.148 A 
ATOM     81  C   UNL A   1      46.771  35.356  30.529  1.00  0.00     0.002 A 
ATOM     82  C   UNL A   1      45.893  36.393  28.521  1.00  0.00     0.091 A 
ATOM     83  F   UNL A   1      44.410  35.151  27.120  1.00  0.00    -0.205 F 
ATOM     84  C   UNL A   1      46.675  36.459  29.685  1.00  0.00     0.022 A 
BRANCH  82  85
ATOM     85  S   UNL A   1      45.896  37.832  27.445  1.00  0.00     0.127 S 
ATOM     86  O   UNL A   1      46.542  37.306  26.243  1.00  0.00    -0.237 OA
ATOM     87  O   UNL A   1      44.468  38.117  27.296  1.00  0.00    -0.237 OA
ATOM     88  O   UNL A   1      46.642  38.860  28.161  1.00  0.00    -0.744 OA
ENDBRANCH  82  85
ENDBRANCH  55  78
ENDBRANCH  29  30
ENDBRANCH  22  24
ENDBRANCH  21  22
ENDBRANCH  20  21
ENDBRANCH   1  20
TORSDOF 17
ENDMDL
MODEL 2
REMARK VINA RESULT:      -9.5      3.814      9.994
REMARK SMILES C[C@@H](C(=O)OCCOC(=O)c1ccc(-c2c3nc(c(-c4cccc(S(=O)(=O)[O-])c4F)c4ccc([nH]4)c(-c4cccc(S(=O)(=O)[O-])c4F)c4nc(c(-c5cccc(S(=O)(=O)[O-])c5F)c5ccc2[nH]5)C=C4)C=C3)cc1)c1ccc(Cc2ccsc2)cc1F
REMARK SMILES IDX 6 1 5 2 3 3 4 4 2 5 1 6 74 7 75 8 85 9 76 10 84 11 86 12
REMARK SMILES IDX 77 13 78 14 79 15 80 16 83 17 81 18 82 19 7 20 8 21 9 22
REMARK SMILES IDX 10 23 11 24 12 25 73 26 13 27 72 28 14 29 15 30 16 31 66 32
REMARK SMILES IDX 17 33 71 34 65 35 67 36 18 37 70 38 64 39 63 40 19 42 51 43
REMARK SMILES IDX 31 44 50 45 32 46 35 47 49 48 68 49 33 50 34 51 48 53 69 54
REMARK SMILES IDX 36 55 20 56 21 57 29 58 22 59 24 60 30 61 23 62 25 63 26 64
REMARK SMILES IDX 27 65 28 66 52 67 53 68 61 69 54 70 56 71 62 72 55 73 57 74
REMARK SMILES IDX 58 75 59 76 60 77 37 78 38 79 46 80 39 81 41 82 47 83 40 84
REMARK SMILES IDX 42 85 43 86 44 87 45 88
REMARK H PARENT 67 41 35 52
REMARK Flexibility Score: inf
ROOT
ATOM      1  C   UNL A   1      35.001  20.263  25.374  1.00  0.00     0.274 C 
ENDROOT
BRANCH   1   2
ATOM      2  O   UNL A   1      34.071  20.186  24.276  1.00  0.00    -0.462 OA
BRANCH   2   3
ATOM      3  C   UNL A   1      32.752  20.316  24.590  1.00  0.00     0.313 C 
ATOM      4  O   UNL A   1      32.128  19.507  25.267  1.00  0.00    -0.252 OA
BRANCH   3   5
ATOM      5  C   UNL A   1      32.139  21.598  24.009  1.00  0.00     0.129 C 
ATOM      6  C   UNL A   1      32.223  21.539  22.470  1.00  0.00     0.025 C 
BRANCH   5   7
ATOM      7  C   UNL A   1      32.679  22.896  24.610  1.00  0.00     0.002 A 
ATOM      8  C   UNL A   1      33.848  23.513  24.143  1.00  0.00     0.008 A 
ATOM      9  C   UNL A   1      32.042  23.523  25.690  1.00  0.00     0.127 A 
ATOM     10  C   UNL A   1      34.265  24.763  24.637  1.00  0.00     0.004 A 
ATOM     11  C   UNL A   1      32.450  24.767  26.183  1.00  0.00     0.043 A 
ATOM     12  F   UNL A   1      30.986  22.948  26.282  1.00  0.00    -0.207 F 
ATOM     13  C   UNL A   1      33.550  25.438  25.636  1.00  0.00    -0.041 A 
BRANCH  13  14
ATOM     14  C   UNL A   1      33.767  26.897  26.005  1.00  0.00     0.072 C 
BRANCH  14  15
ATOM     15  C   UNL A   1      32.980  27.812  25.116  1.00  0.00    -0.033 A 
ATOM     16  C   UNL A   1      33.375  28.245  23.805  1.00  0.00     0.015 A 
ATOM     17  C   UNL A   1      31.687  28.233  25.377  1.00  0.00     0.068 A 
ATOM     18  C   UNL A   1      32.429  29.020  23.177  1.00  0.00     0.065 A 
ATOM     19  S   UNL A   1      31.017  29.182  24.120  1.00  0.00    -0.152 S 
ENDBRANCH  14  15
ENDBRANCH  13  14
ENDBRANCH   5   7
ENDBRANCH   3   5
ENDBRANCH   2   3
ENDBRANCH   1   2
BRANCH   1  20
ATOM     20  C   UNL A   1      36.412  20.367  24.801  1.00  0.00     0.275 C 
BRANCH  20  21
ATOM     21  O   UNL A   1      37.141  21.302  25.615  1.00  0.00    -0.458 OA
BRANCH  21  22
ATOM     22  C   UNL A   1      38.454  21.048  25.796  1.00  0.00     0.338 C 
ATOM     23  O   UNL A   1      39.049  19.999  25.575  1.00  0.00    -0.246 OA
BRANCH  22  24
ATOM     24  C   UNL A   1      39.099  22.269  26.301  1.00  0.00     0.060 A 
ATOM     25  C   UNL A   1      38.522  23.508  26.027  1.00  0.00     0.016 A 
ATOM     26  C   UNL A   1      40.312  22.194  26.987  1.00  0.00     0.016 A 
ATOM     27  C   UNL A   1      39.179  24.676  26.410  1.00  0.00     0.010 A 
ATOM     28  C   UNL A   1      40.940  23.370  27.415  1.00  0.00     0.010 A 
ATOM     29  C   UNL A   1      40.398  24.628  27.103  1.00  0.00    -0.014 A 
BRANCH  29  30
ATOM     30  C   UNL A   1      41.126  25.893  27.418  1.00  0.00     0.031 A 
ATOM     31  C   UNL A   1      40.527  26.886  28.380  1.00  0.00     0.074 A 
ATOM     32  C   UNL A   1      42.339  26.145  26.883  1.00  0.00     0.049 A 
ATOM     33  N   UNL A   1      40.964  28.072  28.716  1.00  0.00    -0.248 NA
ATOM     34  C   UNL A   1      39.268  26.505  29.040  1.00  0.00     0.031 C 
ATOM     35  C   UNL A   1      43.047  25.269  25.952  1.00  0.00     0.029 A 
ATOM     36  N   UNL A   1      43.204  27.198  27.069  1.00  0.00    -0.354 N 
ATOM     37  C   UNL A   1      39.979  28.624  29.526  1.00  0.00     0.074 A 
ATOM     38  C   UNL A   1      38.949  27.619  29.683  1.00  0.00     0.031 C 
ATOM     39  C   UNL A   1      44.269  25.775  25.715  1.00  0.00     0.029 A 
ATOM     40  C   UNL A   1      44.413  27.043  26.425  1.00  0.00     0.049 A 
ATOM     41  H   UNL A   1      42.981  27.989  27.610  1.00  0.00     0.167 HD
ATOM     42  C   UNL A   1      39.925  29.861  30.074  1.00  0.00     0.034 A 
ATOM     43  C   UNL A   1      45.510  27.830  26.415  1.00  0.00     0.034 A 
ATOM     44  C   UNL A   1      40.983  30.831  29.998  1.00  0.00     0.049 A 
ATOM     45  C   UNL A   1      45.466  29.157  27.132  1.00  0.00     0.074 A 
ATOM     46  C   UNL A   1      41.011  32.117  30.511  1.00  0.00     0.029 A 
ATOM     47  N   UNL A   1      42.210  30.617  29.392  1.00  0.00    -0.354 N 
ATOM     48  N   UNL A   1      44.529  29.654  27.902  1.00  0.00    -0.248 NA
ATOM     49  C   UNL A   1      46.631  30.041  26.959  1.00  0.00     0.031 C 
ATOM     50  C   UNL A   1      42.256  32.679  30.216  1.00  0.00     0.029 A 
ATOM     51  C   UNL A   1      43.006  31.741  29.524  1.00  0.00     0.049 A 
ATOM     52  H   UNL A   1      42.477  29.787  28.935  1.00  0.00     0.167 HD
ATOM     53  C   UNL A   1      44.985  30.908  28.294  1.00  0.00     0.074 A 
ATOM     54  C   UNL A   1      46.309  31.069  27.733  1.00  0.00     0.031 C 
ATOM     55  C   UNL A   1      44.343  31.866  29.008  1.00  0.00     0.034 A 
BRANCH  42  56
ATOM     56  C   UNL A   1      38.663  30.250  30.791  1.00  0.00     0.023 A 
ATOM     57  C   UNL A   1      38.483  29.910  32.145  1.00  0.00     0.012 A 
ATOM     58  C   UNL A   1      37.675  31.003  30.125  1.00  0.00     0.148 A 
ATOM     59  C   UNL A   1      37.324  30.296  32.820  1.00  0.00     0.002 A 
ATOM     60  C   UNL A   1      36.541  31.414  30.814  1.00  0.00     0.091 A 
ATOM     61  F   UNL A   1      37.854  31.289  28.827  1.00  0.00    -0.205 F 
ATOM     62  C   UNL A   1      36.361  31.056  32.160  1.00  0.00     0.022 A 
BRANCH  60  63
ATOM     63  S   UNL A   1      35.285  32.450  30.057  1.00  0.00     0.127 S 
ATOM     64  O   UNL A   1      36.063  33.626  29.674  1.00  0.00    -0.237 OA
ATOM     65  O   UNL A   1      34.833  31.627  28.934  1.00  0.00    -0.237 OA
ATOM     66  O   UNL A   1      34.277  32.668  31.087  1.00  0.00    -0.744 OA
ENDBRANCH  60  63
ENDBRANCH  42  56
BRANCH  43  67
ATOM     67  C   UNL A   1      46.775  27.369  25.767  1.00  0.00     0.023 A 
ATOM     68  C   UNL A   1      47.615  26.485  26.476  1.00  0.00     0.012 A 
ATOM     69  C   UNL A   1      47.148  27.755  24.467  1.00  0.00     0.148 A 
ATOM     70  C   UNL A   1      48.797  26.004  25.909  1.00  0.00     0.002 A 
ATOM     71  C   UNL A   1      48.287  27.213  23.879  1.00  0.00     0.091 A 
ATOM     72  F   UNL A   1      46.379  28.638  23.813  1.00  0.00    -0.205 F 
ATOM     73  C   UNL A   1      49.123  26.352  24.602  1.00  0.00     0.022 A 
BRANCH  71  74
ATOM     74  S   UNL A   1      48.642  27.484  22.139  1.00  0.00     0.127 S 
ATOM     75  O   UNL A   1      47.482  28.255  21.705  1.00  0.00    -0.237 OA
ATOM     76  O   UNL A   1      49.900  28.233  22.183  1.00  0.00    -0.237 OA
ATOM     77  O   UNL A   1      48.776  26.142  21.583  1.00  0.00    -0.744 OA
ENDBRANCH  71  74
ENDBRANCH  43  67
BRANCH  55  78
ATOM     78  C   UNL A   1      45.046  33.185  29.199  1.00  0.00     0.023 A 
ATOM     79  C   UNL A   1      45.916  33.341  30.297  1.00  0.00     0.012 A 
ATOM     80  C   UNL A   1      44.919  34.228  28.263  1.00  0.00     0.148 A 
ATOM     81  C   UNL A   1      46.628  34.525  30.477  1.00  0.00     0.002 A 
ATOM     82  C   UNL A   1      45.663  35.393  28.428  1.00  0.00     0.091 A 
ATOM     83  F   UNL A   1      44.074  34.069  27.234  1.00  0.00    -0.205 F 
ATOM     84  C   UNL A   1      46.510  35.546  29.537  1.00  0.00     0.022 A 
BRANCH  82  85
ATOM     85  S   UNL A   1      45.640  36.724  27.221  1.00  0.00     0.127 S 
ATOM     86  O   UNL A   1      46.366  36.126  26.102  1.00  0.00    -0.237 OA
ATOM     87  O   UNL A   1      44.207  36.913  26.988  1.00  0.00    -0.237 OA
ATOM     88  O   UNL A   1      46.298  37.855  27.866  1.00  0.00    -0.744 OA
ENDBRANCH  82  85
ENDBRANCH  55  78
ENDBRANCH  29  30
ENDBRANCH  22  24
ENDBRANCH  21  22
ENDBRANCH  20  21
ENDBRANCH   1  20
TORSDOF 17
ENDMDL
MODEL 3
REMARK VINA RESULT:      -9.3      4.423     10.618
REMARK SMILES C[C@@H](C(=O)OCCOC(=O)c1ccc(-c2c3nc(c(-c4cccc(S(=O)(=O)[O-])c4F)c4ccc([nH]4)c(-c4cccc(S(=O)(=O)[O-])c4F)c4nc(c(-c5cccc(S(=O)(=O)[O-])c5F)c5ccc2[nH]5)C=C4)C=C3)cc1)c1ccc(Cc2ccsc2)cc1F
REMARK SMILES IDX 6 1 5 2 3 3 4 4 2 5 1 6 74 7 75 8 85 9 76 10 84 11 86 12
REMARK SMILES IDX 77 13 78 14 79 15 80 16 83 17 81 18 82 19 7 20 8 21 9 22
REMARK SMILES IDX 10 23 11 24 12 25 73 26 13 27 72 28 14 29 15 30 16 31 66 32
REMARK SMILES IDX 17 33 71 34 65 35 67 36 18 37 70 38 64 39 63 40 19 42 51 43
REMARK SMILES IDX 31 44 50 45 32 46 35 47 49 48 68 49 33 50 34 51 48 53 69 54
REMARK SMILES IDX 36 55 20 56 21 57 29 58 22 59 24 60 30 61 23 62 25 63 26 64
REMARK SMILES IDX 27 65 28 66 52 67 53 68 61 69 54 70 56 71 62 72 55 73 57 74
REMARK SMILES IDX 58 75 59 76 60 77 37 78 38 79 46 80 39 81 41 82 47 83 40 84
REMARK SMILES IDX 42 85 43 86 44 87 45 88
REMARK H PARENT 67 41 35 52
REMARK Flexibility Score: inf
ROOT
ATOM      1  C   UNL A   1      34.453  21.097  25.505  1.00  0.00     0.274 C 
ENDROOT
BRANCH   1   2
ATOM      2  O   UNL A   1      34.460  21.881  26.714  1.00  0.00    -0.462 OA
BRANCH   2   3
ATOM      3  C   UNL A   1      33.525  22.868  26.801  1.00  0.00     0.313 C 
ATOM      4  O   UNL A   1      32.755  22.999  27.746  1.00  0.00    -0.252 OA
BRANCH   3   5
ATOM      5  C   UNL A   1      33.554  23.806  25.586  1.00  0.00     0.129 C 
ATOM      6  C   UNL A   1      34.690  24.831  25.773  1.00  0.00     0.025 C 
BRANCH   5   7
ATOM      7  C   UNL A   1      32.206  24.433  25.229  1.00  0.00     0.002 A 
ATOM      8  C   UNL A   1      31.634  25.469  25.982  1.00  0.00     0.008 A 
ATOM      9  C   UNL A   1      31.453  23.977  24.139  1.00  0.00     0.127 A 
ATOM     10  C   UNL A   1      30.447  26.105  25.571  1.00  0.00     0.004 A 
ATOM     11  C   UNL A   1      30.275  24.608  23.724  1.00  0.00     0.043 A 
ATOM     12  F   UNL A   1      31.858  22.915  23.429  1.00  0.00    -0.207 F 
ATOM     13  C   UNL A   1      29.766  25.718  24.409  1.00  0.00    -0.041 A 
BRANCH  13  14
ATOM     14  C   UNL A   1      28.663  26.533  23.753  1.00  0.00     0.072 C 
BRANCH  14  15
ATOM     15  C   UNL A   1      29.193  27.810  23.175  1.00  0.00    -0.033 A 
ATOM     16  C   UNL A   1      30.530  28.018  22.696  1.00  0.00     0.015 A 
ATOM     17  C   UNL A   1      28.412  28.914  22.874  1.00  0.00     0.068 A 
ATOM     18  C   UNL A   1      30.726  29.262  22.144  1.00  0.00     0.065 A 
ATOM     19  S   UNL A   1      29.288  30.177  22.122  1.00  0.00    -0.152 S 
ENDBRANCH  14  15
ENDBRANCH  13  14
ENDBRANCH   5   7
ENDBRANCH   3   5
ENDBRANCH   2   3
ENDBRANCH   1   2
BRANCH   1  20
ATOM     20  C   UNL A   1      35.892  20.715  25.173  1.00  0.00     0.275 C 
BRANCH  20  21
ATOM     21  O   UNL A   1      36.751  21.699  25.773  1.00  0.00    -0.458 OA
BRANCH  21  22
ATOM     22  C   UNL A   1      38.073  21.427  25.773  1.00  0.00     0.338 C 
ATOM     23  O   UNL A   1      38.625  20.410  25.372  1.00  0.00    -0.246 OA
BRANCH  22  24
ATOM     24  C   UNL A   1      38.786  22.586  26.329  1.00  0.00     0.060 A 
ATOM     25  C   UNL A   1      38.263  23.865  26.140  1.00  0.00     0.016 A 
ATOM     26  C   UNL A   1      40.009  22.416  26.979  1.00  0.00     0.016 A 
ATOM     27  C   UNL A   1      38.984  24.977  26.571  1.00  0.00     0.010 A 
ATOM     28  C   UNL A   1      40.702  23.535  27.457  1.00  0.00     0.010 A 
ATOM     29  C   UNL A   1      40.214  24.833  27.229  1.00  0.00    -0.014 A 
BRANCH  29  30
ATOM     30  C   UNL A   1      41.008  26.043  27.597  1.00  0.00     0.031 A 
ATOM     31  C   UNL A   1      40.456  27.034  28.588  1.00  0.00     0.074 A 
ATOM     32  C   UNL A   1      42.239  26.245  27.082  1.00  0.00     0.049 A 
ATOM     33  N   UNL A   1      40.955  28.180  28.971  1.00  0.00    -0.248 NA
ATOM     34  C   UNL A   1      39.170  26.701  29.222  1.00  0.00     0.031 C 
ATOM     35  C   UNL A   1      42.908  25.363  26.126  1.00  0.00     0.029 A 
ATOM     36  N   UNL A   1      43.160  27.240  27.314  1.00  0.00    -0.354 N 
ATOM     37  C   UNL A   1      39.993  28.758  29.791  1.00  0.00     0.074 A 
ATOM     38  C   UNL A   1      38.907  27.808  29.902  1.00  0.00     0.031 C 
ATOM     39  C   UNL A   1      44.159  25.808  25.919  1.00  0.00     0.029 A 
ATOM     40  C   UNL A   1      44.366  27.040  26.675  1.00  0.00     0.049 A 
ATOM     41  H   UNL A   1      42.976  28.023  27.881  1.00  0.00     0.167 HD
ATOM     42  C   UNL A   1      40.003  29.975  30.383  1.00  0.00     0.034 A 
ATOM     43  C   UNL A   1      45.506  27.764  26.704  1.00  0.00     0.034 A 
ATOM     44  C   UNL A   1      41.115  30.886  30.351  1.00  0.00     0.049 A 
ATOM     45  C   UNL A   1      45.528  29.064  27.468  1.00  0.00     0.074 A 
ATOM     46  C   UNL A   1      41.209  32.149  30.911  1.00  0.00     0.029 A 
ATOM     47  N   UNL A   1      42.334  30.624  29.750  1.00  0.00    -0.354 N 
ATOM     48  N   UNL A   1      44.612  29.586  28.247  1.00  0.00    -0.248 NA
ATOM     49  C   UNL A   1      46.743  29.886  27.338  1.00  0.00     0.031 C 
ATOM     50  C   UNL A   1      42.487  32.650  30.648  1.00  0.00     0.029 A 
ATOM     51  C   UNL A   1      43.190  31.697  29.929  1.00  0.00     0.049 A 
ATOM     52  H   UNL A   1      42.559  29.797  29.265  1.00  0.00     0.167 HD
ATOM     53  C   UNL A   1      45.133  30.797  28.688  1.00  0.00     0.074 A 
ATOM     54  C   UNL A   1      46.471  30.903  28.145  1.00  0.00     0.031 C 
ATOM     55  C   UNL A   1      44.538  31.764  29.430  1.00  0.00     0.034 A 
BRANCH  42  56
ATOM     56  C   UNL A   1      38.757  30.409  31.102  1.00  0.00     0.023 A 
ATOM     57  C   UNL A   1      38.626  30.196  32.487  1.00  0.00     0.012 A 
ATOM     58  C   UNL A   1      37.733  31.079  30.401  1.00  0.00     0.148 A 
ATOM     59  C   UNL A   1      37.482  30.625  33.161  1.00  0.00     0.002 A 
ATOM     60  C   UNL A   1      36.614  31.535  31.086  1.00  0.00     0.091 A 
ATOM     61  F   UNL A   1      37.866  31.244  29.077  1.00  0.00    -0.205 F 
ATOM     62  C   UNL A   1      36.484  31.303  32.465  1.00  0.00     0.022 A 
BRANCH  60  63
ATOM     63  S   UNL A   1      35.314  32.474  30.278  1.00  0.00     0.127 S 
ATOM     64  O   UNL A   1      36.031  33.681  29.871  1.00  0.00    -0.237 OA
ATOM     65  O   UNL A   1      34.929  31.593  29.174  1.00  0.00    -0.237 OA
ATOM     66  O   UNL A   1      34.278  32.665  31.284  1.00  0.00    -0.744 OA
ENDBRANCH  60  63
ENDBRANCH  42  56
BRANCH  43  67
ATOM     67  C   UNL A   1      46.749  27.255  26.051  1.00  0.00     0.023 A 
ATOM     68  C   UNL A   1      46.962  27.537  24.686  1.00  0.00     0.012 A 
ATOM     69  C   UNL A   1      47.733  26.531  26.749  1.00  0.00     0.148 A 
ATOM     70  C   UNL A   1      48.118  27.106  24.032  1.00  0.00     0.002 A 
ATOM     71  C   UNL A   1      48.916  26.169  26.113  1.00  0.00     0.091 A 
ATOM     72  F   UNL A   1      47.507  26.214  28.033  1.00  0.00    -0.205 F 
ATOM     73  C   UNL A   1      49.105  26.439  24.750  1.00  0.00     0.022 A 
BRANCH  71  74
ATOM     74  S   UNL A   1      50.289  25.479  27.043  1.00  0.00     0.127 S 
ATOM     75  O   UNL A   1      49.708  24.256  27.586  1.00  0.00    -0.237 OA
ATOM     76  O   UNL A   1      51.305  25.274  26.009  1.00  0.00    -0.237 OA
ATOM     77  O   UNL A   1      50.633  26.519  28.007  1.00  0.00    -0.744 OA
ENDBRANCH  71  74
ENDBRANCH  43  67
BRANCH  55  78
ATOM     78  C   UNL A   1      45.312  33.033  29.675  1.00  0.00     0.023 A 
ATOM     79  C   UNL A   1      46.179  33.100  30.785  1.00  0.00     0.012 A 
ATOM     80  C   UNL A   1      45.252  34.116  28.779  1.00  0.00     0.148 A 
ATOM     81  C   UNL A   1      46.955  34.234  31.013  1.00  0.00     0.002 A 
ATOM     82  C   UNL A   1      46.059  35.231  28.992  1.00  0.00     0.091 A 
ATOM     83  F   UNL A   1      44.408  34.043  27.739  1.00  0.00    -0.205 F 
ATOM     84  C   UNL A   1      46.903  35.295  30.112  1.00  0.00     0.022 A 
BRANCH  82  85
ATOM     85  S   UNL A   1      46.120  36.605  27.836  1.00  0.00     0.127 S 
ATOM     86  O   UNL A   1      47.104  37.483  28.467  1.00  0.00    -0.237 OA
ATOM     87  O   UNL A   1      46.578  35.960  26.604  1.00  0.00    -0.237 OA
ATOM     88  O   UNL A   1      44.761  37.127  27.770  1.00  0.00    -0.744 OA
ENDBRANCH  82  85
ENDBRANCH  55  78
ENDBRANCH  29  30
ENDBRANCH  22  24
ENDBRANCH  21  22
ENDBRANCH  20  21
ENDBRANCH   1  20
TORSDOF 17
ENDMDL
