MODEL 1
REMARK VINA RESULT:     -10.4      0.000      0.000
REMARK SMILES CN(Cc1ccc(Cl)cc1Cl)S(=O)(=O)CCCC(=O)OCCOC(=O)c1ccc(-c2c3nc(c(-c4cccc(S(=O)(=O)[O-])c4F)c4ccc([nH]4)c(-c4cccc(S(=O)(=O)[O-])c4F)c4nc(c(-c5cccc(S(=O)(=O)[O-])c5F)c5ccc2[nH]5)C=C4)C=C3)cc1
REMARK SMILES IDX 20 1 18 2 19 3 17 4 16 5 15 6 12 7 13 8 14 9 2 10 1 11 3 12
REMARK SMILES IDX 4 13 5 14 10 15 6 16 9 17 11 18 7 19 8 20 21 21 22 22 23 23
REMARK SMILES IDX 24 24 25 25 26 26 27 27 88 28 28 29 87 30 29 31 30 32 31 33
REMARK SMILES IDX 81 34 32 35 86 36 80 37 82 38 33 39 85 40 79 41 78 42 34 44
REMARK SMILES IDX 66 45 46 46 65 47 47 48 50 49 64 50 83 51 48 52 49 53 63 55
REMARK SMILES IDX 84 56 51 57 35 58 36 59 44 60 37 61 39 62 45 63 38 64 40 65
REMARK SMILES IDX 41 66 42 67 43 68 67 69 68 70 76 71 69 72 71 73 77 74 70 75
REMARK SMILES IDX 72 76 73 77 74 78 75 79 52 80 53 81 61 82 54 83 56 84 62 85
REMARK SMILES IDX 55 86 57 87 58 88 59 89 60 90
REMARK H PARENT 82 43 50 54
REMARK Flexibility Score: inf
ROOT
ATOM      1  O   UNL A   1      37.249  21.479  24.305  1.00  0.00    -0.462 OA
ENDROOT
BRANCH   1   2
ATOM      2  C   UNL A   1      36.442  22.474  24.761  1.00  0.00     0.305 C 
ATOM      3  O   UNL A   1      36.319  22.776  25.941  1.00  0.00    -0.252 OA
BRANCH   2   4
ATOM      4  C   UNL A   1      35.630  23.141  23.662  1.00  0.00     0.124 C 
BRANCH   4   5
ATOM      5  C   UNL A   1      34.766  24.338  24.056  1.00  0.00     0.029 C 
BRANCH   5   6
ATOM      6  C   UNL A   1      33.789  24.853  23.003  1.00  0.00     0.155 C 
BRANCH   6   7
ATOM      7  S   UNL A   1      32.277  25.567  23.640  1.00  0.00     0.214 S 
ATOM      8  O   UNL A   1      31.186  25.155  22.780  1.00  0.00    -0.212 OA
ATOM      9  O   UNL A   1      32.525  26.975  23.857  1.00  0.00    -0.212 OA
BRANCH   7  10
ATOM     10  N   UNL A   1      32.065  24.841  25.147  1.00  0.00    -0.201 NA
ATOM     11  C   UNL A   1      31.918  25.774  26.280  1.00  0.00     0.124 C 
BRANCH  10  12
ATOM     12  C   UNL A   1      31.341  23.560  25.321  1.00  0.00     0.138 C 
BRANCH  12  13
ATOM     13  C   UNL A   1      32.111  22.288  25.106  1.00  0.00    -0.014 A 
ATOM     14  C   UNL A   1      32.037  21.667  23.842  1.00  0.00     0.008 A 
ATOM     15  C   UNL A   1      32.872  21.675  26.108  1.00  0.00     0.047 A 
ATOM     16  C   UNL A   1      32.621  20.424  23.621  1.00  0.00     0.021 A 
ATOM     17  C   UNL A   1      33.459  20.429  25.887  1.00  0.00     0.041 A 
ATOM     18  Cl  UNL A   1      33.161  22.427  27.636  1.00  0.00    -0.084 Cl
ATOM     19  C   UNL A   1      33.310  19.800  24.654  1.00  0.00     0.042 A 
ATOM     20  Cl  UNL A   1      33.983  18.237  24.405  1.00  0.00    -0.084 Cl
ENDBRANCH  12  13
ENDBRANCH  10  12
ENDBRANCH   7  10
ENDBRANCH   6   7
ENDBRANCH   5   6
ENDBRANCH   4   5
ENDBRANCH   2   4
ENDBRANCH   1   2
BRANCH   1  21
ATOM     21  C   UNL A   1      37.062  20.157  24.861  1.00  0.00     0.274 C 
BRANCH  21  22
ATOM     22  C   UNL A   1      38.395  19.554  25.307  1.00  0.00     0.275 C 
BRANCH  22  23
ATOM     23  O   UNL A   1      39.388  20.582  25.446  1.00  0.00    -0.458 OA
BRANCH  23  24
ATOM     24  C   UNL A   1      40.165  20.445  26.545  1.00  0.00     0.338 C 
ATOM     25  O   UNL A   1      40.682  19.422  26.964  1.00  0.00    -0.246 OA
BRANCH  24  26
ATOM     26  C   UNL A   1      40.502  21.770  27.072  1.00  0.00     0.060 A 
ATOM     27  C   UNL A   1      39.976  22.866  26.391  1.00  0.00     0.016 A 
ATOM     28  C   UNL A   1      41.397  21.950  28.120  1.00  0.00     0.016 A 
ATOM     29  C   UNL A   1      40.369  24.151  26.707  1.00  0.00     0.010 A 
ATOM     30  C   UNL A   1      41.779  23.252  28.461  1.00  0.00     0.010 A 
ATOM     31  C   UNL A   1      41.291  24.355  27.736  1.00  0.00    -0.014 A 
BRANCH  31  32
ATOM     32  C   UNL A   1      41.788  25.729  27.967  1.00  0.00     0.031 A 
ATOM     33  C   UNL A   1      43.170  26.103  27.516  1.00  0.00     0.074 A 
ATOM     34  C   UNL A   1      40.973  26.644  28.524  1.00  0.00     0.049 A 
ATOM     35  N   UNL A   1      43.810  27.231  27.671  1.00  0.00    -0.248 NA
ATOM     36  C   UNL A   1      43.938  25.071  26.798  1.00  0.00     0.031 C 
ATOM     37  C   UNL A   1      39.600  26.390  28.970  1.00  0.00     0.029 A 
ATOM     38  N   UNL A   1      41.179  27.966  28.815  1.00  0.00    -0.354 N 
ATOM     39  C   UNL A   1      45.068  27.033  27.117  1.00  0.00     0.074 A 
ATOM     40  C   UNL A   1      45.108  25.671  26.630  1.00  0.00     0.031 C 
ATOM     41  C   UNL A   1      39.092  27.518  29.489  1.00  0.00     0.029 A 
ATOM     42  C   UNL A   1      40.118  28.553  29.463  1.00  0.00     0.049 A 
ATOM     43  H   UNL A   1      42.005  28.449  28.583  1.00  0.00     0.167 HD
ATOM     44  C   UNL A   1      46.092  27.912  27.011  1.00  0.00     0.034 A 
ATOM     45  C   UNL A   1      40.004  29.776  30.014  1.00  0.00     0.034 A 
ATOM     46  C   UNL A   1      46.027  29.272  27.476  1.00  0.00     0.049 A 
ATOM     47  C   UNL A   1      41.163  30.725  29.898  1.00  0.00     0.074 A 
ATOM     48  C   UNL A   1      46.999  30.254  27.409  1.00  0.00     0.029 A 
ATOM     49  N   UNL A   1      44.925  29.843  28.097  1.00  0.00    -0.354 N 
ATOM     50  N   UNL A   1      42.327  30.541  29.323  1.00  0.00    -0.248 NA
ATOM     51  C   UNL A   1      40.981  32.062  30.478  1.00  0.00     0.031 C 
ATOM     52  C   UNL A   1      46.495  31.409  28.015  1.00  0.00     0.029 A 
ATOM     53  C   UNL A   1      45.193  31.162  28.422  1.00  0.00     0.049 A 
ATOM     54  H   UNL A   1      44.077  29.378  28.280  1.00  0.00     0.167 HD
ATOM     55  C   UNL A   1      43.008  31.745  29.448  1.00  0.00     0.074 A 
ATOM     56  C   UNL A   1      42.108  32.661  30.120  1.00  0.00     0.031 C 
ATOM     57  C   UNL A   1      44.268  32.064  29.060  1.00  0.00     0.034 A 
BRANCH  44  58
ATOM     58  C   UNL A   1      47.362  27.432  26.357  1.00  0.00     0.023 A 
ATOM     59  C   UNL A   1      47.654  27.805  25.030  1.00  0.00     0.012 A 
ATOM     60  C   UNL A   1      48.288  26.646  27.072  1.00  0.00     0.148 A 
ATOM     61  C   UNL A   1      48.830  27.377  24.412  1.00  0.00     0.002 A 
ATOM     62  C   UNL A   1      49.479  26.264  26.467  1.00  0.00     0.091 A 
ATOM     63  F   UNL A   1      47.983  26.282  28.326  1.00  0.00    -0.205 F 
ATOM     64  C   UNL A   1      49.746  26.616  25.134  1.00  0.00     0.022 A 
BRANCH  62  65
ATOM     65  S   UNL A   1      50.759  25.348  27.333  1.00  0.00     0.127 S 
ATOM     66  O   UNL A   1      51.197  26.326  28.330  1.00  0.00    -0.237 OA
ATOM     67  O   UNL A   1      50.009  24.217  27.878  1.00  0.00    -0.237 OA
ATOM     68  O   UNL A   1      51.754  24.997  26.331  1.00  0.00    -0.744 OA
ENDBRANCH  62  65
ENDBRANCH  44  58
BRANCH  45  69
ATOM     69  C   UNL A   1      38.753  30.159  30.726  1.00  0.00     0.023 A 
ATOM     70  C   UNL A   1      38.572  29.802  32.075  1.00  0.00     0.012 A 
ATOM     71  C   UNL A   1      37.747  30.895  30.070  1.00  0.00     0.148 A 
ATOM     72  C   UNL A   1      37.395  30.136  32.746  1.00  0.00     0.002 A 
ATOM     73  C   UNL A   1      36.606  31.281  30.761  1.00  0.00     0.091 A 
ATOM     74  F   UNL A   1      37.930  31.214  28.781  1.00  0.00    -0.205 F 
ATOM     75  C   UNL A   1      36.418  30.885  32.094  1.00  0.00     0.022 A 
BRANCH  73  76
ATOM     76  S   UNL A   1      35.366  32.362  30.041  1.00  0.00     0.127 S 
ATOM     77  O   UNL A   1      34.898  31.568  28.909  1.00  0.00    -0.237 OA
ATOM     78  O   UNL A   1      34.407  32.496  31.139  1.00  0.00    -0.237 OA
ATOM     79  O   UNL A   1      36.067  33.594  29.705  1.00  0.00    -0.744 OA
ENDBRANCH  73  76
ENDBRANCH  45  69
BRANCH  57  80
ATOM     80  C   UNL A   1      44.728  33.474  29.323  1.00  0.00     0.023 A 
ATOM     81  C   UNL A   1      45.286  33.813  30.572  1.00  0.00     0.012 A 
ATOM     82  C   UNL A   1      44.629  34.457  28.319  1.00  0.00     0.148 A 
ATOM     83  C   UNL A   1      45.687  35.121  30.837  1.00  0.00     0.002 A 
ATOM     84  C   UNL A   1      45.085  35.745  28.571  1.00  0.00     0.091 A 
ATOM     85  F   UNL A   1      44.079  34.121  27.144  1.00  0.00    -0.205 F 
ATOM     86  C   UNL A   1      45.597  36.084  29.834  1.00  0.00     0.022 A 
BRANCH  84  87
ATOM     87  S   UNL A   1      45.100  37.022  27.308  1.00  0.00     0.127 S 
ATOM     88  O   UNL A   1      46.001  36.445  26.313  1.00  0.00    -0.237 OA
ATOM     89  O   UNL A   1      43.695  37.072  26.903  1.00  0.00    -0.237 OA
ATOM     90  O   UNL A   1      45.581  38.229  27.966  1.00  0.00    -0.744 OA
ENDBRANCH  84  87
ENDBRANCH  57  80
ENDBRANCH  31  32
ENDBRANCH  24  26
ENDBRANCH  23  24
ENDBRANCH  22  23
ENDBRANCH  21  22
ENDBRANCH   1  21
TORSDOF 20
ENDMDL
MODEL 2
REMARK VINA RESULT:     -10.3      1.930      3.156
REMARK SMILES CN(Cc1ccc(Cl)cc1Cl)S(=O)(=O)CCCC(=O)OCCOC(=O)c1ccc(-c2c3nc(c(-c4cccc(S(=O)(=O)[O-])c4F)c4ccc([nH]4)c(-c4cccc(S(=O)(=O)[O-])c4F)c4nc(c(-c5cccc(S(=O)(=O)[O-])c5F)c5ccc2[nH]5)C=C4)C=C3)cc1
REMARK SMILES IDX 20 1 18 2 19 3 17 4 16 5 15 6 12 7 13 8 14 9 2 10 1 11 3 12
REMARK SMILES IDX 4 13 5 14 10 15 6 16 9 17 11 18 7 19 8 20 21 21 22 22 23 23
REMARK SMILES IDX 24 24 25 25 26 26 27 27 88 28 28 29 87 30 29 31 30 32 31 33
REMARK SMILES IDX 81 34 32 35 86 36 80 37 82 38 33 39 85 40 79 41 78 42 34 44
REMARK SMILES IDX 66 45 46 46 65 47 47 48 50 49 64 50 83 51 48 52 49 53 63 55
REMARK SMILES IDX 84 56 51 57 35 58 36 59 44 60 37 61 39 62 45 63 38 64 40 65
REMARK SMILES IDX 41 66 42 67 43 68 67 69 68 70 76 71 69 72 71 73 77 74 70 75
REMARK SMILES IDX 72 76 73 77 74 78 75 79 52 80 53 81 61 82 54 83 56 84 62 85
REMARK SMILES IDX 55 86 57 87 58 88 59 89 60 90
REMARK H PARENT 82 43 50 54
REMARK Flexibility Score: inf
ROOT
ATOM      1  O   UNL A   1      35.945  22.476  24.917  1.00  0.00    -0.462 OA
ENDROOT
BRANCH   1   2
ATOM      2  C   UNL A   1      35.567  22.826  23.659  1.00  0.00     0.305 C 
ATOM      3  O   UNL A   1      36.329  23.265  22.807  1.00  0.00    -0.252 OA
BRANCH   2   4
ATOM      4  C   UNL A   1      34.071  22.695  23.421  1.00  0.00     0.124 C 
BRANCH   4   5
ATOM      5  C   UNL A   1      33.458  23.553  22.316  1.00  0.00     0.029 C 
BRANCH   5   6
ATOM      6  C   UNL A   1      32.439  24.603  22.750  1.00  0.00     0.155 C 
BRANCH   6   7
ATOM      7  S   UNL A   1      32.602  26.204  21.965  1.00  0.00     0.214 S 
ATOM      8  O   UNL A   1      31.285  26.802  21.885  1.00  0.00    -0.212 OA
ATOM      9  O   UNL A   1      33.376  26.013  20.759  1.00  0.00    -0.212 OA
BRANCH   7  10
ATOM     10  N   UNL A   1      33.532  27.112  23.039  1.00  0.00    -0.201 NA
ATOM     11  C   UNL A   1      34.009  28.407  22.519  1.00  0.00     0.124 C 
BRANCH  10  12
ATOM     12  C   UNL A   1      33.305  27.095  24.503  1.00  0.00     0.138 C 
BRANCH  12  13
ATOM     13  C   UNL A   1      32.769  28.345  25.142  1.00  0.00    -0.014 A 
ATOM     14  C   UNL A   1      31.541  28.859  24.680  1.00  0.00     0.008 A 
ATOM     15  C   UNL A   1      33.447  29.039  26.152  1.00  0.00     0.047 A 
ATOM     16  C   UNL A   1      31.057  30.080  25.139  1.00  0.00     0.021 A 
ATOM     17  C   UNL A   1      32.962  30.263  26.615  1.00  0.00     0.041 A 
ATOM     18  Cl  UNL A   1      34.873  28.416  26.902  1.00  0.00    -0.084 Cl
ATOM     19  C   UNL A   1      31.784  30.787  26.089  1.00  0.00     0.042 A 
ATOM     20  Cl  UNL A   1      31.223  32.324  26.618  1.00  0.00    -0.084 Cl
ENDBRANCH  12  13
ENDBRANCH  10  12
ENDBRANCH   7  10
ENDBRANCH   6   7
ENDBRANCH   5   6
ENDBRANCH   4   5
ENDBRANCH   2   4
ENDBRANCH   1   2
BRANCH   1  21
ATOM     21  C   UNL A   1      35.757  21.098  25.314  1.00  0.00     0.274 C 
BRANCH  21  22
ATOM     22  C   UNL A   1      37.095  20.360  25.389  1.00  0.00     0.275 C 
BRANCH  22  23
ATOM     23  O   UNL A   1      38.184  21.276  25.202  1.00  0.00    -0.458 OA
BRANCH  23  24
ATOM     24  C   UNL A   1      39.258  21.014  25.982  1.00  0.00     0.338 C 
ATOM     25  O   UNL A   1      39.891  19.972  26.045  1.00  0.00    -0.246 OA
BRANCH  24  26
ATOM     26  C   UNL A   1      39.721  22.255  26.609  1.00  0.00     0.060 A 
ATOM     27  C   UNL A   1      39.216  23.444  26.087  1.00  0.00     0.016 A 
ATOM     28  C   UNL A   1      40.704  22.273  27.591  1.00  0.00     0.016 A 
ATOM     29  C   UNL A   1      39.715  24.665  26.496  1.00  0.00     0.010 A 
ATOM     30  C   UNL A   1      41.195  23.509  28.027  1.00  0.00     0.010 A 
ATOM     31  C   UNL A   1      40.725  24.708  27.459  1.00  0.00    -0.014 A 
BRANCH  31  32
ATOM     32  C   UNL A   1      41.327  26.019  27.784  1.00  0.00     0.031 A 
ATOM     33  C   UNL A   1      42.738  26.312  27.363  1.00  0.00     0.074 A 
ATOM     34  C   UNL A   1      40.581  26.957  28.398  1.00  0.00     0.049 A 
ATOM     35  N   UNL A   1      43.463  27.373  27.597  1.00  0.00    -0.248 NA
ATOM     36  C   UNL A   1      43.428  25.273  26.580  1.00  0.00     0.031 C 
ATOM     37  C   UNL A   1      39.189  26.783  28.822  1.00  0.00     0.029 A 
ATOM     38  N   UNL A   1      40.889  28.236  28.778  1.00  0.00    -0.354 N 
ATOM     39  C   UNL A   1      44.706  27.113  27.035  1.00  0.00     0.074 A 
ATOM     40  C   UNL A   1      44.643  25.788  26.458  1.00  0.00     0.031 C 
ATOM     41  C   UNL A   1      38.766  27.910  29.413  1.00  0.00     0.029 A 
ATOM     42  C   UNL A   1      39.871  28.860  29.461  1.00  0.00     0.049 A 
ATOM     43  H   UNL A   1      41.752  28.666  28.582  1.00  0.00     0.167 HD
ATOM     44  C   UNL A   1      45.797  27.914  26.992  1.00  0.00     0.034 A 
ATOM     45  C   UNL A   1      39.849  30.049  30.093  1.00  0.00     0.034 A 
ATOM     46  C   UNL A   1      45.836  29.240  27.547  1.00  0.00     0.049 A 
ATOM     47  C   UNL A   1      41.080  30.909  30.044  1.00  0.00     0.074 A 
ATOM     48  C   UNL A   1      46.882  30.144  27.550  1.00  0.00     0.029 A 
ATOM     49  N   UNL A   1      44.776  29.854  28.202  1.00  0.00    -0.354 N 
ATOM     50  N   UNL A   1      42.231  30.672  29.462  1.00  0.00    -0.248 NA
ATOM     51  C   UNL A   1      40.999  32.214  30.713  1.00  0.00     0.031 C 
ATOM     52  C   UNL A   1      46.466  31.293  28.230  1.00  0.00     0.029 A 
ATOM     53  C   UNL A   1      45.145  31.122  28.615  1.00  0.00     0.049 A 
ATOM     54  H   UNL A   1      43.893  29.447  28.350  1.00  0.00     0.167 HD
ATOM     55  C   UNL A   1      43.004  31.807  29.670  1.00  0.00     0.074 A 
ATOM     56  C   UNL A   1      42.173  32.745  30.400  1.00  0.00     0.031 C 
ATOM     57  C   UNL A   1      44.289  32.050  29.309  1.00  0.00     0.034 A 
BRANCH  44  58
ATOM     58  C   UNL A   1      47.031  27.379  26.311  1.00  0.00     0.023 A 
ATOM     59  C   UNL A   1      47.249  27.640  24.944  1.00  0.00     0.012 A 
ATOM     60  C   UNL A   1      47.997  26.654  27.037  1.00  0.00     0.148 A 
ATOM     61  C   UNL A   1      48.391  27.161  24.300  1.00  0.00     0.002 A 
ATOM     62  C   UNL A   1      49.155  26.221  26.402  1.00  0.00     0.091 A 
ATOM     63  F   UNL A   1      47.762  26.396  28.332  1.00  0.00    -0.205 F 
ATOM     64  C   UNL A   1      49.347  26.461  25.032  1.00  0.00     0.022 A 
BRANCH  62  65
ATOM     65  S   UNL A   1      50.483  25.379  27.270  1.00  0.00     0.127 S 
ATOM     66  O   UNL A   1      49.781  24.230  27.840  1.00  0.00    -0.237 OA
ATOM     67  O   UNL A   1      51.401  25.052  26.179  1.00  0.00    -0.237 OA
ATOM     68  O   UNL A   1      51.001  26.333  28.240  1.00  0.00    -0.744 OA
ENDBRANCH  62  65
ENDBRANCH  44  58
BRANCH  45  69
ATOM     69  C   UNL A   1      38.626  30.482  30.824  1.00  0.00     0.023 A 
ATOM     70  C   UNL A   1      38.481  30.185  32.192  1.00  0.00     0.012 A 
ATOM     71  C   UNL A   1      37.611  31.204  30.168  1.00  0.00     0.148 A 
ATOM     72  C   UNL A   1      37.330  30.566  32.884  1.00  0.00     0.002 A 
ATOM     73  C   UNL A   1      36.497  31.637  30.876  1.00  0.00     0.091 A 
ATOM     74  F   UNL A   1      37.759  31.465  28.861  1.00  0.00    -0.205 F 
ATOM     75  C   UNL A   1      36.344  31.301  32.230  1.00  0.00     0.022 A 
BRANCH  73  76
ATOM     76  S   UNL A   1      35.251  32.706  30.147  1.00  0.00     0.127 S 
ATOM     77  O   UNL A   1      34.724  31.864  29.077  1.00  0.00    -0.237 OA
ATOM     78  O   UNL A   1      34.339  32.918  31.272  1.00  0.00    -0.237 OA
ATOM     79  O   UNL A   1      35.963  33.903  29.720  1.00  0.00    -0.744 OA
ENDBRANCH  73  76
ENDBRANCH  45  69
BRANCH  57  80
ATOM     80  C   UNL A   1      44.855  33.399  29.668  1.00  0.00     0.023 A 
ATOM     81  C   UNL A   1      45.550  33.572  30.882  1.00  0.00     0.012 A 
ATOM     82  C   UNL A   1      44.721  34.489  28.786  1.00  0.00     0.148 A 
ATOM     83  C   UNL A   1      46.053  34.822  31.239  1.00  0.00     0.002 A 
ATOM     84  C   UNL A   1      45.276  35.718  29.122  1.00  0.00     0.091 A 
ATOM     85  F   UNL A   1      44.042  34.310  27.644  1.00  0.00    -0.205 F 
ATOM     86  C   UNL A   1      45.925  35.891  30.355  1.00  0.00     0.022 A 
BRANCH  84  87
ATOM     87  S   UNL A   1      45.247  37.121  28.002  1.00  0.00     0.127 S 
ATOM     88  O   UNL A   1      43.812  37.359  27.861  1.00  0.00    -0.237 OA
ATOM     89  O   UNL A   1      45.962  38.143  28.768  1.00  0.00    -0.237 OA
ATOM     90  O   UNL A   1      45.932  36.684  26.793  1.00  0.00    -0.744 OA
ENDBRANCH  84  87
ENDBRANCH  57  80
ENDBRANCH  31  32
ENDBRANCH  24  26
ENDBRANCH  23  24
ENDBRANCH  22  23
ENDBRANCH  21  22
ENDBRANCH   1  21
TORSDOF 20
ENDMDL
MODEL 3
REMARK VINA RESULT:     -10.3      5.153     10.072
REMARK SMILES CN(Cc1ccc(Cl)cc1Cl)S(=O)(=O)CCCC(=O)OCCOC(=O)c1ccc(-c2c3nc(c(-c4cccc(S(=O)(=O)[O-])c4F)c4ccc([nH]4)c(-c4cccc(S(=O)(=O)[O-])c4F)c4nc(c(-c5cccc(S(=O)(=O)[O-])c5F)c5ccc2[nH]5)C=C4)C=C3)cc1
REMARK SMILES IDX 20 1 18 2 19 3 17 4 16 5 15 6 12 7 13 8 14 9 2 10 1 11 3 12
REMARK SMILES IDX 4 13 5 14 10 15 6 16 9 17 11 18 7 19 8 20 21 21 22 22 23 23
REMARK SMILES IDX 24 24 25 25 26 26 27 27 88 28 28 29 87 30 29 31 30 32 31 33
REMARK SMILES IDX 81 34 32 35 86 36 80 37 82 38 33 39 85 40 79 41 78 42 34 44
REMARK SMILES IDX 66 45 46 46 65 47 47 48 50 49 64 50 83 51 48 52 49 53 63 55
REMARK SMILES IDX 84 56 51 57 35 58 36 59 44 60 37 61 39 62 45 63 38 64 40 65
REMARK SMILES IDX 41 66 42 67 43 68 67 69 68 70 76 71 69 72 71 73 77 74 70 75
REMARK SMILES IDX 72 76 73 77 74 78 75 79 52 80 53 81 61 82 54 83 56 84 62 85
REMARK SMILES IDX 55 86 57 87 58 88 59 89 60 90
REMARK H PARENT 82 43 50 54
REMARK Flexibility Score: inf
ROOT
ATOM      1  O   UNL A   1      30.729  29.665  23.995  1.00  0.00    -0.462 OA
ENDROOT
BRANCH   1   2
ATOM      2  C   UNL A   1      30.857  28.692  23.054  1.00  0.00     0.305 C 
ATOM      3  O   UNL A   1      29.933  28.262  22.377  1.00  0.00    -0.252 OA
BRANCH   2   4
ATOM      4  C   UNL A   1      32.263  28.119  22.968  1.00  0.00     0.124 C 
BRANCH   4   5
ATOM      5  C   UNL A   1      32.419  26.611  23.154  1.00  0.00     0.029 C 
BRANCH   5   6
ATOM      6  C   UNL A   1      31.351  25.910  23.989  1.00  0.00     0.155 C 
BRANCH   6   7
ATOM      7  S   UNL A   1      31.800  25.579  25.690  1.00  0.00     0.214 S 
ATOM      8  O   UNL A   1      30.703  26.003  26.536  1.00  0.00    -0.212 OA
ATOM      9  O   UNL A   1      33.120  26.129  25.900  1.00  0.00    -0.212 OA
BRANCH   7  10
ATOM     10  N   UNL A   1      31.919  23.899  25.781  1.00  0.00    -0.201 NA
ATOM     11  C   UNL A   1      30.910  23.242  26.632  1.00  0.00     0.124 C 
BRANCH  10  12
ATOM     12  C   UNL A   1      32.383  23.070  24.644  1.00  0.00     0.138 C 
BRANCH  12  13
ATOM     13  C   UNL A   1      33.678  22.323  24.807  1.00  0.00    -0.014 A 
ATOM     14  C   UNL A   1      34.877  23.063  24.842  1.00  0.00     0.008 A 
ATOM     15  C   UNL A   1      33.749  20.928  24.895  1.00  0.00     0.047 A 
ATOM     16  C   UNL A   1      36.112  22.423  24.861  1.00  0.00     0.021 A 
ATOM     17  C   UNL A   1      34.988  20.285  24.916  1.00  0.00     0.041 A 
ATOM     18  Cl  UNL A   1      32.340  19.938  25.024  1.00  0.00    -0.084 Cl
ATOM     19  C   UNL A   1      36.161  21.034  24.874  1.00  0.00     0.042 A 
ATOM     20  Cl  UNL A   1      37.683  20.237  24.838  1.00  0.00    -0.084 Cl
ENDBRANCH  12  13
ENDBRANCH  10  12
ENDBRANCH   7  10
ENDBRANCH   6   7
ENDBRANCH   5   6
ENDBRANCH   4   5
ENDBRANCH   2   4
ENDBRANCH   1   2
BRANCH   1  21
ATOM     21  C   UNL A   1      31.428  29.482  25.248  1.00  0.00     0.274 C 
BRANCH  21  22
ATOM     22  C   UNL A   1      31.596  30.811  25.984  1.00  0.00     0.275 C 
BRANCH  22  23
ATOM     23  O   UNL A   1      32.518  30.667  27.075  1.00  0.00    -0.458 OA
BRANCH  23  24
ATOM     24  C   UNL A   1      33.242  31.782  27.328  1.00  0.00     0.338 C 
ATOM     25  O   UNL A   1      32.837  32.932  27.380  1.00  0.00    -0.246 OA
BRANCH  24  26
ATOM     26  C   UNL A   1      34.588  31.401  27.765  1.00  0.00     0.060 A 
ATOM     27  C   UNL A   1      34.794  30.053  28.050  1.00  0.00     0.016 A 
ATOM     28  C   UNL A   1      35.586  32.338  28.008  1.00  0.00     0.016 A 
ATOM     29  C   UNL A   1      35.974  29.624  28.625  1.00  0.00     0.010 A 
ATOM     30  C   UNL A   1      36.792  31.904  28.568  1.00  0.00     0.010 A 
ATOM     31  C   UNL A   1      36.979  30.550  28.907  1.00  0.00    -0.014 A 
BRANCH  31  32
ATOM     32  C   UNL A   1      38.177  30.082  29.638  1.00  0.00     0.031 A 
ATOM     33  C   UNL A   1      38.439  30.581  31.029  1.00  0.00     0.074 A 
ATOM     34  C   UNL A   1      38.984  29.167  29.070  1.00  0.00     0.049 A 
ATOM     35  N   UNL A   1      39.454  30.337  31.814  1.00  0.00    -0.248 NA
ATOM     36  C   UNL A   1      37.429  31.479  31.615  1.00  0.00     0.031 C 
ATOM     37  C   UNL A   1      38.800  28.594  27.734  1.00  0.00     0.029 A 
ATOM     38  N   UNL A   1      40.119  28.563  29.539  1.00  0.00    -0.354 N 
ATOM     39  C   UNL A   1      39.232  31.084  32.964  1.00  0.00     0.074 A 
ATOM     40  C   UNL A   1      37.991  31.802  32.771  1.00  0.00     0.031 C 
ATOM     41  C   UNL A   1      39.796  27.730  27.486  1.00  0.00     0.029 A 
ATOM     42  C   UNL A   1      40.714  27.731  28.619  1.00  0.00     0.049 A 
ATOM     43  H   UNL A   1      40.476  28.708  30.445  1.00  0.00     0.167 HD
ATOM     44  C   UNL A   1      39.989  31.154  34.085  1.00  0.00     0.034 A 
ATOM     45  C   UNL A   1      41.891  27.079  28.668  1.00  0.00     0.034 A 
ATOM     46  C   UNL A   1      41.208  30.412  34.271  1.00  0.00     0.049 A 
ATOM     47  C   UNL A   1      42.719  27.189  29.917  1.00  0.00     0.074 A 
ATOM     48  C   UNL A   1      42.048  30.397  35.370  1.00  0.00     0.029 A 
ATOM     49  N   UNL A   1      41.762  29.554  33.332  1.00  0.00    -0.354 N 
ATOM     50  N   UNL A   1      42.469  27.856  31.018  1.00  0.00    -0.248 NA
ATOM     51  C   UNL A   1      43.975  26.429  29.943  1.00  0.00     0.031 C 
ATOM     52  C   UNL A   1      43.124  29.550  35.084  1.00  0.00     0.029 A 
ATOM     53  C   UNL A   1      42.935  29.005  33.823  1.00  0.00     0.049 A 
ATOM     54  H   UNL A   1      41.378  29.363  32.446  1.00  0.00     0.167 HD
ATOM     55  C   UNL A   1      43.523  27.579  31.878  1.00  0.00     0.074 A 
ATOM     56  C   UNL A   1      44.393  26.651  31.182  1.00  0.00     0.031 C 
ATOM     57  C   UNL A   1      43.764  28.057  33.125  1.00  0.00     0.034 A 
BRANCH  44  58
ATOM     58  C   UNL A   1      39.512  32.052  35.197  1.00  0.00     0.023 A 
ATOM     59  C   UNL A   1      39.773  33.435  35.144  1.00  0.00     0.012 A 
ATOM     60  C   UNL A   1      38.768  31.530  36.274  1.00  0.00     0.148 A 
ATOM     61  C   UNL A   1      39.330  34.283  36.161  1.00  0.00     0.002 A 
ATOM     62  C   UNL A   1      38.289  32.387  37.258  1.00  0.00     0.091 A 
ATOM     63  F   UNL A   1      38.550  30.208  36.320  1.00  0.00    -0.205 F 
ATOM     64  C   UNL A   1      38.580  33.760  37.211  1.00  0.00     0.022 A 
BRANCH  62  65
ATOM     65  S   UNL A   1      37.249  31.827  38.612  1.00  0.00     0.127 S 
ATOM     66  O   UNL A   1      38.084  32.137  39.773  1.00  0.00    -0.237 OA
ATOM     67  O   UNL A   1      36.070  32.679  38.464  1.00  0.00    -0.237 OA
ATOM     68  O   UNL A   1      37.012  30.409  38.381  1.00  0.00    -0.744 OA
ENDBRANCH  62  65
ENDBRANCH  44  58
BRANCH  45  69
ATOM     69  C   UNL A   1      42.348  26.278  27.499  1.00  0.00     0.023 A 
ATOM     70  C   UNL A   1      43.146  26.874  26.504  1.00  0.00     0.012 A 
ATOM     71  C   UNL A   1      42.007  24.916  27.380  1.00  0.00     0.148 A 
ATOM     72  C   UNL A   1      43.562  26.139  25.393  1.00  0.00     0.002 A 
ATOM     73  C   UNL A   1      42.478  24.173  26.305  1.00  0.00     0.091 A 
ATOM     74  F   UNL A   1      41.235  24.368  28.329  1.00  0.00    -0.205 F 
ATOM     75  C   UNL A   1      43.239  24.788  25.299  1.00  0.00     0.022 A 
BRANCH  73  76
ATOM     76  S   UNL A   1      42.228  22.400  26.179  1.00  0.00     0.127 S 
ATOM     77  O   UNL A   1      40.774  22.310  26.076  1.00  0.00    -0.237 OA
ATOM     78  O   UNL A   1      42.955  22.077  24.951  1.00  0.00    -0.237 OA
ATOM     79  O   UNL A   1      42.813  21.834  27.387  1.00  0.00    -0.744 OA
ENDBRANCH  73  76
ENDBRANCH  45  69
BRANCH  57  80
ATOM     80  C   UNL A   1      45.000  27.553  33.823  1.00  0.00     0.023 A 
ATOM     81  C   UNL A   1      46.213  28.261  33.710  1.00  0.00     0.012 A 
ATOM     82  C   UNL A   1      44.949  26.389  34.614  1.00  0.00     0.148 A 
ATOM     83  C   UNL A   1      47.370  27.788  34.328  1.00  0.00     0.002 A 
ATOM     84  C   UNL A   1      46.092  25.955  35.274  1.00  0.00     0.091 A 
ATOM     85  F   UNL A   1      43.791  25.718  34.695  1.00  0.00    -0.205 F 
ATOM     86  C   UNL A   1      47.307  26.642  35.117  1.00  0.00     0.022 A 
BRANCH  84  87
ATOM     87  S   UNL A   1      46.081  24.548  36.390  1.00  0.00     0.127 S 
ATOM     88  O   UNL A   1      45.966  23.430  35.456  1.00  0.00    -0.237 OA
ATOM     89  O   UNL A   1      47.383  24.664  37.047  1.00  0.00    -0.237 OA
ATOM     90  O   UNL A   1      44.940  24.747  37.273  1.00  0.00    -0.744 OA
ENDBRANCH  84  87
ENDBRANCH  57  80
ENDBRANCH  31  32
ENDBRANCH  24  26
ENDBRANCH  23  24
ENDBRANCH  22  23
ENDBRANCH  21  22
ENDBRANCH   1  21
TORSDOF 20
ENDMDL
