MODEL 1
REMARK VINA RESULT:     -12.8      0.000      0.000
REMARK SMILES Cc1c(CC(=O)OCCOC(=O)c2ccc(-c3c4nc(c(-c5cccc(S(=O)(=O)[O-])c5F)c5ccc([nH]5)c(-c5cccc(S(=O)(=O)[O-])c5F)c5nc(c(-c6cccc(S(=O)(=O)[O-])c6F)c6ccc3[nH]6)C=C5)C=C4)cc2)c2ccccc2n1C(=O)c1ccc(Cl)cc1
REMARK SMILES IDX 8 1 7 2 5 3 6 4 4 5 3 6 1 7 2 8 82 9 76 10 81 11 77 12 80 13
REMARK SMILES IDX 78 14 79 15 83 16 84 17 85 18 86 19 91 20 87 21 90 22 88 23
REMARK SMILES IDX 89 24 9 25 10 26 11 27 12 28 13 29 14 30 75 31 15 32 74 33
REMARK SMILES IDX 16 34 17 35 18 36 68 37 19 38 73 39 67 40 69 41 20 42 72 43
REMARK SMILES IDX 66 44 65 45 21 47 53 48 33 49 52 50 34 51 37 52 51 53 70 54
REMARK SMILES IDX 35 55 36 56 50 58 71 59 38 60 22 61 23 62 31 63 24 64 26 65
REMARK SMILES IDX 32 66 25 67 27 68 28 69 29 70 30 71 54 72 55 73 63 74 56 75
REMARK SMILES IDX 58 76 64 77 57 78 59 79 60 80 61 81 62 82 39 83 40 84 48 85
REMARK SMILES IDX 41 86 43 87 49 88 42 89 44 90 45 91 46 92 47 93
REMARK H PARENT 69 46 37 57
REMARK Flexibility Score: inf
ROOT
ATOM      1  C   UNL A   1      32.795  28.539  23.981  1.00  0.00     0.274 C 
ENDROOT
BRANCH   1   2
ATOM      2  O   UNL A   1      32.550  28.255  22.586  1.00  0.00    -0.462 OA
BRANCH   2   3
ATOM      3  C   UNL A   1      32.471  26.943  22.249  1.00  0.00     0.310 C 
ATOM      4  O   UNL A   1      31.564  26.469  21.569  1.00  0.00    -0.252 OA
BRANCH   3   5
ATOM      5  C   UNL A   1      33.587  26.076  22.778  1.00  0.00     0.160 C 
BRANCH   5   6
ATOM      6  C   UNL A   1      33.285  24.988  23.776  1.00  0.00    -0.008 A 
ATOM      7  C   UNL A   1      35.590  23.780  23.725  1.00  0.00     0.065 C 
ATOM      8  C   UNL A   1      34.182  24.008  24.182  1.00  0.00     0.028 A 
ATOM      9  N   UNL A   1      33.579  23.216  25.164  1.00  0.00    -0.280 N 
ATOM     10  C   UNL A   1      32.145  24.877  24.634  1.00  0.00     0.004 A 
ATOM     11  C   UNL A   1      32.383  23.841  25.544  1.00  0.00     0.056 A 
ATOM     12  C   UNL A   1      30.946  25.610  24.765  1.00  0.00     0.010 A 
ATOM     13  C   UNL A   1      31.480  23.608  26.610  1.00  0.00     0.027 A 
ATOM     14  C   UNL A   1      30.047  25.367  25.805  1.00  0.00     0.001 A 
ATOM     15  C   UNL A   1      30.319  24.375  26.725  1.00  0.00     0.002 A 
BRANCH   9  16
ATOM     16  C   UNL A   1      34.105  22.004  25.691  1.00  0.00     0.262 C 
ATOM     17  O   UNL A   1      34.735  22.021  26.747  1.00  0.00    -0.268 OA
BRANCH  16  18
ATOM     18  C   UNL A   1      33.981  20.693  25.047  1.00  0.00     0.040 A 
ATOM     19  C   UNL A   1      32.767  20.304  24.470  1.00  0.00     0.015 A 
ATOM     20  C   UNL A   1      35.085  19.834  25.063  1.00  0.00     0.015 A 
ATOM     21  C   UNL A   1      32.643  19.014  23.955  1.00  0.00     0.021 A 
ATOM     22  C   UNL A   1      34.952  18.546  24.545  1.00  0.00     0.021 A 
ATOM     23  C   UNL A   1      33.731  18.140  24.004  1.00  0.00     0.041 A 
ATOM     24  Cl  UNL A   1      33.558  16.534  23.410  1.00  0.00    -0.084 Cl
ENDBRANCH  16  18
ENDBRANCH   9  16
ENDBRANCH   5   6
ENDBRANCH   3   5
ENDBRANCH   2   3
ENDBRANCH   1   2
BRANCH   1  25
ATOM     25  C   UNL A   1      31.635  29.337  24.584  1.00  0.00     0.275 C 
BRANCH  25  26
ATOM     26  O   UNL A   1      32.175  30.410  25.365  1.00  0.00    -0.458 OA
BRANCH  26  27
ATOM     27  C   UNL A   1      32.250  30.225  26.705  1.00  0.00     0.338 C 
ATOM     28  O   UNL A   1      31.425  29.696  27.428  1.00  0.00    -0.246 OA
BRANCH  27  29
ATOM     29  C   UNL A   1      33.659  30.482  27.053  1.00  0.00     0.060 A 
ATOM     30  C   UNL A   1      34.528  29.414  27.278  1.00  0.00     0.016 A 
ATOM     31  C   UNL A   1      34.038  31.795  27.362  1.00  0.00     0.016 A 
ATOM     32  C   UNL A   1      35.738  29.656  27.909  1.00  0.00     0.010 A 
ATOM     33  C   UNL A   1      35.229  32.029  28.035  1.00  0.00     0.010 A 
ATOM     34  C   UNL A   1      36.062  30.955  28.331  1.00  0.00    -0.014 A 
BRANCH  34  35
ATOM     35  C   UNL A   1      37.421  31.187  28.778  1.00  0.00     0.031 A 
ATOM     36  C   UNL A   1      38.273  29.986  28.640  1.00  0.00     0.074 A 
ATOM     37  C   UNL A   1      37.978  32.308  29.263  1.00  0.00     0.049 A 
ATOM     38  N   UNL A   1      38.539  29.131  29.570  1.00  0.00    -0.248 NA
ATOM     39  C   UNL A   1      38.769  29.625  27.309  1.00  0.00     0.031 C 
ATOM     40  C   UNL A   1      37.510  33.688  29.219  1.00  0.00     0.029 A 
ATOM     41  N   UNL A   1      39.197  32.404  29.867  1.00  0.00    -0.354 N 
ATOM     42  C   UNL A   1      39.403  28.216  28.992  1.00  0.00     0.074 A 
ATOM     43  C   UNL A   1      39.386  28.472  27.572  1.00  0.00     0.031 C 
ATOM     44  C   UNL A   1      38.527  34.506  29.592  1.00  0.00     0.029 A 
ATOM     45  C   UNL A   1      39.654  33.699  30.042  1.00  0.00     0.049 A 
ATOM     46  H   UNL A   1      39.711  31.615  30.154  1.00  0.00     0.167 HD
ATOM     47  C   UNL A   1      40.222  27.437  29.746  1.00  0.00     0.034 A 
ATOM     48  C   UNL A   1      40.891  34.036  30.478  1.00  0.00     0.034 A 
ATOM     49  C   UNL A   1      39.890  27.475  31.145  1.00  0.00     0.049 A 
ATOM     50  C   UNL A   1      41.400  32.884  31.272  1.00  0.00     0.074 A 
ATOM     51  C   UNL A   1      38.750  27.221  31.884  1.00  0.00     0.029 A 
ATOM     52  N   UNL A   1      40.720  28.192  31.972  1.00  0.00    -0.354 N 
ATOM     53  N   UNL A   1      40.915  32.515  32.427  1.00  0.00    -0.248 NA
ATOM     54  C   UNL A   1      42.271  31.914  30.627  1.00  0.00     0.031 C 
ATOM     55  C   UNL A   1      38.759  28.197  32.922  1.00  0.00     0.029 A 
ATOM     56  C   UNL A   1      39.913  28.968  32.762  1.00  0.00     0.049 A 
ATOM     57  H   UNL A   1      41.703  28.155  31.993  1.00  0.00     0.167 HD
ATOM     58  C   UNL A   1      41.075  31.136  32.456  1.00  0.00     0.074 A 
ATOM     59  C   UNL A   1      42.023  30.845  31.386  1.00  0.00     0.031 C 
ATOM     60  C   UNL A   1      40.220  30.328  33.152  1.00  0.00     0.034 A 
BRANCH  47  61
ATOM     61  C   UNL A   1      41.523  26.874  29.260  1.00  0.00     0.023 A 
ATOM     62  C   UNL A   1      42.651  27.720  29.265  1.00  0.00     0.012 A 
ATOM     63  C   UNL A   1      41.635  25.639  28.586  1.00  0.00     0.148 A 
ATOM     64  C   UNL A   1      43.834  27.356  28.619  1.00  0.00     0.002 A 
ATOM     65  C   UNL A   1      42.841  25.243  28.024  1.00  0.00     0.091 A 
ATOM     66  F   UNL A   1      40.543  24.897  28.366  1.00  0.00    -0.205 F 
ATOM     67  C   UNL A   1      43.937  26.108  28.014  1.00  0.00     0.022 A 
BRANCH  65  68
ATOM     68  S   UNL A   1      43.027  23.609  27.307  1.00  0.00     0.127 S 
ATOM     69  O   UNL A   1      42.194  23.714  26.113  1.00  0.00    -0.237 OA
ATOM     70  O   UNL A   1      44.467  23.546  27.056  1.00  0.00    -0.237 OA
ATOM     71  O   UNL A   1      42.566  22.693  28.343  1.00  0.00    -0.744 OA
ENDBRANCH  65  68
ENDBRANCH  47  61
BRANCH  48  72
ATOM     72  C   UNL A   1      41.759  35.196  30.149  1.00  0.00     0.023 A 
ATOM     73  C   UNL A   1      42.755  35.588  31.070  1.00  0.00     0.012 A 
ATOM     74  C   UNL A   1      41.818  35.745  28.849  1.00  0.00     0.148 A 
ATOM     75  C   UNL A   1      43.799  36.444  30.698  1.00  0.00     0.002 A 
ATOM     76  C   UNL A   1      42.847  36.614  28.489  1.00  0.00     0.091 A 
ATOM     77  F   UNL A   1      40.931  35.345  27.928  1.00  0.00    -0.205 F 
ATOM     78  C   UNL A   1      43.849  36.953  29.405  1.00  0.00     0.022 A 
BRANCH  76  79
ATOM     79  S   UNL A   1      42.947  37.307  26.833  1.00  0.00     0.127 S 
ATOM     80  O   UNL A   1      44.187  38.082  26.888  1.00  0.00    -0.237 OA
ATOM     81  O   UNL A   1      43.012  36.109  26.001  1.00  0.00    -0.237 OA
ATOM     82  O   UNL A   1      41.747  38.122  26.690  1.00  0.00    -0.744 OA
ENDBRANCH  76  79
ENDBRANCH  48  72
BRANCH  60  83
ATOM     83  C   UNL A   1      39.281  30.947  34.156  1.00  0.00     0.023 A 
ATOM     84  C   UNL A   1      39.598  31.008  35.529  1.00  0.00     0.012 A 
ATOM     85  C   UNL A   1      38.173  31.676  33.680  1.00  0.00     0.148 A 
ATOM     86  C   UNL A   1      38.821  31.767  36.408  1.00  0.00     0.002 A 
ATOM     87  C   UNL A   1      37.432  32.468  34.550  1.00  0.00     0.091 A 
ATOM     88  F   UNL A   1      37.894  31.618  32.369  1.00  0.00    -0.205 F 
ATOM     89  C   UNL A   1      37.749  32.508  35.917  1.00  0.00     0.022 A 
BRANCH  87  90
ATOM     90  S   UNL A   1      36.124  33.557  33.975  1.00  0.00     0.127 S 
ATOM     91  O   UNL A   1      35.302  33.708  35.174  1.00  0.00    -0.237 OA
ATOM     92  O   UNL A   1      36.868  34.757  33.589  1.00  0.00    -0.237 OA
ATOM     93  O   UNL A   1      35.480  32.868  32.864  1.00  0.00    -0.744 OA
ENDBRANCH  87  90
ENDBRANCH  60  83
ENDBRANCH  34  35
ENDBRANCH  27  29
ENDBRANCH  26  27
ENDBRANCH  25  26
ENDBRANCH   1  25
TORSDOF 17
ENDMDL
MODEL 2
REMARK VINA RESULT:     -12.8      3.628      7.983
REMARK SMILES Cc1c(CC(=O)OCCOC(=O)c2ccc(-c3c4nc(c(-c5cccc(S(=O)(=O)[O-])c5F)c5ccc([nH]5)c(-c5cccc(S(=O)(=O)[O-])c5F)c5nc(c(-c6cccc(S(=O)(=O)[O-])c6F)c6ccc3[nH]6)C=C5)C=C4)cc2)c2ccccc2n1C(=O)c1ccc(Cl)cc1
REMARK SMILES IDX 8 1 7 2 5 3 6 4 4 5 3 6 1 7 2 8 82 9 76 10 81 11 77 12 80 13
REMARK SMILES IDX 78 14 79 15 83 16 84 17 85 18 86 19 91 20 87 21 90 22 88 23
REMARK SMILES IDX 89 24 9 25 10 26 11 27 12 28 13 29 14 30 75 31 15 32 74 33
REMARK SMILES IDX 16 34 17 35 18 36 68 37 19 38 73 39 67 40 69 41 20 42 72 43
REMARK SMILES IDX 66 44 65 45 21 47 53 48 33 49 52 50 34 51 37 52 51 53 70 54
REMARK SMILES IDX 35 55 36 56 50 58 71 59 38 60 22 61 23 62 31 63 24 64 26 65
REMARK SMILES IDX 32 66 25 67 27 68 28 69 29 70 30 71 54 72 55 73 63 74 56 75
REMARK SMILES IDX 58 76 64 77 57 78 59 79 60 80 61 81 62 82 39 83 40 84 48 85
REMARK SMILES IDX 41 86 43 87 49 88 42 89 44 90 45 91 46 92 47 93
REMARK H PARENT 69 46 37 57
REMARK Flexibility Score: inf
ROOT
ATOM      1  C   UNL A   1      32.010  30.156  26.752  1.00  0.00     0.274 C 
ENDROOT
BRANCH   1   2
ATOM      2  O   UNL A   1      31.364  30.103  25.462  1.00  0.00    -0.462 OA
BRANCH   2   3
ATOM      3  C   UNL A   1      31.038  28.866  25.009  1.00  0.00     0.310 C 
ATOM      4  O   UNL A   1      30.564  28.652  23.896  1.00  0.00    -0.252 OA
BRANCH   3   5
ATOM      5  C   UNL A   1      31.295  27.739  25.978  1.00  0.00     0.160 C 
BRANCH   5   6
ATOM      6  C   UNL A   1      31.861  26.434  25.482  1.00  0.00    -0.008 A 
ATOM      7  C   UNL A   1      34.057  27.351  24.428  1.00  0.00     0.065 C 
ATOM      8  C   UNL A   1      33.075  26.291  24.822  1.00  0.00     0.028 A 
ATOM      9  N   UNL A   1      33.303  24.934  24.575  1.00  0.00    -0.280 N 
ATOM     10  C   UNL A   1      31.396  25.111  25.769  1.00  0.00     0.004 A 
ATOM     11  C   UNL A   1      32.343  24.201  25.287  1.00  0.00     0.056 A 
ATOM     12  C   UNL A   1      30.277  24.598  26.459  1.00  0.00     0.010 A 
ATOM     13  C   UNL A   1      32.211  22.819  25.568  1.00  0.00     0.027 A 
ATOM     14  C   UNL A   1      30.138  23.233  26.719  1.00  0.00     0.001 A 
ATOM     15  C   UNL A   1      31.105  22.352  26.281  1.00  0.00     0.002 A 
BRANCH   9  16
ATOM     16  C   UNL A   1      34.342  24.402  23.762  1.00  0.00     0.262 C 
ATOM     17  O   UNL A   1      34.242  24.448  22.537  1.00  0.00    -0.268 OA
BRANCH  16  18
ATOM     18  C   UNL A   1      35.553  23.755  24.275  1.00  0.00     0.040 A 
ATOM     19  C   UNL A   1      36.071  22.623  23.636  1.00  0.00     0.015 A 
ATOM     20  C   UNL A   1      36.145  24.269  25.433  1.00  0.00     0.015 A 
ATOM     21  C   UNL A   1      37.162  21.964  24.202  1.00  0.00     0.021 A 
ATOM     22  C   UNL A   1      37.237  23.606  25.991  1.00  0.00     0.021 A 
ATOM     23  C   UNL A   1      37.733  22.452  25.380  1.00  0.00     0.041 A 
ATOM     24  Cl  UNL A   1      39.050  21.609  26.097  1.00  0.00    -0.084 Cl
ENDBRANCH  16  18
ENDBRANCH   9  16
ENDBRANCH   5   6
ENDBRANCH   3   5
ENDBRANCH   2   3
ENDBRANCH   1   2
BRANCH   1  25
ATOM     25  C   UNL A   1      33.369  30.856  26.650  1.00  0.00     0.275 C 
BRANCH  25  26
ATOM     26  O   UNL A   1      33.881  31.056  27.974  1.00  0.00    -0.458 OA
BRANCH  26  27
ATOM     27  C   UNL A   1      34.927  31.906  28.111  1.00  0.00     0.338 C 
ATOM     28  O   UNL A   1      34.897  33.123  28.134  1.00  0.00    -0.246 OA
BRANCH  27  29
ATOM     29  C   UNL A   1      36.052  31.066  28.562  1.00  0.00     0.060 A 
ATOM     30  C   UNL A   1      37.256  31.659  28.941  1.00  0.00     0.016 A 
ATOM     31  C   UNL A   1      35.955  29.679  28.393  1.00  0.00     0.016 A 
ATOM     32  C   UNL A   1      38.389  30.867  29.049  1.00  0.00     0.010 A 
ATOM     33  C   UNL A   1      37.098  28.895  28.456  1.00  0.00     0.010 A 
ATOM     34  C   UNL A   1      38.316  29.496  28.757  1.00  0.00    -0.014 A 
BRANCH  34  35
ATOM     35  C   UNL A   1      39.466  28.683  29.100  1.00  0.00     0.031 A 
ATOM     36  C   UNL A   1      39.810  28.771  30.536  1.00  0.00     0.074 A 
ATOM     37  C   UNL A   1      40.209  27.885  28.316  1.00  0.00     0.049 A 
ATOM     38  N   UNL A   1      40.704  29.543  31.057  1.00  0.00    -0.248 NA
ATOM     39  C   UNL A   1      38.994  28.031  31.502  1.00  0.00     0.031 C 
ATOM     40  C   UNL A   1      39.940  27.355  26.986  1.00  0.00     0.029 A 
ATOM     41  N   UNL A   1      41.404  27.318  28.650  1.00  0.00    -0.354 N 
ATOM     42  C   UNL A   1      40.702  29.247  32.410  1.00  0.00     0.074 A 
ATOM     43  C   UNL A   1      39.534  28.434  32.652  1.00  0.00     0.031 C 
ATOM     44  C   UNL A   1      40.848  26.383  26.711  1.00  0.00     0.029 A 
ATOM     45  C   UNL A   1      41.841  26.338  27.777  1.00  0.00     0.049 A 
ATOM     46  H   UNL A   1      41.914  27.585  29.449  1.00  0.00     0.167 HD
ATOM     47  C   UNL A   1      41.769  29.529  33.201  1.00  0.00     0.034 A 
ATOM     48  C   UNL A   1      42.915  25.537  27.979  1.00  0.00     0.034 A 
ATOM     49  C   UNL A   1      42.727  30.386  32.556  1.00  0.00     0.049 A 
ATOM     50  C   UNL A   1      43.828  26.262  28.904  1.00  0.00     0.074 A 
ATOM     51  C   UNL A   1      42.675  31.630  31.956  1.00  0.00     0.029 A 
ATOM     52  N   UNL A   1      43.898  29.812  32.123  1.00  0.00    -0.354 N 
ATOM     53  N   UNL A   1      44.489  27.343  28.589  1.00  0.00    -0.248 NA
ATOM     54  C   UNL A   1      43.774  25.961  30.326  1.00  0.00     0.031 C 
ATOM     55  C   UNL A   1      43.554  31.538  30.839  1.00  0.00     0.029 A 
ATOM     56  C   UNL A   1      44.102  30.254  30.843  1.00  0.00     0.049 A 
ATOM     57  H   UNL A   1      44.476  29.201  32.634  1.00  0.00     0.167 HD
ATOM     58  C   UNL A   1      44.570  28.068  29.771  1.00  0.00     0.074 A 
ATOM     59  C   UNL A   1      44.228  27.114  30.821  1.00  0.00     0.031 C 
ATOM     60  C   UNL A   1      44.632  29.433  29.773  1.00  0.00     0.034 A 
BRANCH  47  61
ATOM     61  C   UNL A   1      42.101  28.783  34.458  1.00  0.00     0.023 A 
ATOM     62  C   UNL A   1      42.378  29.534  35.618  1.00  0.00     0.012 A 
ATOM     63  C   UNL A   1      42.380  27.400  34.493  1.00  0.00     0.148 A 
ATOM     64  C   UNL A   1      42.918  28.936  36.758  1.00  0.00     0.002 A 
ATOM     65  C   UNL A   1      42.831  26.795  35.658  1.00  0.00     0.091 A 
ATOM     66  F   UNL A   1      42.340  26.681  33.364  1.00  0.00    -0.205 F 
ATOM     67  C   UNL A   1      43.127  27.562  36.786  1.00  0.00     0.022 A 
BRANCH  65  68
ATOM     68  S   UNL A   1      43.034  25.015  35.749  1.00  0.00     0.127 S 
ATOM     69  O   UNL A   1      43.523  24.843  37.113  1.00  0.00    -0.237 OA
ATOM     70  O   UNL A   1      41.670  24.539  35.513  1.00  0.00    -0.237 OA
ATOM     71  O   UNL A   1      43.968  24.691  34.678  1.00  0.00    -0.744 OA
ENDBRANCH  65  68
ENDBRANCH  47  61
BRANCH  48  72
ATOM     72  C   UNL A   1      43.170  24.129  27.581  1.00  0.00     0.023 A 
ATOM     73  C   UNL A   1      42.339  23.111  28.099  1.00  0.00     0.012 A 
ATOM     74  C   UNL A   1      44.018  23.795  26.503  1.00  0.00     0.148 A 
ATOM     75  C   UNL A   1      42.310  21.830  27.532  1.00  0.00     0.002 A 
ATOM     76  C   UNL A   1      44.002  22.513  25.955  1.00  0.00     0.091 A 
ATOM     77  F   UNL A   1      44.770  24.750  25.940  1.00  0.00    -0.205 F 
ATOM     78  C   UNL A   1      43.138  21.532  26.455  1.00  0.00     0.022 A 
BRANCH  76  79
ATOM     79  S   UNL A   1      45.063  22.076  24.570  1.00  0.00     0.127 S 
ATOM     80  O   UNL A   1      44.722  23.095  23.575  1.00  0.00    -0.237 OA
ATOM     81  O   UNL A   1      46.397  22.210  25.149  1.00  0.00    -0.237 OA
ATOM     82  O   UNL A   1      44.660  20.726  24.194  1.00  0.00    -0.744 OA
ENDBRANCH  76  79
ENDBRANCH  48  72
BRANCH  60  83
ATOM     83  C   UNL A   1      44.933  30.156  28.484  1.00  0.00     0.023 A 
ATOM     84  C   UNL A   1      43.908  30.579  27.614  1.00  0.00     0.012 A 
ATOM     85  C   UNL A   1      46.247  30.611  28.260  1.00  0.00     0.148 A 
ATOM     86  C   UNL A   1      44.187  31.427  26.539  1.00  0.00     0.002 A 
ATOM     87  C   UNL A   1      46.513  31.492  27.218  1.00  0.00     0.091 A 
ATOM     88  F   UNL A   1      47.209  30.209  29.106  1.00  0.00    -0.205 F 
ATOM     89  C   UNL A   1      45.485  31.895  26.350  1.00  0.00     0.022 A 
BRANCH  87  90
ATOM     90  S   UNL A   1      48.127  32.248  26.991  1.00  0.00     0.127 S 
ATOM     91  O   UNL A   1      47.879  33.175  25.889  1.00  0.00    -0.237 OA
ATOM     92  O   UNL A   1      48.355  32.887  28.288  1.00  0.00    -0.237 OA
ATOM     93  O   UNL A   1      49.047  31.158  26.690  1.00  0.00    -0.744 OA
ENDBRANCH  87  90
ENDBRANCH  60  83
ENDBRANCH  34  35
ENDBRANCH  27  29
ENDBRANCH  26  27
ENDBRANCH  25  26
ENDBRANCH   1  25
TORSDOF 17
ENDMDL
MODEL 3
REMARK VINA RESULT:     -12.8      3.806      9.980
REMARK SMILES Cc1c(CC(=O)OCCOC(=O)c2ccc(-c3c4nc(c(-c5cccc(S(=O)(=O)[O-])c5F)c5ccc([nH]5)c(-c5cccc(S(=O)(=O)[O-])c5F)c5nc(c(-c6cccc(S(=O)(=O)[O-])c6F)c6ccc3[nH]6)C=C5)C=C4)cc2)c2ccccc2n1C(=O)c1ccc(Cl)cc1
REMARK SMILES IDX 8 1 7 2 5 3 6 4 4 5 3 6 1 7 2 8 82 9 76 10 81 11 77 12 80 13
REMARK SMILES IDX 78 14 79 15 83 16 84 17 85 18 86 19 91 20 87 21 90 22 88 23
REMARK SMILES IDX 89 24 9 25 10 26 11 27 12 28 13 29 14 30 75 31 15 32 74 33
REMARK SMILES IDX 16 34 17 35 18 36 68 37 19 38 73 39 67 40 69 41 20 42 72 43
REMARK SMILES IDX 66 44 65 45 21 47 53 48 33 49 52 50 34 51 37 52 51 53 70 54
REMARK SMILES IDX 35 55 36 56 50 58 71 59 38 60 22 61 23 62 31 63 24 64 26 65
REMARK SMILES IDX 32 66 25 67 27 68 28 69 29 70 30 71 54 72 55 73 63 74 56 75
REMARK SMILES IDX 58 76 64 77 57 78 59 79 60 80 61 81 62 82 39 83 40 84 48 85
REMARK SMILES IDX 41 86 43 87 49 88 42 89 44 90 45 91 46 92 47 93
REMARK H PARENT 69 46 37 57
REMARK Flexibility Score: inf
ROOT
ATOM      1  C   UNL A   1      34.622  21.261  25.244  1.00  0.00     0.274 C 
ENDROOT
BRANCH   1   2
ATOM      2  O   UNL A   1      33.465  20.961  26.054  1.00  0.00    -0.462 OA
BRANCH   2   3
ATOM      3  C   UNL A   1      32.284  20.860  25.392  1.00  0.00     0.310 C 
ATOM      4  O   UNL A   1      32.009  19.937  24.628  1.00  0.00    -0.252 OA
BRANCH   3   5
ATOM      5  C   UNL A   1      31.306  21.978  25.651  1.00  0.00     0.160 C 
BRANCH   5   6
ATOM      6  C   UNL A   1      31.417  23.268  24.879  1.00  0.00    -0.008 A 
ATOM      7  C   UNL A   1      30.757  24.909  26.788  1.00  0.00     0.065 C 
ATOM      8  C   UNL A   1      31.187  24.534  25.403  1.00  0.00     0.028 A 
ATOM      9  N   UNL A   1      31.450  25.491  24.419  1.00  0.00    -0.280 N 
ATOM     10  C   UNL A   1      31.971  23.463  23.574  1.00  0.00     0.004 A 
ATOM     11  C   UNL A   1      32.072  24.840  23.344  1.00  0.00     0.056 A 
ATOM     12  C   UNL A   1      32.461  22.589  22.580  1.00  0.00     0.010 A 
ATOM     13  C   UNL A   1      32.728  25.323  22.185  1.00  0.00     0.027 A 
ATOM     14  C   UNL A   1      33.091  23.066  21.429  1.00  0.00     0.001 A 
ATOM     15  C   UNL A   1      33.228  24.426  21.239  1.00  0.00     0.002 A 
BRANCH   9  16
ATOM     16  C   UNL A   1      31.155  26.879  24.512  1.00  0.00     0.262 C 
ATOM     17  O   UNL A   1      30.124  27.319  24.007  1.00  0.00    -0.268 OA
BRANCH  16  18
ATOM     18  C   UNL A   1      32.020  27.872  25.157  1.00  0.00     0.040 A 
ATOM     19  C   UNL A   1      33.345  27.553  25.473  1.00  0.00     0.015 A 
ATOM     20  C   UNL A   1      31.476  29.119  25.482  1.00  0.00     0.015 A 
ATOM     21  C   UNL A   1      34.116  28.477  26.178  1.00  0.00     0.021 A 
ATOM     22  C   UNL A   1      32.254  30.037  26.186  1.00  0.00     0.021 A 
ATOM     23  C   UNL A   1      33.564  29.708  26.539  1.00  0.00     0.041 A 
ATOM     24  Cl  UNL A   1      34.506  30.826  27.449  1.00  0.00    -0.084 Cl
ENDBRANCH  16  18
ENDBRANCH   9  16
ENDBRANCH   5   6
ENDBRANCH   3   5
ENDBRANCH   2   3
ENDBRANCH   1   2
BRANCH   1  25
ATOM     25  C   UNL A   1      35.521  20.028  25.103  1.00  0.00     0.275 C 
BRANCH  25  26
ATOM     26  O   UNL A   1      36.850  20.383  25.504  1.00  0.00    -0.458 OA
BRANCH  26  27
ATOM     27  C   UNL A   1      37.483  21.336  24.778  1.00  0.00     0.338 C 
ATOM     28  O   UNL A   1      37.251  21.670  23.630  1.00  0.00    -0.246 OA
BRANCH  27  29
ATOM     29  C   UNL A   1      38.268  22.110  25.757  1.00  0.00     0.060 A 
ATOM     30  C   UNL A   1      37.995  23.464  25.954  1.00  0.00     0.016 A 
ATOM     31  C   UNL A   1      39.411  21.519  26.307  1.00  0.00     0.016 A 
ATOM     32  C   UNL A   1      38.928  24.245  26.618  1.00  0.00     0.010 A 
ATOM     33  C   UNL A   1      40.365  22.310  26.931  1.00  0.00     0.010 A 
ATOM     34  C   UNL A   1      40.132  23.676  27.061  1.00  0.00    -0.014 A 
BRANCH  34  35
ATOM     35  C   UNL A   1      40.962  24.478  27.938  1.00  0.00     0.031 A 
ATOM     36  C   UNL A   1      40.367  25.802  28.223  1.00  0.00     0.074 A 
ATOM     37  C   UNL A   1      42.139  24.174  28.509  1.00  0.00     0.049 A 
ATOM     38  N   UNL A   1      40.642  26.906  27.613  1.00  0.00    -0.248 NA
ATOM     39  C   UNL A   1      39.264  25.885  29.184  1.00  0.00     0.031 C 
ATOM     40  C   UNL A   1      42.799  22.886  28.679  1.00  0.00     0.029 A 
ATOM     41  N   UNL A   1      42.972  25.047  29.147  1.00  0.00    -0.354 N 
ATOM     42  C   UNL A   1      39.882  27.875  28.248  1.00  0.00     0.074 A 
ATOM     43  C   UNL A   1      38.944  27.176  29.091  1.00  0.00     0.031 C 
ATOM     44  C   UNL A   1      43.830  23.036  29.550  1.00  0.00     0.029 A 
ATOM     45  C   UNL A   1      43.988  24.449  29.871  1.00  0.00     0.049 A 
ATOM     46  H   UNL A   1      42.858  26.023  29.095  1.00  0.00     0.167 HD
ATOM     47  C   UNL A   1      40.211  29.192  28.181  1.00  0.00     0.034 A 
ATOM     48  C   UNL A   1      44.840  25.099  30.700  1.00  0.00     0.034 A 
ATOM     49  C   UNL A   1      41.216  29.463  27.190  1.00  0.00     0.049 A 
ATOM     50  C   UNL A   1      44.898  26.513  30.240  1.00  0.00     0.074 A 
ATOM     51  C   UNL A   1      41.338  29.229  25.834  1.00  0.00     0.029 A 
ATOM     52  N   UNL A   1      42.487  29.735  27.637  1.00  0.00    -0.354 N 
ATOM     53  N   UNL A   1      45.438  26.900  29.116  1.00  0.00    -0.248 NA
ATOM     54  C   UNL A   1      44.056  27.502  30.897  1.00  0.00     0.031 C 
ATOM     55  C   UNL A   1      42.710  28.899  25.638  1.00  0.00     0.029 A 
ATOM     56  C   UNL A   1      43.341  28.976  26.882  1.00  0.00     0.049 A 
ATOM     57  H   UNL A   1      42.735  30.355  28.360  1.00  0.00     0.167 HD
ATOM     58  C   UNL A   1      44.687  27.999  28.720  1.00  0.00     0.074 A 
ATOM     59  C   UNL A   1      43.941  28.394  29.910  1.00  0.00     0.031 C 
ATOM     60  C   UNL A   1      44.522  28.317  27.401  1.00  0.00     0.034 A 
BRANCH  47  61
ATOM     61  C   UNL A   1      39.842  30.200  29.226  1.00  0.00     0.023 A 
ATOM     62  C   UNL A   1      40.638  30.268  30.388  1.00  0.00     0.012 A 
ATOM     63  C   UNL A   1      38.624  30.913  29.227  1.00  0.00     0.148 A 
ATOM     64  C   UNL A   1      40.236  31.007  31.502  1.00  0.00     0.002 A 
ATOM     65  C   UNL A   1      38.272  31.718  30.302  1.00  0.00     0.091 A 
ATOM     66  F   UNL A   1      37.734  30.716  28.247  1.00  0.00    -0.205 F 
ATOM     67  C   UNL A   1      39.061  31.749  31.453  1.00  0.00     0.022 A 
BRANCH  65  68
ATOM     68  S   UNL A   1      36.804  32.748  30.235  1.00  0.00     0.127 S 
ATOM     69  O   UNL A   1      35.748  31.772  30.482  1.00  0.00    -0.237 OA
ATOM     70  O   UNL A   1      37.043  33.693  31.327  1.00  0.00    -0.237 OA
ATOM     71  O   UNL A   1      36.834  33.354  28.910  1.00  0.00    -0.744 OA
ENDBRANCH  65  68
ENDBRANCH  47  61
BRANCH  48  72
ATOM     72  C   UNL A   1      45.496  24.664  31.959  1.00  0.00     0.023 A 
ATOM     73  C   UNL A   1      46.719  25.262  32.335  1.00  0.00     0.012 A 
ATOM     74  C   UNL A   1      44.823  23.888  32.929  1.00  0.00     0.148 A 
ATOM     75  C   UNL A   1      47.223  25.144  33.636  1.00  0.00     0.002 A 
ATOM     76  C   UNL A   1      45.339  23.755  34.217  1.00  0.00     0.091 A 
ATOM     77  F   UNL A   1      43.628  23.361  32.632  1.00  0.00    -0.205 F 
ATOM     78  C   UNL A   1      46.529  24.395  34.581  1.00  0.00     0.022 A 
BRANCH  76  79
ATOM     79  S   UNL A   1      44.485  22.786  35.469  1.00  0.00     0.127 S 
ATOM     80  O   UNL A   1      44.532  21.434  34.910  1.00  0.00    -0.237 OA
ATOM     81  O   UNL A   1      45.326  22.992  36.645  1.00  0.00    -0.237 OA
ATOM     82  O   UNL A   1      43.142  23.351  35.535  1.00  0.00    -0.744 OA
ENDBRANCH  76  79
ENDBRANCH  48  72
BRANCH  60  83
ATOM     83  C   UNL A   1      45.413  27.668  26.372  1.00  0.00     0.023 A 
ATOM     84  C   UNL A   1      46.612  28.273  25.943  1.00  0.00     0.012 A 
ATOM     85  C   UNL A   1      45.154  26.333  26.005  1.00  0.00     0.148 A 
ATOM     86  C   UNL A   1      47.525  27.568  25.154  1.00  0.00     0.002 A 
ATOM     87  C   UNL A   1      46.087  25.620  25.262  1.00  0.00     0.091 A 
ATOM     88  F   UNL A   1      44.014  25.769  26.435  1.00  0.00    -0.205 F 
ATOM     89  C   UNL A   1      47.270  26.238  24.827  1.00  0.00     0.022 A 
BRANCH  87  90
ATOM     90  S   UNL A   1      45.899  23.867  24.917  1.00  0.00     0.127 S 
ATOM     91  O   UNL A   1      46.883  23.656  23.857  1.00  0.00    -0.237 OA
ATOM     92  O   UNL A   1      46.245  23.259  26.202  1.00  0.00    -0.237 OA
ATOM     93  O   UNL A   1      44.509  23.678  24.520  1.00  0.00    -0.744 OA
ENDBRANCH  87  90
ENDBRANCH  60  83
ENDBRANCH  34  35
ENDBRANCH  27  29
ENDBRANCH  26  27
ENDBRANCH  25  26
ENDBRANCH   1  25
TORSDOF 17
ENDMDL
