MODEL 1
REMARK VINA RESULT:     -10.3      0.000      0.000
REMARK SMILES CCc1nnsc1C(=O)NC[C@@H](CC(C)C)C(=O)OCCOC(=O)c1ccc(-c2c3nc(c(-c4cccc(S(=O)(=O)[O-])c4F)c4ccc([nH]4)c(-c4cccc(S(=O)(=O)[O-])c4F)c4nc(c(-c5cccc(S(=O)(=O)[O-])c5F)c5ccc2[nH]5)C=C4)C=C3)cc1
REMARK SMILES IDX 20 1 19 2 17 3 18 4 12 5 11 6 10 7 8 8 9 9 7 11 3 12 4 13
REMARK SMILES IDX 5 14 6 15 2 16 1 17 13 18 14 19 15 20 16 21 21 22 22 23
REMARK SMILES IDX 23 24 24 25 25 26 26 27 87 28 27 29 86 30 28 31 29 32 30 33
REMARK SMILES IDX 80 34 31 35 85 36 79 37 81 38 32 39 84 40 78 41 77 42 33 44
REMARK SMILES IDX 65 45 45 46 64 47 46 48 49 49 63 50 82 51 47 52 48 53 62 55
REMARK SMILES IDX 83 56 50 57 34 58 35 59 43 60 36 61 38 62 44 63 37 64 39 65
REMARK SMILES IDX 40 66 41 67 42 68 66 69 67 70 75 71 68 72 70 73 76 74 69 75
REMARK SMILES IDX 71 76 72 77 73 78 74 79 51 80 52 81 60 82 53 83 55 84 61 85
REMARK SMILES IDX 54 86 56 87 57 88 58 89 59 90
REMARK H PARENT 10 10 81 43 49 54
REMARK Flexibility Score: inf
ROOT
ATOM      1  C   UNL A   1      36.334  22.341  23.900  1.00  0.00     0.274 C 
ENDROOT
BRANCH   1   2
ATOM      2  O   UNL A   1      35.288  22.971  24.674  1.00  0.00    -0.462 OA
BRANCH   2   3
ATOM      3  C   UNL A   1      34.105  23.090  24.020  1.00  0.00     0.310 C 
ATOM      4  O   UNL A   1      33.615  22.220  23.309  1.00  0.00    -0.252 OA
BRANCH   3   5
ATOM      5  C   UNL A   1      33.469  24.459  24.127  1.00  0.00     0.118 C 
BRANCH   5   6
ATOM      6  C   UNL A   1      32.618  24.984  22.953  1.00  0.00     0.131 C 
BRANCH   6   7
ATOM      7  N   UNL A   1      33.272  26.154  22.368  1.00  0.00    -0.350 N 
ATOM      8  C   UNL A   1      33.330  27.515  22.478  1.00  0.00     0.264 C 
ATOM      9  O   UNL A   1      34.198  27.956  21.708  1.00  0.00    -0.268 OA
ATOM     10  H   UNL A   1      33.877  25.860  21.647  1.00  0.00     0.163 HD
BRANCH   8  11
ATOM     11  C   UNL A   1      32.609  28.404  23.372  1.00  0.00     0.136 A 
ATOM     12  C   UNL A   1      32.688  29.041  24.615  1.00  0.00     0.088 A 
ATOM     13  N   UNL A   1      31.526  29.745  24.983  1.00  0.00    -0.142 NA
ATOM     14  N   UNL A   1      30.549  29.626  24.119  1.00  0.00    -0.090 NA
ATOM     15  S   UNL A   1      30.967  28.709  22.814  1.00  0.00    -0.006 S 
BRANCH  12  16
ATOM     16  C   UNL A   1      33.682  29.043  25.729  1.00  0.00     0.056 C 
ATOM     17  C   UNL A   1      33.469  28.027  26.820  1.00  0.00     0.011 C 
ENDBRANCH  12  16
ENDBRANCH   8  11
ENDBRANCH   6   7
ENDBRANCH   5   6
BRANCH   5  18
ATOM     18  C   UNL A   1      32.809  24.602  25.520  1.00  0.00     0.020 C 
BRANCH  18  19
ATOM     19  C   UNL A   1      32.079  23.387  26.139  1.00  0.00    -0.017 C 
ATOM     20  C   UNL A   1      32.711  22.841  27.421  1.00  0.00     0.007 C 
ATOM     21  C   UNL A   1      30.631  23.786  26.452  1.00  0.00     0.007 C 
ENDBRANCH  18  19
ENDBRANCH   5  18
ENDBRANCH   3   5
ENDBRANCH   2   3
ENDBRANCH   1   2
BRANCH   1  22
ATOM     22  C   UNL A   1      36.833  21.067  24.570  1.00  0.00     0.275 C 
BRANCH  22  23
ATOM     23  O   UNL A   1      37.376  21.395  25.854  1.00  0.00    -0.458 OA
BRANCH  23  24
ATOM     24  C   UNL A   1      38.707  21.232  25.973  1.00  0.00     0.338 C 
ATOM     25  O   UNL A   1      39.347  20.236  25.640  1.00  0.00    -0.246 OA
BRANCH  24  26
ATOM     26  C   UNL A   1      39.322  22.454  26.526  1.00  0.00     0.060 A 
ATOM     27  C   UNL A   1      38.890  23.732  26.143  1.00  0.00     0.016 A 
ATOM     28  C   UNL A   1      40.415  22.313  27.382  1.00  0.00     0.016 A 
ATOM     29  C   UNL A   1      39.577  24.865  26.580  1.00  0.00     0.010 A 
ATOM     30  C   UNL A   1      41.063  23.449  27.865  1.00  0.00     0.010 A 
ATOM     31  C   UNL A   1      40.667  24.731  27.449  1.00  0.00    -0.014 A 
BRANCH  31  32
ATOM     32  C   UNL A   1      41.428  25.909  27.934  1.00  0.00     0.031 A 
ATOM     33  C   UNL A   1      40.717  26.985  28.706  1.00  0.00     0.074 A 
ATOM     34  C   UNL A   1      42.722  26.057  27.591  1.00  0.00     0.049 A 
ATOM     35  N   UNL A   1      41.130  28.182  29.029  1.00  0.00    -0.248 NA
ATOM     36  C   UNL A   1      39.348  26.679  29.154  1.00  0.00     0.031 C 
ATOM     37  C   UNL A   1      43.512  25.086  26.833  1.00  0.00     0.029 A 
ATOM     38  N   UNL A   1      43.585  27.103  27.798  1.00  0.00    -0.354 N 
ATOM     39  C   UNL A   1      40.057  28.796  29.665  1.00  0.00     0.074 A 
ATOM     40  C   UNL A   1      38.973  27.836  29.684  1.00  0.00     0.031 C 
ATOM     41  C   UNL A   1      44.737  25.592  26.617  1.00  0.00     0.029 A 
ATOM     42  C   UNL A   1      44.802  26.936  27.179  1.00  0.00     0.049 A 
ATOM     43  H   UNL A   1      43.356  27.894  28.336  1.00  0.00     0.167 HD
ATOM     44  C   UNL A   1      39.986  30.040  30.194  1.00  0.00     0.034 A 
ATOM     45  C   UNL A   1      45.841  27.786  27.051  1.00  0.00     0.034 A 
ATOM     46  C   UNL A   1      41.086  30.967  30.216  1.00  0.00     0.049 A 
ATOM     47  C   UNL A   1      45.747  29.150  27.678  1.00  0.00     0.074 A 
ATOM     48  C   UNL A   1      41.133  32.237  30.765  1.00  0.00     0.029 A 
ATOM     49  N   UNL A   1      42.339  30.719  29.676  1.00  0.00    -0.354 N 
ATOM     50  N   UNL A   1      44.754  29.685  28.348  1.00  0.00    -0.248 NA
ATOM     51  C   UNL A   1      46.927  30.018  27.558  1.00  0.00     0.031 C 
ATOM     52  C   UNL A   1      42.416  32.757  30.554  1.00  0.00     0.029 A 
ATOM     53  C   UNL A   1      43.170  31.806  29.885  1.00  0.00     0.049 A 
ATOM     54  H   UNL A   1      42.599  29.892  29.210  1.00  0.00     0.167 HD
ATOM     55  C   UNL A   1      45.202  30.934  28.762  1.00  0.00     0.074 A 
ATOM     56  C   UNL A   1      46.563  31.068  28.282  1.00  0.00     0.031 C 
ATOM     57  C   UNL A   1      44.543  31.891  29.460  1.00  0.00     0.034 A 
BRANCH  44  58
ATOM     58  C   UNL A   1      38.685  30.458  30.829  1.00  0.00     0.023 A 
ATOM     59  C   UNL A   1      38.476  30.223  32.202  1.00  0.00     0.012 A 
ATOM     60  C   UNL A   1      37.694  31.129  30.085  1.00  0.00     0.148 A 
ATOM     61  C   UNL A   1      37.289  30.620  32.819  1.00  0.00     0.002 A 
ATOM     62  C   UNL A   1      36.531  31.558  30.715  1.00  0.00     0.091 A 
ATOM     63  F   UNL A   1      37.899  31.323  28.773  1.00  0.00    -0.205 F 
ATOM     64  C   UNL A   1      36.324  31.296  32.078  1.00  0.00     0.022 A 
BRANCH  62  65
ATOM     65  S   UNL A   1      35.263  32.505  29.862  1.00  0.00     0.127 S 
ATOM     66  O   UNL A   1      36.024  33.659  29.387  1.00  0.00    -0.237 OA
ATOM     67  O   UNL A   1      34.839  31.580  28.811  1.00  0.00    -0.237 OA
ATOM     68  O   UNL A   1      34.243  32.794  30.860  1.00  0.00    -0.744 OA
ENDBRANCH  62  65
ENDBRANCH  44  58
BRANCH  45  69
ATOM     69  C   UNL A   1      47.078  27.346  26.347  1.00  0.00     0.023 A 
ATOM     70  C   UNL A   1      47.264  27.710  25.000  1.00  0.00     0.012 A 
ATOM     71  C   UNL A   1      48.081  26.609  27.004  1.00  0.00     0.148 A 
ATOM     72  C   UNL A   1      48.415  27.327  24.312  1.00  0.00     0.002 A 
ATOM     73  C   UNL A   1      49.250  26.277  26.328  1.00  0.00     0.091 A 
ATOM     74  F   UNL A   1      47.880  26.256  28.282  1.00  0.00    -0.205 F 
ATOM     75  C   UNL A   1      49.412  26.621  24.978  1.00  0.00     0.022 A 
BRANCH  73  76
ATOM     76  S   UNL A   1      50.640  25.488  27.149  1.00  0.00     0.127 S 
ATOM     77  O   UNL A   1      51.013  26.493  28.141  1.00  0.00    -0.237 OA
ATOM     78  O   UNL A   1      50.026  24.278  27.700  1.00  0.00    -0.237 OA
ATOM     79  O   UNL A   1      51.617  25.234  26.099  1.00  0.00    -0.744 OA
ENDBRANCH  73  76
ENDBRANCH  45  69
BRANCH  57  80
ATOM     80  C   UNL A   1      45.299  33.150  29.791  1.00  0.00     0.023 A 
ATOM     81  C   UNL A   1      46.044  33.226  30.983  1.00  0.00     0.012 A 
ATOM     82  C   UNL A   1      45.320  34.234  28.890  1.00  0.00     0.148 A 
ATOM     83  C   UNL A   1      46.773  34.374  31.290  1.00  0.00     0.002 A 
ATOM     84  C   UNL A   1      46.083  35.358  29.184  1.00  0.00     0.091 A 
ATOM     85  F   UNL A   1      44.585  34.154  27.771  1.00  0.00    -0.205 F 
ATOM     86  C   UNL A   1      46.802  35.435  30.388  1.00  0.00     0.022 A 
BRANCH  84  87
ATOM     87  S   UNL A   1      46.240  36.726  28.030  1.00  0.00     0.127 S 
ATOM     88  O   UNL A   1      46.675  36.043  26.813  1.00  0.00    -0.237 OA
ATOM     89  O   UNL A   1      44.877  37.256  27.977  1.00  0.00    -0.237 OA
ATOM     90  O   UNL A   1      47.210  37.634  28.628  1.00  0.00    -0.744 OA
ENDBRANCH  84  87
ENDBRANCH  57  80
ENDBRANCH  31  32
ENDBRANCH  24  26
ENDBRANCH  23  24
ENDBRANCH  22  23
ENDBRANCH   1  22
TORSDOF 20
ENDMDL
MODEL 2
REMARK VINA RESULT:     -10.2      4.699      9.445
REMARK SMILES CCc1nnsc1C(=O)NC[C@@H](CC(C)C)C(=O)OCCOC(=O)c1ccc(-c2c3nc(c(-c4cccc(S(=O)(=O)[O-])c4F)c4ccc([nH]4)c(-c4cccc(S(=O)(=O)[O-])c4F)c4nc(c(-c5cccc(S(=O)(=O)[O-])c5F)c5ccc2[nH]5)C=C4)C=C3)cc1
REMARK SMILES IDX 20 1 19 2 17 3 18 4 12 5 11 6 10 7 8 8 9 9 7 11 3 12 4 13
REMARK SMILES IDX 5 14 6 15 2 16 1 17 13 18 14 19 15 20 16 21 21 22 22 23
REMARK SMILES IDX 23 24 24 25 25 26 26 27 87 28 27 29 86 30 28 31 29 32 30 33
REMARK SMILES IDX 80 34 31 35 85 36 79 37 81 38 32 39 84 40 78 41 77 42 33 44
REMARK SMILES IDX 65 45 45 46 64 47 46 48 49 49 63 50 82 51 47 52 48 53 62 55
REMARK SMILES IDX 83 56 50 57 34 58 35 59 43 60 36 61 38 62 44 63 37 64 39 65
REMARK SMILES IDX 40 66 41 67 42 68 66 69 67 70 75 71 68 72 70 73 76 74 69 75
REMARK SMILES IDX 71 76 72 77 73 78 74 79 51 80 52 81 60 82 53 83 55 84 61 85
REMARK SMILES IDX 54 86 56 87 57 88 58 89 59 90
REMARK H PARENT 10 10 81 43 49 54
REMARK Flexibility Score: inf
ROOT
ATOM      1  C   UNL A   1      31.374  27.755  26.421  1.00  0.00     0.274 C 
ENDROOT
BRANCH   1   2
ATOM      2  O   UNL A   1      32.570  26.943  26.397  1.00  0.00    -0.462 OA
BRANCH   2   3
ATOM      3  C   UNL A   1      32.337  25.610  26.301  1.00  0.00     0.310 C 
ATOM      4  O   UNL A   1      31.483  25.007  26.942  1.00  0.00    -0.252 OA
BRANCH   3   5
ATOM      5  C   UNL A   1      33.315  24.869  25.417  1.00  0.00     0.118 C 
BRANCH   5   6
ATOM      6  C   UNL A   1      34.456  25.654  24.737  1.00  0.00     0.131 C 
BRANCH   6   7
ATOM      7  N   UNL A   1      34.174  25.775  23.308  1.00  0.00    -0.350 N 
ATOM      8  C   UNL A   1      33.219  26.225  22.439  1.00  0.00     0.264 C 
ATOM      9  O   UNL A   1      33.637  26.123  21.275  1.00  0.00    -0.268 OA
ATOM     10  H   UNL A   1      34.930  25.405  22.795  1.00  0.00     0.163 HD
BRANCH   8  11
ATOM     11  C   UNL A   1      31.926  26.825  22.714  1.00  0.00     0.136 A 
ATOM     12  C   UNL A   1      30.626  26.530  23.138  1.00  0.00     0.088 A 
ATOM     13  N   UNL A   1      29.738  27.621  23.098  1.00  0.00    -0.142 NA
ATOM     14  N   UNL A   1      30.273  28.711  22.607  1.00  0.00    -0.090 NA
ATOM     15  S   UNL A   1      31.860  28.510  22.205  1.00  0.00    -0.006 S 
BRANCH  12  16
ATOM     16  C   UNL A   1      29.905  25.276  23.507  1.00  0.00     0.056 C 
ATOM     17  C   UNL A   1      30.635  23.983  23.255  1.00  0.00     0.011 C 
ENDBRANCH  12  16
ENDBRANCH   8  11
ENDBRANCH   6   7
ENDBRANCH   5   6
BRANCH   5  18
ATOM     18  C   UNL A   1      33.761  23.571  26.133  1.00  0.00     0.020 C 
BRANCH  18  19
ATOM     19  C   UNL A   1      34.415  22.438  25.306  1.00  0.00    -0.017 C 
ATOM     20  C   UNL A   1      35.177  21.398  26.129  1.00  0.00     0.007 C 
ATOM     21  C   UNL A   1      33.322  21.712  24.510  1.00  0.00     0.007 C 
ENDBRANCH  18  19
ENDBRANCH   5  18
ENDBRANCH   3   5
ENDBRANCH   2   3
ENDBRANCH   1   2
BRANCH   1  22
ATOM     22  C   UNL A   1      31.636  29.148  25.862  1.00  0.00     0.275 C 
BRANCH  22  23
ATOM     23  O   UNL A   1      33.002  29.503  26.109  1.00  0.00    -0.458 OA
BRANCH  23  24
ATOM     24  C   UNL A   1      33.183  30.663  26.768  1.00  0.00     0.338 C 
ATOM     25  O   UNL A   1      32.429  31.634  26.745  1.00  0.00    -0.246 OA
BRANCH  24  26
ATOM     26  C   UNL A   1      34.413  30.600  27.580  1.00  0.00     0.060 A 
ATOM     27  C   UNL A   1      35.251  31.714  27.733  1.00  0.00     0.016 A 
ATOM     28  C   UNL A   1      34.779  29.370  28.129  1.00  0.00     0.016 A 
ATOM     29  C   UNL A   1      36.473  31.588  28.395  1.00  0.00     0.010 A 
ATOM     30  C   UNL A   1      35.972  29.261  28.841  1.00  0.00     0.010 A 
ATOM     31  C   UNL A   1      36.840  30.360  28.959  1.00  0.00    -0.014 A 
BRANCH  31  32
ATOM     32  C   UNL A   1      38.131  30.181  29.666  1.00  0.00     0.031 A 
ATOM     33  C   UNL A   1      39.184  29.284  29.076  1.00  0.00     0.074 A 
ATOM     34  C   UNL A   1      38.312  30.738  30.879  1.00  0.00     0.049 A 
ATOM     35  N   UNL A   1      40.276  28.820  29.622  1.00  0.00    -0.248 NA
ATOM     36  C   UNL A   1      38.961  28.831  27.692  1.00  0.00     0.031 C 
ATOM     37  C   UNL A   1      37.358  31.616  31.558  1.00  0.00     0.029 A 
ATOM     38  N   UNL A   1      39.345  30.611  31.774  1.00  0.00    -0.354 N 
ATOM     39  C   UNL A   1      40.844  27.975  28.675  1.00  0.00     0.074 A 
ATOM     40  C   UNL A   1      39.974  27.992  27.518  1.00  0.00     0.031 C 
ATOM     41  C   UNL A   1      37.838  31.927  32.773  1.00  0.00     0.029 A 
ATOM     42  C   UNL A   1      39.106  31.237  32.975  1.00  0.00     0.049 A 
ATOM     43  H   UNL A   1      40.174  30.119  31.576  1.00  0.00     0.167 HD
ATOM     44  C   UNL A   1      41.991  27.259  28.759  1.00  0.00     0.034 A 
ATOM     45  C   UNL A   1      39.816  31.229  34.120  1.00  0.00     0.034 A 
ATOM     46  C   UNL A   1      42.876  27.290  29.893  1.00  0.00     0.049 A 
ATOM     47  C   UNL A   1      41.103  30.452  34.174  1.00  0.00     0.074 A 
ATOM     48  C   UNL A   1      44.083  26.637  30.062  1.00  0.00     0.029 A 
ATOM     49  N   UNL A   1      42.653  28.025  31.048  1.00  0.00    -0.354 N 
ATOM     50  N   UNL A   1      41.668  29.724  33.241  1.00  0.00    -0.248 NA
ATOM     51  C   UNL A   1      41.868  30.520  35.428  1.00  0.00     0.031 C 
ATOM     52  C   UNL A   1      44.591  26.976  31.323  1.00  0.00     0.029 A 
ATOM     53  C   UNL A   1      43.705  27.851  31.931  1.00  0.00     0.049 A 
ATOM     54  H   UNL A   1      41.864  28.588  31.215  1.00  0.00     0.167 HD
ATOM     55  C   UNL A   1      42.870  29.279  33.779  1.00  0.00     0.074 A 
ATOM     56  C   UNL A   1      42.959  29.835  35.114  1.00  0.00     0.031 C 
ATOM     57  C   UNL A   1      43.807  28.469  33.227  1.00  0.00     0.034 A 
BRANCH  44  58
ATOM     58  C   UNL A   1      42.376  26.412  27.574  1.00  0.00     0.023 A 
ATOM     59  C   UNL A   1      43.187  26.962  26.562  1.00  0.00     0.012 A 
ATOM     60  C   UNL A   1      41.983  25.062  27.486  1.00  0.00     0.148 A 
ATOM     61  C   UNL A   1      43.576  26.191  25.466  1.00  0.00     0.002 A 
ATOM     62  C   UNL A   1      42.407  24.288  26.411  1.00  0.00     0.091 A 
ATOM     63  F   UNL A   1      41.189  24.561  28.446  1.00  0.00    -0.205 F 
ATOM     64  C   UNL A   1      43.195  24.854  25.396  1.00  0.00     0.022 A 
BRANCH  62  65
ATOM     65  S   UNL A   1      42.032  22.536  26.274  1.00  0.00     0.127 S 
ATOM     66  O   UNL A   1      40.570  22.547  26.249  1.00  0.00    -0.237 OA
ATOM     67  O   UNL A   1      42.661  22.181  25.002  1.00  0.00    -0.237 OA
ATOM     68  O   UNL A   1      42.635  21.907  27.441  1.00  0.00    -0.744 OA
ENDBRANCH  62  65
ENDBRANCH  44  58
BRANCH  45  69
ATOM     69  C   UNL A   1      39.350  32.027  35.289  1.00  0.00     0.023 A 
ATOM     70  C   UNL A   1      38.473  31.433  36.217  1.00  0.00     0.012 A 
ATOM     71  C   UNL A   1      39.793  33.345  35.510  1.00  0.00     0.148 A 
ATOM     72  C   UNL A   1      38.024  32.145  37.329  1.00  0.00     0.002 A 
ATOM     73  C   UNL A   1      39.386  34.030  36.649  1.00  0.00     0.091 A 
ATOM     74  F   UNL A   1      40.615  33.900  34.607  1.00  0.00    -0.205 F 
ATOM     75  C   UNL A   1      38.489  33.438  37.551  1.00  0.00     0.022 A 
BRANCH  73  76
ATOM     76  S   UNL A   1      40.042  35.646  37.081  1.00  0.00     0.127 S 
ATOM     77  O   UNL A   1      41.473  35.372  37.179  1.00  0.00    -0.237 OA
ATOM     78  O   UNL A   1      39.648  36.457  35.927  1.00  0.00    -0.237 OA
ATOM     79  O   UNL A   1      39.375  36.015  38.323  1.00  0.00    -0.744 OA
ENDBRANCH  73  76
ENDBRANCH  45  69
BRANCH  57  80
ATOM     80  C   UNL A   1      45.035  28.173  34.047  1.00  0.00     0.023 A 
ATOM     81  C   UNL A   1      46.142  29.040  33.985  1.00  0.00     0.012 A 
ATOM     82  C   UNL A   1      45.066  27.070  34.924  1.00  0.00     0.148 A 
ATOM     83  C   UNL A   1      47.276  28.796  34.759  1.00  0.00     0.002 A 
ATOM     84  C   UNL A   1      46.182  26.859  35.723  1.00  0.00     0.091 A 
ATOM     85  F   UNL A   1      44.011  26.242  34.952  1.00  0.00    -0.205 F 
ATOM     86  C   UNL A   1      47.293  27.714  35.635  1.00  0.00     0.022 A 
BRANCH  84  87
ATOM     87  S   UNL A   1      46.242  25.538  36.940  1.00  0.00     0.127 S 
ATOM     88  O   UNL A   1      45.984  24.359  36.115  1.00  0.00    -0.237 OA
ATOM     89  O   UNL A   1      47.609  25.637  37.451  1.00  0.00    -0.237 OA
ATOM     90  O   UNL A   1      45.213  25.861  37.921  1.00  0.00    -0.744 OA
ENDBRANCH  84  87
ENDBRANCH  57  80
ENDBRANCH  31  32
ENDBRANCH  24  26
ENDBRANCH  23  24
ENDBRANCH  22  23
ENDBRANCH   1  22
TORSDOF 20
ENDMDL
MODEL 3
REMARK VINA RESULT:     -10.2      2.211      2.735
REMARK SMILES CCc1nnsc1C(=O)NC[C@@H](CC(C)C)C(=O)OCCOC(=O)c1ccc(-c2c3nc(c(-c4cccc(S(=O)(=O)[O-])c4F)c4ccc([nH]4)c(-c4cccc(S(=O)(=O)[O-])c4F)c4nc(c(-c5cccc(S(=O)(=O)[O-])c5F)c5ccc2[nH]5)C=C4)C=C3)cc1
REMARK SMILES IDX 20 1 19 2 17 3 18 4 12 5 11 6 10 7 8 8 9 9 7 11 3 12 4 13
REMARK SMILES IDX 5 14 6 15 2 16 1 17 13 18 14 19 15 20 16 21 21 22 22 23
REMARK SMILES IDX 23 24 24 25 25 26 26 27 87 28 27 29 86 30 28 31 29 32 30 33
REMARK SMILES IDX 80 34 31 35 85 36 79 37 81 38 32 39 84 40 78 41 77 42 33 44
REMARK SMILES IDX 65 45 45 46 64 47 46 48 49 49 63 50 82 51 47 52 48 53 62 55
REMARK SMILES IDX 83 56 50 57 34 58 35 59 43 60 36 61 38 62 44 63 37 64 39 65
REMARK SMILES IDX 40 66 41 67 42 68 66 69 67 70 75 71 68 72 70 73 76 74 69 75
REMARK SMILES IDX 71 76 72 77 73 78 74 79 51 80 52 81 60 82 53 83 55 84 61 85
REMARK SMILES IDX 54 86 56 87 57 88 58 89 59 90
REMARK H PARENT 10 10 81 43 49 54
REMARK Flexibility Score: inf
ROOT
ATOM      1  C   UNL A   1      36.290  22.833  23.796  1.00  0.00     0.274 C 
ENDROOT
BRANCH   1   2
ATOM      2  O   UNL A   1      34.937  22.603  23.340  1.00  0.00    -0.462 OA
BRANCH   2   3
ATOM      3  C   UNL A   1      33.992  22.748  24.303  1.00  0.00     0.310 C 
ATOM      4  O   UNL A   1      34.218  23.140  25.442  1.00  0.00    -0.252 OA
BRANCH   3   5
ATOM      5  C   UNL A   1      32.617  22.260  23.904  1.00  0.00     0.118 C 
BRANCH   5   6
ATOM      6  C   UNL A   1      31.645  23.237  23.210  1.00  0.00     0.131 C 
BRANCH   6   7
ATOM      7  N   UNL A   1      32.410  24.179  22.394  1.00  0.00    -0.350 N 
ATOM      8  C   UNL A   1      32.736  25.504  22.311  1.00  0.00     0.264 C 
ATOM      9  O   UNL A   1      33.544  25.675  21.385  1.00  0.00    -0.268 OA
ATOM     10  H   UNL A   1      32.834  23.694  21.649  1.00  0.00     0.163 HD
BRANCH   8  11
ATOM     11  C   UNL A   1      32.336  26.612  23.162  1.00  0.00     0.136 A 
ATOM     12  C   UNL A   1      31.416  27.660  23.270  1.00  0.00     0.088 A 
ATOM     13  N   UNL A   1      31.631  28.512  24.369  1.00  0.00    -0.142 NA
ATOM     14  N   UNL A   1      32.698  28.207  25.065  1.00  0.00    -0.090 NA
ATOM     15  S   UNL A   1      33.478  26.879  24.476  1.00  0.00    -0.006 S 
BRANCH  12  16
ATOM     16  C   UNL A   1      30.316  28.181  22.406  1.00  0.00     0.056 C 
ATOM     17  C   UNL A   1      29.012  28.488  23.092  1.00  0.00     0.011 C 
ENDBRANCH  12  16
ENDBRANCH   8  11
ENDBRANCH   6   7
ENDBRANCH   5   6
BRANCH   5  18
ATOM     18  C   UNL A   1      32.751  20.882  23.212  1.00  0.00     0.020 C 
BRANCH  18  19
ATOM     19  C   UNL A   1      32.662  19.595  24.067  1.00  0.00    -0.017 C 
ATOM     20  C   UNL A   1      32.275  18.334  23.294  1.00  0.00     0.007 C 
ATOM     21  C   UNL A   1      34.023  19.349  24.734  1.00  0.00     0.007 C 
ENDBRANCH  18  19
ENDBRANCH   5  18
ENDBRANCH   3   5
ENDBRANCH   2   3
ENDBRANCH   1   2
BRANCH   1  22
ATOM     22  C   UNL A   1      36.955  21.539  24.244  1.00  0.00     0.275 C 
BRANCH  22  23
ATOM     23  O   UNL A   1      37.302  21.645  25.630  1.00  0.00    -0.458 OA
BRANCH  23  24
ATOM     24  C   UNL A   1      38.593  21.400  25.919  1.00  0.00     0.338 C 
ATOM     25  O   UNL A   1      39.195  20.348  25.709  1.00  0.00    -0.246 OA
BRANCH  24  26
ATOM     26  C   UNL A   1      39.224  22.604  26.492  1.00  0.00     0.060 A 
ATOM     27  C   UNL A   1      38.791  23.894  26.150  1.00  0.00     0.016 A 
ATOM     28  C   UNL A   1      40.333  22.437  27.322  1.00  0.00     0.016 A 
ATOM     29  C   UNL A   1      39.492  25.013  26.603  1.00  0.00     0.010 A 
ATOM     30  C   UNL A   1      40.995  23.557  27.822  1.00  0.00     0.010 A 
ATOM     31  C   UNL A   1      40.597  24.851  27.447  1.00  0.00    -0.014 A 
BRANCH  31  32
ATOM     32  C   UNL A   1      41.373  26.013  27.947  1.00  0.00     0.031 A 
ATOM     33  C   UNL A   1      40.680  27.075  28.754  1.00  0.00     0.074 A 
ATOM     34  C   UNL A   1      42.662  26.160  27.589  1.00  0.00     0.049 A 
ATOM     35  N   UNL A   1      41.106  28.262  29.098  1.00  0.00    -0.248 NA
ATOM     36  C   UNL A   1      39.315  26.768  29.215  1.00  0.00     0.031 C 
ATOM     37  C   UNL A   1      43.436  25.202  26.799  1.00  0.00     0.029 A 
ATOM     38  N   UNL A   1      43.536  27.196  27.808  1.00  0.00    -0.354 N 
ATOM     39  C   UNL A   1      40.045  28.867  29.763  1.00  0.00     0.074 A 
ATOM     40  C   UNL A   1      38.955  27.914  29.776  1.00  0.00     0.031 C 
ATOM     41  C   UNL A   1      44.661  25.706  26.576  1.00  0.00     0.029 A 
ATOM     42  C   UNL A   1      44.742  27.036  27.168  1.00  0.00     0.049 A 
ATOM     43  H   UNL A   1      43.319  27.976  28.368  1.00  0.00     0.167 HD
ATOM     44  C   UNL A   1      39.990  30.100  30.322  1.00  0.00     0.034 A 
ATOM     45  C   UNL A   1      45.784  27.882  27.045  1.00  0.00     0.034 A 
ATOM     46  C   UNL A   1      41.097  31.020  30.349  1.00  0.00     0.049 A 
ATOM     47  C   UNL A   1      45.709  29.232  27.703  1.00  0.00     0.074 A 
ATOM     48  C   UNL A   1      41.159  32.276  30.926  1.00  0.00     0.029 A 
ATOM     49  N   UNL A   1      42.340  30.776  29.785  1.00  0.00    -0.354 N 
ATOM     50  N   UNL A   1      44.729  29.757  28.400  1.00  0.00    -0.248 NA
ATOM     51  C   UNL A   1      46.892  30.096  27.586  1.00  0.00     0.031 C 
ATOM     52  C   UNL A   1      42.442  32.793  30.709  1.00  0.00     0.029 A 
ATOM     53  C   UNL A   1      43.181  31.853  30.008  1.00  0.00     0.049 A 
ATOM     54  H   UNL A   1      42.588  29.958  29.298  1.00  0.00     0.167 HD
ATOM     55  C   UNL A   1      45.191  30.994  28.836  1.00  0.00     0.074 A 
ATOM     56  C   UNL A   1      46.546  31.131  28.339  1.00  0.00     0.031 C 
ATOM     57  C   UNL A   1      44.548  31.939  29.565  1.00  0.00     0.034 A 
BRANCH  44  58
ATOM     58  C   UNL A   1      38.701  30.512  30.984  1.00  0.00     0.023 A 
ATOM     59  C   UNL A   1      38.520  30.267  32.360  1.00  0.00     0.012 A 
ATOM     60  C   UNL A   1      37.695  31.186  30.264  1.00  0.00     0.148 A 
ATOM     61  C   UNL A   1      37.344  30.657  33.003  1.00  0.00     0.002 A 
ATOM     62  C   UNL A   1      36.544  31.608  30.920  1.00  0.00     0.091 A 
ATOM     63  F   UNL A   1      37.873  31.388  28.950  1.00  0.00    -0.205 F 
ATOM     64  C   UNL A   1      36.363  31.337  32.286  1.00  0.00     0.022 A 
BRANCH  62  65
ATOM     65  S   UNL A   1      35.257  32.558  30.098  1.00  0.00     0.127 S 
ATOM     66  O   UNL A   1      34.304  32.770  31.186  1.00  0.00    -0.237 OA
ATOM     67  O   UNL A   1      35.979  33.760  29.678  1.00  0.00    -0.237 OA
ATOM     68  O   UNL A   1      34.785  31.724  29.003  1.00  0.00    -0.744 OA
ENDBRANCH  62  65
ENDBRANCH  44  58
BRANCH  45  69
ATOM     69  C   UNL A   1      47.009  27.451  26.313  1.00  0.00     0.023 A 
ATOM     70  C   UNL A   1      47.964  26.663  26.982  1.00  0.00     0.012 A 
ATOM     71  C   UNL A   1      47.216  27.778  24.959  1.00  0.00     0.148 A 
ATOM     72  C   UNL A   1      49.116  26.230  26.326  1.00  0.00     0.002 A 
ATOM     73  C   UNL A   1      48.340  27.299  24.296  1.00  0.00     0.091 A 
ATOM     74  F   UNL A   1      46.304  28.543  24.342  1.00  0.00    -0.205 F 
ATOM     75  C   UNL A   1      49.299  26.538  24.982  1.00  0.00     0.022 A 
BRANCH  73  76
ATOM     76  S   UNL A   1      48.584  27.534  22.531  1.00  0.00     0.127 S 
ATOM     77  O   UNL A   1      47.399  28.305  22.165  1.00  0.00    -0.237 OA
ATOM     78  O   UNL A   1      49.841  28.283  22.492  1.00  0.00    -0.237 OA
ATOM     79  O   UNL A   1      48.672  26.193  21.970  1.00  0.00    -0.744 OA
ENDBRANCH  73  76
ENDBRANCH  45  69
BRANCH  57  80
ATOM     80  C   UNL A   1      45.317  33.186  29.913  1.00  0.00     0.023 A 
ATOM     81  C   UNL A   1      45.273  34.298  29.051  1.00  0.00     0.012 A 
ATOM     82  C   UNL A   1      46.033  33.275  31.124  1.00  0.00     0.148 A 
ATOM     83  C   UNL A   1      45.957  35.470  29.372  1.00  0.00     0.002 A 
ATOM     84  C   UNL A   1      46.675  34.461  31.457  1.00  0.00     0.091 A 
ATOM     85  F   UNL A   1      46.083  32.198  31.921  1.00  0.00    -0.205 F 
ATOM     86  C   UNL A   1      46.648  35.556  30.579  1.00  0.00     0.022 A 
BRANCH  84  87
ATOM     87  S   UNL A   1      47.511  34.676  33.033  1.00  0.00     0.127 S 
ATOM     88  O   UNL A   1      47.678  36.127  33.088  1.00  0.00    -0.237 OA
ATOM     89  O   UNL A   1      46.539  34.138  33.985  1.00  0.00    -0.237 OA
ATOM     90  O   UNL A   1      48.742  33.900  32.934  1.00  0.00    -0.744 OA
ENDBRANCH  84  87
ENDBRANCH  57  80
ENDBRANCH  31  32
ENDBRANCH  24  26
ENDBRANCH  23  24
ENDBRANCH  22  23
ENDBRANCH   1  22
TORSDOF 20
ENDMDL
