MODEL 1
REMARK VINA RESULT:     -13.3      0.000      0.000
REMARK SMILES CC(C)[C@H](NC(=O)[C@H](Cc1ccccc1)n1c(=O)[nH]c2ccccc2c1=O)C(=O)OCCOC(=O)c1ccc(-c2c3nc(c(-c4cccc(S(=O)(=O)[O-])c4F)c4ccc([nH]4)c(-c4cccc(S(=O)(=O)[O-])c4F)c4nc(c(-c5cccc(S(=O)(=O)[O-])c5F)c5ccc2[nH]5)C=C4)C=C3)cc1
REMARK SMILES IDX 31 1 30 2 28 3 29 4 4 5 2 6 1 7 3 8 5 9 6 10 7 12 8 13 16 14
REMARK SMILES IDX 17 15 26 16 18 17 19 18 25 19 27 20 20 21 24 23 21 24 23 25
REMARK SMILES IDX 22 26 9 27 10 28 11 29 15 30 12 31 14 32 13 33 32 34 33 35
REMARK SMILES IDX 34 36 35 37 36 38 37 39 98 40 38 41 97 42 39 43 40 44 41 45
REMARK SMILES IDX 91 46 42 47 96 48 90 49 92 50 43 51 95 52 89 53 88 54 44 56
REMARK SMILES IDX 76 57 56 58 75 59 57 60 60 61 74 62 93 63 58 64 59 65 73 67
REMARK SMILES IDX 94 68 61 69 45 70 46 71 54 72 47 73 49 74 55 75 48 76 50 77
REMARK SMILES IDX 51 78 52 79 53 80 77 81 78 82 86 83 79 84 81 85 87 86 80 87
REMARK SMILES IDX 82 88 83 89 84 90 85 91 62 92 63 93 71 94 64 95 66 96 72 97
REMARK SMILES IDX 65 98 67 99 68 100 69 101 70 102
REMARK H PARENT 5 11 19 22 92 55 60 66
REMARK Flexibility Score: inf
ROOT
ATOM      1  C   UNL A   1      35.801  20.891  24.799  1.00  0.00     0.274 C 
ENDROOT
BRANCH   1   2
ATOM      2  O   UNL A   1      35.306  21.544  25.985  1.00  0.00    -0.461 OA
BRANCH   2   3
ATOM      3  C   UNL A   1      35.199  22.905  25.934  1.00  0.00     0.329 C 
ATOM      4  O   UNL A   1      36.136  23.666  26.133  1.00  0.00    -0.250 OA
BRANCH   3   5
ATOM      5  C   UNL A   1      33.797  23.347  25.427  1.00  0.00     0.194 C 
BRANCH   5   6
ATOM      6  C   UNL A   1      32.544  22.527  25.840  1.00  0.00     0.017 C 
ATOM      7  C   UNL A   1      31.366  23.288  26.455  1.00  0.00     0.010 C 
ATOM      8  C   UNL A   1      32.008  21.682  24.672  1.00  0.00     0.010 C 
ENDBRANCH   5   6
BRANCH   5   9
ATOM      9  N   UNL A   1      33.786  23.742  24.009  1.00  0.00    -0.341 N 
ATOM     10  C   UNL A   1      33.859  24.927  23.349  1.00  0.00     0.244 C 
ATOM     11  H   UNL A   1      33.707  22.972  23.401  1.00  0.00     0.164 HD
ATOM     12  O   UNL A   1      33.786  24.831  22.114  1.00  0.00    -0.273 OA
BRANCH  10  13
ATOM     13  C   UNL A   1      33.751  26.313  24.037  1.00  0.00     0.189 C 
BRANCH  13  14
ATOM     14  N   UNL A   1      32.705  27.211  23.520  1.00  0.00    -0.247 N 
ATOM     15  C   UNL A   1      33.106  28.362  22.854  1.00  0.00     0.329 A 
ATOM     16  C   UNL A   1      31.382  26.767  23.545  1.00  0.00     0.264 A 
ATOM     17  O   UNL A   1      34.271  28.758  22.812  1.00  0.00    -0.248 OA
ATOM     18  N   UNL A   1      32.121  29.123  22.287  1.00  0.00    -0.307 N 
ATOM     19  C   UNL A   1      30.350  27.725  23.112  1.00  0.00     0.064 A 
ATOM     20  O   UNL A   1      31.039  25.637  23.890  1.00  0.00    -0.268 OA
ATOM     21  C   UNL A   1      30.760  28.874  22.449  1.00  0.00     0.055 A 
ATOM     22  H   UNL A   1      32.389  29.890  21.730  1.00  0.00     0.171 HD
ATOM     23  C   UNL A   1      28.998  27.514  23.395  1.00  0.00     0.016 A 
ATOM     24  C   UNL A   1      29.820  29.805  22.014  1.00  0.00     0.027 A 
ATOM     25  C   UNL A   1      28.057  28.464  22.996  1.00  0.00     0.001 A 
ATOM     26  C   UNL A   1      28.466  29.601  22.296  1.00  0.00     0.002 A 
ENDBRANCH  13  14
BRANCH  13  27
ATOM     27  C   UNL A   1      33.742  26.137  25.591  1.00  0.00     0.071 C 
BRANCH  27  28
ATOM     28  C   UNL A   1      33.371  27.384  26.365  1.00  0.00    -0.045 A 
ATOM     29  C   UNL A   1      32.103  27.462  26.961  1.00  0.00     0.004 A 
ATOM     30  C   UNL A   1      34.180  28.524  26.323  1.00  0.00     0.004 A 
ATOM     31  C   UNL A   1      31.603  28.686  27.394  1.00  0.00     0.000 A 
ATOM     32  C   UNL A   1      33.675  29.750  26.756  1.00  0.00     0.000 A 
ATOM     33  C   UNL A   1      32.381  29.834  27.268  1.00  0.00     0.000 A 
ENDBRANCH  27  28
ENDBRANCH  13  27
ENDBRANCH  10  13
ENDBRANCH   5   9
ENDBRANCH   3   5
ENDBRANCH   2   3
ENDBRANCH   1   2
BRANCH   1  34
ATOM     34  C   UNL A   1      37.179  20.264  25.037  1.00  0.00     0.275 C 
BRANCH  34  35
ATOM     35  O   UNL A   1      38.214  21.262  25.119  1.00  0.00    -0.458 OA
BRANCH  35  36
ATOM     36  C   UNL A   1      39.223  20.966  25.965  1.00  0.00     0.338 C 
ATOM     37  O   UNL A   1      39.789  19.885  26.091  1.00  0.00    -0.246 OA
BRANCH  36  38
ATOM     38  C   UNL A   1      39.730  22.187  26.599  1.00  0.00     0.060 A 
ATOM     39  C   UNL A   1      39.194  23.393  26.150  1.00  0.00     0.016 A 
ATOM     40  C   UNL A   1      40.775  22.186  27.518  1.00  0.00     0.016 A 
ATOM     41  C   UNL A   1      39.703  24.604  26.569  1.00  0.00     0.010 A 
ATOM     42  C   UNL A   1      41.284  23.413  27.964  1.00  0.00     0.010 A 
ATOM     43  C   UNL A   1      40.762  24.623  27.469  1.00  0.00    -0.014 A 
BRANCH  43  44
ATOM     44  C   UNL A   1      41.365  25.932  27.781  1.00  0.00     0.031 A 
ATOM     45  C   UNL A   1      42.725  26.252  27.239  1.00  0.00     0.074 A 
ATOM     46  C   UNL A   1      40.647  26.852  28.452  1.00  0.00     0.049 A 
ATOM     47  N   UNL A   1      43.463  27.310  27.437  1.00  0.00    -0.248 NA
ATOM     48  C   UNL A   1      43.335  25.248  26.351  1.00  0.00     0.031 C 
ATOM     49  C   UNL A   1      39.280  26.661  28.942  1.00  0.00     0.029 A 
ATOM     50  N   UNL A   1      40.963  28.128  28.831  1.00  0.00    -0.354 N 
ATOM     51  C   UNL A   1      44.648  27.073  26.756  1.00  0.00     0.074 A 
ATOM     52  C   UNL A   1      44.527  25.779  26.123  1.00  0.00     0.031 C 
ATOM     53  C   UNL A   1      38.878  27.781  29.565  1.00  0.00     0.029 A 
ATOM     54  C   UNL A   1      39.976  28.741  29.565  1.00  0.00     0.049 A 
ATOM     55  H   UNL A   1      41.815  28.566  28.601  1.00  0.00     0.167 HD
ATOM     56  C   UNL A   1      45.738  27.870  26.668  1.00  0.00     0.034 A 
ATOM     57  C   UNL A   1      39.975  29.931  30.193  1.00  0.00     0.034 A 
ATOM     58  C   UNL A   1      45.817  29.175  27.266  1.00  0.00     0.049 A 
ATOM     59  C   UNL A   1      41.205  30.791  30.090  1.00  0.00     0.074 A 
ATOM     60  C   UNL A   1      46.870  30.070  27.249  1.00  0.00     0.029 A 
ATOM     61  N   UNL A   1      44.792  29.773  27.986  1.00  0.00    -0.354 N 
ATOM     62  N   UNL A   1      42.315  30.565  29.428  1.00  0.00    -0.248 NA
ATOM     63  C   UNL A   1      41.177  32.075  30.801  1.00  0.00     0.031 C 
ATOM     64  C   UNL A   1      46.484  31.208  27.967  1.00  0.00     0.029 A 
ATOM     65  C   UNL A   1      45.184  31.029  28.415  1.00  0.00     0.049 A 
ATOM     66  H   UNL A   1      43.915  29.365  28.164  1.00  0.00     0.167 HD
ATOM     67  C   UNL A   1      43.110  31.688  29.622  1.00  0.00     0.074 A 
ATOM     68  C   UNL A   1      42.339  32.604  30.439  1.00  0.00     0.031 C 
ATOM     69  C   UNL A   1      44.370  31.935  29.186  1.00  0.00     0.034 A 
BRANCH  56  70
ATOM     70  C   UNL A   1      46.921  27.343  25.904  1.00  0.00     0.023 A 
ATOM     71  C   UNL A   1      47.823  26.457  26.525  1.00  0.00     0.012 A 
ATOM     72  C   UNL A   1      47.133  27.719  24.563  1.00  0.00     0.148 A 
ATOM     73  C   UNL A   1      48.935  25.976  25.832  1.00  0.00     0.002 A 
ATOM     74  C   UNL A   1      48.220  27.204  23.867  1.00  0.00     0.091 A 
ATOM     75  F   UNL A   1      46.282  28.589  24.001  1.00  0.00    -0.205 F 
ATOM     76  C   UNL A   1      49.128  26.341  24.503  1.00  0.00     0.022 A 
BRANCH  74  77
ATOM     77  S   UNL A   1      48.513  27.565  22.131  1.00  0.00     0.127 S 
ATOM     78  O   UNL A   1      48.726  26.225  21.584  1.00  0.00    -0.237 OA
ATOM     79  O   UNL A   1      47.255  28.194  21.730  1.00  0.00    -0.237 OA
ATOM     80  O   UNL A   1      49.670  28.448  22.097  1.00  0.00    -0.744 OA
ENDBRANCH  74  77
ENDBRANCH  56  70
BRANCH  57  81
ATOM     81  C   UNL A   1      38.773  30.374  30.955  1.00  0.00     0.023 A 
ATOM     82  C   UNL A   1      38.694  30.122  32.338  1.00  0.00     0.012 A 
ATOM     83  C   UNL A   1      37.727  31.078  30.325  1.00  0.00     0.148 A 
ATOM     84  C   UNL A   1      37.586  30.543  33.074  1.00  0.00     0.002 A 
ATOM     85  C   UNL A   1      36.656  31.547  31.076  1.00  0.00     0.091 A 
ATOM     86  F   UNL A   1      37.806  31.288  29.004  1.00  0.00    -0.205 F 
ATOM     87  C   UNL A   1      36.574  31.267  32.448  1.00  0.00     0.022 A 
BRANCH  85  88
ATOM     88  S   UNL A   1      35.387  32.610  30.375  1.00  0.00     0.127 S 
ATOM     89  O   UNL A   1      34.476  32.773  31.503  1.00  0.00    -0.237 OA
ATOM     90  O   UNL A   1      36.154  33.807  30.023  1.00  0.00    -0.237 OA
ATOM     91  O   UNL A   1      34.860  31.883  29.228  1.00  0.00    -0.744 OA
ENDBRANCH  85  88
ENDBRANCH  57  81
BRANCH  69  92
ATOM     92  C   UNL A   1      44.976  33.259  29.563  1.00  0.00     0.023 A 
ATOM     93  C   UNL A   1      45.739  33.367  30.742  1.00  0.00     0.012 A 
ATOM     94  C   UNL A   1      44.835  34.380  28.722  1.00  0.00     0.148 A 
ATOM     95  C   UNL A   1      46.321  34.581  31.098  1.00  0.00     0.002 A 
ATOM     96  C   UNL A   1      45.457  35.574  29.061  1.00  0.00     0.091 A 
ATOM     97  F   UNL A   1      44.085  34.263  27.616  1.00  0.00    -0.205 F 
ATOM     98  C   UNL A   1      46.190  35.681  30.253  1.00  0.00     0.022 A 
BRANCH  96  99
ATOM     99  S   UNL A   1      45.413  37.004  27.975  1.00  0.00     0.127 S 
ATOM    100  O   UNL A   1      46.095  36.496  26.785  1.00  0.00    -0.237 OA
ATOM    101  O   UNL A   1      43.978  37.230  27.806  1.00  0.00    -0.237 OA
ATOM    102  O   UNL A   1      46.105  38.065  28.696  1.00  0.00    -0.744 OA
ENDBRANCH  96  99
ENDBRANCH  69  92
ENDBRANCH  43  44
ENDBRANCH  36  38
ENDBRANCH  35  36
ENDBRANCH  34  35
ENDBRANCH   1  34
TORSDOF 20
ENDMDL
MODEL 2
REMARK VINA RESULT:     -13.3      4.834     10.221
REMARK SMILES CC(C)[C@H](NC(=O)[C@H](Cc1ccccc1)n1c(=O)[nH]c2ccccc2c1=O)C(=O)OCCOC(=O)c1ccc(-c2c3nc(c(-c4cccc(S(=O)(=O)[O-])c4F)c4ccc([nH]4)c(-c4cccc(S(=O)(=O)[O-])c4F)c4nc(c(-c5cccc(S(=O)(=O)[O-])c5F)c5ccc2[nH]5)C=C4)C=C3)cc1
REMARK SMILES IDX 31 1 30 2 28 3 29 4 4 5 2 6 1 7 3 8 5 9 6 10 7 12 8 13 16 14
REMARK SMILES IDX 17 15 26 16 18 17 19 18 25 19 27 20 20 21 24 23 21 24 23 25
REMARK SMILES IDX 22 26 9 27 10 28 11 29 15 30 12 31 14 32 13 33 32 34 33 35
REMARK SMILES IDX 34 36 35 37 36 38 37 39 98 40 38 41 97 42 39 43 40 44 41 45
REMARK SMILES IDX 91 46 42 47 96 48 90 49 92 50 43 51 95 52 89 53 88 54 44 56
REMARK SMILES IDX 76 57 56 58 75 59 57 60 60 61 74 62 93 63 58 64 59 65 73 67
REMARK SMILES IDX 94 68 61 69 45 70 46 71 54 72 47 73 49 74 55 75 48 76 50 77
REMARK SMILES IDX 51 78 52 79 53 80 77 81 78 82 86 83 79 84 81 85 87 86 80 87
REMARK SMILES IDX 82 88 83 89 84 90 85 91 62 92 63 93 71 94 64 95 66 96 72 97
REMARK SMILES IDX 65 98 67 99 68 100 69 101 70 102
REMARK H PARENT 5 11 19 22 92 55 60 66
REMARK Flexibility Score: inf
ROOT
ATOM      1  C   UNL A   1      31.294  30.024  25.150  1.00  0.00     0.274 C 
ENDROOT
BRANCH   1   2
ATOM      2  O   UNL A   1      31.630  28.719  25.663  1.00  0.00    -0.461 OA
BRANCH   2   3
ATOM      3  C   UNL A   1      32.692  28.087  25.079  1.00  0.00     0.329 C 
ATOM      4  O   UNL A   1      33.830  28.538  25.075  1.00  0.00    -0.250 OA
BRANCH   3   5
ATOM      5  C   UNL A   1      32.307  26.665  24.585  1.00  0.00     0.194 C 
BRANCH   5   6
ATOM      6  C   UNL A   1      31.734  26.486  23.151  1.00  0.00     0.017 C 
ATOM      7  C   UNL A   1      31.271  27.742  22.408  1.00  0.00     0.010 C 
ATOM      8  C   UNL A   1      32.712  25.727  22.240  1.00  0.00     0.010 C 
ENDBRANCH   5   6
BRANCH   5   9
ATOM      9  N   UNL A   1      31.591  25.868  25.594  1.00  0.00    -0.341 N 
ATOM     10  C   UNL A   1      31.936  24.850  26.425  1.00  0.00     0.244 C 
ATOM     11  H   UNL A   1      30.648  26.132  25.689  1.00  0.00     0.164 HD
ATOM     12  O   UNL A   1      31.006  24.422  27.124  1.00  0.00    -0.273 OA
BRANCH  10  13
ATOM     13  C   UNL A   1      33.274  24.070  26.333  1.00  0.00     0.189 C 
BRANCH  13  14
ATOM     14  N   UNL A   1      33.165  22.634  26.027  1.00  0.00    -0.247 N 
ATOM     15  C   UNL A   1      33.505  21.727  27.024  1.00  0.00     0.329 A 
ATOM     16  C   UNL A   1      32.541  22.258  24.836  1.00  0.00     0.264 A 
ATOM     17  O   UNL A   1      34.042  22.046  28.084  1.00  0.00    -0.248 OA
ATOM     18  N   UNL A   1      33.290  20.404  26.755  1.00  0.00    -0.307 N 
ATOM     19  C   UNL A   1      32.535  20.821  24.513  1.00  0.00     0.064 A 
ATOM     20  O   UNL A   1      31.997  23.045  24.064  1.00  0.00    -0.268 OA
ATOM     21  C   UNL A   1      32.877  19.923  25.515  1.00  0.00     0.055 A 
ATOM     22  H   UNL A   1      33.434  19.753  27.480  1.00  0.00     0.171 HD
ATOM     23  C   UNL A   1      32.237  20.367  23.225  1.00  0.00     0.016 A 
ATOM     24  C   UNL A   1      32.878  18.553  25.257  1.00  0.00     0.027 A 
ATOM     25  C   UNL A   1      32.275  18.999  22.953  1.00  0.00     0.001 A 
ATOM     26  C   UNL A   1      32.583  18.093  23.971  1.00  0.00     0.002 A 
ENDBRANCH  13  14
BRANCH  13  27
ATOM     27  C   UNL A   1      34.285  24.848  25.429  1.00  0.00     0.071 C 
BRANCH  27  28
ATOM     28  C   UNL A   1      35.521  24.065  25.044  1.00  0.00    -0.045 A 
ATOM     29  C   UNL A   1      35.639  23.581  23.732  1.00  0.00     0.004 A 
ATOM     30  C   UNL A   1      36.438  23.645  26.014  1.00  0.00     0.004 A 
ATOM     31  C   UNL A   1      36.578  22.602  23.425  1.00  0.00     0.000 A 
ATOM     32  C   UNL A   1      37.375  22.661  25.704  1.00  0.00     0.000 A 
ATOM     33  C   UNL A   1      37.429  22.124  24.418  1.00  0.00     0.000 A 
ENDBRANCH  27  28
ENDBRANCH  13  27
ENDBRANCH  10  13
ENDBRANCH   5   9
ENDBRANCH   3   5
ENDBRANCH   2   3
ENDBRANCH   1   2
BRANCH   1  34
ATOM     34  C   UNL A   1      31.383  31.096  26.242  1.00  0.00     0.275 C 
BRANCH  34  35
ATOM     35  O   UNL A   1      32.512  30.883  27.110  1.00  0.00    -0.458 OA
BRANCH  35  36
ATOM     36  C   UNL A   1      33.255  31.983  27.357  1.00  0.00     0.338 C 
ATOM     37  O   UNL A   1      32.865  33.146  27.391  1.00  0.00    -0.246 OA
BRANCH  36  38
ATOM     38  C   UNL A   1      34.598  31.601  27.802  1.00  0.00     0.060 A 
ATOM     39  C   UNL A   1      34.793  30.258  28.122  1.00  0.00     0.016 A 
ATOM     40  C   UNL A   1      35.616  32.525  28.019  1.00  0.00     0.016 A 
ATOM     41  C   UNL A   1      35.969  29.818  28.691  1.00  0.00     0.010 A 
ATOM     42  C   UNL A   1      36.822  32.082  28.579  1.00  0.00     0.010 A 
ATOM     43  C   UNL A   1      36.989  30.731  28.936  1.00  0.00    -0.014 A 
BRANCH  43  44
ATOM     44  C   UNL A   1      38.172  30.246  29.672  1.00  0.00     0.031 A 
ATOM     45  C   UNL A   1      38.363  30.670  31.097  1.00  0.00     0.074 A 
ATOM     46  C   UNL A   1      38.995  29.354  29.092  1.00  0.00     0.049 A 
ATOM     47  N   UNL A   1      39.354  30.413  31.906  1.00  0.00    -0.248 NA
ATOM     48  C   UNL A   1      37.294  31.489  31.692  1.00  0.00     0.031 C 
ATOM     49  C   UNL A   1      38.837  28.816  27.739  1.00  0.00     0.029 A 
ATOM     50  N   UNL A   1      40.122  28.739  29.568  1.00  0.00    -0.354 N 
ATOM     51  C   UNL A   1      39.064  31.091  33.082  1.00  0.00     0.074 A 
ATOM     52  C   UNL A   1      37.794  31.756  32.890  1.00  0.00     0.031 C 
ATOM     53  C   UNL A   1      39.838  27.955  27.491  1.00  0.00     0.029 A 
ATOM     54  C   UNL A   1      40.732  27.926  28.643  1.00  0.00     0.049 A 
ATOM     55  H   UNL A   1      40.463  28.867  30.483  1.00  0.00     0.167 HD
ATOM     56  C   UNL A   1      39.794  31.147  34.219  1.00  0.00     0.034 A 
ATOM     57  C   UNL A   1      41.900  27.261  28.711  1.00  0.00     0.034 A 
ATOM     58  C   UNL A   1      41.030  30.438  34.404  1.00  0.00     0.049 A 
ATOM     59  C   UNL A   1      42.699  27.353  29.982  1.00  0.00     0.074 A 
ATOM     60  C   UNL A   1      41.859  30.423  35.510  1.00  0.00     0.029 A 
ATOM     61  N   UNL A   1      41.610  29.608  33.455  1.00  0.00    -0.354 N 
ATOM     62  N   UNL A   1      42.405  27.982  31.096  1.00  0.00    -0.248 NA
ATOM     63  C   UNL A   1      43.975  26.628  30.017  1.00  0.00     0.031 C 
ATOM     64  C   UNL A   1      42.947  29.590  35.225  1.00  0.00     0.029 A 
ATOM     65  C   UNL A   1      42.785  29.070  33.949  1.00  0.00     0.049 A 
ATOM     66  H   UNL A   1      41.239  29.426  32.562  1.00  0.00     0.167 HD
ATOM     67  C   UNL A   1      43.448  27.712  31.973  1.00  0.00     0.074 A 
ATOM     68  C   UNL A   1      44.364  26.836  31.268  1.00  0.00     0.031 C 
ATOM     69  C   UNL A   1      43.647  28.161  33.236  1.00  0.00     0.034 A 
BRANCH  56  70
ATOM     70  C   UNL A   1      39.270  32.008  35.336  1.00  0.00     0.023 A 
ATOM     71  C   UNL A   1      39.455  33.404  35.296  1.00  0.00     0.012 A 
ATOM     72  C   UNL A   1      38.583  31.432  36.422  1.00  0.00     0.148 A 
ATOM     73  C   UNL A   1      38.990  34.211  36.334  1.00  0.00     0.002 A 
ATOM     74  C   UNL A   1      38.088  32.246  37.434  1.00  0.00     0.091 A 
ATOM     75  F   UNL A   1      38.447  30.099  36.458  1.00  0.00    -0.205 F 
ATOM     76  C   UNL A   1      38.299  33.634  37.397  1.00  0.00     0.022 A 
BRANCH  74  77
ATOM     77  S   UNL A   1      37.128  31.601  38.808  1.00  0.00     0.127 S 
ATOM     78  O   UNL A   1      38.058  31.774  39.923  1.00  0.00    -0.237 OA
ATOM     79  O   UNL A   1      35.975  32.502  38.831  1.00  0.00    -0.237 OA
ATOM     80  O   UNL A   1      36.812  30.223  38.463  1.00  0.00    -0.744 OA
ENDBRANCH  74  77
ENDBRANCH  56  70
BRANCH  57  81
ATOM     81  C   UNL A   1      42.367  26.449  27.551  1.00  0.00     0.023 A 
ATOM     82  C   UNL A   1      43.216  27.031  26.591  1.00  0.00     0.012 A 
ATOM     83  C   UNL A   1      42.007  25.093  27.416  1.00  0.00     0.148 A 
ATOM     84  C   UNL A   1      43.680  26.285  25.507  1.00  0.00     0.002 A 
ATOM     85  C   UNL A   1      42.521  24.340  26.367  1.00  0.00     0.091 A 
ATOM     86  F   UNL A   1      41.178  24.561  28.325  1.00  0.00    -0.205 F 
ATOM     87  C   UNL A   1      43.345  24.938  25.401  1.00  0.00     0.022 A 
BRANCH  85  88
ATOM     88  S   UNL A   1      42.257  22.567  26.241  1.00  0.00     0.127 S 
ATOM     89  O   UNL A   1      40.800  22.483  26.208  1.00  0.00    -0.237 OA
ATOM     90  O   UNL A   1      42.923  22.249  24.977  1.00  0.00    -0.237 OA
ATOM     91  O   UNL A   1      42.903  21.993  27.414  1.00  0.00    -0.744 OA
ENDBRANCH  85  88
ENDBRANCH  57  81
BRANCH  69  92
ATOM     92  C   UNL A   1      44.888  27.688  33.942  1.00  0.00     0.023 A 
ATOM     93  C   UNL A   1      46.069  28.452  33.865  1.00  0.00     0.012 A 
ATOM     94  C   UNL A   1      44.869  26.518  34.725  1.00  0.00     0.148 A 
ATOM     95  C   UNL A   1      47.223  28.037  34.525  1.00  0.00     0.002 A 
ATOM     96  C   UNL A   1      46.010  26.136  35.418  1.00  0.00     0.091 A 
ATOM     97  F   UNL A   1      43.741  25.791  34.767  1.00  0.00    -0.205 F 
ATOM     98  C   UNL A   1      47.191  26.887  35.311  1.00  0.00     0.022 A 
BRANCH  96  99
ATOM     99  S   UNL A   1      46.016  24.721  36.524  1.00  0.00     0.127 S 
ATOM    100  O   UNL A   1      46.077  23.605  35.582  1.00  0.00    -0.237 OA
ATOM    101  O   UNL A   1      47.238  24.931  37.301  1.00  0.00    -0.237 OA
ATOM    102  O   UNL A   1      44.788  24.827  37.302  1.00  0.00    -0.744 OA
ENDBRANCH  96  99
ENDBRANCH  69  92
ENDBRANCH  43  44
ENDBRANCH  36  38
ENDBRANCH  35  36
ENDBRANCH  34  35
ENDBRANCH   1  34
TORSDOF 20
ENDMDL
MODEL 3
REMARK VINA RESULT:     -13.2      4.855      8.054
REMARK SMILES CC(C)[C@H](NC(=O)[C@H](Cc1ccccc1)n1c(=O)[nH]c2ccccc2c1=O)C(=O)OCCOC(=O)c1ccc(-c2c3nc(c(-c4cccc(S(=O)(=O)[O-])c4F)c4ccc([nH]4)c(-c4cccc(S(=O)(=O)[O-])c4F)c4nc(c(-c5cccc(S(=O)(=O)[O-])c5F)c5ccc2[nH]5)C=C4)C=C3)cc1
REMARK SMILES IDX 31 1 30 2 28 3 29 4 4 5 2 6 1 7 3 8 5 9 6 10 7 12 8 13 16 14
REMARK SMILES IDX 17 15 26 16 18 17 19 18 25 19 27 20 20 21 24 23 21 24 23 25
REMARK SMILES IDX 22 26 9 27 10 28 11 29 15 30 12 31 14 32 13 33 32 34 33 35
REMARK SMILES IDX 34 36 35 37 36 38 37 39 98 40 38 41 97 42 39 43 40 44 41 45
REMARK SMILES IDX 91 46 42 47 96 48 90 49 92 50 43 51 95 52 89 53 88 54 44 56
REMARK SMILES IDX 76 57 56 58 75 59 57 60 60 61 74 62 93 63 58 64 59 65 73 67
REMARK SMILES IDX 94 68 61 69 45 70 46 71 54 72 47 73 49 74 55 75 48 76 50 77
REMARK SMILES IDX 51 78 52 79 53 80 77 81 78 82 86 83 79 84 81 85 87 86 80 87
REMARK SMILES IDX 82 88 83 89 84 90 85 91 62 92 63 93 71 94 64 95 66 96 72 97
REMARK SMILES IDX 65 98 67 99 68 100 69 101 70 102
REMARK H PARENT 5 11 19 22 92 55 60 66
REMARK Flexibility Score: inf
ROOT
ATOM      1  C   UNL A   1      31.313  29.811  25.128  1.00  0.00     0.274 C 
ENDROOT
BRANCH   1   2
ATOM      2  O   UNL A   1      31.564  28.568  25.814  1.00  0.00    -0.461 OA
BRANCH   2   3
ATOM      3  C   UNL A   1      32.620  27.825  25.366  1.00  0.00     0.329 C 
ATOM      4  O   UNL A   1      33.790  28.131  25.551  1.00  0.00    -0.250 OA
BRANCH   3   5
ATOM      5  C   UNL A   1      32.149  26.475  24.757  1.00  0.00     0.194 C 
BRANCH   5   6
ATOM      6  C   UNL A   1      31.504  26.461  23.343  1.00  0.00     0.017 C 
ATOM      7  C   UNL A   1      30.023  26.835  23.233  1.00  0.00     0.010 C 
ATOM      8  C   UNL A   1      32.291  27.334  22.352  1.00  0.00     0.010 C 
ENDBRANCH   5   6
BRANCH   5   9
ATOM      9  N   UNL A   1      31.446  25.612  25.719  1.00  0.00    -0.341 N 
ATOM     10  C   UNL A   1      31.809  24.563  26.502  1.00  0.00     0.244 C 
ATOM     11  H   UNL A   1      30.495  25.848  25.818  1.00  0.00     0.164 HD
ATOM     12  O   UNL A   1      30.885  24.078  27.172  1.00  0.00    -0.273 OA
BRANCH  10  13
ATOM     13  C   UNL A   1      33.167  23.822  26.385  1.00  0.00     0.189 C 
BRANCH  13  14
ATOM     14  N   UNL A   1      33.097  22.402  26.001  1.00  0.00    -0.247 N 
ATOM     15  C   UNL A   1      33.489  21.453  26.937  1.00  0.00     0.329 A 
ATOM     16  C   UNL A   1      32.457  22.073  24.805  1.00  0.00     0.264 A 
ATOM     17  O   UNL A   1      34.041  21.730  28.002  1.00  0.00    -0.248 OA
ATOM     18  N   UNL A   1      33.310  20.140  26.599  1.00  0.00    -0.307 N 
ATOM     19  C   UNL A   1      32.489  20.656  24.401  1.00  0.00     0.064 A 
ATOM     20  O   UNL A   1      31.869  22.882  24.090  1.00  0.00    -0.268 OA
ATOM     21  C   UNL A   1      32.884  19.715  25.343  1.00  0.00     0.055 A 
ATOM     22  H   UNL A   1      33.493  19.456  27.283  1.00  0.00     0.171 HD
ATOM     23  C   UNL A   1      32.175  20.264  23.097  1.00  0.00     0.016 A 
ATOM     24  C   UNL A   1      32.922  18.363  25.010  1.00  0.00     0.027 A 
ATOM     25  C   UNL A   1      32.250  18.915  22.748  1.00  0.00     0.001 A 
ATOM     26  C   UNL A   1      32.611  17.966  23.706  1.00  0.00     0.002 A 
ENDBRANCH  13  14
BRANCH  13  27
ATOM     27  C   UNL A   1      34.168  24.672  25.536  1.00  0.00     0.071 C 
BRANCH  27  28
ATOM     28  C   UNL A   1      35.421  23.937  25.113  1.00  0.00    -0.045 A 
ATOM     29  C   UNL A   1      35.556  23.534  23.776  1.00  0.00     0.004 A 
ATOM     30  C   UNL A   1      36.340  23.477  26.063  1.00  0.00     0.004 A 
ATOM     31  C   UNL A   1      36.515  22.593  23.417  1.00  0.00     0.000 A 
ATOM     32  C   UNL A   1      37.298  22.532  25.701  1.00  0.00     0.000 A 
ATOM     33  C   UNL A   1      37.370  22.073  24.386  1.00  0.00     0.000 A 
ENDBRANCH  27  28
ENDBRANCH  13  27
ENDBRANCH  10  13
ENDBRANCH   5   9
ENDBRANCH   3   5
ENDBRANCH   2   3
ENDBRANCH   1   2
BRANCH   1  34
ATOM     34  C   UNL A   1      31.401  31.006  26.083  1.00  0.00     0.275 C 
BRANCH  34  35
ATOM     35  O   UNL A   1      32.462  30.847  27.044  1.00  0.00    -0.458 OA
BRANCH  35  36
ATOM     36  C   UNL A   1      33.183  31.963  27.284  1.00  0.00     0.338 C 
ATOM     37  O   UNL A   1      32.780  33.122  27.264  1.00  0.00    -0.246 OA
BRANCH  36  38
ATOM     38  C   UNL A   1      34.510  31.610  27.798  1.00  0.00     0.060 A 
ATOM     39  C   UNL A   1      34.690  30.291  28.211  1.00  0.00     0.016 A 
ATOM     40  C   UNL A   1      35.522  32.546  27.987  1.00  0.00     0.016 A 
ATOM     41  C   UNL A   1      35.846  29.890  28.847  1.00  0.00     0.010 A 
ATOM     42  C   UNL A   1      36.708  32.141  28.615  1.00  0.00     0.010 A 
ATOM     43  C   UNL A   1      36.859  30.816  29.066  1.00  0.00    -0.014 A 
BRANCH  43  44
ATOM     44  C   UNL A   1      38.016  30.380  29.871  1.00  0.00     0.031 A 
ATOM     45  C   UNL A   1      39.040  29.485  29.243  1.00  0.00     0.074 A 
ATOM     46  C   UNL A   1      38.186  30.876  31.110  1.00  0.00     0.049 A 
ATOM     47  N   UNL A   1      40.096  28.938  29.781  1.00  0.00    -0.248 NA
ATOM     48  C   UNL A   1      38.854  29.166  27.818  1.00  0.00     0.031 C 
ATOM     49  C   UNL A   1      37.286  31.824  31.771  1.00  0.00     0.029 A 
ATOM     50  N   UNL A   1      39.176  30.656  32.030  1.00  0.00    -0.354 N 
ATOM     51  C   UNL A   1      40.663  28.158  28.783  1.00  0.00     0.074 A 
ATOM     52  C   UNL A   1      39.847  28.316  27.600  1.00  0.00     0.031 C 
ATOM     53  C   UNL A   1      37.763  32.099  32.996  1.00  0.00     0.029 A 
ATOM     54  C   UNL A   1      38.966  31.306  33.223  1.00  0.00     0.049 A 
ATOM     55  H   UNL A   1      39.961  30.089  31.855  1.00  0.00     0.167 HD
ATOM     56  C   UNL A   1      41.770  27.383  28.853  1.00  0.00     0.034 A 
ATOM     57  C   UNL A   1      39.653  31.238  34.379  1.00  0.00     0.034 A 
ATOM     58  C   UNL A   1      42.593  27.279  30.026  1.00  0.00     0.049 A 
ATOM     59  C   UNL A   1      40.871  30.357  34.432  1.00  0.00     0.074 A 
ATOM     60  C   UNL A   1      43.734  26.522  30.217  1.00  0.00     0.029 A 
ATOM     61  N   UNL A   1      42.363  27.964  31.211  1.00  0.00    -0.354 N 
ATOM     62  N   UNL A   1      41.410  29.638  33.477  1.00  0.00    -0.248 NA
ATOM     63  C   UNL A   1      41.587  30.294  35.712  1.00  0.00     0.031 C 
ATOM     64  C   UNL A   1      44.189  26.743  31.521  1.00  0.00     0.029 A 
ATOM     65  C   UNL A   1      43.343  27.653  32.137  1.00  0.00     0.049 A 
ATOM     66  H   UNL A   1      41.615  28.582  31.370  1.00  0.00     0.167 HD
ATOM     67  C   UNL A   1      42.542  29.054  34.031  1.00  0.00     0.074 A 
ATOM     68  C   UNL A   1      42.625  29.530  35.399  1.00  0.00     0.031 C 
ATOM     69  C   UNL A   1      43.422  28.185  33.474  1.00  0.00     0.034 A 
BRANCH  56  70
ATOM     70  C   UNL A   1      42.138  26.590  27.629  1.00  0.00     0.023 A 
ATOM     71  C   UNL A   1      42.738  27.232  26.528  1.00  0.00     0.012 A 
ATOM     72  C   UNL A   1      41.900  25.203  27.575  1.00  0.00     0.148 A 
ATOM     73  C   UNL A   1      43.068  26.512  25.380  1.00  0.00     0.002 A 
ATOM     74  C   UNL A   1      42.268  24.484  26.444  1.00  0.00     0.091 A 
ATOM     75  F   UNL A   1      41.298  24.617  28.620  1.00  0.00    -0.205 F 
ATOM     76  C   UNL A   1      42.842  25.139  25.341  1.00  0.00     0.022 A 
BRANCH  74  77
ATOM     77  S   UNL A   1      42.076  22.702  26.329  1.00  0.00     0.127 S 
ATOM     78  O   UNL A   1      40.626  22.553  26.443  1.00  0.00    -0.237 OA
ATOM     79  O   UNL A   1      42.615  22.418  24.999  1.00  0.00    -0.237 OA
ATOM     80  O   UNL A   1      42.852  22.146  27.428  1.00  0.00    -0.744 OA
ENDBRANCH  74  77
ENDBRANCH  56  70
BRANCH  57  81
ATOM     81  C   UNL A   1      39.210  32.033  35.559  1.00  0.00     0.023 A 
ATOM     82  C   UNL A   1      38.338  31.455  36.500  1.00  0.00     0.012 A 
ATOM     83  C   UNL A   1      39.680  33.344  35.776  1.00  0.00     0.148 A 
ATOM     84  C   UNL A   1      37.924  32.173  37.622  1.00  0.00     0.002 A 
ATOM     85  C   UNL A   1      39.312  34.032  36.926  1.00  0.00     0.091 A 
ATOM     86  F   UNL A   1      40.491  33.889  34.858  1.00  0.00    -0.205 F 
ATOM     87  C   UNL A   1      38.420  33.456  37.843  1.00  0.00     0.022 A 
BRANCH  85  88
ATOM     88  S   UNL A   1      40.022  35.626  37.357  1.00  0.00     0.127 S 
ATOM     89  O   UNL A   1      39.644  36.443  36.208  1.00  0.00    -0.237 OA
ATOM     90  O   UNL A   1      39.317  35.946  38.600  1.00  0.00    -0.237 OA
ATOM     91  O   UNL A   1      41.448  35.384  37.527  1.00  0.00    -0.744 OA
ENDBRANCH  85  88
ENDBRANCH  57  81
BRANCH  69  92
ATOM     92  C   UNL A   1      44.563  27.721  34.337  1.00  0.00     0.023 A 
ATOM     93  C   UNL A   1      45.773  28.442  34.340  1.00  0.00     0.012 A 
ATOM     94  C   UNL A   1      44.417  26.606  35.184  1.00  0.00     0.148 A 
ATOM     95  C   UNL A   1      46.835  28.037  35.146  1.00  0.00     0.002 A 
ATOM     96  C   UNL A   1      45.464  26.236  36.019  1.00  0.00     0.091 A 
ATOM     97  F   UNL A   1      43.265  25.919  35.150  1.00  0.00    -0.205 F 
ATOM     98  C   UNL A   1      46.677  26.942  35.993  1.00  0.00     0.022 A 
BRANCH  96  99
ATOM     99  S   UNL A   1      45.300  24.898  37.205  1.00  0.00     0.127 S 
ATOM    100  O   UNL A   1      46.624  24.887  37.827  1.00  0.00    -0.237 OA
ATOM    101  O   UNL A   1      44.223  25.373  38.073  1.00  0.00    -0.237 OA
ATOM    102  O   UNL A   1      44.960  23.718  36.420  1.00  0.00    -0.744 OA
ENDBRANCH  96  99
ENDBRANCH  69  92
ENDBRANCH  43  44
ENDBRANCH  36  38
ENDBRANCH  35  36
ENDBRANCH  34  35
ENDBRANCH   1  34
TORSDOF 20
ENDMDL
