MODEL 1
REMARK VINA RESULT:     -12.4      0.000      0.000
REMARK SMILES CC[C@@H](C)c1ccccc1NC(=O)[C@@H]1[C@@H](C(=O)OCCOC(=O)c2ccc(-c3c4nc(c(-c5cccc(S(=O)(=O)[O-])c5F)c5ccc([nH]5)c(-c5cccc(S(=O)(=O)[O-])c5F)c5nc(c(-c6cccc(S(=O)(=O)[O-])c6F)c6ccc3[nH]6)C=C5)C=C4)cc2)[C@@H]2C=C[C@H]1C2
REMARK SMILES IDX 19 1 18 2 16 3 17 4 15 5 14 6 90 7 87 8 89 9 91 10 88 11
REMARK SMILES IDX 12 12 11 13 13 15 10 16 5 17 6 18 7 19 9 20 8 21 3 22 4 23
REMARK SMILES IDX 2 24 1 25 20 26 21 27 22 28 23 29 24 30 25 31 86 32 26 33
REMARK SMILES IDX 85 34 27 35 28 36 29 37 79 38 30 39 84 40 78 41 80 42 31 43
REMARK SMILES IDX 83 44 77 45 76 46 32 48 64 49 44 50 63 51 45 52 48 53 62 54
REMARK SMILES IDX 81 55 46 56 47 57 61 59 82 60 49 61 33 62 34 63 42 64 35 65
REMARK SMILES IDX 37 66 43 67 36 68 38 69 39 70 40 71 41 72 65 73 66 74 74 75
REMARK SMILES IDX 67 76 69 77 75 78 68 79 70 80 71 81 72 82 73 83 50 84 51 85
REMARK SMILES IDX 59 86 52 87 54 88 60 89 53 90 55 91 56 92 57 93 58 94
REMARK H PARENT 11 14 80 47 48 58
REMARK Flexibility Score: inf
ROOT
ATOM      1  C   UNL A   1      31.623  28.610  24.507  1.00  0.00     0.274 C 
ENDROOT
BRANCH   1   2
ATOM      2  O   UNL A   1      30.615  27.677  24.942  1.00  0.00    -0.462 OA
BRANCH   2   3
ATOM      3  C   UNL A   1      31.038  26.713  25.803  1.00  0.00     0.310 C 
ATOM      4  O   UNL A   1      31.344  26.915  26.969  1.00  0.00    -0.252 OA
BRANCH   3   5
ATOM      5  C   UNL A   1      30.991  25.334  25.177  1.00  0.00     0.119 C 
ATOM      6  C   UNL A   1      32.264  24.435  25.430  1.00  0.00     0.100 C 
ATOM      7  C   UNL A   1      32.600  24.021  23.974  1.00  0.00     0.025 C 
ATOM      8  C   UNL A   1      30.885  25.392  23.629  1.00  0.00     0.027 C 
ATOM      9  C   UNL A   1      31.485  23.200  23.370  1.00  0.00    -0.027 C 
ATOM     10  C   UNL A   1      32.349  25.325  23.213  1.00  0.00     0.017 C 
ATOM     11  C   UNL A   1      30.454  24.027  23.157  1.00  0.00    -0.027 C 
BRANCH   6  12
ATOM     12  C   UNL A   1      31.897  23.424  26.528  1.00  0.00     0.228 C 
ATOM     13  N   UNL A   1      32.492  22.236  26.809  1.00  0.00    -0.326 N 
ATOM     14  H   UNL A   1      31.978  21.697  27.453  1.00  0.00     0.169 HD
ATOM     15  O   UNL A   1      30.922  23.686  27.251  1.00  0.00    -0.274 OA
BRANCH  13  16
ATOM     16  C   UNL A   1      33.669  21.603  26.393  1.00  0.00     0.044 A 
ATOM     17  C   UNL A   1      33.647  20.634  25.372  1.00  0.00    -0.022 A 
ATOM     18  C   UNL A   1      34.812  20.567  24.576  1.00  0.00     0.006 A 
ATOM     19  C   UNL A   1      36.009  21.158  24.971  1.00  0.00     0.000 A 
ATOM     20  C   UNL A   1      34.899  21.998  26.916  1.00  0.00     0.026 A 
ATOM     21  C   UNL A   1      36.074  21.787  26.201  1.00  0.00     0.002 A 
BRANCH  17  22
ATOM     22  C   UNL A   1      32.494  19.637  25.083  1.00  0.00     0.018 C 
ATOM     23  C   UNL A   1      32.689  18.243  25.716  1.00  0.00     0.013 C 
BRANCH  22  24
ATOM     24  C   UNL A   1      32.332  19.447  23.533  1.00  0.00     0.005 C 
ATOM     25  C   UNL A   1      32.497  18.041  22.974  1.00  0.00     0.004 C 
ENDBRANCH  22  24
ENDBRANCH  17  22
ENDBRANCH  13  16
ENDBRANCH   6  12
ENDBRANCH   3   5
ENDBRANCH   2   3
ENDBRANCH   1   2
BRANCH   1  26
ATOM     26  C   UNL A   1      31.578  29.823  25.436  1.00  0.00     0.275 C 
BRANCH  26  27
ATOM     27  O   UNL A   1      32.900  30.064  25.953  1.00  0.00    -0.458 OA
BRANCH  27  28
ATOM     28  C   UNL A   1      33.001  31.081  26.842  1.00  0.00     0.338 C 
ATOM     29  O   UNL A   1      32.188  31.967  27.034  1.00  0.00    -0.246 OA
BRANCH  28  30
ATOM     30  C   UNL A   1      34.288  30.983  27.556  1.00  0.00     0.060 A 
ATOM     31  C   UNL A   1      35.108  32.099  27.747  1.00  0.00     0.016 A 
ATOM     32  C   UNL A   1      34.698  29.728  28.004  1.00  0.00     0.016 A 
ATOM     33  C   UNL A   1      36.358  31.957  28.352  1.00  0.00     0.010 A 
ATOM     34  C   UNL A   1      35.912  29.602  28.678  1.00  0.00     0.010 A 
ATOM     35  C   UNL A   1      36.764  30.709  28.841  1.00  0.00    -0.014 A 
BRANCH  35  36
ATOM     36  C   UNL A   1      38.062  30.517  29.539  1.00  0.00     0.031 A 
ATOM     37  C   UNL A   1      39.090  29.588  28.953  1.00  0.00     0.074 A 
ATOM     38  C   UNL A   1      38.264  31.067  30.752  1.00  0.00     0.049 A 
ATOM     39  N   UNL A   1      40.152  29.067  29.510  1.00  0.00    -0.248 NA
ATOM     40  C   UNL A   1      38.874  29.168  27.559  1.00  0.00     0.031 C 
ATOM     41  C   UNL A   1      37.342  31.977  31.434  1.00  0.00     0.029 A 
ATOM     42  N   UNL A   1      39.288  30.895  31.652  1.00  0.00    -0.354 N 
ATOM     43  C   UNL A   1      40.686  28.197  28.567  1.00  0.00     0.074 A 
ATOM     44  C   UNL A   1      39.839  28.273  27.396  1.00  0.00     0.031 C 
ATOM     45  C   UNL A   1      37.822  32.256  32.655  1.00  0.00     0.029 A 
ATOM     46  C   UNL A   1      39.051  31.499  32.866  1.00  0.00     0.049 A 
ATOM     47  H   UNL A   1      40.109  30.389  31.449  1.00  0.00     0.167 HD
ATOM     48  C   UNL A   1      41.785  27.411  28.669  1.00  0.00     0.034 A 
ATOM     49  C   UNL A   1      39.716  31.413  34.035  1.00  0.00     0.034 A 
ATOM     50  C   UNL A   1      42.653  27.389  29.815  1.00  0.00     0.049 A 
ATOM     51  C   UNL A   1      40.949  30.558  34.114  1.00  0.00     0.074 A 
ATOM     52  C   UNL A   1      43.835  26.690  29.988  1.00  0.00     0.029 A 
ATOM     53  N   UNL A   1      42.433  28.097  30.987  1.00  0.00    -0.354 N 
ATOM     54  N   UNL A   1      41.499  29.815  33.184  1.00  0.00    -0.248 NA
ATOM     55  C   UNL A   1      41.669  30.548  35.395  1.00  0.00     0.031 C 
ATOM     56  C   UNL A   1      44.320  26.963  31.272  1.00  0.00     0.029 A 
ATOM     57  C   UNL A   1      43.452  27.849  31.891  1.00  0.00     0.049 A 
ATOM     58  H   UNL A   1      41.665  28.689  31.153  1.00  0.00     0.167 HD
ATOM     59  C   UNL A   1      42.643  29.271  33.756  1.00  0.00     0.074 A 
ATOM     60  C   UNL A   1      42.717  29.786  35.108  1.00  0.00     0.031 C 
ATOM     61  C   UNL A   1      43.541  28.411  33.214  1.00  0.00     0.034 A 
BRANCH  48  62
ATOM     62  C   UNL A   1      42.121  26.525  27.497  1.00  0.00     0.023 A 
ATOM     63  C   UNL A   1      42.816  27.056  26.391  1.00  0.00     0.012 A 
ATOM     64  C   UNL A   1      41.785  25.156  27.507  1.00  0.00     0.148 A 
ATOM     65  C   UNL A   1      43.133  26.250  25.298  1.00  0.00     0.002 A 
ATOM     66  C   UNL A   1      42.144  24.349  26.432  1.00  0.00     0.091 A 
ATOM     67  F   UNL A   1      41.104  24.671  28.555  1.00  0.00    -0.205 F 
ATOM     68  C   UNL A   1      42.806  24.897  25.323  1.00  0.00     0.022 A 
BRANCH  66  69
ATOM     69  S   UNL A   1      41.834  22.580  26.412  1.00  0.00     0.127 S 
ATOM     70  O   UNL A   1      42.422  22.190  25.132  1.00  0.00    -0.237 OA
ATOM     71  O   UNL A   1      42.575  22.120  27.587  1.00  0.00    -0.237 OA
ATOM     72  O   UNL A   1      40.389  22.428  26.514  1.00  0.00    -0.744 OA
ENDBRANCH  66  69
ENDBRANCH  48  62
BRANCH  49  73
ATOM     73  C   UNL A   1      39.230  32.187  35.211  1.00  0.00     0.023 A 
ATOM     74  C   UNL A   1      38.362  31.569  36.131  1.00  0.00     0.012 A 
ATOM     75  C   UNL A   1      39.678  33.499  35.462  1.00  0.00     0.148 A 
ATOM     76  C   UNL A   1      37.936  32.248  37.272  1.00  0.00     0.002 A 
ATOM     77  C   UNL A   1      39.294  34.150  36.629  1.00  0.00     0.091 A 
ATOM     78  F   UNL A   1      40.494  34.074  34.567  1.00  0.00    -0.205 F 
ATOM     79  C   UNL A   1      38.413  33.531  37.529  1.00  0.00     0.022 A 
BRANCH  77  80
ATOM     80  S   UNL A   1      39.960  35.749  37.110  1.00  0.00     0.127 S 
ATOM     81  O   UNL A   1      39.203  36.034  38.326  1.00  0.00    -0.237 OA
ATOM     82  O   UNL A   1      41.373  35.435  37.324  1.00  0.00    -0.237 OA
ATOM     83  O   UNL A   1      39.705  36.637  35.985  1.00  0.00    -0.744 OA
ENDBRANCH  77  80
ENDBRANCH  49  73
BRANCH  61  84
ATOM     84  C   UNL A   1      44.709  27.994  34.068  1.00  0.00     0.023 A 
ATOM     85  C   UNL A   1      45.877  28.781  34.088  1.00  0.00     0.012 A 
ATOM     86  C   UNL A   1      44.617  26.868  34.911  1.00  0.00     0.148 A 
ATOM     87  C   UNL A   1      46.947  28.438  34.916  1.00  0.00     0.002 A 
ATOM     88  C   UNL A   1      45.669  26.560  35.765  1.00  0.00     0.091 A 
ATOM     89  F   UNL A   1      43.505  26.121  34.860  1.00  0.00    -0.205 F 
ATOM     90  C   UNL A   1      46.838  27.337  35.762  1.00  0.00     0.022 A 
BRANCH  88  91
ATOM     91  S   UNL A   1      45.575  25.216  36.955  1.00  0.00     0.127 S 
ATOM     92  O   UNL A   1      46.620  25.587  37.907  1.00  0.00    -0.237 OA
ATOM     93  O   UNL A   1      44.210  25.346  37.466  1.00  0.00    -0.237 OA
ATOM     94  O   UNL A   1      45.819  23.995  36.199  1.00  0.00    -0.744 OA
ENDBRANCH  88  91
ENDBRANCH  61  84
ENDBRANCH  35  36
ENDBRANCH  28  30
ENDBRANCH  27  28
ENDBRANCH  26  27
ENDBRANCH   1  26
TORSDOF 18
ENDMDL
MODEL 2
REMARK VINA RESULT:     -12.3      1.736      2.596
REMARK SMILES CC[C@@H](C)c1ccccc1NC(=O)[C@@H]1[C@@H](C(=O)OCCOC(=O)c2ccc(-c3c4nc(c(-c5cccc(S(=O)(=O)[O-])c5F)c5ccc([nH]5)c(-c5cccc(S(=O)(=O)[O-])c5F)c5nc(c(-c6cccc(S(=O)(=O)[O-])c6F)c6ccc3[nH]6)C=C5)C=C4)cc2)[C@@H]2C=C[C@H]1C2
REMARK SMILES IDX 19 1 18 2 16 3 17 4 15 5 14 6 90 7 87 8 89 9 91 10 88 11
REMARK SMILES IDX 12 12 11 13 13 15 10 16 5 17 6 18 7 19 9 20 8 21 3 22 4 23
REMARK SMILES IDX 2 24 1 25 20 26 21 27 22 28 23 29 24 30 25 31 86 32 26 33
REMARK SMILES IDX 85 34 27 35 28 36 29 37 79 38 30 39 84 40 78 41 80 42 31 43
REMARK SMILES IDX 83 44 77 45 76 46 32 48 64 49 44 50 63 51 45 52 48 53 62 54
REMARK SMILES IDX 81 55 46 56 47 57 61 59 82 60 49 61 33 62 34 63 42 64 35 65
REMARK SMILES IDX 37 66 43 67 36 68 38 69 39 70 40 71 41 72 65 73 66 74 74 75
REMARK SMILES IDX 67 76 69 77 75 78 68 79 70 80 71 81 72 82 73 83 50 84 51 85
REMARK SMILES IDX 59 86 52 87 54 88 60 89 53 90 55 91 56 92 57 93 58 94
REMARK H PARENT 11 14 80 47 48 58
REMARK Flexibility Score: inf
ROOT
ATOM      1  C   UNL A   1      31.288  29.805  24.804  1.00  0.00     0.274 C 
ENDROOT
BRANCH   1   2
ATOM      2  O   UNL A   1      32.359  29.167  24.081  1.00  0.00    -0.462 OA
BRANCH   2   3
ATOM      3  C   UNL A   1      32.075  27.938  23.572  1.00  0.00     0.310 C 
ATOM      4  O   UNL A   1      31.264  27.730  22.681  1.00  0.00    -0.252 OA
BRANCH   3   5
ATOM      5  C   UNL A   1      32.954  26.860  24.172  1.00  0.00     0.119 C 
ATOM      6  C   UNL A   1      32.516  25.377  23.853  1.00  0.00     0.100 C 
ATOM      7  C   UNL A   1      32.484  24.787  25.287  1.00  0.00     0.025 C 
ATOM      8  C   UNL A   1      32.975  26.910  25.724  1.00  0.00     0.027 C 
ATOM      9  C   UNL A   1      33.857  24.808  25.917  1.00  0.00    -0.027 C 
ATOM     10  C   UNL A   1      31.860  25.936  26.083  1.00  0.00     0.017 C 
ATOM     11  C   UNL A   1      34.151  26.087  26.184  1.00  0.00    -0.027 C 
BRANCH   6  12
ATOM     12  C   UNL A   1      33.450  24.853  22.750  1.00  0.00     0.228 C 
ATOM     13  N   UNL A   1      34.039  23.634  22.658  1.00  0.00    -0.326 N 
ATOM     14  H   UNL A   1      34.716  23.592  21.944  1.00  0.00     0.169 HD
ATOM     15  O   UNL A   1      33.740  25.628  21.824  1.00  0.00    -0.274 OA
BRANCH  13  16
ATOM     16  C   UNL A   1      33.904  22.421  23.344  1.00  0.00     0.044 A 
ATOM     17  C   UNL A   1      34.923  21.957  24.198  1.00  0.00    -0.022 A 
ATOM     18  C   UNL A   1      34.485  21.191  25.302  1.00  0.00     0.006 A 
ATOM     19  C   UNL A   1      33.203  20.648  25.359  1.00  0.00     0.000 A 
ATOM     20  C   UNL A   1      32.712  21.704  23.270  1.00  0.00     0.026 A 
ATOM     21  C   UNL A   1      32.351  20.821  24.284  1.00  0.00     0.002 A 
BRANCH  17  22
ATOM     22  C   UNL A   1      36.446  22.180  24.010  1.00  0.00     0.018 C 
ATOM     23  C   UNL A   1      37.331  21.126  24.709  1.00  0.00     0.013 C 
BRANCH  22  24
ATOM     24  C   UNL A   1      36.848  23.593  24.562  1.00  0.00     0.005 C 
ATOM     25  C   UNL A   1      37.333  23.676  26.003  1.00  0.00     0.004 C 
ENDBRANCH  22  24
ENDBRANCH  17  22
ENDBRANCH  13  16
ENDBRANCH   6  12
ENDBRANCH   3   5
ENDBRANCH   2   3
ENDBRANCH   1   2
BRANCH   1  26
ATOM     26  C   UNL A   1      31.696  29.892  26.275  1.00  0.00     0.275 C 
BRANCH  26  27
ATOM     27  O   UNL A   1      33.076  30.297  26.353  1.00  0.00    -0.458 OA
BRANCH  27  28
ATOM     28  C   UNL A   1      33.321  31.383  27.123  1.00  0.00     0.338 C 
ATOM     29  O   UNL A   1      32.613  32.366  27.249  1.00  0.00    -0.246 OA
BRANCH  28  30
ATOM     30  C   UNL A   1      34.623  31.222  27.798  1.00  0.00     0.060 A 
ATOM     31  C   UNL A   1      35.527  32.284  27.910  1.00  0.00     0.016 A 
ATOM     32  C   UNL A   1      34.959  29.962  28.288  1.00  0.00     0.016 A 
ATOM     33  C   UNL A   1      36.786  32.077  28.479  1.00  0.00     0.010 A 
ATOM     34  C   UNL A   1      36.185  29.777  28.926  1.00  0.00     0.010 A 
ATOM     35  C   UNL A   1      37.119  30.824  29.010  1.00  0.00    -0.014 A 
BRANCH  35  36
ATOM     36  C   UNL A   1      38.425  30.569  29.672  1.00  0.00     0.031 A 
ATOM     37  C   UNL A   1      39.394  29.598  29.054  1.00  0.00     0.074 A 
ATOM     38  C   UNL A   1      38.684  31.101  30.882  1.00  0.00     0.049 A 
ATOM     39  N   UNL A   1      40.444  29.025  29.580  1.00  0.00    -0.248 NA
ATOM     40  C   UNL A   1      39.122  29.198  27.663  1.00  0.00     0.031 C 
ATOM     41  C   UNL A   1      37.823  32.047  31.594  1.00  0.00     0.029 A 
ATOM     42  N   UNL A   1      39.722  30.876  31.754  1.00  0.00    -0.354 N 
ATOM     43  C   UNL A   1      40.914  28.138  28.618  1.00  0.00     0.074 A 
ATOM     44  C   UNL A   1      40.040  28.261  27.470  1.00  0.00     0.031 C 
ATOM     45  C   UNL A   1      38.346  32.295  32.803  1.00  0.00     0.029 A 
ATOM     46  C   UNL A   1      39.545  31.482  32.977  1.00  0.00     0.049 A 
ATOM     47  H   UNL A   1      40.513  30.334  31.526  1.00  0.00     0.167 HD
ATOM     48  C   UNL A   1      41.978  27.303  28.685  1.00  0.00     0.034 A 
ATOM     49  C   UNL A   1      40.235  31.358  34.128  1.00  0.00     0.034 A 
ATOM     50  C   UNL A   1      42.874  27.232  29.809  1.00  0.00     0.049 A 
ATOM     51  C   UNL A   1      41.430  30.447  34.169  1.00  0.00     0.074 A 
ATOM     52  C   UNL A   1      44.026  26.479  29.945  1.00  0.00     0.029 A 
ATOM     53  N   UNL A   1      42.717  27.942  30.990  1.00  0.00    -0.354 N 
ATOM     54  N   UNL A   1      41.921  29.686  33.220  1.00  0.00    -0.248 NA
ATOM     55  C   UNL A   1      42.183  30.395  35.430  1.00  0.00     0.031 C 
ATOM     56  C   UNL A   1      44.557  26.721  31.218  1.00  0.00     0.029 A 
ATOM     57  C   UNL A   1      43.747  27.641  31.865  1.00  0.00     0.049 A 
ATOM     58  H   UNL A   1      41.981  28.568  31.180  1.00  0.00     0.167 HD
ATOM     59  C   UNL A   1      43.053  29.086  33.758  1.00  0.00     0.074 A 
ATOM     60  C   UNL A   1      43.187  29.588  35.111  1.00  0.00     0.031 C 
ATOM     61  C   UNL A   1      43.897  28.190  33.189  1.00  0.00     0.034 A 
BRANCH  48  62
ATOM     62  C   UNL A   1      42.242  26.410  27.501  1.00  0.00     0.023 A 
ATOM     63  C   UNL A   1      42.863  26.936  26.350  1.00  0.00     0.012 A 
ATOM     64  C   UNL A   1      41.911  25.040  27.541  1.00  0.00     0.148 A 
ATOM     65  C   UNL A   1      43.113  26.124  25.244  1.00  0.00     0.002 A 
ATOM     66  C   UNL A   1      42.204  24.228  26.450  1.00  0.00     0.091 A 
ATOM     67  F   UNL A   1      41.300  24.559  28.632  1.00  0.00    -0.205 F 
ATOM     68  C   UNL A   1      42.793  24.770  25.297  1.00  0.00     0.022 A 
BRANCH  66  69
ATOM     69  S   UNL A   1      41.900  22.457  26.460  1.00  0.00     0.127 S 
ATOM     70  O   UNL A   1      42.604  22.042  27.672  1.00  0.00    -0.237 OA
ATOM     71  O   UNL A   1      40.441  22.392  26.554  1.00  0.00    -0.237 OA
ATOM     72  O   UNL A   1      42.447  21.952  25.210  1.00  0.00    -0.744 OA
ENDBRANCH  66  69
ENDBRANCH  48  62
BRANCH  49  73
ATOM     73  C   UNL A   1      39.817  32.145  35.321  1.00  0.00     0.023 A 
ATOM     74  C   UNL A   1      40.194  33.497  35.422  1.00  0.00     0.012 A 
ATOM     75  C   UNL A   1      38.988  31.585  36.315  1.00  0.00     0.148 A 
ATOM     76  C   UNL A   1      39.769  34.274  36.498  1.00  0.00     0.002 A 
ATOM     77  C   UNL A   1      38.523  32.380  37.356  1.00  0.00     0.091 A 
ATOM     78  F   UNL A   1      38.651  30.292  36.206  1.00  0.00    -0.205 F 
ATOM     79  C   UNL A   1      38.922  33.722  37.456  1.00  0.00     0.022 A 
BRANCH  77  80
ATOM     80  S   UNL A   1      37.324  31.794  38.560  1.00  0.00     0.127 S 
ATOM     81  O   UNL A   1      38.058  31.955  39.813  1.00  0.00    -0.237 OA
ATOM     82  O   UNL A   1      36.220  32.733  38.368  1.00  0.00    -0.237 OA
ATOM     83  O   UNL A   1      37.021  30.421  38.179  1.00  0.00    -0.744 OA
ENDBRANCH  77  80
ENDBRANCH  49  73
BRANCH  61  84
ATOM     84  C   UNL A   1      45.066  27.715  34.009  1.00  0.00     0.023 A 
ATOM     85  C   UNL A   1      46.267  28.452  34.009  1.00  0.00     0.012 A 
ATOM     86  C   UNL A   1      44.948  26.583  34.840  1.00  0.00     0.148 A 
ATOM     87  C   UNL A   1      47.340  28.054  34.806  1.00  0.00     0.002 A 
ATOM     88  C   UNL A   1      46.006  26.221  35.665  1.00  0.00     0.091 A 
ATOM     89  F   UNL A   1      43.804  25.883  34.809  1.00  0.00    -0.205 F 
ATOM     90  C   UNL A   1      47.206  26.949  35.642  1.00  0.00     0.022 A 
BRANCH  88  91
ATOM     91  S   UNL A   1      45.884  24.868  36.841  1.00  0.00     0.127 S 
ATOM     92  O   UNL A   1      47.184  24.934  37.508  1.00  0.00    -0.237 OA
ATOM     93  O   UNL A   1      44.751  25.276  37.672  1.00  0.00    -0.237 OA
ATOM     94  O   UNL A   1      45.646  23.669  36.048  1.00  0.00    -0.744 OA
ENDBRANCH  88  91
ENDBRANCH  61  84
ENDBRANCH  35  36
ENDBRANCH  28  30
ENDBRANCH  27  28
ENDBRANCH  26  27
ENDBRANCH   1  26
TORSDOF 18
ENDMDL
MODEL 3
REMARK VINA RESULT:     -11.5      5.116     10.015
REMARK SMILES CC[C@@H](C)c1ccccc1NC(=O)[C@@H]1[C@@H](C(=O)OCCOC(=O)c2ccc(-c3c4nc(c(-c5cccc(S(=O)(=O)[O-])c5F)c5ccc([nH]5)c(-c5cccc(S(=O)(=O)[O-])c5F)c5nc(c(-c6cccc(S(=O)(=O)[O-])c6F)c6ccc3[nH]6)C=C5)C=C4)cc2)[C@@H]2C=C[C@H]1C2
REMARK SMILES IDX 19 1 18 2 16 3 17 4 15 5 14 6 90 7 87 8 89 9 91 10 88 11
REMARK SMILES IDX 12 12 11 13 13 15 10 16 5 17 6 18 7 19 9 20 8 21 3 22 4 23
REMARK SMILES IDX 2 24 1 25 20 26 21 27 22 28 23 29 24 30 25 31 86 32 26 33
REMARK SMILES IDX 85 34 27 35 28 36 29 37 79 38 30 39 84 40 78 41 80 42 31 43
REMARK SMILES IDX 83 44 77 45 76 46 32 48 64 49 44 50 63 51 45 52 48 53 62 54
REMARK SMILES IDX 81 55 46 56 47 57 61 59 82 60 49 61 33 62 34 63 42 64 35 65
REMARK SMILES IDX 37 66 43 67 36 68 38 69 39 70 40 71 41 72 65 73 66 74 74 75
REMARK SMILES IDX 67 76 69 77 75 78 68 79 70 80 71 81 72 82 73 83 50 84 51 85
REMARK SMILES IDX 59 86 52 87 54 88 60 89 53 90 55 91 56 92 57 93 58 94
REMARK H PARENT 11 14 80 47 48 58
REMARK Flexibility Score: inf
ROOT
ATOM      1  C   UNL A   1      36.513  20.451  24.737  1.00  0.00     0.274 C 
ENDROOT
BRANCH   1   2
ATOM      2  O   UNL A   1      36.311  21.791  24.248  1.00  0.00    -0.462 OA
BRANCH   2   3
ATOM      3  C   UNL A   1      35.384  22.528  24.916  1.00  0.00     0.310 C 
ATOM      4  O   UNL A   1      35.542  22.980  26.041  1.00  0.00    -0.252 OA
BRANCH   3   5
ATOM      5  C   UNL A   1      34.163  22.811  24.064  1.00  0.00     0.119 C 
ATOM      6  C   UNL A   1      33.313  24.068  24.500  1.00  0.00     0.100 C 
ATOM      7  C   UNL A   1      31.903  23.428  24.585  1.00  0.00     0.025 C 
ATOM      8  C   UNL A   1      33.138  21.646  24.097  1.00  0.00     0.027 C 
ATOM      9  C   UNL A   1      31.450  22.926  23.234  1.00  0.00    -0.027 C 
ATOM     10  C   UNL A   1      32.213  22.074  25.229  1.00  0.00     0.017 C 
ATOM     11  C   UNL A   1      32.190  21.849  22.942  1.00  0.00    -0.027 C 
BRANCH   6  12
ATOM     12  C   UNL A   1      33.660  25.211  23.533  1.00  0.00     0.228 C 
ATOM     13  N   UNL A   1      33.413  26.538  23.677  1.00  0.00    -0.326 N 
ATOM     14  H   UNL A   1      33.587  27.049  22.854  1.00  0.00     0.169 HD
ATOM     15  O   UNL A   1      34.216  24.913  22.463  1.00  0.00    -0.274 OA
BRANCH  13  16
ATOM     16  C   UNL A   1      32.968  27.347  24.730  1.00  0.00     0.044 A 
ATOM     17  C   UNL A   1      31.597  27.444  25.037  1.00  0.00    -0.022 A 
ATOM     18  C   UNL A   1      31.297  27.663  26.400  1.00  0.00     0.006 A 
ATOM     19  C   UNL A   1      32.264  28.089  27.308  1.00  0.00     0.000 A 
ATOM     20  C   UNL A   1      33.888  27.990  25.555  1.00  0.00     0.026 A 
ATOM     21  C   UNL A   1      33.542  28.354  26.854  1.00  0.00     0.002 A 
BRANCH  17  22
ATOM     22  C   UNL A   1      30.426  27.370  24.024  1.00  0.00     0.018 C 
ATOM     23  C   UNL A   1      30.756  26.593  22.731  1.00  0.00     0.013 C 
BRANCH  22  24
ATOM     24  C   UNL A   1      29.981  28.820  23.618  1.00  0.00     0.005 C 
ATOM     25  C   UNL A   1      30.597  29.420  22.362  1.00  0.00     0.004 C 
ENDBRANCH  22  24
ENDBRANCH  17  22
ENDBRANCH  13  16
ENDBRANCH   6  12
ENDBRANCH   3   5
ENDBRANCH   2   3
ENDBRANCH   1   2
BRANCH   1  26
ATOM     26  C   UNL A   1      38.009  20.256  24.981  1.00  0.00     0.275 C 
BRANCH  26  27
ATOM     27  O   UNL A   1      38.454  21.223  25.950  1.00  0.00    -0.458 OA
BRANCH  27  28
ATOM     28  C   UNL A   1      39.722  21.059  26.396  1.00  0.00     0.338 C 
ATOM     29  O   UNL A   1      40.350  20.016  26.448  1.00  0.00    -0.246 OA
BRANCH  28  30
ATOM     30  C   UNL A   1      40.254  22.357  26.851  1.00  0.00     0.060 A 
ATOM     31  C   UNL A   1      39.829  23.564  26.286  1.00  0.00     0.016 A 
ATOM     32  C   UNL A   1      41.238  22.355  27.839  1.00  0.00     0.016 A 
ATOM     33  C   UNL A   1      40.415  24.768  26.680  1.00  0.00     0.010 A 
ATOM     34  C   UNL A   1      41.765  23.566  28.286  1.00  0.00     0.010 A 
ATOM     35  C   UNL A   1      41.376  24.783  27.699  1.00  0.00    -0.014 A 
BRANCH  35  36
ATOM     36  C   UNL A   1      41.990  26.044  28.189  1.00  0.00     0.031 A 
ATOM     37  C   UNL A   1      41.129  27.076  28.864  1.00  0.00     0.074 A 
ATOM     38  C   UNL A   1      43.280  26.317  27.913  1.00  0.00     0.049 A 
ATOM     39  N   UNL A   1      41.384  28.332  29.119  1.00  0.00    -0.248 NA
ATOM     40  C   UNL A   1      39.787  26.638  29.281  1.00  0.00     0.031 C 
ATOM     41  C   UNL A   1      44.218  25.406  27.256  1.00  0.00     0.029 A 
ATOM     42  N   UNL A   1      44.009  27.466  28.103  1.00  0.00    -0.354 N 
ATOM     43  C   UNL A   1      40.213  28.857  29.651  1.00  0.00     0.074 A 
ATOM     44  C   UNL A   1      39.250  27.777  29.696  1.00  0.00     0.031 C 
ATOM     45  C   UNL A   1      45.385  26.039  27.065  1.00  0.00     0.029 A 
ATOM     46  C   UNL A   1      45.260  27.416  27.529  1.00  0.00     0.049 A 
ATOM     47  H   UNL A   1      43.671  28.248  28.598  1.00  0.00     0.167 HD
ATOM     48  C   UNL A   1      39.965  30.122  30.067  1.00  0.00     0.034 A 
ATOM     49  C   UNL A   1      46.183  28.380  27.348  1.00  0.00     0.034 A 
ATOM     50  C   UNL A   1      40.948  31.173  30.073  1.00  0.00     0.049 A 
ATOM     51  C   UNL A   1      45.897  29.770  27.845  1.00  0.00     0.074 A 
ATOM     52  C   UNL A   1      40.823  32.466  30.548  1.00  0.00     0.029 A 
ATOM     53  N   UNL A   1      42.238  31.050  29.578  1.00  0.00    -0.354 N 
ATOM     54  N   UNL A   1      44.820  30.230  28.435  1.00  0.00    -0.248 NA
ATOM     55  C   UNL A   1      46.962  30.768  27.675  1.00  0.00     0.031 C 
ATOM     56  C   UNL A   1      42.035  33.131  30.324  1.00  0.00     0.029 A 
ATOM     57  C   UNL A   1      42.920  32.246  29.730  1.00  0.00     0.049 A 
ATOM     58  H   UNL A   1      42.614  30.234  29.178  1.00  0.00     0.167 HD
ATOM     59  C   UNL A   1      45.086  31.561  28.732  1.00  0.00     0.074 A 
ATOM     60  C   UNL A   1      46.434  31.829  28.274  1.00  0.00     0.031 C 
ATOM     61  C   UNL A   1      44.280  32.481  29.318  1.00  0.00     0.034 A 
BRANCH  48  62
ATOM     62  C   UNL A   1      38.579  30.434  30.571  1.00  0.00     0.023 A 
ATOM     63  C   UNL A   1      38.223  30.104  31.895  1.00  0.00     0.012 A 
ATOM     64  C   UNL A   1      37.642  31.090  29.748  1.00  0.00     0.148 A 
ATOM     65  C   UNL A   1      36.944  30.384  32.376  1.00  0.00     0.002 A 
ATOM     66  C   UNL A   1      36.384  31.405  30.250  1.00  0.00     0.091 A 
ATOM     67  F   UNL A   1      37.988  31.376  28.485  1.00  0.00    -0.205 F 
ATOM     68  C   UNL A   1      36.030  31.042  31.559  1.00  0.00     0.022 A 
BRANCH  66  69
ATOM     69  S   UNL A   1      35.169  32.321  29.295  1.00  0.00     0.127 S 
ATOM     70  O   UNL A   1      34.180  32.658  30.319  1.00  0.00    -0.237 OA
ATOM     71  O   UNL A   1      35.950  33.459  28.807  1.00  0.00    -0.237 OA
ATOM     72  O   UNL A   1      34.713  31.412  28.254  1.00  0.00    -0.744 OA
ENDBRANCH  66  69
ENDBRANCH  48  62
BRANCH  49  73
ATOM     73  C   UNL A   1      47.473  28.043  26.684  1.00  0.00     0.023 A 
ATOM     74  C   UNL A   1      48.595  27.732  27.476  1.00  0.00     0.012 A 
ATOM     75  C   UNL A   1      47.576  27.956  25.281  1.00  0.00     0.148 A 
ATOM     76  C   UNL A   1      49.800  27.357  26.884  1.00  0.00     0.002 A 
ATOM     77  C   UNL A   1      48.764  27.527  24.699  1.00  0.00     0.091 A 
ATOM     78  F   UNL A   1      46.500  28.268  24.545  1.00  0.00    -0.205 F 
ATOM     79  C   UNL A   1      49.881  27.239  25.498  1.00  0.00     0.022 A 
BRANCH  77  80
ATOM     80  S   UNL A   1      48.922  27.218  22.936  1.00  0.00     0.127 S 
ATOM     81  O   UNL A   1      48.256  25.925  22.799  1.00  0.00    -0.237 OA
ATOM     82  O   UNL A   1      48.192  28.350  22.365  1.00  0.00    -0.237 OA
ATOM     83  O   UNL A   1      50.352  27.224  22.661  1.00  0.00    -0.744 OA
ENDBRANCH  77  80
ENDBRANCH  49  73
BRANCH  61  84
ATOM     84  C   UNL A   1      44.842  33.862  29.534  1.00  0.00     0.023 A 
ATOM     85  C   UNL A   1      45.497  34.169  30.743  1.00  0.00     0.012 A 
ATOM     86  C   UNL A   1      44.789  34.827  28.509  1.00  0.00     0.148 A 
ATOM     87  C   UNL A   1      46.070  35.426  30.936  1.00  0.00     0.002 A 
ATOM     88  C   UNL A   1      45.402  36.060  28.693  1.00  0.00     0.091 A 
ATOM     89  F   UNL A   1      44.142  34.521  27.374  1.00  0.00    -0.205 F 
ATOM     90  C   UNL A   1      46.034  36.366  29.908  1.00  0.00     0.022 A 
BRANCH  88  91
ATOM     91  S   UNL A   1      45.485  37.293  27.388  1.00  0.00     0.127 S 
ATOM     92  O   UNL A   1      44.070  37.536  27.116  1.00  0.00    -0.237 OA
ATOM     93  O   UNL A   1      46.179  38.400  28.048  1.00  0.00    -0.237 OA
ATOM     94  O   UNL A   1      46.236  36.676  26.302  1.00  0.00    -0.744 OA
ENDBRANCH  88  91
ENDBRANCH  61  84
ENDBRANCH  35  36
ENDBRANCH  28  30
ENDBRANCH  27  28
ENDBRANCH  26  27
ENDBRANCH   1  26
TORSDOF 18
ENDMDL
