MODEL 1
REMARK VINA RESULT:     -11.8      0.000      0.000
REMARK SMILES COc1ccc2c(c1)C=C(C(=O)OCCOC(=O)c1ccc(-c3c4nc(c(-c5cccc(S(=O)(=O)[O-])c5F)c5ccc([nH]5)c(-c5cccc(S(=O)(=O)[O-])c5F)c5nc(c(-c6cccc(S(=O)(=O)[O-])c6F)c6ccc3[nH]6)C=C5)C=C4)cc1)[C@H](C(F)(F)F)O2
REMARK SMILES IDX 15 1 14 2 13 3 11 4 12 5 10 6 3 7 4 8 8 9 5 10 7 11 6 12
REMARK SMILES IDX 9 13 87 14 82 15 2 16 1 17 83 18 84 19 85 20 86 21 16 22
REMARK SMILES IDX 17 23 18 24 19 25 20 26 81 27 21 28 80 29 22 30 23 31 24 32
REMARK SMILES IDX 74 33 25 34 79 35 73 36 75 37 26 38 78 39 72 40 71 41 27 43
REMARK SMILES IDX 59 44 39 45 58 46 40 47 43 48 57 49 76 50 41 51 42 52 56 54
REMARK SMILES IDX 77 55 44 56 28 57 29 58 37 59 30 60 32 61 38 62 31 63 33 64
REMARK SMILES IDX 34 65 35 66 36 67 60 68 61 69 69 70 62 71 64 72 70 73 63 74
REMARK SMILES IDX 65 75 66 76 67 77 68 78 45 79 46 80 54 81 47 82 49 83 55 84
REMARK SMILES IDX 48 85 50 86 51 87 52 88 53 89
REMARK H PARENT 75 42 43 53
REMARK Flexibility Score: inf
ROOT
ATOM      1  C   UNL A   1      36.534  20.470  24.995  1.00  0.00     0.275 C 
ENDROOT
BRANCH   1   2
ATOM      2  C   UNL A   1      35.037  20.794  25.021  1.00  0.00     0.275 C 
BRANCH   2   3
ATOM      3  O   UNL A   1      34.773  22.066  25.650  1.00  0.00    -0.459 OA
BRANCH   3   4
ATOM      4  C   UNL A   1      33.498  22.529  25.538  1.00  0.00     0.338 C 
ATOM      5  O   UNL A   1      32.499  21.905  25.832  1.00  0.00    -0.246 OA
BRANCH   4   6
ATOM      6  C   UNL A   1      33.458  23.917  25.020  1.00  0.00     0.087 C 
ATOM      7  C   UNL A   1      33.630  28.721  25.544  1.00  0.00     0.119 A 
ATOM      8  C   UNL A   1      33.576  28.866  24.157  1.00  0.00     0.050 A 
ATOM      9  C   UNL A   1      33.671  27.440  26.109  1.00  0.00     0.058 A 
ATOM     10  C   UNL A   1      33.578  27.735  23.340  1.00  0.00     0.051 A 
ATOM     11  C   UNL A   1      33.641  26.302  25.297  1.00  0.00     0.021 A 
ATOM     12  C   UNL A   1      33.614  26.466  23.911  1.00  0.00     0.128 A 
ATOM     13  C   UNL A   1      33.687  24.951  25.851  1.00  0.00     0.027 C 
ATOM     14  O   UNL A   1      33.708  25.408  23.052  1.00  0.00    -0.475 OA
ATOM     15  C   UNL A   1      33.159  24.153  23.545  1.00  0.00     0.316 C 
BRANCH   7  16
ATOM     16  O   UNL A   1      33.717  29.758  26.435  1.00  0.00    -0.497 OA
ATOM     17  C   UNL A   1      32.491  30.413  26.743  1.00  0.00     0.278 C 
ENDBRANCH   7  16
BRANCH  15  18
ATOM     18  C   UNL A   1      33.537  23.062  22.524  1.00  0.00     0.430 C 
ATOM     19  F   UNL A   1      32.828  21.928  22.708  1.00  0.00    -0.167 F 
ATOM     20  F   UNL A   1      33.240  23.483  21.265  1.00  0.00    -0.167 F 
ATOM     21  F   UNL A   1      34.855  22.771  22.543  1.00  0.00    -0.167 F 
ENDBRANCH  15  18
ENDBRANCH   4   6
ENDBRANCH   3   4
ENDBRANCH   2   3
ENDBRANCH   1   2
BRANCH   1  22
ATOM     22  O   UNL A   1      37.303  21.469  25.688  1.00  0.00    -0.458 OA
BRANCH  22  23
ATOM     23  C   UNL A   1      38.578  21.107  25.971  1.00  0.00     0.338 C 
ATOM     24  O   UNL A   1      39.103  20.031  25.725  1.00  0.00    -0.246 OA
BRANCH  23  25
ATOM     25  C   UNL A   1      39.342  22.278  26.443  1.00  0.00     0.060 A 
ATOM     26  C   UNL A   1      38.919  23.526  25.980  1.00  0.00     0.016 A 
ATOM     27  C   UNL A   1      40.446  22.182  27.293  1.00  0.00     0.016 A 
ATOM     28  C   UNL A   1      39.542  24.692  26.418  1.00  0.00     0.010 A 
ATOM     29  C   UNL A   1      41.110  23.351  27.690  1.00  0.00     0.010 A 
ATOM     30  C   UNL A   1      40.653  24.612  27.263  1.00  0.00    -0.014 A 
BRANCH  30  31
ATOM     31  C   UNL A   1      41.400  25.850  27.589  1.00  0.00     0.031 A 
ATOM     32  C   UNL A   1      40.719  26.918  28.396  1.00  0.00     0.074 A 
ATOM     33  C   UNL A   1      42.678  26.009  27.204  1.00  0.00     0.049 A 
ATOM     34  N   UNL A   1      41.179  28.075  28.793  1.00  0.00    -0.248 NA
ATOM     35  C   UNL A   1      39.338  26.635  28.822  1.00  0.00     0.031 C 
ATOM     36  C   UNL A   1      43.468  25.026  26.464  1.00  0.00     0.029 A 
ATOM     37  N   UNL A   1      43.532  27.072  27.371  1.00  0.00    -0.354 N 
ATOM     38  C   UNL A   1      40.141  28.670  29.498  1.00  0.00     0.074 A 
ATOM     39  C   UNL A   1      39.028  27.744  29.477  1.00  0.00     0.031 C 
ATOM     40  C   UNL A   1      44.681  25.548  26.206  1.00  0.00     0.029 A 
ATOM     41  C   UNL A   1      44.743  26.908  26.739  1.00  0.00     0.049 A 
ATOM     42  H   UNL A   1      43.299  27.874  27.892  1.00  0.00     0.167 HD
ATOM     43  C   UNL A   1      40.116  29.877  30.110  1.00  0.00     0.034 A 
ATOM     44  C   UNL A   1      45.770  27.769  26.587  1.00  0.00     0.034 A 
ATOM     45  C   UNL A   1      41.213  30.806  30.115  1.00  0.00     0.049 A 
ATOM     46  C   UNL A   1      45.687  29.139  27.215  1.00  0.00     0.074 A 
ATOM     47  C   UNL A   1      41.283  32.051  30.717  1.00  0.00     0.029 A 
ATOM     48  N   UNL A   1      42.424  30.608  29.469  1.00  0.00    -0.354 N 
ATOM     49  N   UNL A   1      44.739  29.652  27.961  1.00  0.00    -0.248 NA
ATOM     50  C   UNL A   1      46.832  30.039  27.004  1.00  0.00     0.031 C 
ATOM     51  C   UNL A   1      42.519  32.621  30.400  1.00  0.00     0.029 A 
ATOM     52  C   UNL A   1      43.239  31.713  29.641  1.00  0.00     0.049 A 
ATOM     53  H   UNL A   1      42.667  29.799  28.963  1.00  0.00     0.167 HD
ATOM     54  C   UNL A   1      45.190  30.913  28.341  1.00  0.00     0.074 A 
ATOM     55  C   UNL A   1      46.503  31.081  27.756  1.00  0.00     0.031 C 
ATOM     56  C   UNL A   1      44.569  31.850  29.100  1.00  0.00     0.034 A 
BRANCH  43  57
ATOM     57  C   UNL A   1      38.846  30.268  30.815  1.00  0.00     0.023 A 
ATOM     58  C   UNL A   1      38.664  29.931  32.172  1.00  0.00     0.012 A 
ATOM     59  C   UNL A   1      37.847  30.998  30.142  1.00  0.00     0.148 A 
ATOM     60  C   UNL A   1      37.490  30.285  32.838  1.00  0.00     0.002 A 
ATOM     61  C   UNL A   1      36.701  31.385  30.824  1.00  0.00     0.091 A 
ATOM     62  F   UNL A   1      38.030  31.287  28.846  1.00  0.00    -0.205 F 
ATOM     63  C   UNL A   1      36.515  31.018  32.168  1.00  0.00     0.022 A 
BRANCH  61  64
ATOM     64  S   UNL A   1      35.422  32.394  30.071  1.00  0.00     0.127 S 
ATOM     65  O   UNL A   1      34.439  32.479  31.150  1.00  0.00    -0.237 OA
ATOM     66  O   UNL A   1      36.137  33.642  29.798  1.00  0.00    -0.237 OA
ATOM     67  O   UNL A   1      34.984  31.673  28.884  1.00  0.00    -0.744 OA
ENDBRANCH  61  64
ENDBRANCH  43  57
BRANCH  44  68
ATOM     68  C   UNL A   1      46.979  27.367  25.811  1.00  0.00     0.023 A 
ATOM     69  C   UNL A   1      48.009  26.645  26.445  1.00  0.00     0.012 A 
ATOM     70  C   UNL A   1      47.121  27.716  24.453  1.00  0.00     0.148 A 
ATOM     71  C   UNL A   1      49.172  26.309  25.752  1.00  0.00     0.002 A 
ATOM     72  C   UNL A   1      48.259  27.331  23.754  1.00  0.00     0.091 A 
ATOM     73  F   UNL A   1      46.139  28.420  23.872  1.00  0.00    -0.205 F 
ATOM     74  C   UNL A   1      49.295  26.644  24.406  1.00  0.00     0.022 A 
BRANCH  72  75
ATOM     75  S   UNL A   1      48.460  27.628  21.994  1.00  0.00     0.127 S 
ATOM     76  O   UNL A   1      49.536  28.616  21.978  1.00  0.00    -0.237 OA
ATOM     77  O   UNL A   1      48.836  26.300  21.507  1.00  0.00    -0.237 OA
ATOM     78  O   UNL A   1      47.167  28.100  21.520  1.00  0.00    -0.744 OA
ENDBRANCH  72  75
ENDBRANCH  44  68
BRANCH  56  79
ATOM     79  C   UNL A   1      45.312  33.129  29.398  1.00  0.00     0.023 A 
ATOM     80  C   UNL A   1      46.114  33.231  30.552  1.00  0.00     0.012 A 
ATOM     81  C   UNL A   1      45.279  34.203  28.485  1.00  0.00     0.148 A 
ATOM     82  C   UNL A   1      46.846  34.392  30.807  1.00  0.00     0.002 A 
ATOM     83  C   UNL A   1      46.052  35.334  28.718  1.00  0.00     0.091 A 
ATOM     84  F   UNL A   1      44.498  34.096  27.401  1.00  0.00    -0.205 F 
ATOM     85  C   UNL A   1      46.824  35.436  29.886  1.00  0.00     0.022 A 
BRANCH  83  86
ATOM     86  S   UNL A   1      46.169  36.684  27.538  1.00  0.00     0.127 S 
ATOM     87  O   UNL A   1      44.825  37.258  27.608  1.00  0.00    -0.237 OA
ATOM     88  O   UNL A   1      47.219  37.518  28.124  1.00  0.00    -0.237 OA
ATOM     89  O   UNL A   1      46.522  36.076  26.263  1.00  0.00    -0.744 OA
ENDBRANCH  83  86
ENDBRANCH  56  79
ENDBRANCH  30  31
ENDBRANCH  23  25
ENDBRANCH  22  23
ENDBRANCH   1  22
TORSDOF 16
ENDMDL
MODEL 2
REMARK VINA RESULT:     -11.8      5.524      9.892
REMARK SMILES COc1ccc2c(c1)C=C(C(=O)OCCOC(=O)c1ccc(-c3c4nc(c(-c5cccc(S(=O)(=O)[O-])c5F)c5ccc([nH]5)c(-c5cccc(S(=O)(=O)[O-])c5F)c5nc(c(-c6cccc(S(=O)(=O)[O-])c6F)c6ccc3[nH]6)C=C5)C=C4)cc1)[C@H](C(F)(F)F)O2
REMARK SMILES IDX 15 1 14 2 13 3 11 4 12 5 10 6 3 7 4 8 8 9 5 10 7 11 6 12
REMARK SMILES IDX 9 13 87 14 82 15 2 16 1 17 83 18 84 19 85 20 86 21 16 22
REMARK SMILES IDX 17 23 18 24 19 25 20 26 81 27 21 28 80 29 22 30 23 31 24 32
REMARK SMILES IDX 74 33 25 34 79 35 73 36 75 37 26 38 78 39 72 40 71 41 27 43
REMARK SMILES IDX 59 44 39 45 58 46 40 47 43 48 57 49 76 50 41 51 42 52 56 54
REMARK SMILES IDX 77 55 44 56 28 57 29 58 37 59 30 60 32 61 38 62 31 63 33 64
REMARK SMILES IDX 34 65 35 66 36 67 60 68 61 69 69 70 62 71 64 72 70 73 63 74
REMARK SMILES IDX 65 75 66 76 67 77 68 78 45 79 46 80 54 81 47 82 49 83 55 84
REMARK SMILES IDX 48 85 50 86 51 87 52 88 53 89
REMARK H PARENT 75 42 43 53
REMARK Flexibility Score: inf
ROOT
ATOM      1  C   UNL A   1      33.238  33.874  27.989  1.00  0.00     0.275 C 
ENDROOT
BRANCH   1   2
ATOM      2  C   UNL A   1      33.356  34.602  29.331  1.00  0.00     0.275 C 
BRANCH   2   3
ATOM      3  O   UNL A   1      34.696  34.535  29.864  1.00  0.00    -0.459 OA
BRANCH   3   4
ATOM      4  C   UNL A   1      34.889  33.642  30.872  1.00  0.00     0.338 C 
ATOM      5  O   UNL A   1      34.118  32.756  31.179  1.00  0.00    -0.246 OA
BRANCH   4   6
ATOM      6  C   UNL A   1      36.182  33.861  31.564  1.00  0.00     0.087 C 
ATOM      7  C   UNL A   1      40.980  34.464  31.647  1.00  0.00     0.119 A 
ATOM      8  C   UNL A   1      40.917  34.700  33.022  1.00  0.00     0.050 A 
ATOM      9  C   UNL A   1      39.799  34.249  30.923  1.00  0.00     0.058 A 
ATOM     10  C   UNL A   1      39.679  34.737  33.664  1.00  0.00     0.051 A 
ATOM     11  C   UNL A   1      38.558  34.252  31.568  1.00  0.00     0.021 A 
ATOM     12  C   UNL A   1      38.513  34.517  32.938  1.00  0.00     0.128 A 
ATOM     13  C   UNL A   1      37.307  34.036  30.845  1.00  0.00     0.027 C 
ATOM     14  O   UNL A   1      37.334  34.659  33.612  1.00  0.00    -0.475 OA
ATOM     15  C   UNL A   1      36.217  33.887  33.086  1.00  0.00     0.316 C 
BRANCH   7  16
ATOM     16  O   UNL A   1      42.128  34.489  30.901  1.00  0.00    -0.497 OA
ATOM     17  C   UNL A   1      43.022  35.561  31.178  1.00  0.00     0.278 C 
ENDBRANCH   7  16
BRANCH  15  18
ATOM     18  C   UNL A   1      34.956  34.333  33.853  1.00  0.00     0.430 C 
ATOM     19  F   UNL A   1      34.047  33.341  33.955  1.00  0.00    -0.167 F 
ATOM     20  F   UNL A   1      35.286  34.665  35.131  1.00  0.00    -0.167 F 
ATOM     21  F   UNL A   1      34.373  35.418  33.301  1.00  0.00    -0.167 F 
ENDBRANCH  15  18
ENDBRANCH   4   6
ENDBRANCH   3   4
ENDBRANCH   2   3
ENDBRANCH   1   2
BRANCH   1  22
ATOM     22  O   UNL A   1      34.458  33.194  27.647  1.00  0.00    -0.458 OA
BRANCH  22  23
ATOM     23  C   UNL A   1      34.370  31.842  27.634  1.00  0.00     0.338 C 
ATOM     24  O   UNL A   1      33.482  31.174  27.125  1.00  0.00    -0.246 OA
BRANCH  23  25
ATOM     25  C   UNL A   1      35.620  31.249  28.145  1.00  0.00     0.060 A 
ATOM     26  C   UNL A   1      35.496  30.057  28.862  1.00  0.00     0.016 A 
ATOM     27  C   UNL A   1      36.877  31.827  27.957  1.00  0.00     0.016 A 
ATOM     28  C   UNL A   1      36.626  29.392  29.333  1.00  0.00     0.010 A 
ATOM     29  C   UNL A   1      38.011  31.188  28.480  1.00  0.00     0.010 A 
ATOM     30  C   UNL A   1      37.890  29.962  29.160  1.00  0.00    -0.014 A 
BRANCH  30  31
ATOM     31  C   UNL A   1      39.062  29.324  29.804  1.00  0.00     0.031 A 
ATOM     32  C   UNL A   1      39.496  29.802  31.160  1.00  0.00     0.074 A 
ATOM     33  C   UNL A   1      39.712  28.309  29.209  1.00  0.00     0.049 A 
ATOM     34  N   UNL A   1      40.489  29.392  31.904  1.00  0.00    -0.248 NA
ATOM     35  C   UNL A   1      38.693  30.880  31.762  1.00  0.00     0.031 C 
ATOM     36  C   UNL A   1      39.358  27.718  27.919  1.00  0.00     0.029 A 
ATOM     37  N   UNL A   1      40.823  27.606  29.609  1.00  0.00    -0.354 N 
ATOM     38  C   UNL A   1      40.446  30.171  33.053  1.00  0.00     0.074 A 
ATOM     39  C   UNL A   1      39.326  31.077  32.908  1.00  0.00     0.031 C 
ATOM     40  C   UNL A   1      40.259  26.766  27.615  1.00  0.00     0.029 A 
ATOM     41  C   UNL A   1      41.265  26.699  28.674  1.00  0.00     0.049 A 
ATOM     42  H   UNL A   1      41.260  27.740  30.480  1.00  0.00     0.167 HD
ATOM     43  C   UNL A   1      41.263  30.136  34.132  1.00  0.00     0.034 A 
ATOM     44  C   UNL A   1      42.371  25.926  28.665  1.00  0.00     0.034 A 
ATOM     45  C   UNL A   1      42.386  29.249  34.268  1.00  0.00     0.049 A 
ATOM     46  C   UNL A   1      43.308  25.960  29.848  1.00  0.00     0.074 A 
ATOM     47  C   UNL A   1      43.267  29.135  35.331  1.00  0.00     0.029 A 
ATOM     48  N   UNL A   1      42.804  28.343  33.306  1.00  0.00    -0.354 N 
ATOM     49  N   UNL A   1      43.202  26.632  30.969  1.00  0.00    -0.248 NA
ATOM     50  C   UNL A   1      44.503  25.105  29.775  1.00  0.00     0.031 C 
ATOM     51  C   UNL A   1      44.240  28.190  34.992  1.00  0.00     0.029 A 
ATOM     52  C   UNL A   1      43.939  27.680  33.740  1.00  0.00     0.049 A 
ATOM     53  H   UNL A   1      42.358  28.194  32.440  1.00  0.00     0.167 HD
ATOM     54  C   UNL A   1      44.290  26.248  31.749  1.00  0.00     0.074 A 
ATOM     55  C   UNL A   1      45.034  25.276  30.978  1.00  0.00     0.031 C 
ATOM     56  C   UNL A   1      44.644  26.672  32.988  1.00  0.00     0.034 A 
BRANCH  43  57
ATOM     57  C   UNL A   1      40.974  31.101  35.248  1.00  0.00     0.023 A 
ATOM     58  C   UNL A   1      41.907  32.110  35.563  1.00  0.00     0.012 A 
ATOM     59  C   UNL A   1      39.763  31.029  35.964  1.00  0.00     0.148 A 
ATOM     60  C   UNL A   1      41.654  33.011  36.598  1.00  0.00     0.002 A 
ATOM     61  C   UNL A   1      39.498  31.957  36.962  1.00  0.00     0.091 A 
ATOM     62  F   UNL A   1      38.901  30.048  35.663  1.00  0.00    -0.205 F 
ATOM     63  C   UNL A   1      40.448  32.939  37.290  1.00  0.00     0.022 A 
BRANCH  61  64
ATOM     64  S   UNL A   1      37.944  31.995  37.859  1.00  0.00     0.127 S 
ATOM     65  O   UNL A   1      38.357  32.564  39.142  1.00  0.00    -0.237 OA
ATOM     66  O   UNL A   1      37.133  32.887  37.030  1.00  0.00    -0.237 OA
ATOM     67  O   UNL A   1      37.473  30.618  37.910  1.00  0.00    -0.744 OA
ENDBRANCH  61  64
ENDBRANCH  43  57
BRANCH  44  68
ATOM     68  C   UNL A   1      42.659  25.041  27.499  1.00  0.00     0.023 A 
ATOM     69  C   UNL A   1      43.370  25.550  26.395  1.00  0.00     0.012 A 
ATOM     70  C   UNL A   1      42.215  23.705  27.472  1.00  0.00     0.148 A 
ATOM     71  C   UNL A   1      43.602  24.756  25.271  1.00  0.00     0.002 A 
ATOM     72  C   UNL A   1      42.495  22.903  26.371  1.00  0.00     0.091 A 
ATOM     73  F   UNL A   1      41.523  23.244  28.524  1.00  0.00    -0.205 F 
ATOM     74  C   UNL A   1      43.172  23.432  25.261  1.00  0.00     0.022 A 
BRANCH  72  75
ATOM     75  S   UNL A   1      42.073  21.159  26.312  1.00  0.00     0.127 S 
ATOM     76  O   UNL A   1      42.414  20.722  27.664  1.00  0.00    -0.237 OA
ATOM     77  O   UNL A   1      40.639  21.207  26.024  1.00  0.00    -0.237 OA
ATOM     78  O   UNL A   1      42.884  20.589  25.245  1.00  0.00    -0.744 OA
ENDBRANCH  72  75
ENDBRANCH  44  68
BRANCH  56  79
ATOM     79  C   UNL A   1      45.862  26.053  33.628  1.00  0.00     0.023 A 
ATOM     80  C   UNL A   1      47.115  26.691  33.534  1.00  0.00     0.012 A 
ATOM     81  C   UNL A   1      45.746  24.876  34.397  1.00  0.00     0.148 A 
ATOM     82  C   UNL A   1      48.236  26.153  34.167  1.00  0.00     0.002 A 
ATOM     83  C   UNL A   1      46.854  24.375  35.069  1.00  0.00     0.091 A 
ATOM     84  F   UNL A   1      44.550  24.273  34.463  1.00  0.00    -0.205 F 
ATOM     85  C   UNL A   1      48.103  25.004  34.943  1.00  0.00     0.022 A 
BRANCH  83  86
ATOM     86  S   UNL A   1      46.756  22.962  36.174  1.00  0.00     0.127 S 
ATOM     87  O   UNL A   1      48.136  22.858  36.647  1.00  0.00    -0.237 OA
ATOM     88  O   UNL A   1      45.800  23.422  37.182  1.00  0.00    -0.237 OA
ATOM     89  O   UNL A   1      46.290  21.846  35.363  1.00  0.00    -0.744 OA
ENDBRANCH  83  86
ENDBRANCH  56  79
ENDBRANCH  30  31
ENDBRANCH  23  25
ENDBRANCH  22  23
ENDBRANCH   1  22
TORSDOF 16
ENDMDL
MODEL 3
REMARK VINA RESULT:     -11.7      5.432     10.343
REMARK SMILES COc1ccc2c(c1)C=C(C(=O)OCCOC(=O)c1ccc(-c3c4nc(c(-c5cccc(S(=O)(=O)[O-])c5F)c5ccc([nH]5)c(-c5cccc(S(=O)(=O)[O-])c5F)c5nc(c(-c6cccc(S(=O)(=O)[O-])c6F)c6ccc3[nH]6)C=C5)C=C4)cc1)[C@H](C(F)(F)F)O2
REMARK SMILES IDX 15 1 14 2 13 3 11 4 12 5 10 6 3 7 4 8 8 9 5 10 7 11 6 12
REMARK SMILES IDX 9 13 87 14 82 15 2 16 1 17 83 18 84 19 85 20 86 21 16 22
REMARK SMILES IDX 17 23 18 24 19 25 20 26 81 27 21 28 80 29 22 30 23 31 24 32
REMARK SMILES IDX 74 33 25 34 79 35 73 36 75 37 26 38 78 39 72 40 71 41 27 43
REMARK SMILES IDX 59 44 39 45 58 46 40 47 43 48 57 49 76 50 41 51 42 52 56 54
REMARK SMILES IDX 77 55 44 56 28 57 29 58 37 59 30 60 32 61 38 62 31 63 33 64
REMARK SMILES IDX 34 65 35 66 36 67 60 68 61 69 69 70 62 71 64 72 70 73 63 74
REMARK SMILES IDX 65 75 66 76 67 77 68 78 45 79 46 80 54 81 47 82 49 83 55 84
REMARK SMILES IDX 48 85 50 86 51 87 52 88 53 89
REMARK H PARENT 75 42 43 53
REMARK Flexibility Score: inf
ROOT
ATOM      1  C   UNL A   1      31.600  30.301  25.722  1.00  0.00     0.275 C 
ENDROOT
BRANCH   1   2
ATOM      2  C   UNL A   1      31.434  29.347  24.536  1.00  0.00     0.275 C 
BRANCH   2   3
ATOM      3  O   UNL A   1      32.520  28.399  24.452  1.00  0.00    -0.459 OA
BRANCH   3   4
ATOM      4  C   UNL A   1      32.266  27.268  23.739  1.00  0.00     0.338 C 
ATOM      5  O   UNL A   1      31.809  27.238  22.615  1.00  0.00    -0.246 OA
BRANCH   4   6
ATOM      6  C   UNL A   1      32.632  26.045  24.493  1.00  0.00     0.087 C 
ATOM      7  C   UNL A   1      35.762  22.678  25.991  1.00  0.00     0.119 A 
ATOM      8  C   UNL A   1      34.769  22.129  26.804  1.00  0.00     0.050 A 
ATOM      9  C   UNL A   1      35.493  23.834  25.247  1.00  0.00     0.058 A 
ATOM     10  C   UNL A   1      33.520  22.743  26.885  1.00  0.00     0.051 A 
ATOM     11  C   UNL A   1      34.231  24.436  25.299  1.00  0.00     0.021 A 
ATOM     12  C   UNL A   1      33.259  23.889  26.138  1.00  0.00     0.128 A 
ATOM     13  C   UNL A   1      33.916  25.645  24.541  1.00  0.00     0.027 C 
ATOM     14  O   UNL A   1      32.049  24.489  26.336  1.00  0.00    -0.475 OA
ATOM     15  C   UNL A   1      31.542  25.258  25.209  1.00  0.00     0.316 C 
BRANCH   7  16
ATOM     16  O   UNL A   1      37.046  22.209  25.900  1.00  0.00    -0.497 OA
ATOM     17  C   UNL A   1      37.344  21.443  24.738  1.00  0.00     0.278 C 
ENDBRANCH   7  16
BRANCH  15  18
ATOM     18  C   UNL A   1      30.284  26.003  25.698  1.00  0.00     0.430 C 
ATOM     19  F   UNL A   1      29.519  26.435  24.672  1.00  0.00    -0.167 F 
ATOM     20  F   UNL A   1      29.496  25.158  26.416  1.00  0.00    -0.167 F 
ATOM     21  F   UNL A   1      30.581  27.046  26.502  1.00  0.00    -0.167 F 
ENDBRANCH  15  18
ENDBRANCH   4   6
ENDBRANCH   3   4
ENDBRANCH   2   3
ENDBRANCH   1   2
BRANCH   1  22
ATOM     22  O   UNL A   1      32.972  30.385  26.146  1.00  0.00    -0.458 OA
BRANCH  22  23
ATOM     23  C   UNL A   1      33.246  31.418  26.980  1.00  0.00     0.338 C 
ATOM     24  O   UNL A   1      32.507  32.353  27.250  1.00  0.00    -0.246 OA
BRANCH  23  25
ATOM     25  C   UNL A   1      34.505  31.162  27.704  1.00  0.00     0.060 A 
ATOM     26  C   UNL A   1      34.719  29.853  28.140  1.00  0.00     0.016 A 
ATOM     27  C   UNL A   1      35.451  32.154  27.974  1.00  0.00     0.016 A 
ATOM     28  C   UNL A   1      35.905  29.504  28.780  1.00  0.00     0.010 A 
ATOM     29  C   UNL A   1      36.621  31.816  28.669  1.00  0.00     0.010 A 
ATOM     30  C   UNL A   1      36.857  30.487  29.064  1.00  0.00    -0.014 A 
BRANCH  30  31
ATOM     31  C   UNL A   1      38.039  30.130  29.885  1.00  0.00     0.031 A 
ATOM     32  C   UNL A   1      39.043  29.162  29.331  1.00  0.00     0.074 A 
ATOM     33  C   UNL A   1      38.234  30.684  31.095  1.00  0.00     0.049 A 
ATOM     34  N   UNL A   1      40.143  28.708  29.872  1.00  0.00    -0.248 NA
ATOM     35  C   UNL A   1      38.778  28.647  27.977  1.00  0.00     0.031 C 
ATOM     36  C   UNL A   1      37.361  31.676  31.722  1.00  0.00     0.029 A 
ATOM     37  N   UNL A   1      39.228  30.475  32.020  1.00  0.00    -0.354 N 
ATOM     38  C   UNL A   1      40.692  27.839  28.938  1.00  0.00     0.074 A 
ATOM     39  C   UNL A   1      39.806  27.832  27.794  1.00  0.00     0.031 C 
ATOM     40  C   UNL A   1      37.839  31.960  32.947  1.00  0.00     0.029 A 
ATOM     41  C   UNL A   1      39.032  31.154  33.200  1.00  0.00     0.049 A 
ATOM     42  H   UNL A   1      40.005  29.894  31.854  1.00  0.00     0.167 HD
ATOM     43  C   UNL A   1      41.832  27.114  29.024  1.00  0.00     0.034 A 
ATOM     44  C   UNL A   1      39.722  31.106  34.358  1.00  0.00     0.034 A 
ATOM     45  C   UNL A   1      42.703  27.106  30.168  1.00  0.00     0.049 A 
ATOM     46  C   UNL A   1      40.948  30.231  34.453  1.00  0.00     0.074 A 
ATOM     47  C   UNL A   1      43.886  26.408  30.342  1.00  0.00     0.029 A 
ATOM     48  N   UNL A   1      42.477  27.806  31.343  1.00  0.00    -0.354 N 
ATOM     49  N   UNL A   1      41.510  29.489  33.530  1.00  0.00    -0.248 NA
ATOM     50  C   UNL A   1      41.652  30.210  35.745  1.00  0.00     0.031 C 
ATOM     51  C   UNL A   1      44.352  26.655  31.637  1.00  0.00     0.029 A 
ATOM     52  C   UNL A   1      43.486  27.543  32.253  1.00  0.00     0.049 A 
ATOM     53  H   UNL A   1      41.710  28.403  31.505  1.00  0.00     0.167 HD
ATOM     54  C   UNL A   1      42.653  28.950  34.114  1.00  0.00     0.074 A 
ATOM     55  C   UNL A   1      42.711  29.461  35.467  1.00  0.00     0.031 C 
ATOM     56  C   UNL A   1      43.566  28.100  33.580  1.00  0.00     0.034 A 
BRANCH  43  57
ATOM     57  C   UNL A   1      42.193  26.254  27.844  1.00  0.00     0.023 A 
ATOM     58  C   UNL A   1      42.960  26.793  26.790  1.00  0.00     0.012 A 
ATOM     59  C   UNL A   1      41.802  24.902  27.796  1.00  0.00     0.148 A 
ATOM     60  C   UNL A   1      43.300  26.007  25.689  1.00  0.00     0.002 A 
ATOM     61  C   UNL A   1      42.183  24.114  26.717  1.00  0.00     0.091 A 
ATOM     62  F   UNL A   1      41.054  24.418  28.797  1.00  0.00    -0.205 F 
ATOM     63  C   UNL A   1      42.920  24.668  25.657  1.00  0.00     0.022 A 
BRANCH  61  64
ATOM     64  S   UNL A   1      41.806  22.362  26.620  1.00  0.00     0.127 S 
ATOM     65  O   UNL A   1      42.456  21.853  27.827  1.00  0.00    -0.237 OA
ATOM     66  O   UNL A   1      40.343  22.360  26.668  1.00  0.00    -0.237 OA
ATOM     67  O   UNL A   1      42.373  21.896  25.362  1.00  0.00    -0.744 OA
ENDBRANCH  61  64
ENDBRANCH  43  57
BRANCH  44  68
ATOM     68  C   UNL A   1      39.281  31.917  35.530  1.00  0.00     0.023 A 
ATOM     69  C   UNL A   1      39.675  33.265  35.635  1.00  0.00     0.012 A 
ATOM     70  C   UNL A   1      38.491  31.351  36.549  1.00  0.00     0.148 A 
ATOM     71  C   UNL A   1      39.320  34.024  36.750  1.00  0.00     0.002 A 
ATOM     72  C   UNL A   1      38.096  32.128  37.632  1.00  0.00     0.091 A 
ATOM     73  F   UNL A   1      38.142  30.061  36.441  1.00  0.00    -0.205 F 
ATOM     74  C   UNL A   1      38.525  33.460  37.745  1.00  0.00     0.022 A 
BRANCH  72  75
ATOM     75  S   UNL A   1      36.989  31.519  38.908  1.00  0.00     0.127 S 
ATOM     76  O   UNL A   1      36.847  30.114  38.535  1.00  0.00    -0.237 OA
ATOM     77  O   UNL A   1      37.770  31.758  40.123  1.00  0.00    -0.237 OA
ATOM     78  O   UNL A   1      35.779  32.322  38.801  1.00  0.00    -0.744 OA
ENDBRANCH  72  75
ENDBRANCH  44  68
BRANCH  56  79
ATOM     79  C   UNL A   1      44.747  27.702  34.431  1.00  0.00     0.023 A 
ATOM     80  C   UNL A   1      45.916  28.490  34.437  1.00  0.00     0.012 A 
ATOM     81  C   UNL A   1      44.665  26.588  35.292  1.00  0.00     0.148 A 
ATOM     82  C   UNL A   1      46.992  28.158  35.260  1.00  0.00     0.002 A 
ATOM     83  C   UNL A   1      45.719  26.294  36.147  1.00  0.00     0.091 A 
ATOM     84  F   UNL A   1      43.552  25.840  35.262  1.00  0.00    -0.205 F 
ATOM     85  C   UNL A   1      46.889  27.069  36.123  1.00  0.00     0.022 A 
BRANCH  83  86
ATOM     86  S   UNL A   1      45.635  24.976  37.366  1.00  0.00     0.127 S 
ATOM     87  O   UNL A   1      46.963  25.049  37.975  1.00  0.00    -0.237 OA
ATOM     88  O   UNL A   1      44.542  25.423  38.231  1.00  0.00    -0.237 OA
ATOM     89  O   UNL A   1      45.357  23.756  36.622  1.00  0.00    -0.744 OA
ENDBRANCH  83  86
ENDBRANCH  56  79
ENDBRANCH  30  31
ENDBRANCH  23  25
ENDBRANCH  22  23
ENDBRANCH   1  22
TORSDOF 16
ENDMDL
