MODEL 1
REMARK VINA RESULT:     -11.3      0.000      0.000
REMARK SMILES CCC(CC)(CC(=O)Nc1cccc(OC)c1)C(=O)OCCOC(=O)c1ccc(-c2c3nc(c(-c4cccc(S(=O)(=O)[O-])c4F)c4ccc([nH]4)c(-c4cccc(S(=O)(=O)[O-])c4F)c4nc(c(-c5cccc(S(=O)(=O)[O-])c5F)c5ccc2[nH]5)C=C4)C=C3)cc1
REMARK SMILES IDX 21 1 20 2 18 3 19 4 3 5 2 6 1 7 4 8 5 9 6 10 7 11 8 12 9 13
REMARK SMILES IDX 10 15 11 16 17 17 12 18 14 19 13 20 15 21 16 22 22 23 23 24
REMARK SMILES IDX 24 25 25 26 26 27 27 28 88 29 28 30 87 31 29 32 30 33 31 34
REMARK SMILES IDX 81 35 32 36 86 37 80 38 82 39 33 40 85 41 79 42 78 43 34 45
REMARK SMILES IDX 66 46 46 47 65 48 47 49 50 50 64 51 83 52 48 53 49 54 63 56
REMARK SMILES IDX 84 57 51 58 35 59 36 60 44 61 37 62 39 63 45 64 38 65 40 66
REMARK SMILES IDX 41 67 42 68 43 69 67 70 68 71 76 72 69 73 71 74 77 75 70 76
REMARK SMILES IDX 72 77 73 78 74 79 75 80 52 81 53 82 61 83 54 84 56 85 62 86
REMARK SMILES IDX 55 87 57 88 58 89 59 90 60 91
REMARK H PARENT 9 14 82 44 50 55
REMARK Flexibility Score: inf
ROOT
ATOM      1  C   UNL A   1      34.737  20.426  24.795  1.00  0.00     0.274 C 
ENDROOT
BRANCH   1   2
ATOM      2  O   UNL A   1      33.905  21.406  24.149  1.00  0.00    -0.462 OA
BRANCH   2   3
ATOM      3  C   UNL A   1      32.699  21.591  24.728  1.00  0.00     0.312 C 
ATOM      4  O   UNL A   1      32.025  20.674  25.187  1.00  0.00    -0.252 OA
BRANCH   3   5
ATOM      5  C   UNL A   1      32.356  23.084  24.908  1.00  0.00     0.076 C 
BRANCH   5   6
ATOM      6  C   UNL A   1      32.877  23.856  23.688  1.00  0.00     0.016 C 
ATOM      7  C   UNL A   1      31.900  24.435  22.684  1.00  0.00     0.005 C 
ENDBRANCH   5   6
BRANCH   5   8
ATOM      8  C   UNL A   1      33.116  23.536  26.202  1.00  0.00     0.016 C 
ATOM      9  C   UNL A   1      34.254  24.533  26.024  1.00  0.00     0.005 C 
ENDBRANCH   5   8
BRANCH   5  10
ATOM     10  C   UNL A   1      30.835  23.378  25.085  1.00  0.00     0.119 C 
BRANCH  10  11
ATOM     11  C   UNL A   1      30.311  24.086  26.338  1.00  0.00     0.225 C 
ATOM     12  O   UNL A   1      29.887  23.420  27.287  1.00  0.00    -0.275 OA
ATOM     13  N   UNL A   1      30.527  25.422  26.559  1.00  0.00    -0.326 N 
ATOM     14  H   UNL A   1      30.525  25.652  27.516  1.00  0.00     0.169 HD
BRANCH  13  15
ATOM     15  C   UNL A   1      30.751  26.543  25.734  1.00  0.00     0.044 A 
ATOM     16  C   UNL A   1      31.523  27.586  26.258  1.00  0.00     0.026 A 
ATOM     17  C   UNL A   1      30.105  26.757  24.517  1.00  0.00     0.072 A 
ATOM     18  C   UNL A   1      31.690  28.780  25.548  1.00  0.00     0.006 A 
ATOM     19  C   UNL A   1      30.280  27.938  23.786  1.00  0.00     0.120 A 
ATOM     20  C   UNL A   1      31.071  28.951  24.314  1.00  0.00     0.046 A 
BRANCH  19  21
ATOM     21  O   UNL A   1      29.674  28.240  22.598  1.00  0.00    -0.497 OA
ATOM     22  C   UNL A   1      29.335  29.602  22.374  1.00  0.00     0.278 C 
ENDBRANCH  19  21
ENDBRANCH  13  15
ENDBRANCH  10  11
ENDBRANCH   5  10
ENDBRANCH   3   5
ENDBRANCH   2   3
ENDBRANCH   1   2
BRANCH   1  23
ATOM     23  C   UNL A   1      35.679  21.133  25.761  1.00  0.00     0.275 C 
BRANCH  23  24
ATOM     24  O   UNL A   1      36.800  21.628  25.011  1.00  0.00    -0.458 OA
BRANCH  24  25
ATOM     25  C   UNL A   1      38.013  21.236  25.460  1.00  0.00     0.338 C 
ATOM     26  O   UNL A   1      38.483  20.103  25.397  1.00  0.00    -0.246 OA
BRANCH  25  27
ATOM     27  C   UNL A   1      38.725  22.375  26.078  1.00  0.00     0.060 A 
ATOM     28  C   UNL A   1      38.286  23.691  25.914  1.00  0.00     0.016 A 
ATOM     29  C   UNL A   1      39.898  22.130  26.788  1.00  0.00     0.016 A 
ATOM     30  C   UNL A   1      39.059  24.759  26.379  1.00  0.00     0.010 A 
ATOM     31  C   UNL A   1      40.608  23.195  27.349  1.00  0.00     0.010 A 
ATOM     32  C   UNL A   1      40.225  24.531  27.125  1.00  0.00    -0.014 A 
BRANCH  32  33
ATOM     33  C   UNL A   1      41.066  25.645  27.668  1.00  0.00     0.031 A 
ATOM     34  C   UNL A   1      40.439  26.694  28.557  1.00  0.00     0.074 A 
ATOM     35  C   UNL A   1      42.365  25.785  27.326  1.00  0.00     0.049 A 
ATOM     36  N   UNL A   1      40.864  27.898  28.847  1.00  0.00    -0.248 NA
ATOM     37  C   UNL A   1      39.142  26.358  29.167  1.00  0.00     0.031 C 
ATOM     38  C   UNL A   1      43.137  24.857  26.500  1.00  0.00     0.029 A 
ATOM     39  N   UNL A   1      43.262  26.791  27.612  1.00  0.00    -0.354 N 
ATOM     40  C   UNL A   1      39.840  28.499  29.570  1.00  0.00     0.074 A 
ATOM     41  C   UNL A   1      38.785  27.517  29.703  1.00  0.00     0.031 C 
ATOM     42  C   UNL A   1      44.389  25.316  26.367  1.00  0.00     0.029 A 
ATOM     43  C   UNL A   1      44.484  26.627  27.000  1.00  0.00     0.049 A 
ATOM     44  H   UNL A   1      43.049  27.553  28.197  1.00  0.00     0.167 HD
ATOM     45  C   UNL A   1      39.783  29.755  30.076  1.00  0.00     0.034 A 
ATOM     46  C   UNL A   1      45.545  27.455  26.894  1.00  0.00     0.034 A 
ATOM     47  C   UNL A   1      40.877  30.689  30.052  1.00  0.00     0.049 A 
ATOM     48  C   UNL A   1      45.475  28.830  27.497  1.00  0.00     0.074 A 
ATOM     49  C   UNL A   1      40.933  31.960  30.600  1.00  0.00     0.029 A 
ATOM     50  N   UNL A   1      42.112  30.449  29.474  1.00  0.00    -0.354 N 
ATOM     51  N   UNL A   1      44.504  29.381  28.185  1.00  0.00    -0.248 NA
ATOM     52  C   UNL A   1      46.643  29.701  27.303  1.00  0.00     0.031 C 
ATOM     53  C   UNL A   1      42.203  32.489  30.349  1.00  0.00     0.029 A 
ATOM     54  C   UNL A   1      42.939  31.545  29.654  1.00  0.00     0.049 A 
ATOM     55  H   UNL A   1      42.365  29.622  29.004  1.00  0.00     0.167 HD
ATOM     56  C   UNL A   1      44.947  30.657  28.511  1.00  0.00     0.074 A 
ATOM     57  C   UNL A   1      46.287  30.786  27.978  1.00  0.00     0.031 C 
ATOM     58  C   UNL A   1      44.290  31.644  29.167  1.00  0.00     0.034 A 
BRANCH  45  59
ATOM     59  C   UNL A   1      38.500  30.198  30.731  1.00  0.00     0.023 A 
ATOM     60  C   UNL A   1      38.292  29.963  32.104  1.00  0.00     0.012 A 
ATOM     61  C   UNL A   1      37.538  30.924  29.999  1.00  0.00     0.148 A 
ATOM     62  C   UNL A   1      37.135  30.421  32.733  1.00  0.00     0.002 A 
ATOM     63  C   UNL A   1      36.407  31.414  30.642  1.00  0.00     0.091 A 
ATOM     64  F   UNL A   1      37.744  31.120  28.689  1.00  0.00    -0.205 F 
ATOM     65  C   UNL A   1      36.200  31.156  32.006  1.00  0.00     0.022 A 
BRANCH  63  66
ATOM     66  S   UNL A   1      35.192  32.441  29.808  1.00  0.00     0.127 S 
ATOM     67  O   UNL A   1      34.253  32.728  30.891  1.00  0.00    -0.237 OA
ATOM     68  O   UNL A   1      35.994  33.587  29.378  1.00  0.00    -0.237 OA
ATOM     69  O   UNL A   1      34.666  31.630  28.718  1.00  0.00    -0.744 OA
ENDBRANCH  63  66
ENDBRANCH  45  59
BRANCH  46  70
ATOM     70  C   UNL A   1      46.766  27.001  26.167  1.00  0.00     0.023 A 
ATOM     71  C   UNL A   1      46.893  27.274  24.792  1.00  0.00     0.012 A 
ATOM     72  C   UNL A   1      47.823  26.355  26.837  1.00  0.00     0.148 A 
ATOM     73  C   UNL A   1      48.046  26.905  24.098  1.00  0.00     0.002 A 
ATOM     74  C   UNL A   1      48.998  26.057  26.156  1.00  0.00     0.091 A 
ATOM     75  F   UNL A   1      47.674  26.066  28.139  1.00  0.00    -0.205 F 
ATOM     76  C   UNL A   1      49.105  26.315  24.782  1.00  0.00     0.022 A 
BRANCH  74  77
ATOM     77  S   UNL A   1      50.463  25.468  27.014  1.00  0.00     0.127 S 
ATOM     78  O   UNL A   1      50.739  26.568  27.933  1.00  0.00    -0.237 OA
ATOM     79  O   UNL A   1      49.977  24.242  27.647  1.00  0.00    -0.237 OA
ATOM     80  O   UNL A   1      51.452  25.242  25.967  1.00  0.00    -0.744 OA
ENDBRANCH  74  77
ENDBRANCH  46  70
BRANCH  58  81
ATOM     81  C   UNL A   1      45.012  32.950  29.366  1.00  0.00     0.023 A 
ATOM     82  C   UNL A   1      45.882  33.100  30.464  1.00  0.00     0.012 A 
ATOM     83  C   UNL A   1      44.887  33.997  28.432  1.00  0.00     0.148 A 
ATOM     84  C   UNL A   1      46.598  34.282  30.643  1.00  0.00     0.002 A 
ATOM     85  C   UNL A   1      45.635  35.157  28.596  1.00  0.00     0.091 A 
ATOM     86  F   UNL A   1      44.040  33.841  27.405  1.00  0.00    -0.205 F 
ATOM     87  C   UNL A   1      46.485  35.305  29.705  1.00  0.00     0.022 A 
BRANCH  85  88
ATOM     88  S   UNL A   1      45.613  36.494  27.396  1.00  0.00     0.127 S 
ATOM     89  O   UNL A   1      46.109  37.616  28.190  1.00  0.00    -0.237 OA
ATOM     90  O   UNL A   1      46.543  36.011  26.374  1.00  0.00    -0.237 OA
ATOM     91  O   UNL A   1      44.231  36.606  26.948  1.00  0.00    -0.744 OA
ENDBRANCH  85  88
ENDBRANCH  58  81
ENDBRANCH  32  33
ENDBRANCH  25  27
ENDBRANCH  24  25
ENDBRANCH  23  24
ENDBRANCH   1  23
TORSDOF 20
ENDMDL
MODEL 2
REMARK VINA RESULT:     -11.2      1.626      2.249
REMARK SMILES CCC(CC)(CC(=O)Nc1cccc(OC)c1)C(=O)OCCOC(=O)c1ccc(-c2c3nc(c(-c4cccc(S(=O)(=O)[O-])c4F)c4ccc([nH]4)c(-c4cccc(S(=O)(=O)[O-])c4F)c4nc(c(-c5cccc(S(=O)(=O)[O-])c5F)c5ccc2[nH]5)C=C4)C=C3)cc1
REMARK SMILES IDX 21 1 20 2 18 3 19 4 3 5 2 6 1 7 4 8 5 9 6 10 7 11 8 12 9 13
REMARK SMILES IDX 10 15 11 16 17 17 12 18 14 19 13 20 15 21 16 22 22 23 23 24
REMARK SMILES IDX 24 25 25 26 26 27 27 28 88 29 28 30 87 31 29 32 30 33 31 34
REMARK SMILES IDX 81 35 32 36 86 37 80 38 82 39 33 40 85 41 79 42 78 43 34 45
REMARK SMILES IDX 66 46 46 47 65 48 47 49 50 50 64 51 83 52 48 53 49 54 63 56
REMARK SMILES IDX 84 57 51 58 35 59 36 60 44 61 37 62 39 63 45 64 38 65 40 66
REMARK SMILES IDX 41 67 42 68 43 69 67 70 68 71 76 72 69 73 71 74 77 75 70 76
REMARK SMILES IDX 72 77 73 78 74 79 75 80 52 81 53 82 61 83 54 84 56 85 62 86
REMARK SMILES IDX 55 87 57 88 58 89 59 90 60 91
REMARK H PARENT 9 14 82 44 50 55
REMARK Flexibility Score: inf
ROOT
ATOM      1  C   UNL A   1      36.571  22.680  23.662  1.00  0.00     0.274 C 
ENDROOT
BRANCH   1   2
ATOM      2  O   UNL A   1      35.136  22.594  23.732  1.00  0.00    -0.462 OA
BRANCH   2   3
ATOM      3  C   UNL A   1      34.545  23.588  24.429  1.00  0.00     0.312 C 
ATOM      4  O   UNL A   1      34.879  24.765  24.336  1.00  0.00    -0.252 OA
BRANCH   3   5
ATOM      5  C   UNL A   1      33.301  23.105  25.202  1.00  0.00     0.076 C 
BRANCH   5   6
ATOM      6  C   UNL A   1      33.615  21.741  25.831  1.00  0.00     0.016 C 
ATOM      7  C   UNL A   1      34.155  21.667  27.247  1.00  0.00     0.005 C 
ENDBRANCH   5   6
BRANCH   5   8
ATOM      8  C   UNL A   1      32.170  22.959  24.128  1.00  0.00     0.016 C 
ATOM      9  C   UNL A   1      32.140  21.664  23.325  1.00  0.00     0.005 C 
ENDBRANCH   5   8
BRANCH   5  10
ATOM     10  C   UNL A   1      32.817  24.081  26.317  1.00  0.00     0.119 C 
BRANCH  10  11
ATOM     11  C   UNL A   1      31.347  24.121  26.745  1.00  0.00     0.225 C 
ATOM     12  O   UNL A   1      30.892  23.228  27.465  1.00  0.00    -0.275 OA
ATOM     13  N   UNL A   1      30.574  25.242  26.577  1.00  0.00    -0.326 N 
ATOM     14  H   UNL A   1      29.838  25.294  27.228  1.00  0.00     0.169 HD
BRANCH  13  15
ATOM     15  C   UNL A   1      30.588  26.335  25.687  1.00  0.00     0.044 A 
ATOM     16  C   UNL A   1      29.974  26.163  24.442  1.00  0.00     0.026 A 
ATOM     17  C   UNL A   1      31.330  27.498  25.895  1.00  0.00     0.072 A 
ATOM     18  C   UNL A   1      30.051  27.158  23.461  1.00  0.00     0.006 A 
ATOM     19  C   UNL A   1      31.398  28.511  24.931  1.00  0.00     0.120 A 
ATOM     20  C   UNL A   1      30.760  28.330  23.710  1.00  0.00     0.046 A 
BRANCH  19  21
ATOM     21  O   UNL A   1      32.114  29.672  25.040  1.00  0.00    -0.497 OA
ATOM     22  C   UNL A   1      32.026  30.371  26.274  1.00  0.00     0.278 C 
ENDBRANCH  19  21
ENDBRANCH  13  15
ENDBRANCH  10  11
ENDBRANCH   5  10
ENDBRANCH   3   5
ENDBRANCH   2   3
ENDBRANCH   1   2
BRANCH   1  23
ATOM     23  C   UNL A   1      37.175  21.477  24.374  1.00  0.00     0.275 C 
BRANCH  23  24
ATOM     24  O   UNL A   1      37.515  21.873  25.712  1.00  0.00    -0.458 OA
BRANCH  24  25
ATOM     25  C   UNL A   1      38.800  21.655  26.070  1.00  0.00     0.338 C 
ATOM     26  O   UNL A   1      39.421  20.601  25.957  1.00  0.00    -0.246 OA
BRANCH  25  27
ATOM     27  C   UNL A   1      39.385  22.880  26.656  1.00  0.00     0.060 A 
ATOM     28  C   UNL A   1      38.904  24.150  26.333  1.00  0.00     0.016 A 
ATOM     29  C   UNL A   1      40.485  22.763  27.502  1.00  0.00     0.016 A 
ATOM     30  C   UNL A   1      39.569  25.296  26.779  1.00  0.00     0.010 A 
ATOM     31  C   UNL A   1      41.079  23.908  28.038  1.00  0.00     0.010 A 
ATOM     32  C   UNL A   1      40.658  25.197  27.659  1.00  0.00    -0.014 A 
BRANCH  32  33
ATOM     33  C   UNL A   1      41.380  26.399  28.186  1.00  0.00     0.031 A 
ATOM     34  C   UNL A   1      40.627  27.436  28.987  1.00  0.00     0.074 A 
ATOM     35  C   UNL A   1      42.681  26.624  27.903  1.00  0.00     0.049 A 
ATOM     36  N   UNL A   1      40.943  28.682  29.236  1.00  0.00    -0.248 NA
ATOM     37  C   UNL A   1      39.328  27.028  29.547  1.00  0.00     0.031 C 
ATOM     38  C   UNL A   1      43.566  25.722  27.166  1.00  0.00     0.029 A 
ATOM     39  N   UNL A   1      43.482  27.711  28.183  1.00  0.00    -0.354 N 
ATOM     40  C   UNL A   1      39.837  29.234  29.874  1.00  0.00     0.074 A 
ATOM     41  C   UNL A   1      38.855  28.179  30.004  1.00  0.00     0.031 C 
ATOM     42  C   UNL A   1      44.784  26.273  27.074  1.00  0.00     0.029 A 
ATOM     43  C   UNL A   1      44.745  27.616  27.643  1.00  0.00     0.049 A 
ATOM     44  H   UNL A   1      43.179  28.481  28.716  1.00  0.00     0.167 HD
ATOM     45  C   UNL A   1      39.657  30.504  30.312  1.00  0.00     0.034 A 
ATOM     46  C   UNL A   1      45.743  28.518  27.548  1.00  0.00     0.034 A 
ATOM     47  C   UNL A   1      40.675  31.519  30.295  1.00  0.00     0.049 A 
ATOM     48  C   UNL A   1      45.535  29.910  28.075  1.00  0.00     0.074 A 
ATOM     49  C   UNL A   1      40.604  32.816  30.779  1.00  0.00     0.029 A 
ATOM     50  N   UNL A   1      41.956  31.351  29.793  1.00  0.00    -0.354 N 
ATOM     51  N   UNL A   1      44.489  30.415  28.684  1.00  0.00    -0.248 NA
ATOM     52  C   UNL A   1      46.642  30.862  27.896  1.00  0.00     0.031 C 
ATOM     53  C   UNL A   1      41.843  33.431  30.566  1.00  0.00     0.029 A 
ATOM     54  C   UNL A   1      42.685  32.516  29.959  1.00  0.00     0.049 A 
ATOM     55  H   UNL A   1      42.297  30.525  29.380  1.00  0.00     0.167 HD
ATOM     56  C   UNL A   1      44.815  31.737  28.967  1.00  0.00     0.074 A 
ATOM     57  C   UNL A   1      46.168  31.945  28.496  1.00  0.00     0.031 C 
ATOM     58  C   UNL A   1      44.049  32.699  29.536  1.00  0.00     0.034 A 
BRANCH  45  59
ATOM     59  C   UNL A   1      38.310  30.875  30.877  1.00  0.00     0.023 A 
ATOM     60  C   UNL A   1      38.028  30.642  32.237  1.00  0.00     0.012 A 
ATOM     61  C   UNL A   1      37.355  31.533  30.075  1.00  0.00     0.148 A 
ATOM     62  C   UNL A   1      36.807  31.036  32.784  1.00  0.00     0.002 A 
ATOM     63  C   UNL A   1      36.157  31.959  30.637  1.00  0.00     0.091 A 
ATOM     64  F   UNL A   1      37.633  31.726  28.777  1.00  0.00    -0.205 F 
ATOM     65  C   UNL A   1      35.878  31.704  31.989  1.00  0.00     0.022 A 
BRANCH  63  66
ATOM     66  S   UNL A   1      34.939  32.900  29.712  1.00  0.00     0.127 S 
ATOM     67  O   UNL A   1      34.413  31.886  28.798  1.00  0.00    -0.237 OA
ATOM     68  O   UNL A   1      34.005  33.317  30.759  1.00  0.00    -0.237 OA
ATOM     69  O   UNL A   1      35.670  33.992  29.085  1.00  0.00    -0.744 OA
ENDBRANCH  63  66
ENDBRANCH  45  59
BRANCH  46  70
ATOM     70  C   UNL A   1      47.033  28.128  26.908  1.00  0.00     0.023 A 
ATOM     71  C   UNL A   1      48.104  27.702  27.716  1.00  0.00     0.012 A 
ATOM     72  C   UNL A   1      47.186  28.121  25.508  1.00  0.00     0.148 A 
ATOM     73  C   UNL A   1      49.305  27.284  27.142  1.00  0.00     0.002 A 
ATOM     74  C   UNL A   1      48.358  27.633  24.941  1.00  0.00     0.091 A 
ATOM     75  F   UNL A   1      46.172  28.565  24.751  1.00  0.00    -0.205 F 
ATOM     76  C   UNL A   1      49.426  27.231  25.757  1.00  0.00     0.022 A 
BRANCH  74  77
ATOM     77  S   UNL A   1      48.510  27.365  23.171  1.00  0.00     0.127 S 
ATOM     78  O   UNL A   1      49.862  27.849  22.907  1.00  0.00    -0.237 OA
ATOM     79  O   UNL A   1      48.341  25.915  23.063  1.00  0.00    -0.237 OA
ATOM     80  O   UNL A   1      47.424  28.133  22.575  1.00  0.00    -0.744 OA
ENDBRANCH  74  77
ENDBRANCH  46  70
BRANCH  58  81
ATOM     81  C   UNL A   1      44.657  34.066  29.704  1.00  0.00     0.023 A 
ATOM     82  C   UNL A   1      45.323  34.384  30.904  1.00  0.00     0.012 A 
ATOM     83  C   UNL A   1      44.634  35.003  28.654  1.00  0.00     0.148 A 
ATOM     84  C   UNL A   1      45.936  35.625  31.066  1.00  0.00     0.002 A 
ATOM     85  C   UNL A   1      45.281  36.223  28.808  1.00  0.00     0.091 A 
ATOM     86  F   UNL A   1      43.979  34.687  27.528  1.00  0.00    -0.205 F 
ATOM     87  C   UNL A   1      45.925  36.540  30.015  1.00  0.00     0.022 A 
BRANCH  85  88
ATOM     88  S   UNL A   1      45.388  37.430  27.481  1.00  0.00     0.127 S 
ATOM     89  O   UNL A   1      43.983  37.777  27.279  1.00  0.00    -0.237 OA
ATOM     90  O   UNL A   1      46.198  38.489  28.086  1.00  0.00    -0.237 OA
ATOM     91  O   UNL A   1      46.029  36.744  26.367  1.00  0.00    -0.744 OA
ENDBRANCH  85  88
ENDBRANCH  58  81
ENDBRANCH  32  33
ENDBRANCH  25  27
ENDBRANCH  24  25
ENDBRANCH  23  24
ENDBRANCH   1  23
TORSDOF 20
ENDMDL
MODEL 3
REMARK VINA RESULT:     -11.2      4.673      9.841
REMARK SMILES CCC(CC)(CC(=O)Nc1cccc(OC)c1)C(=O)OCCOC(=O)c1ccc(-c2c3nc(c(-c4cccc(S(=O)(=O)[O-])c4F)c4ccc([nH]4)c(-c4cccc(S(=O)(=O)[O-])c4F)c4nc(c(-c5cccc(S(=O)(=O)[O-])c5F)c5ccc2[nH]5)C=C4)C=C3)cc1
REMARK SMILES IDX 21 1 20 2 18 3 19 4 3 5 2 6 1 7 4 8 5 9 6 10 7 11 8 12 9 13
REMARK SMILES IDX 10 15 11 16 17 17 12 18 14 19 13 20 15 21 16 22 22 23 23 24
REMARK SMILES IDX 24 25 25 26 26 27 27 28 88 29 28 30 87 31 29 32 30 33 31 34
REMARK SMILES IDX 81 35 32 36 86 37 80 38 82 39 33 40 85 41 79 42 78 43 34 45
REMARK SMILES IDX 66 46 46 47 65 48 47 49 50 50 64 51 83 52 48 53 49 54 63 56
REMARK SMILES IDX 84 57 51 58 35 59 36 60 44 61 37 62 39 63 45 64 38 65 40 66
REMARK SMILES IDX 41 67 42 68 43 69 67 70 68 71 76 72 69 73 71 74 77 75 70 76
REMARK SMILES IDX 72 77 73 78 74 79 75 80 52 81 53 82 61 83 54 84 56 85 62 86
REMARK SMILES IDX 55 87 57 88 58 89 59 90 60 91
REMARK H PARENT 9 14 82 44 50 55
REMARK Flexibility Score: inf
ROOT
ATOM      1  C   UNL A   1      31.882  28.436  23.869  1.00  0.00     0.274 C 
ENDROOT
BRANCH   1   2
ATOM      2  O   UNL A   1      32.279  27.345  24.719  1.00  0.00    -0.462 OA
BRANCH   2   3
ATOM      3  C   UNL A   1      31.585  26.202  24.530  1.00  0.00     0.312 C 
ATOM      4  O   UNL A   1      30.415  26.179  24.160  1.00  0.00    -0.252 OA
BRANCH   3   5
ATOM      5  C   UNL A   1      32.474  24.947  24.651  1.00  0.00     0.076 C 
BRANCH   5   6
ATOM      6  C   UNL A   1      33.575  25.227  25.683  1.00  0.00     0.016 C 
ATOM      7  C   UNL A   1      35.023  24.927  25.344  1.00  0.00     0.005 C 
ENDBRANCH   5   6
BRANCH   5   8
ATOM      8  C   UNL A   1      33.100  24.739  23.231  1.00  0.00     0.016 C 
ATOM      9  C   UNL A   1      33.398  23.304  22.809  1.00  0.00     0.005 C 
ENDBRANCH   5   8
BRANCH   5  10
ATOM     10  C   UNL A   1      31.707  23.653  25.061  1.00  0.00     0.119 C 
BRANCH  10  11
ATOM     11  C   UNL A   1      31.778  23.116  26.494  1.00  0.00     0.225 C 
ATOM     12  O   UNL A   1      31.098  23.640  27.380  1.00  0.00    -0.275 OA
ATOM     13  N   UNL A   1      32.370  21.915  26.789  1.00  0.00    -0.326 N 
ATOM     14  H   UNL A   1      32.004  21.503  27.604  1.00  0.00     0.169 HD
BRANCH  13  15
ATOM     15  C   UNL A   1      33.382  21.133  26.195  1.00  0.00     0.044 A 
ATOM     16  C   UNL A   1      34.681  21.652  26.192  1.00  0.00     0.026 A 
ATOM     17  C   UNL A   1      33.139  19.977  25.454  1.00  0.00     0.072 A 
ATOM     18  C   UNL A   1      35.715  20.993  25.518  1.00  0.00     0.006 A 
ATOM     19  C   UNL A   1      34.168  19.295  24.793  1.00  0.00     0.120 A 
ATOM     20  C   UNL A   1      35.456  19.815  24.823  1.00  0.00     0.046 A 
BRANCH  19  21
ATOM     21  O   UNL A   1      34.020  18.169  24.031  1.00  0.00    -0.497 OA
ATOM     22  C   UNL A   1      32.788  18.014  23.340  1.00  0.00     0.278 C 
ENDBRANCH  19  21
ENDBRANCH  13  15
ENDBRANCH  10  11
ENDBRANCH   5  10
ENDBRANCH   3   5
ENDBRANCH   2   3
ENDBRANCH   1   2
BRANCH   1  23
ATOM     23  C   UNL A   1      31.795  29.708  24.702  1.00  0.00     0.275 C 
BRANCH  23  24
ATOM     24  O   UNL A   1      32.957  29.772  25.545  1.00  0.00    -0.458 OA
BRANCH  24  25
ATOM     25  C   UNL A   1      32.897  30.683  26.542  1.00  0.00     0.338 C 
ATOM     26  O   UNL A   1      31.978  31.468  26.759  1.00  0.00    -0.246 OA
BRANCH  25  27
ATOM     27  C   UNL A   1      34.129  30.632  27.357  1.00  0.00     0.060 A 
ATOM     28  C   UNL A   1      34.844  31.787  27.681  1.00  0.00     0.016 A 
ATOM     29  C   UNL A   1      34.620  29.391  27.759  1.00  0.00     0.016 A 
ATOM     30  C   UNL A   1      36.084  31.697  28.322  1.00  0.00     0.010 A 
ATOM     31  C   UNL A   1      35.803  29.315  28.498  1.00  0.00     0.010 A 
ATOM     32  C   UNL A   1      36.578  30.460  28.762  1.00  0.00    -0.014 A 
BRANCH  32  33
ATOM     33  C   UNL A   1      37.885  30.322  29.480  1.00  0.00     0.031 A 
ATOM     34  C   UNL A   1      38.989  29.486  28.875  1.00  0.00     0.074 A 
ATOM     35  C   UNL A   1      38.085  30.867  30.699  1.00  0.00     0.049 A 
ATOM     36  N   UNL A   1      40.036  28.952  29.451  1.00  0.00    -0.248 NA
ATOM     37  C   UNL A   1      38.877  29.177  27.439  1.00  0.00     0.031 C 
ATOM     38  C   UNL A   1      37.142  31.721  31.420  1.00  0.00     0.029 A 
ATOM     39  N   UNL A   1      39.152  30.754  31.565  1.00  0.00    -0.354 N 
ATOM     40  C   UNL A   1      40.637  28.154  28.483  1.00  0.00     0.074 A 
ATOM     41  C   UNL A   1      39.856  28.299  27.273  1.00  0.00     0.031 C 
ATOM     42  C   UNL A   1      37.675  32.075  32.598  1.00  0.00     0.029 A 
ATOM     43  C   UNL A   1      38.949  31.385  32.771  1.00  0.00     0.049 A 
ATOM     44  H   UNL A   1      39.979  30.268  31.342  1.00  0.00     0.167 HD
ATOM     45  C   UNL A   1      41.738  27.372  28.593  1.00  0.00     0.034 A 
ATOM     46  C   UNL A   1      39.661  31.366  33.917  1.00  0.00     0.034 A 
ATOM     47  C   UNL A   1      42.585  27.321  29.755  1.00  0.00     0.049 A 
ATOM     48  C   UNL A   1      40.900  30.521  34.005  1.00  0.00     0.074 A 
ATOM     49  C   UNL A   1      43.759  26.608  29.932  1.00  0.00     0.029 A 
ATOM     50  N   UNL A   1      42.366  28.027  30.927  1.00  0.00    -0.354 N 
ATOM     51  N   UNL A   1      41.461  29.779  33.080  1.00  0.00    -0.248 NA
ATOM     52  C   UNL A   1      41.603  30.502  35.296  1.00  0.00     0.031 C 
ATOM     53  C   UNL A   1      44.248  26.882  31.214  1.00  0.00     0.029 A 
ATOM     54  C   UNL A   1      43.384  27.771  31.830  1.00  0.00     0.049 A 
ATOM     55  H   UNL A   1      41.600  28.624  31.093  1.00  0.00     0.167 HD
ATOM     56  C   UNL A   1      42.584  29.215  33.674  1.00  0.00     0.074 A 
ATOM     57  C   UNL A   1      42.645  29.727  35.027  1.00  0.00     0.031 C 
ATOM     58  C   UNL A   1      43.466  28.327  33.155  1.00  0.00     0.034 A 
BRANCH  45  59
ATOM     59  C   UNL A   1      42.120  26.514  27.414  1.00  0.00     0.023 A 
ATOM     60  C   UNL A   1      42.851  27.070  26.346  1.00  0.00     0.012 A 
ATOM     61  C   UNL A   1      41.824  25.135  27.407  1.00  0.00     0.148 A 
ATOM     62  C   UNL A   1      43.260  26.272  25.278  1.00  0.00     0.002 A 
ATOM     63  C   UNL A   1      42.272  24.339  26.359  1.00  0.00     0.091 A 
ATOM     64  F   UNL A   1      41.109  24.629  28.422  1.00  0.00    -0.205 F 
ATOM     65  C   UNL A   1      42.982  24.907  25.290  1.00  0.00     0.022 A 
BRANCH  63  66
ATOM     66  S   UNL A   1      42.033  22.559  26.332  1.00  0.00     0.127 S 
ATOM     67  O   UNL A   1      42.636  22.159  27.602  1.00  0.00    -0.237 OA
ATOM     68  O   UNL A   1      40.575  22.439  26.286  1.00  0.00    -0.237 OA
ATOM     69  O   UNL A   1      42.714  22.084  25.135  1.00  0.00    -0.744 OA
ENDBRANCH  63  66
ENDBRANCH  45  59
BRANCH  46  70
ATOM     70  C   UNL A   1      39.200  32.170  35.087  1.00  0.00     0.023 A 
ATOM     71  C   UNL A   1      38.336  31.584  36.030  1.00  0.00     0.012 A 
ATOM     72  C   UNL A   1      39.657  33.485  35.300  1.00  0.00     0.148 A 
ATOM     73  C   UNL A   1      37.928  32.296  37.160  1.00  0.00     0.002 A 
ATOM     74  C   UNL A   1      39.308  34.160  36.464  1.00  0.00     0.091 A 
ATOM     75  F   UNL A   1      40.451  34.044  34.375  1.00  0.00    -0.205 F 
ATOM     76  C   UNL A   1      38.428  33.575  37.387  1.00  0.00     0.022 A 
BRANCH  74  77
ATOM     77  S   UNL A   1      40.061  35.731  36.906  1.00  0.00     0.127 S 
ATOM     78  O   UNL A   1      41.480  35.390  36.930  1.00  0.00    -0.237 OA
ATOM     79  O   UNL A   1      39.652  36.593  35.796  1.00  0.00    -0.237 OA
ATOM     80  O   UNL A   1      39.464  36.092  38.186  1.00  0.00    -0.744 OA
ENDBRANCH  74  77
ENDBRANCH  46  70
BRANCH  58  81
ATOM     81  C   UNL A   1      44.590  27.861  34.041  1.00  0.00     0.023 A 
ATOM     82  C   UNL A   1      45.763  28.636  34.135  1.00  0.00     0.012 A 
ATOM     83  C   UNL A   1      44.458  26.704  34.831  1.00  0.00     0.148 A 
ATOM     84  C   UNL A   1      46.799  28.252  34.985  1.00  0.00     0.002 A 
ATOM     85  C   UNL A   1      45.479  26.349  35.706  1.00  0.00     0.091 A 
ATOM     86  F   UNL A   1      43.342  25.971  34.712  1.00  0.00    -0.205 F 
ATOM     87  C   UNL A   1      46.653  27.116  35.779  1.00  0.00     0.022 A 
BRANCH  85  88
ATOM     88  S   UNL A   1      45.344  24.948  36.824  1.00  0.00     0.127 S 
ATOM     89  O   UNL A   1      45.204  23.833  35.889  1.00  0.00    -0.237 OA
ATOM     90  O   UNL A   1      46.623  24.992  37.534  1.00  0.00    -0.237 OA
ATOM     91  O   UNL A   1      44.182  25.215  37.660  1.00  0.00    -0.744 OA
ENDBRANCH  85  88
ENDBRANCH  58  81
ENDBRANCH  32  33
ENDBRANCH  25  27
ENDBRANCH  24  25
ENDBRANCH  23  24
ENDBRANCH   1  23
TORSDOF 20
ENDMDL
