MODEL 1
REMARK VINA RESULT:     -12.8      0.000      0.000
REMARK SMILES CC1(C)Cc2c(-c3ccccc3)c(-c3ccc(Cl)cc3)c(CC(=O)OCCOC(=O)c3ccc(-c4c5nc(c(-c6cccc(S(=O)(=O)[O-])c6F)c6ccc([nH]6)c(-c6cccc(S(=O)(=O)[O-])c6F)c6nc(c(-c7cccc(S(=O)(=O)[O-])c7F)c7ccc4[nH]7)C=C6)C=C5)cc3)n2C1
REMARK SMILES IDX 27 1 26 2 25 3 23 4 24 5 22 6 21 7 1 8 2 9 3 10 4 11 95 12
REMARK SMILES IDX 5 13 94 14 6 15 13 16 7 17 8 18 12 19 9 20 11 21 10 22 14 23
REMARK SMILES IDX 15 24 20 25 16 26 19 27 17 28 18 29 28 30 29 31 30 32 31 33
REMARK SMILES IDX 32 34 93 35 33 36 92 37 34 38 35 39 36 40 86 41 37 42 91 43
REMARK SMILES IDX 85 44 87 45 38 46 90 47 84 48 83 49 39 51 71 52 51 53 70 54
REMARK SMILES IDX 52 55 55 56 69 57 88 58 53 59 54 60 68 62 89 63 56 64 40 65
REMARK SMILES IDX 41 66 49 67 42 68 44 69 50 70 43 71 45 72 46 73 47 74 48 75
REMARK SMILES IDX 72 76 73 77 81 78 74 79 76 80 82 81 75 82 77 83 78 84 79 85
REMARK SMILES IDX 80 86 57 87 58 88 66 89 59 90 61 91 67 92 60 93 62 94 63 95
REMARK SMILES IDX 64 96 65 97
REMARK H PARENT 87 50 55 61
REMARK Flexibility Score: inf
ROOT
ATOM      1  C   UNL A   1      31.983  30.278  26.561  1.00  0.00     0.275 C 
ENDROOT
BRANCH   1   2
ATOM      2  C   UNL A   1      31.936  29.841  25.096  1.00  0.00     0.274 C 
BRANCH   2   3
ATOM      3  O   UNL A   1      33.099  29.053  24.780  1.00  0.00    -0.462 OA
BRANCH   3   4
ATOM      4  C   UNL A   1      33.220  28.594  23.513  1.00  0.00     0.311 C 
ATOM      5  O   UNL A   1      32.757  29.178  22.534  1.00  0.00    -0.252 OA
BRANCH   4   6
ATOM      6  C   UNL A   1      34.080  27.347  23.385  1.00  0.00     0.177 C 
BRANCH   6   7
ATOM      7  C   UNL A   1      33.439  25.985  23.515  1.00  0.00     0.037 A 
ATOM      8  C   UNL A   1      28.510  26.227  23.939  1.00  0.00     0.013 C 
ATOM      9  C   UNL A   1      29.885  25.797  24.445  1.00  0.00    -0.012 C 
ATOM     10  C   UNL A   1      29.896  25.766  25.984  1.00  0.00     0.013 C 
ATOM     11  C   UNL A   1      30.257  24.387  23.879  1.00  0.00     0.063 C 
ATOM     12  C   UNL A   1      30.999  26.753  23.926  1.00  0.00     0.129 C 
ATOM     13  C   UNL A   1      31.697  24.531  23.615  1.00  0.00     0.027 A 
ATOM     14  N   UNL A   1      32.089  25.838  23.628  1.00  0.00    -0.346 N 
ATOM     15  C   UNL A   1      32.803  23.749  23.461  1.00  0.00     0.011 A 
ATOM     16  C   UNL A   1      33.922  24.670  23.442  1.00  0.00     0.011 A 
BRANCH  15  17
ATOM     17  C   UNL A   1      32.839  22.294  23.541  1.00  0.00    -0.016 A 
ATOM     18  C   UNL A   1      33.108  21.665  24.758  1.00  0.00     0.009 A 
ATOM     19  C   UNL A   1      32.384  21.522  22.461  1.00  0.00     0.009 A 
ATOM     20  C   UNL A   1      32.868  20.295  24.906  1.00  0.00     0.001 A 
ATOM     21  C   UNL A   1      32.105  20.164  22.621  1.00  0.00     0.001 A 
ATOM     22  C   UNL A   1      32.343  19.552  23.846  1.00  0.00     0.000 A 
ENDBRANCH  15  17
BRANCH  16  23
ATOM     23  C   UNL A   1      35.262  24.219  23.774  1.00  0.00    -0.016 A 
ATOM     24  C   UNL A   1      35.955  23.304  22.972  1.00  0.00     0.010 A 
ATOM     25  C   UNL A   1      35.571  24.297  25.131  1.00  0.00     0.010 A 
ATOM     26  C   UNL A   1      36.893  22.437  23.568  1.00  0.00     0.021 A 
ATOM     27  C   UNL A   1      36.537  23.499  25.701  1.00  0.00     0.021 A 
ATOM     28  C   UNL A   1      37.160  22.539  24.940  1.00  0.00     0.041 A 
ATOM     29  Cl  UNL A   1      38.090  21.444  25.877  1.00  0.00    -0.084 Cl
ENDBRANCH  16  23
ENDBRANCH   6   7
ENDBRANCH   4   6
ENDBRANCH   3   4
ENDBRANCH   2   3
ENDBRANCH   1   2
BRANCH   1  30
ATOM     30  O   UNL A   1      33.229  30.130  27.275  1.00  0.00    -0.458 OA
BRANCH  30  31
ATOM     31  C   UNL A   1      33.891  31.225  27.715  1.00  0.00     0.338 C 
ATOM     32  O   UNL A   1      33.454  32.368  27.710  1.00  0.00    -0.246 OA
BRANCH  31  33
ATOM     33  C   UNL A   1      35.254  30.870  28.186  1.00  0.00     0.060 A 
ATOM     34  C   UNL A   1      36.153  31.895  28.508  1.00  0.00     0.016 A 
ATOM     35  C   UNL A   1      35.683  29.537  28.211  1.00  0.00     0.016 A 
ATOM     36  C   UNL A   1      37.497  31.592  28.726  1.00  0.00     0.010 A 
ATOM     37  C   UNL A   1      37.028  29.239  28.406  1.00  0.00     0.010 A 
ATOM     38  C   UNL A   1      37.952  30.269  28.604  1.00  0.00    -0.014 A 
BRANCH  38  39
ATOM     39  C   UNL A   1      39.313  29.927  29.056  1.00  0.00     0.031 A 
ATOM     40  C   UNL A   1      39.495  30.354  30.456  1.00  0.00     0.074 A 
ATOM     41  C   UNL A   1      40.224  29.183  28.389  1.00  0.00     0.049 A 
ATOM     42  N   UNL A   1      40.281  31.297  30.861  1.00  0.00    -0.248 NA
ATOM     43  C   UNL A   1      38.515  29.915  31.464  1.00  0.00     0.031 C 
ATOM     44  C   UNL A   1      40.133  28.727  27.020  1.00  0.00     0.029 A 
ATOM     45  N   UNL A   1      41.377  28.564  28.787  1.00  0.00    -0.354 N 
ATOM     46  C   UNL A   1      40.110  31.308  32.239  1.00  0.00     0.074 A 
ATOM     47  C   UNL A   1      38.823  30.724  32.479  1.00  0.00     0.031 C 
ATOM     48  C   UNL A   1      40.900  27.641  26.802  1.00  0.00     0.029 A 
ATOM     49  C   UNL A   1      41.723  27.468  27.978  1.00  0.00     0.049 A 
ATOM     50  H   UNL A   1      41.910  28.857  29.560  1.00  0.00     0.167 HD
ATOM     51  C   UNL A   1      41.210  31.344  33.038  1.00  0.00     0.034 A 
ATOM     52  C   UNL A   1      42.660  26.509  28.185  1.00  0.00     0.034 A 
ATOM     53  C   UNL A   1      42.357  31.817  32.291  1.00  0.00     0.049 A 
ATOM     54  C   UNL A   1      43.641  27.102  29.108  1.00  0.00     0.074 A 
ATOM     55  C   UNL A   1      42.715  32.983  31.646  1.00  0.00     0.029 A 
ATOM     56  N   UNL A   1      43.142  30.811  31.784  1.00  0.00    -0.354 N 
ATOM     57  N   UNL A   1      44.420  28.090  28.764  1.00  0.00    -0.248 NA
ATOM     58  C   UNL A   1      43.467  26.901  30.536  1.00  0.00     0.031 C 
ATOM     59  C   UNL A   1      43.595  32.595  30.594  1.00  0.00     0.029 A 
ATOM     60  C   UNL A   1      43.803  31.216  30.660  1.00  0.00     0.049 A 
ATOM     61  H   UNL A   1      43.218  29.914  32.180  1.00  0.00     0.167 HD
ATOM     62  C   UNL A   1      44.392  28.918  29.873  1.00  0.00     0.074 A 
ATOM     63  C   UNL A   1      43.966  28.060  30.977  1.00  0.00     0.031 C 
ATOM     64  C   UNL A   1      44.382  30.274  29.723  1.00  0.00     0.034 A 
BRANCH  51  65
ATOM     65  C   UNL A   1      41.405  30.452  34.261  1.00  0.00     0.023 A 
ATOM     66  C   UNL A   1      41.791  31.105  35.453  1.00  0.00     0.012 A 
ATOM     67  C   UNL A   1      41.538  29.040  34.250  1.00  0.00     0.148 A 
ATOM     68  C   UNL A   1      42.354  30.408  36.528  1.00  0.00     0.002 A 
ATOM     69  C   UNL A   1      42.055  28.344  35.336  1.00  0.00     0.091 A 
ATOM     70  F   UNL A   1      41.266  28.334  33.157  1.00  0.00    -0.205 F 
ATOM     71  C   UNL A   1      42.493  29.027  36.467  1.00  0.00     0.022 A 
BRANCH  69  72
ATOM     72  S   UNL A   1      42.253  26.553  35.302  1.00  0.00     0.127 S 
ATOM     73  O   UNL A   1      40.867  26.112  35.175  1.00  0.00    -0.237 OA
ATOM     74  O   UNL A   1      43.078  26.374  34.107  1.00  0.00    -0.237 OA
ATOM     75  O   UNL A   1      42.917  26.194  36.549  1.00  0.00    -0.744 OA
ENDBRANCH  69  72
ENDBRANCH  51  65
BRANCH  52  76
ATOM     76  C   UNL A   1      42.706  25.084  27.767  1.00  0.00     0.023 A 
ATOM     77  C   UNL A   1      41.575  24.257  27.934  1.00  0.00     0.012 A 
ATOM     78  C   UNL A   1      43.749  24.615  26.935  1.00  0.00     0.148 A 
ATOM     79  C   UNL A   1      41.462  23.034  27.256  1.00  0.00     0.002 A 
ATOM     80  C   UNL A   1      43.629  23.402  26.258  1.00  0.00     0.091 A 
ATOM     81  F   UNL A   1      44.815  25.401  26.740  1.00  0.00    -0.205 F 
ATOM     82  C   UNL A   1      42.480  22.615  26.406  1.00  0.00     0.022 A 
BRANCH  80  83
ATOM     83  S   UNL A   1      44.878  22.807  25.104  1.00  0.00     0.127 S 
ATOM     84  O   UNL A   1      45.094  23.982  24.260  1.00  0.00    -0.237 OA
ATOM     85  O   UNL A   1      45.987  22.486  25.999  1.00  0.00    -0.237 OA
ATOM     86  O   UNL A   1      44.278  21.671  24.415  1.00  0.00    -0.744 OA
ENDBRANCH  80  83
ENDBRANCH  52  76
BRANCH  64  87
ATOM     87  C   UNL A   1      44.866  30.836  28.413  1.00  0.00     0.023 A 
ATOM     88  C   UNL A   1      44.004  31.253  27.379  1.00  0.00     0.012 A 
ATOM     89  C   UNL A   1      46.244  31.078  28.294  1.00  0.00     0.148 A 
ATOM     90  C   UNL A   1      44.515  31.892  26.244  1.00  0.00     0.002 A 
ATOM     91  C   UNL A   1      46.741  31.754  27.191  1.00  0.00     0.091 A 
ATOM     92  F   UNL A   1      47.045  30.665  29.289  1.00  0.00    -0.205 F 
ATOM     93  C   UNL A   1      45.882  32.157  26.156  1.00  0.00     0.022 A 
BRANCH  91  94
ATOM     94  S   UNL A   1      48.467  32.231  27.092  1.00  0.00     0.127 S 
ATOM     95  O   UNL A   1      49.121  30.953  26.815  1.00  0.00    -0.237 OA
ATOM     96  O   UNL A   1      48.468  33.174  25.972  1.00  0.00    -0.237 OA
ATOM     97  O   UNL A   1      48.791  32.835  28.378  1.00  0.00    -0.744 OA
ENDBRANCH  91  94
ENDBRANCH  64  87
ENDBRANCH  38  39
ENDBRANCH  31  33
ENDBRANCH  30  31
ENDBRANCH   1  30
TORSDOF 17
ENDMDL
MODEL 2
REMARK VINA RESULT:     -11.9      4.872      9.060
REMARK SMILES CC1(C)Cc2c(-c3ccccc3)c(-c3ccc(Cl)cc3)c(CC(=O)OCCOC(=O)c3ccc(-c4c5nc(c(-c6cccc(S(=O)(=O)[O-])c6F)c6ccc([nH]6)c(-c6cccc(S(=O)(=O)[O-])c6F)c6nc(c(-c7cccc(S(=O)(=O)[O-])c7F)c7ccc4[nH]7)C=C6)C=C5)cc3)n2C1
REMARK SMILES IDX 27 1 26 2 25 3 23 4 24 5 22 6 21 7 1 8 2 9 3 10 4 11 95 12
REMARK SMILES IDX 5 13 94 14 6 15 13 16 7 17 8 18 12 19 9 20 11 21 10 22 14 23
REMARK SMILES IDX 15 24 20 25 16 26 19 27 17 28 18 29 28 30 29 31 30 32 31 33
REMARK SMILES IDX 32 34 93 35 33 36 92 37 34 38 35 39 36 40 86 41 37 42 91 43
REMARK SMILES IDX 85 44 87 45 38 46 90 47 84 48 83 49 39 51 71 52 51 53 70 54
REMARK SMILES IDX 52 55 55 56 69 57 88 58 53 59 54 60 68 62 89 63 56 64 40 65
REMARK SMILES IDX 41 66 49 67 42 68 44 69 50 70 43 71 45 72 46 73 47 74 48 75
REMARK SMILES IDX 72 76 73 77 81 78 74 79 76 80 82 81 75 82 77 83 78 84 79 85
REMARK SMILES IDX 80 86 57 87 58 88 66 89 59 90 61 91 67 92 60 93 62 94 63 95
REMARK SMILES IDX 64 96 65 97
REMARK H PARENT 87 50 55 61
REMARK Flexibility Score: inf
ROOT
ATOM      1  C   UNL A   1      39.756  22.579  27.131  1.00  0.00     0.275 C 
ENDROOT
BRANCH   1   2
ATOM      2  C   UNL A   1      39.390  21.494  26.117  1.00  0.00     0.274 C 
BRANCH   2   3
ATOM      3  O   UNL A   1      39.640  20.192  26.677  1.00  0.00    -0.462 OA
BRANCH   3   4
ATOM      4  C   UNL A   1      40.868  19.655  26.493  1.00  0.00     0.311 C 
ATOM      5  O   UNL A   1      41.121  18.825  25.622  1.00  0.00    -0.252 OA
BRANCH   4   6
ATOM      6  C   UNL A   1      41.945  20.252  27.386  1.00  0.00     0.177 C 
BRANCH   6   7
ATOM      7  C   UNL A   1      42.974  21.184  26.788  1.00  0.00     0.037 A 
ATOM      8  C   UNL A   1      45.424  19.146  22.997  1.00  0.00     0.013 C 
ATOM      9  C   UNL A   1      45.382  19.822  24.365  1.00  0.00    -0.012 C 
ATOM     10  C   UNL A   1      46.558  19.334  25.232  1.00  0.00     0.013 C 
ATOM     11  C   UNL A   1      45.445  21.376  24.206  1.00  0.00     0.063 C 
ATOM     12  C   UNL A   1      44.035  19.538  25.091  1.00  0.00     0.129 C 
ATOM     13  C   UNL A   1      44.523  21.831  25.258  1.00  0.00     0.027 A 
ATOM     14  N   UNL A   1      43.742  20.814  25.725  1.00  0.00    -0.346 N 
ATOM     15  C   UNL A   1      44.269  22.947  25.999  1.00  0.00     0.011 A 
ATOM     16  C   UNL A   1      43.315  22.528  27.005  1.00  0.00     0.011 A 
BRANCH  15  17
ATOM     17  C   UNL A   1      44.994  24.209  25.920  1.00  0.00    -0.016 A 
ATOM     18  C   UNL A   1      44.433  25.299  25.253  1.00  0.00     0.009 A 
ATOM     19  C   UNL A   1      46.146  24.405  26.698  1.00  0.00     0.009 A 
ATOM     20  C   UNL A   1      44.983  26.576  25.413  1.00  0.00     0.001 A 
ATOM     21  C   UNL A   1      46.669  25.684  26.890  1.00  0.00     0.001 A 
ATOM     22  C   UNL A   1      46.083  26.770  26.250  1.00  0.00     0.000 A 
ENDBRANCH  15  17
BRANCH  16  23
ATOM     23  C   UNL A   1      43.167  23.269  28.245  1.00  0.00    -0.016 A 
ATOM     24  C   UNL A   1      42.727  24.598  28.266  1.00  0.00     0.010 A 
ATOM     25  C   UNL A   1      43.975  22.809  29.285  1.00  0.00     0.010 A 
ATOM     26  C   UNL A   1      43.168  25.455  29.294  1.00  0.00     0.021 A 
ATOM     27  C   UNL A   1      44.349  23.626  30.328  1.00  0.00     0.021 A 
ATOM     28  C   UNL A   1      43.994  24.954  30.311  1.00  0.00     0.041 A 
ATOM     29  Cl  UNL A   1      44.803  25.877  31.509  1.00  0.00    -0.084 Cl
ENDBRANCH  16  23
ENDBRANCH   6   7
ENDBRANCH   4   6
ENDBRANCH   3   4
ENDBRANCH   2   3
ENDBRANCH   1   2
BRANCH   1  30
ATOM     30  O   UNL A   1      39.965  23.922  26.643  1.00  0.00    -0.458 OA
BRANCH  30  31
ATOM     31  C   UNL A   1      38.975  24.839  26.740  1.00  0.00     0.338 C 
ATOM     32  O   UNL A   1      37.875  24.754  26.211  1.00  0.00    -0.246 OA
BRANCH  31  33
ATOM     33  C   UNL A   1      39.404  26.000  27.561  1.00  0.00     0.060 A 
ATOM     34  C   UNL A   1      39.246  25.946  28.952  1.00  0.00     0.016 A 
ATOM     35  C   UNL A   1      39.859  27.179  26.959  1.00  0.00     0.016 A 
ATOM     36  C   UNL A   1      39.423  27.103  29.713  1.00  0.00     0.010 A 
ATOM     37  C   UNL A   1      40.012  28.337  27.716  1.00  0.00     0.010 A 
ATOM     38  C   UNL A   1      39.737  28.319  29.086  1.00  0.00    -0.014 A 
BRANCH  38  39
ATOM     39  C   UNL A   1      40.141  29.473  29.908  1.00  0.00     0.031 A 
ATOM     40  C   UNL A   1      38.952  30.265  30.275  1.00  0.00     0.074 A 
ATOM     41  C   UNL A   1      41.370  29.711  30.421  1.00  0.00     0.049 A 
ATOM     42  N   UNL A   1      38.685  31.461  29.861  1.00  0.00    -0.248 NA
ATOM     43  C   UNL A   1      37.813  29.581  30.909  1.00  0.00     0.031 C 
ATOM     44  C   UNL A   1      42.588  28.994  30.116  1.00  0.00     0.029 A 
ATOM     45  N   UNL A   1      41.812  30.554  31.403  1.00  0.00    -0.354 N 
ATOM     46  C   UNL A   1      37.485  31.771  30.485  1.00  0.00     0.074 A 
ATOM     47  C   UNL A   1      36.867  30.515  30.795  1.00  0.00     0.031 C 
ATOM     48  C   UNL A   1      43.499  29.112  31.101  1.00  0.00     0.029 A 
ATOM     49  C   UNL A   1      43.002  30.119  32.010  1.00  0.00     0.049 A 
ATOM     50  H   UNL A   1      41.344  31.382  31.657  1.00  0.00     0.167 HD
ATOM     51  C   UNL A   1      37.355  32.978  31.099  1.00  0.00     0.034 A 
ATOM     52  C   UNL A   1      43.609  30.574  33.135  1.00  0.00     0.034 A 
ATOM     53  C   UNL A   1      38.352  33.903  30.602  1.00  0.00     0.049 A 
ATOM     54  C   UNL A   1      43.135  31.956  33.314  1.00  0.00     0.074 A 
ATOM     55  C   UNL A   1      38.654  34.487  29.390  1.00  0.00     0.029 A 
ATOM     56  N   UNL A   1      39.479  33.976  31.383  1.00  0.00    -0.354 N 
ATOM     57  N   UNL A   1      43.455  32.919  32.495  1.00  0.00    -0.248 NA
ATOM     58  C   UNL A   1      41.962  32.191  34.140  1.00  0.00     0.031 C 
ATOM     59  C   UNL A   1      40.060  34.723  29.407  1.00  0.00     0.029 A 
ATOM     60  C   UNL A   1      40.571  34.338  30.648  1.00  0.00     0.049 A 
ATOM     61  H   UNL A   1      39.498  33.791  32.349  1.00  0.00     0.167 HD
ATOM     62  C   UNL A   1      42.265  33.608  32.333  1.00  0.00     0.074 A 
ATOM     63  C   UNL A   1      41.456  33.246  33.495  1.00  0.00     0.031 C 
ATOM     64  C   UNL A   1      41.925  34.123  31.117  1.00  0.00     0.034 A 
BRANCH  51  65
ATOM     65  C   UNL A   1      36.760  33.166  32.492  1.00  0.00     0.023 A 
ATOM     66  C   UNL A   1      35.722  34.119  32.602  1.00  0.00     0.012 A 
ATOM     67  C   UNL A   1      37.333  32.722  33.710  1.00  0.00     0.148 A 
ATOM     68  C   UNL A   1      35.344  34.659  33.836  1.00  0.00     0.002 A 
ATOM     69  C   UNL A   1      36.925  33.225  34.939  1.00  0.00     0.091 A 
ATOM     70  F   UNL A   1      38.359  31.877  33.718  1.00  0.00    -0.205 F 
ATOM     71  C   UNL A   1      35.950  34.217  35.006  1.00  0.00     0.022 A 
BRANCH  69  72
ATOM     72  S   UNL A   1      37.682  32.681  36.482  1.00  0.00     0.127 S 
ATOM     73  O   UNL A   1      38.971  33.363  36.426  1.00  0.00    -0.237 OA
ATOM     74  O   UNL A   1      36.739  33.206  37.469  1.00  0.00    -0.237 OA
ATOM     75  O   UNL A   1      37.735  31.226  36.417  1.00  0.00    -0.744 OA
ENDBRANCH  69  72
ENDBRANCH  51  65
BRANCH  52  76
ATOM     76  C   UNL A   1      44.449  29.875  34.142  1.00  0.00     0.023 A 
ATOM     77  C   UNL A   1      45.544  30.536  34.736  1.00  0.00     0.012 A 
ATOM     78  C   UNL A   1      44.001  28.673  34.739  1.00  0.00     0.148 A 
ATOM     79  C   UNL A   1      46.137  30.049  35.911  1.00  0.00     0.002 A 
ATOM     80  C   UNL A   1      44.590  28.197  35.910  1.00  0.00     0.091 A 
ATOM     81  F   UNL A   1      42.942  28.050  34.207  1.00  0.00    -0.205 F 
ATOM     82  C   UNL A   1      45.650  28.890  36.506  1.00  0.00     0.022 A 
BRANCH  80  83
ATOM     83  S   UNL A   1      43.991  26.732  36.770  1.00  0.00     0.127 S 
ATOM     84  O   UNL A   1      45.058  26.495  37.742  1.00  0.00    -0.237 OA
ATOM     85  O   UNL A   1      42.736  27.211  37.345  1.00  0.00    -0.237 OA
ATOM     86  O   UNL A   1      43.862  25.696  35.753  1.00  0.00    -0.744 OA
ENDBRANCH  80  83
ENDBRANCH  52  76
BRANCH  64  87
ATOM     87  C   UNL A   1      43.029  34.341  30.117  1.00  0.00     0.023 A 
ATOM     88  C   UNL A   1      43.869  35.472  30.120  1.00  0.00     0.012 A 
ATOM     89  C   UNL A   1      43.308  33.285  29.235  1.00  0.00     0.148 A 
ATOM     90  C   UNL A   1      44.961  35.547  29.248  1.00  0.00     0.002 A 
ATOM     91  C   UNL A   1      44.419  33.341  28.407  1.00  0.00     0.091 A 
ATOM     92  F   UNL A   1      42.490  32.221  29.247  1.00  0.00    -0.205 F 
ATOM     93  C   UNL A   1      45.246  34.475  28.403  1.00  0.00     0.022 A 
BRANCH  91  94
ATOM     94  S   UNL A   1      44.899  31.939  27.398  1.00  0.00     0.127 S 
ATOM     95  O   UNL A   1      46.141  32.411  26.790  1.00  0.00    -0.237 OA
ATOM     96  O   UNL A   1      45.069  30.879  28.394  1.00  0.00    -0.237 OA
ATOM     97  O   UNL A   1      43.795  31.713  26.472  1.00  0.00    -0.744 OA
ENDBRANCH  91  94
ENDBRANCH  64  87
ENDBRANCH  38  39
ENDBRANCH  31  33
ENDBRANCH  30  31
ENDBRANCH   1  30
TORSDOF 17
ENDMDL
MODEL 3
REMARK VINA RESULT:     -11.7      5.065     10.542
REMARK SMILES CC1(C)Cc2c(-c3ccccc3)c(-c3ccc(Cl)cc3)c(CC(=O)OCCOC(=O)c3ccc(-c4c5nc(c(-c6cccc(S(=O)(=O)[O-])c6F)c6ccc([nH]6)c(-c6cccc(S(=O)(=O)[O-])c6F)c6nc(c(-c7cccc(S(=O)(=O)[O-])c7F)c7ccc4[nH]7)C=C6)C=C5)cc3)n2C1
REMARK SMILES IDX 27 1 26 2 25 3 23 4 24 5 22 6 21 7 1 8 2 9 3 10 4 11 95 12
REMARK SMILES IDX 5 13 94 14 6 15 13 16 7 17 8 18 12 19 9 20 11 21 10 22 14 23
REMARK SMILES IDX 15 24 20 25 16 26 19 27 17 28 18 29 28 30 29 31 30 32 31 33
REMARK SMILES IDX 32 34 93 35 33 36 92 37 34 38 35 39 36 40 86 41 37 42 91 43
REMARK SMILES IDX 85 44 87 45 38 46 90 47 84 48 83 49 39 51 71 52 51 53 70 54
REMARK SMILES IDX 52 55 55 56 69 57 88 58 53 59 54 60 68 62 89 63 56 64 40 65
REMARK SMILES IDX 41 66 49 67 42 68 44 69 50 70 43 71 45 72 46 73 47 74 48 75
REMARK SMILES IDX 72 76 73 77 81 78 74 79 76 80 82 81 75 82 77 83 78 84 79 85
REMARK SMILES IDX 80 86 57 87 58 88 66 89 59 90 61 91 67 92 60 93 62 94 63 95
REMARK SMILES IDX 64 96 65 97
REMARK H PARENT 87 50 55 61
REMARK Flexibility Score: inf
ROOT
ATOM      1  C   UNL A   1      35.456  31.750  29.836  1.00  0.00     0.275 C 
ENDROOT
BRANCH   1   2
ATOM      2  C   UNL A   1      35.140  32.266  31.241  1.00  0.00     0.274 C 
BRANCH   2   3
ATOM      3  O   UNL A   1      35.279  33.698  31.282  1.00  0.00    -0.462 OA
BRANCH   3   4
ATOM      4  C   UNL A   1      35.003  34.322  32.451  1.00  0.00     0.311 C 
ATOM      5  O   UNL A   1      33.865  34.453  32.896  1.00  0.00    -0.252 OA
BRANCH   4   6
ATOM      6  C   UNL A   1      36.236  34.751  33.231  1.00  0.00     0.177 C 
BRANCH   6   7
ATOM      7  C   UNL A   1      37.215  33.703  33.709  1.00  0.00     0.037 A 
ATOM      8  C   UNL A   1      36.695  32.662  38.523  1.00  0.00     0.013 C 
ATOM      9  C   UNL A   1      37.528  33.113  37.326  1.00  0.00    -0.012 C 
ATOM     10  C   UNL A   1      38.612  34.108  37.781  1.00  0.00     0.013 C 
ATOM     11  C   UNL A   1      38.192  31.880  36.630  1.00  0.00     0.063 C 
ATOM     12  C   UNL A   1      36.633  33.767  36.233  1.00  0.00     0.129 C 
ATOM     13  C   UNL A   1      38.095  32.240  35.207  1.00  0.00     0.027 A 
ATOM     14  N   UNL A   1      37.222  33.268  35.001  1.00  0.00    -0.346 N 
ATOM     15  C   UNL A   1      38.690  31.933  34.019  1.00  0.00     0.011 A 
ATOM     16  C   UNL A   1      38.165  32.893  33.070  1.00  0.00     0.011 A 
BRANCH  15  17
ATOM     17  C   UNL A   1      39.787  30.992  33.832  1.00  0.00    -0.016 A 
ATOM     18  C   UNL A   1      41.060  31.293  34.321  1.00  0.00     0.009 A 
ATOM     19  C   UNL A   1      39.526  29.694  33.366  1.00  0.00     0.009 A 
ATOM     20  C   UNL A   1      42.035  30.293  34.397  1.00  0.00     0.001 A 
ATOM     21  C   UNL A   1      40.485  28.687  33.481  1.00  0.00     0.001 A 
ATOM     22  C   UNL A   1      41.739  28.987  34.001  1.00  0.00     0.000 A 
ENDBRANCH  15  17
BRANCH  16  23
ATOM     23  C   UNL A   1      38.889  33.204  31.850  1.00  0.00    -0.016 A 
ATOM     24  C   UNL A   1      39.061  32.261  30.829  1.00  0.00     0.010 A 
ATOM     25  C   UNL A   1      39.825  34.229  31.987  1.00  0.00     0.010 A 
ATOM     26  C   UNL A   1      40.209  32.328  30.015  1.00  0.00     0.021 A 
ATOM     27  C   UNL A   1      40.910  34.336  31.147  1.00  0.00     0.021 A 
ATOM     28  C   UNL A   1      41.133  33.366  30.199  1.00  0.00     0.041 A 
ATOM     29  Cl  UNL A   1      42.679  33.490  29.467  1.00  0.00    -0.084 Cl
ENDBRANCH  16  23
ENDBRANCH   6   7
ENDBRANCH   4   6
ENDBRANCH   3   4
ENDBRANCH   2   3
ENDBRANCH   1   2
BRANCH   1  30
ATOM     30  O   UNL A   1      35.622  30.327  29.658  1.00  0.00    -0.458 OA
BRANCH  30  31
ATOM     31  C   UNL A   1      36.167  29.848  28.516  1.00  0.00     0.338 C 
ATOM     32  O   UNL A   1      35.586  29.734  27.445  1.00  0.00    -0.246 OA
BRANCH  31  33
ATOM     33  C   UNL A   1      37.579  29.440  28.731  1.00  0.00     0.060 A 
ATOM     34  C   UNL A   1      38.532  29.739  27.749  1.00  0.00     0.016 A 
ATOM     35  C   UNL A   1      37.946  28.673  29.843  1.00  0.00     0.016 A 
ATOM     36  C   UNL A   1      39.803  29.166  27.822  1.00  0.00     0.010 A 
ATOM     37  C   UNL A   1      39.206  28.084  29.903  1.00  0.00     0.010 A 
ATOM     38  C   UNL A   1      40.119  28.279  28.863  1.00  0.00    -0.014 A 
BRANCH  38  39
ATOM     39  C   UNL A   1      41.519  27.862  29.058  1.00  0.00     0.031 A 
ATOM     40  C   UNL A   1      41.811  26.687  28.215  1.00  0.00     0.074 A 
ATOM     41  C   UNL A   1      42.472  28.526  29.751  1.00  0.00     0.049 A 
ATOM     42  N   UNL A   1      42.061  25.493  28.646  1.00  0.00    -0.248 NA
ATOM     43  C   UNL A   1      41.512  26.756  26.775  1.00  0.00     0.031 C 
ATOM     44  C   UNL A   1      42.278  29.677  30.603  1.00  0.00     0.029 A 
ATOM     45  N   UNL A   1      43.835  28.416  29.780  1.00  0.00    -0.354 N 
ATOM     46  C   UNL A   1      42.279  24.759  27.488  1.00  0.00     0.074 A 
ATOM     47  C   UNL A   1      41.604  25.467  26.440  1.00  0.00     0.031 C 
ATOM     48  C   UNL A   1      43.411  30.392  30.745  1.00  0.00     0.029 A 
ATOM     49  C   UNL A   1      44.477  29.604  30.170  1.00  0.00     0.049 A 
ATOM     50  H   UNL A   1      44.317  27.589  29.551  1.00  0.00     0.167 HD
ATOM     51  C   UNL A   1      43.361  23.938  27.424  1.00  0.00     0.034 A 
ATOM     52  C   UNL A   1      45.793  29.929  30.112  1.00  0.00     0.034 A 
ATOM     53  C   UNL A   1      43.847  23.644  28.756  1.00  0.00     0.049 A 
ATOM     54  C   UNL A   1      46.520  28.650  30.102  1.00  0.00     0.074 A 
ATOM     55  C   UNL A   1      43.358  23.007  29.878  1.00  0.00     0.029 A 
ATOM     56  N   UNL A   1      44.877  24.456  29.163  1.00  0.00    -0.354 N 
ATOM     57  N   UNL A   1      46.544  27.848  31.131  1.00  0.00    -0.248 NA
ATOM     58  C   UNL A   1      46.859  28.048  28.823  1.00  0.00     0.031 C 
ATOM     59  C   UNL A   1      43.998  23.627  30.991  1.00  0.00     0.029 A 
ATOM     60  C   UNL A   1      44.906  24.578  30.522  1.00  0.00     0.049 A 
ATOM     61  H   UNL A   1      45.512  24.893  28.553  1.00  0.00     0.167 HD
ATOM     62  C   UNL A   1      46.379  26.596  30.563  1.00  0.00     0.074 A 
ATOM     63  C   UNL A   1      46.773  26.759  29.164  1.00  0.00     0.031 C 
ATOM     64  C   UNL A   1      45.622  25.649  31.186  1.00  0.00     0.034 A 
BRANCH  51  65
ATOM     65  C   UNL A   1      44.307  23.866  26.228  1.00  0.00     0.023 A 
ATOM     66  C   UNL A   1      44.518  22.583  25.677  1.00  0.00     0.012 A 
ATOM     67  C   UNL A   1      45.213  24.879  25.821  1.00  0.00     0.148 A 
ATOM     68  C   UNL A   1      45.609  22.307  24.845  1.00  0.00     0.002 A 
ATOM     69  C   UNL A   1      46.270  24.613  24.959  1.00  0.00     0.091 A 
ATOM     70  F   UNL A   1      45.146  26.105  26.330  1.00  0.00    -0.205 F 
ATOM     71  C   UNL A   1      46.491  23.321  24.491  1.00  0.00     0.022 A 
BRANCH  69  72
ATOM     72  S   UNL A   1      47.437  25.897  24.472  1.00  0.00     0.127 S 
ATOM     73  O   UNL A   1      48.221  26.053  25.694  1.00  0.00    -0.237 OA
ATOM     74  O   UNL A   1      48.134  25.250  23.360  1.00  0.00    -0.237 OA
ATOM     75  O   UNL A   1      46.634  27.051  24.087  1.00  0.00    -0.744 OA
ENDBRANCH  69  72
ENDBRANCH  51  65
BRANCH  52  76
ATOM     76  C   UNL A   1      46.467  31.239  29.923  1.00  0.00     0.023 A 
ATOM     77  C   UNL A   1      47.041  31.909  31.025  1.00  0.00     0.012 A 
ATOM     78  C   UNL A   1      46.811  31.688  28.627  1.00  0.00     0.148 A 
ATOM     79  C   UNL A   1      47.963  32.950  30.844  1.00  0.00     0.002 A 
ATOM     80  C   UNL A   1      47.734  32.719  28.452  1.00  0.00     0.091 A 
ATOM     81  F   UNL A   1      46.302  31.043  27.570  1.00  0.00    -0.205 F 
ATOM     82  C   UNL A   1      48.322  33.344  29.558  1.00  0.00     0.022 A 
BRANCH  80  83
ATOM     83  S   UNL A   1      48.288  33.259  26.825  1.00  0.00     0.127 S 
ATOM     84  O   UNL A   1      47.025  33.362  26.094  1.00  0.00    -0.237 OA
ATOM     85  O   UNL A   1      48.923  34.539  27.131  1.00  0.00    -0.237 OA
ATOM     86  O   UNL A   1      49.181  32.215  26.339  1.00  0.00    -0.744 OA
ENDBRANCH  80  83
ENDBRANCH  52  76
BRANCH  64  87
ATOM     87  C   UNL A   1      45.376  25.811  32.663  1.00  0.00     0.023 A 
ATOM     88  C   UNL A   1      44.209  26.391  33.199  1.00  0.00     0.012 A 
ATOM     89  C   UNL A   1      46.306  25.220  33.532  1.00  0.00     0.148 A 
ATOM     90  C   UNL A   1      43.984  26.386  34.580  1.00  0.00     0.002 A 
ATOM     91  C   UNL A   1      46.057  25.174  34.895  1.00  0.00     0.091 A 
ATOM     92  F   UNL A   1      47.413  24.679  32.999  1.00  0.00    -0.205 F 
ATOM     93  C   UNL A   1      44.900  25.765  35.427  1.00  0.00     0.022 A 
BRANCH  91  94
ATOM     94  S   UNL A   1      47.138  24.276  36.009  1.00  0.00     0.127 S 
ATOM     95  O   UNL A   1      47.081  22.921  35.463  1.00  0.00    -0.237 OA
ATOM     96  O   UNL A   1      48.419  24.959  35.821  1.00  0.00    -0.237 OA
ATOM     97  O   UNL A   1      46.568  24.440  37.341  1.00  0.00    -0.744 OA
ENDBRANCH  91  94
ENDBRANCH  64  87
ENDBRANCH  38  39
ENDBRANCH  31  33
ENDBRANCH  30  31
ENDBRANCH   1  30
TORSDOF 17
ENDMDL
