MODEL 1
REMARK VINA RESULT:     -12.3      0.000      0.000
REMARK SMILES CC1(C)O[C@](C)([C@H](O)C2CCCCC2)CC[C@H]1C(=O)OCCOC(=O)c1ccc(-c2c3nc(c(-c4cccc(S(=O)(=O)[O-])c4F)c4ccc([nH]4)c(-c4cccc(S(=O)(=O)[O-])c4F)c4nc(c(-c5cccc(S(=O)(=O)[O-])c5F)c5ccc2[nH]5)C=C4)C=C3)cc1
REMARK SMILES IDX 22 1 21 2 20 3 18 4 19 5 17 6 1 7 2 8 3 9 4 10 5 11 16 12
REMARK SMILES IDX 6 13 15 14 7 15 9 16 10 17 14 18 11 19 13 20 12 21 8 22
REMARK SMILES IDX 23 24 24 25 25 26 26 27 27 28 88 29 28 30 87 31 29 32 30 33
REMARK SMILES IDX 31 34 81 35 32 36 86 37 80 38 82 39 33 40 85 41 79 42 78 43
REMARK SMILES IDX 34 45 66 46 46 47 65 48 47 49 50 50 64 51 83 52 48 53 49 54
REMARK SMILES IDX 63 56 84 57 51 58 35 59 36 60 44 61 37 62 39 63 45 64 38 65
REMARK SMILES IDX 40 66 41 67 42 68 43 69 67 70 68 71 76 72 69 73 71 74 77 75
REMARK SMILES IDX 70 76 72 77 73 78 74 79 75 80 52 81 53 82 61 83 54 84 56 85
REMARK SMILES IDX 62 86 55 87 57 88 58 89 59 90 60 91
REMARK H PARENT 8 23 82 44 50 55
REMARK Flexibility Score: inf
ROOT
ATOM      1  C   UNL A   1      36.295  20.962  24.796  1.00  0.00     0.275 C 
ENDROOT
BRANCH   1   2
ATOM      2  C   UNL A   1      34.966  20.346  25.227  1.00  0.00     0.274 C 
BRANCH   2   3
ATOM      3  O   UNL A   1      33.935  20.552  24.238  1.00  0.00    -0.462 OA
BRANCH   3   4
ATOM      4  C   UNL A   1      32.727  20.906  24.730  1.00  0.00     0.311 C 
ATOM      5  O   UNL A   1      31.882  20.099  25.109  1.00  0.00    -0.252 OA
BRANCH   4   6
ATOM      6  C   UNL A   1      32.428  22.397  24.711  1.00  0.00     0.131 C 
ATOM      7  C   UNL A   1      33.540  22.965  27.032  1.00  0.00     0.043 C 
ATOM      8  C   UNL A   1      32.407  23.221  26.028  1.00  0.00     0.077 C 
ATOM      9  C   UNL A   1      31.079  22.949  26.770  1.00  0.00     0.043 C 
ATOM     10  O   UNL A   1      32.345  24.644  25.767  1.00  0.00    -0.366 OA
ATOM     11  C   UNL A   1      33.194  25.237  24.776  1.00  0.00     0.092 C 
ATOM     12  C   UNL A   1      33.308  22.991  23.612  1.00  0.00     0.021 C 
ATOM     13  C   UNL A   1      34.685  25.226  25.169  1.00  0.00     0.045 C 
ATOM     14  C   UNL A   1      33.030  24.471  23.448  1.00  0.00     0.039 C 
BRANCH  11  15
ATOM     15  C   UNL A   1      32.668  26.703  24.534  1.00  0.00     0.149 C 
BRANCH  15  16
ATOM     16  C   UNL A   1      33.463  27.900  25.148  1.00  0.00     0.021 C 
ATOM     17  C   UNL A   1      33.034  29.321  24.763  1.00  0.00     0.006 C 
ATOM     18  C   UNL A   1      33.506  27.828  26.695  1.00  0.00     0.006 C 
ATOM     19  C   UNL A   1      31.677  29.702  25.339  1.00  0.00     0.000 C 
ATOM     20  C   UNL A   1      32.222  28.297  27.392  1.00  0.00     0.000 C 
ATOM     21  C   UNL A   1      31.695  29.628  26.861  1.00  0.00     0.000 C 
ENDBRANCH  15  16
BRANCH  15  22
ATOM     22  O   UNL A   1      32.416  26.902  23.141  1.00  0.00    -0.390 OA
ATOM     23  H   UNL A   1      31.565  27.352  23.028  1.00  0.00     0.211 HD
ENDBRANCH  15  22
ENDBRANCH  11  15
ENDBRANCH   4   6
ENDBRANCH   3   4
ENDBRANCH   2   3
ENDBRANCH   1   2
BRANCH   1  24
ATOM     24  O   UNL A   1      37.030  21.452  25.930  1.00  0.00    -0.458 OA
BRANCH  24  25
ATOM     25  C   UNL A   1      38.369  21.292  25.866  1.00  0.00     0.338 C 
ATOM     26  O   UNL A   1      38.981  20.342  25.391  1.00  0.00    -0.246 OA
BRANCH  25  27
ATOM     27  C   UNL A   1      39.042  22.464  26.437  1.00  0.00     0.060 A 
ATOM     28  C   UNL A   1      38.599  23.746  26.109  1.00  0.00     0.016 A 
ATOM     29  C   UNL A   1      40.188  22.289  27.208  1.00  0.00     0.016 A 
ATOM     30  C   UNL A   1      39.316  24.865  26.522  1.00  0.00     0.010 A 
ATOM     31  C   UNL A   1      40.880  23.411  27.663  1.00  0.00     0.010 A 
ATOM     32  C   UNL A   1      40.461  24.706  27.308  1.00  0.00    -0.014 A 
BRANCH  32  33
ATOM     33  C   UNL A   1      41.241  25.884  27.758  1.00  0.00     0.031 A 
ATOM     34  C   UNL A   1      40.570  26.959  28.564  1.00  0.00     0.074 A 
ATOM     35  C   UNL A   1      42.529  26.013  27.388  1.00  0.00     0.049 A 
ATOM     36  N   UNL A   1      41.010  28.147  28.883  1.00  0.00    -0.248 NA
ATOM     37  C   UNL A   1      39.220  26.660  29.071  1.00  0.00     0.031 C 
ATOM     38  C   UNL A   1      43.290  25.026  26.620  1.00  0.00     0.029 A 
ATOM     39  N   UNL A   1      43.414  27.045  27.578  1.00  0.00    -0.354 N 
ATOM     40  C   UNL A   1      39.972  28.763  29.571  1.00  0.00     0.074 A 
ATOM     41  C   UNL A   1      38.884  27.811  29.639  1.00  0.00     0.031 C 
ATOM     42  C   UNL A   1      44.519  25.509  26.384  1.00  0.00     0.029 A 
ATOM     43  C   UNL A   1      44.613  26.858  26.931  1.00  0.00     0.049 A 
ATOM     44  H   UNL A   1      43.211  27.839  28.123  1.00  0.00     0.167 HD
ATOM     45  C   UNL A   1      39.936  30.007  30.104  1.00  0.00     0.034 A 
ATOM     46  C   UNL A   1      45.655  27.696  26.761  1.00  0.00     0.034 A 
ATOM     47  C   UNL A   1      41.041  30.926  30.077  1.00  0.00     0.049 A 
ATOM     48  C   UNL A   1      45.586  29.074  27.359  1.00  0.00     0.074 A 
ATOM     49  C   UNL A   1      41.121  32.192  30.630  1.00  0.00     0.029 A 
ATOM     50  N   UNL A   1      42.263  30.675  29.471  1.00  0.00    -0.354 N 
ATOM     51  N   UNL A   1      44.628  29.616  28.072  1.00  0.00    -0.248 NA
ATOM     52  C   UNL A   1      46.746  29.950  27.146  1.00  0.00     0.031 C 
ATOM     53  C   UNL A   1      42.390  32.710  30.349  1.00  0.00     0.029 A 
ATOM     54  C   UNL A   1      43.103  31.764  29.631  1.00  0.00     0.049 A 
ATOM     55  H   UNL A   1      42.498  29.846  28.995  1.00  0.00     0.167 HD
ATOM     56  C   UNL A   1      45.078  30.886  28.411  1.00  0.00     0.074 A 
ATOM     57  C   UNL A   1      46.404  31.025  27.846  1.00  0.00     0.031 C 
ATOM     58  C   UNL A   1      44.442  31.859  29.110  1.00  0.00     0.034 A 
BRANCH  45  59
ATOM     59  C   UNL A   1      38.668  30.438  30.788  1.00  0.00     0.023 A 
ATOM     60  C   UNL A   1      38.504  30.197  32.165  1.00  0.00     0.012 A 
ATOM     61  C   UNL A   1      37.665  31.134  30.082  1.00  0.00     0.148 A 
ATOM     62  C   UNL A   1      37.353  30.621  32.828  1.00  0.00     0.002 A 
ATOM     63  C   UNL A   1      36.536  31.584  30.757  1.00  0.00     0.091 A 
ATOM     64  F   UNL A   1      37.827  31.328  28.766  1.00  0.00    -0.205 F 
ATOM     65  C   UNL A   1      36.376  31.323  32.127  1.00  0.00     0.022 A 
BRANCH  63  66
ATOM     66  S   UNL A   1      35.257  32.554  29.949  1.00  0.00     0.127 S 
ATOM     67  O   UNL A   1      36.021  33.696  29.452  1.00  0.00    -0.237 OA
ATOM     68  O   UNL A   1      34.782  31.641  28.909  1.00  0.00    -0.237 OA
ATOM     69  O   UNL A   1      34.275  32.852  30.982  1.00  0.00    -0.744 OA
ENDBRANCH  63  66
ENDBRANCH  45  59
BRANCH  46  70
ATOM     70  C   UNL A   1      46.855  27.238  26.008  1.00  0.00     0.023 A 
ATOM     71  C   UNL A   1      47.737  26.322  26.611  1.00  0.00     0.012 A 
ATOM     72  C   UNL A   1      47.096  27.655  24.684  1.00  0.00     0.148 A 
ATOM     73  C   UNL A   1      48.848  25.841  25.915  1.00  0.00     0.002 A 
ATOM     74  C   UNL A   1      48.173  27.129  23.977  1.00  0.00     0.091 A 
ATOM     75  F   UNL A   1      46.260  28.546  24.133  1.00  0.00    -0.205 F 
ATOM     76  C   UNL A   1      49.056  26.233  24.595  1.00  0.00     0.022 A 
BRANCH  74  77
ATOM     77  S   UNL A   1      48.424  27.475  22.231  1.00  0.00     0.127 S 
ATOM     78  O   UNL A   1      49.610  28.325  22.262  1.00  0.00    -0.237 OA
ATOM     79  O   UNL A   1      48.641  26.136  21.680  1.00  0.00    -0.237 OA
ATOM     80  O   UNL A   1      47.193  28.110  21.783  1.00  0.00    -0.744 OA
ENDBRANCH  74  77
ENDBRANCH  46  70
BRANCH  58  81
ATOM     81  C   UNL A   1      45.177  33.154  29.323  1.00  0.00     0.023 A 
ATOM     82  C   UNL A   1      46.015  33.298  30.445  1.00  0.00     0.012 A 
ATOM     83  C   UNL A   1      45.103  34.191  28.373  1.00  0.00     0.148 A 
ATOM     84  C   UNL A   1      46.753  34.465  30.630  1.00  0.00     0.002 A 
ATOM     85  C   UNL A   1      45.872  35.336  28.543  1.00  0.00     0.091 A 
ATOM     86  F   UNL A   1      44.281  34.041  27.323  1.00  0.00    -0.205 F 
ATOM     87  C   UNL A   1      46.692  35.478  29.675  1.00  0.00     0.022 A 
BRANCH  85  88
ATOM     88  S   UNL A   1      45.917  36.649  27.318  1.00  0.00     0.127 S 
ATOM     89  O   UNL A   1      44.497  36.950  27.152  1.00  0.00    -0.237 OA
ATOM     90  O   UNL A   1      46.686  37.690  28.001  1.00  0.00    -0.237 OA
ATOM     91  O   UNL A   1      46.581  36.081  26.153  1.00  0.00    -0.744 OA
ENDBRANCH  85  88
ENDBRANCH  58  81
ENDBRANCH  32  33
ENDBRANCH  25  27
ENDBRANCH  24  25
ENDBRANCH   1  24
TORSDOF 17
ENDMDL
MODEL 2
REMARK VINA RESULT:     -12.2      5.118     10.070
REMARK SMILES CC1(C)O[C@](C)([C@H](O)C2CCCCC2)CC[C@H]1C(=O)OCCOC(=O)c1ccc(-c2c3nc(c(-c4cccc(S(=O)(=O)[O-])c4F)c4ccc([nH]4)c(-c4cccc(S(=O)(=O)[O-])c4F)c4nc(c(-c5cccc(S(=O)(=O)[O-])c5F)c5ccc2[nH]5)C=C4)C=C3)cc1
REMARK SMILES IDX 22 1 21 2 20 3 18 4 19 5 17 6 1 7 2 8 3 9 4 10 5 11 16 12
REMARK SMILES IDX 6 13 15 14 7 15 9 16 10 17 14 18 11 19 13 20 12 21 8 22
REMARK SMILES IDX 23 24 24 25 25 26 26 27 27 28 88 29 28 30 87 31 29 32 30 33
REMARK SMILES IDX 31 34 81 35 32 36 86 37 80 38 82 39 33 40 85 41 79 42 78 43
REMARK SMILES IDX 34 45 66 46 46 47 65 48 47 49 50 50 64 51 83 52 48 53 49 54
REMARK SMILES IDX 63 56 84 57 51 58 35 59 36 60 44 61 37 62 39 63 45 64 38 65
REMARK SMILES IDX 40 66 41 67 42 68 43 69 67 70 68 71 76 72 69 73 71 74 77 75
REMARK SMILES IDX 70 76 72 77 73 78 74 79 75 80 52 81 53 82 61 83 54 84 56 85
REMARK SMILES IDX 62 86 55 87 57 88 58 89 59 90 60 91
REMARK H PARENT 8 23 82 44 50 55
REMARK Flexibility Score: inf
ROOT
ATOM      1  C   UNL A   1      31.436  30.132  25.982  1.00  0.00     0.275 C 
ENDROOT
BRANCH   1   2
ATOM      2  C   UNL A   1      31.059  29.737  24.556  1.00  0.00     0.274 C 
BRANCH   2   3
ATOM      3  O   UNL A   1      32.155  29.099  23.869  1.00  0.00    -0.462 OA
BRANCH   3   4
ATOM      4  C   UNL A   1      31.821  28.016  23.132  1.00  0.00     0.311 C 
ATOM      5  O   UNL A   1      30.976  28.032  22.241  1.00  0.00    -0.252 OA
BRANCH   4   6
ATOM      6  C   UNL A   1      32.508  26.719  23.532  1.00  0.00     0.131 C 
ATOM      7  C   UNL A   1      30.667  25.905  25.233  1.00  0.00     0.043 C 
ATOM      8  C   UNL A   1      32.154  26.010  24.868  1.00  0.00     0.077 C 
ATOM      9  C   UNL A   1      32.850  26.753  26.031  1.00  0.00     0.043 C 
ATOM     10  O   UNL A   1      32.734  24.685  24.940  1.00  0.00    -0.366 OA
ATOM     11  C   UNL A   1      32.647  23.795  23.821  1.00  0.00     0.092 C 
ATOM     12  C   UNL A   1      32.445  25.812  22.303  1.00  0.00     0.021 C 
ATOM     13  C   UNL A   1      31.210  23.310  23.541  1.00  0.00     0.045 C 
ATOM     14  C   UNL A   1      33.178  24.512  22.564  1.00  0.00     0.039 C 
BRANCH  11  15
ATOM     15  C   UNL A   1      33.620  22.589  24.113  1.00  0.00     0.149 C 
BRANCH  15  16
ATOM     16  C   UNL A   1      34.627  22.703  25.302  1.00  0.00     0.021 C 
ATOM     17  C   UNL A   1      35.148  21.405  25.929  1.00  0.00     0.006 C 
ATOM     18  C   UNL A   1      35.858  23.569  24.930  1.00  0.00     0.006 C 
ATOM     19  C   UNL A   1      36.068  20.628  24.998  1.00  0.00     0.000 C 
ATOM     20  C   UNL A   1      36.911  22.849  24.079  1.00  0.00     0.000 C 
ATOM     21  C   UNL A   1      37.282  21.466  24.611  1.00  0.00     0.000 C 
ENDBRANCH  15  16
BRANCH  15  22
ATOM     22  O   UNL A   1      32.873  21.371  24.175  1.00  0.00    -0.390 OA
ATOM     23  H   UNL A   1      31.981  21.556  24.505  1.00  0.00     0.211 HD
ENDBRANCH  15  22
ENDBRANCH  11  15
ENDBRANCH   4   6
ENDBRANCH   3   4
ENDBRANCH   2   3
ENDBRANCH   1   2
BRANCH   1  24
ATOM     24  O   UNL A   1      32.846  30.383  26.094  1.00  0.00    -0.458 OA
BRANCH  24  25
ATOM     25  C   UNL A   1      33.195  31.357  26.961  1.00  0.00     0.338 C 
ATOM     26  O   UNL A   1      32.545  32.351  27.261  1.00  0.00    -0.246 OA
BRANCH  25  27
ATOM     27  C   UNL A   1      34.502  31.055  27.555  1.00  0.00     0.060 A 
ATOM     28  C   UNL A   1      34.760  29.776  28.050  1.00  0.00     0.016 A 
ATOM     29  C   UNL A   1      35.432  32.078  27.722  1.00  0.00     0.016 A 
ATOM     30  C   UNL A   1      35.936  29.516  28.748  1.00  0.00     0.010 A 
ATOM     31  C   UNL A   1      36.633  31.806  28.380  1.00  0.00     0.010 A 
ATOM     32  C   UNL A   1      36.886  30.530  28.913  1.00  0.00    -0.014 A 
BRANCH  32  33
ATOM     33  C   UNL A   1      38.145  30.275  29.654  1.00  0.00     0.031 A 
ATOM     34  C   UNL A   1      39.183  29.362  29.068  1.00  0.00     0.074 A 
ATOM     35  C   UNL A   1      38.322  30.816  30.875  1.00  0.00     0.049 A 
ATOM     36  N   UNL A   1      40.248  28.856  29.630  1.00  0.00    -0.248 NA
ATOM     37  C   UNL A   1      38.991  28.956  27.666  1.00  0.00     0.031 C 
ATOM     38  C   UNL A   1      37.391  31.730  31.536  1.00  0.00     0.029 A 
ATOM     39  N   UNL A   1      39.330  30.642  31.790  1.00  0.00    -0.354 N 
ATOM     40  C   UNL A   1      40.820  28.024  28.677  1.00  0.00     0.074 A 
ATOM     41  C   UNL A   1      39.993  28.105  27.491  1.00  0.00     0.031 C 
ATOM     42  C   UNL A   1      37.859  32.020  32.761  1.00  0.00     0.029 A 
ATOM     43  C   UNL A   1      39.088  31.269  32.990  1.00  0.00     0.049 A 
ATOM     44  H   UNL A   1      40.146  30.123  31.605  1.00  0.00     0.167 HD
ATOM     45  C   UNL A   1      41.939  27.268  28.780  1.00  0.00     0.034 A 
ATOM     46  C   UNL A   1      39.757  31.210  34.158  1.00  0.00     0.034 A 
ATOM     47  C   UNL A   1      42.783  27.235  29.943  1.00  0.00     0.049 A 
ATOM     48  C   UNL A   1      40.994  30.359  34.247  1.00  0.00     0.074 A 
ATOM     49  C   UNL A   1      43.963  26.539  30.131  1.00  0.00     0.029 A 
ATOM     50  N   UNL A   1      42.540  27.935  31.116  1.00  0.00    -0.354 N 
ATOM     51  N   UNL A   1      41.565  29.636  33.313  1.00  0.00    -0.248 NA
ATOM     52  C   UNL A   1      41.688  30.327  35.541  1.00  0.00     0.031 C 
ATOM     53  C   UNL A   1      44.430  26.811  31.421  1.00  0.00     0.029 A 
ATOM     54  C   UNL A   1      43.545  27.684  32.033  1.00  0.00     0.049 A 
ATOM     55  H   UNL A   1      41.766  28.522  31.273  1.00  0.00     0.167 HD
ATOM     56  C   UNL A   1      42.696  29.082  33.900  1.00  0.00     0.074 A 
ATOM     57  C   UNL A   1      42.743  29.571  35.262  1.00  0.00     0.031 C 
ATOM     58  C   UNL A   1      43.604  28.228  33.366  1.00  0.00     0.034 A 
BRANCH  45  59
ATOM     59  C   UNL A   1      42.332  26.434  27.592  1.00  0.00     0.023 A 
ATOM     60  C   UNL A   1      43.119  27.004  26.572  1.00  0.00     0.012 A 
ATOM     61  C   UNL A   1      41.974  25.073  27.512  1.00  0.00     0.148 A 
ATOM     62  C   UNL A   1      43.527  26.239  25.480  1.00  0.00     0.002 A 
ATOM     63  C   UNL A   1      42.412  24.309  26.437  1.00  0.00     0.091 A 
ATOM     64  F   UNL A   1      41.200  24.557  28.477  1.00  0.00    -0.205 F 
ATOM     65  C   UNL A   1      43.183  24.892  25.418  1.00  0.00     0.022 A 
BRANCH  63  66
ATOM     66  S   UNL A   1      42.073  22.549  26.308  1.00  0.00     0.127 S 
ATOM     67  O   UNL A   1      40.613  22.532  26.262  1.00  0.00    -0.237 OA
ATOM     68  O   UNL A   1      42.726  22.196  25.046  1.00  0.00    -0.237 OA
ATOM     69  O   UNL A   1      42.675  21.942  27.487  1.00  0.00    -0.744 OA
ENDBRANCH  63  66
ENDBRANCH  45  59
BRANCH  46  70
ATOM     70  C   UNL A   1      39.276  32.000  35.325  1.00  0.00     0.023 A 
ATOM     71  C   UNL A   1      38.420  31.391  36.262  1.00  0.00     0.012 A 
ATOM     72  C   UNL A   1      39.702  33.324  35.543  1.00  0.00     0.148 A 
ATOM     73  C   UNL A   1      37.985  32.091  37.388  1.00  0.00     0.002 A 
ATOM     74  C   UNL A   1      39.310  33.998  36.696  1.00  0.00     0.091 A 
ATOM     75  F   UNL A   1      40.497  33.898  34.629  1.00  0.00    -0.205 F 
ATOM     76  C   UNL A   1      38.441  33.387  37.612  1.00  0.00     0.022 A 
BRANCH  74  77
ATOM     77  S   UNL A   1      39.969  35.614  37.124  1.00  0.00     0.127 S 
ATOM     78  O   UNL A   1      39.300  35.884  38.393  1.00  0.00    -0.237 OA
ATOM     79  O   UNL A   1      41.404  35.343  37.231  1.00  0.00    -0.237 OA
ATOM     80  O   UNL A   1      39.610  36.484  36.013  1.00  0.00    -0.744 OA
ENDBRANCH  74  77
ENDBRANCH  46  70
BRANCH  58  81
ATOM     81  C   UNL A   1      44.739  27.782  34.246  1.00  0.00     0.023 A 
ATOM     82  C   UNL A   1      45.906  28.565  34.321  1.00  0.00     0.012 A 
ATOM     83  C   UNL A   1      44.616  26.637  35.058  1.00  0.00     0.148 A 
ATOM     84  C   UNL A   1      46.945  28.204  35.177  1.00  0.00     0.002 A 
ATOM     85  C   UNL A   1      45.640  26.305  35.937  1.00  0.00     0.091 A 
ATOM     86  F   UNL A   1      43.505  25.893  34.953  1.00  0.00    -0.205 F 
ATOM     87  C   UNL A   1      46.808  27.083  35.993  1.00  0.00     0.022 A 
BRANCH  85  88
ATOM     88  S   UNL A   1      45.507  24.928  37.083  1.00  0.00     0.127 S 
ATOM     89  O   UNL A   1      46.751  25.048  37.840  1.00  0.00    -0.237 OA
ATOM     90  O   UNL A   1      44.299  25.263  37.837  1.00  0.00    -0.237 OA
ATOM     91  O   UNL A   1      45.385  23.735  36.256  1.00  0.00    -0.744 OA
ENDBRANCH  85  88
ENDBRANCH  58  81
ENDBRANCH  32  33
ENDBRANCH  25  27
ENDBRANCH  24  25
ENDBRANCH   1  24
TORSDOF 17
ENDMDL
MODEL 3
REMARK VINA RESULT:     -12.1      1.476      1.927
REMARK SMILES CC1(C)O[C@](C)([C@H](O)C2CCCCC2)CC[C@H]1C(=O)OCCOC(=O)c1ccc(-c2c3nc(c(-c4cccc(S(=O)(=O)[O-])c4F)c4ccc([nH]4)c(-c4cccc(S(=O)(=O)[O-])c4F)c4nc(c(-c5cccc(S(=O)(=O)[O-])c5F)c5ccc2[nH]5)C=C4)C=C3)cc1
REMARK SMILES IDX 22 1 21 2 20 3 18 4 19 5 17 6 1 7 2 8 3 9 4 10 5 11 16 12
REMARK SMILES IDX 6 13 15 14 7 15 9 16 10 17 14 18 11 19 13 20 12 21 8 22
REMARK SMILES IDX 23 24 24 25 25 26 26 27 27 28 88 29 28 30 87 31 29 32 30 33
REMARK SMILES IDX 31 34 81 35 32 36 86 37 80 38 82 39 33 40 85 41 79 42 78 43
REMARK SMILES IDX 34 45 66 46 46 47 65 48 47 49 50 50 64 51 83 52 48 53 49 54
REMARK SMILES IDX 63 56 84 57 51 58 35 59 36 60 44 61 37 62 39 63 45 64 38 65
REMARK SMILES IDX 40 66 41 67 42 68 43 69 67 70 68 71 76 72 69 73 71 74 77 75
REMARK SMILES IDX 70 76 72 77 73 78 74 79 75 80 52 81 53 82 61 83 54 84 56 85
REMARK SMILES IDX 62 86 55 87 57 88 58 89 59 90 60 91
REMARK H PARENT 8 23 82 44 50 55
REMARK Flexibility Score: inf
ROOT
ATOM      1  C   UNL A   1      36.965  20.233  24.673  1.00  0.00     0.275 C 
ENDROOT
BRANCH   1   2
ATOM      2  C   UNL A   1      35.489  20.042  25.012  1.00  0.00     0.274 C 
BRANCH   2   3
ATOM      3  O   UNL A   1      34.998  21.087  25.877  1.00  0.00    -0.462 OA
BRANCH   3   4
ATOM      4  C   UNL A   1      33.688  21.386  25.733  1.00  0.00     0.311 C 
ATOM      5  O   UNL A   1      32.801  20.540  25.652  1.00  0.00    -0.252 OA
BRANCH   4   6
ATOM      6  C   UNL A   1      33.369  22.867  25.591  1.00  0.00     0.131 C 
ATOM      7  C   UNL A   1      33.467  22.953  22.959  1.00  0.00     0.043 C 
ATOM      8  C   UNL A   1      33.752  23.642  24.301  1.00  0.00     0.077 C 
ATOM      9  C   UNL A   1      35.264  23.957  24.333  1.00  0.00     0.043 C 
ATOM     10  O   UNL A   1      33.149  24.959  24.271  1.00  0.00    -0.366 OA
ATOM     11  C   UNL A   1      31.769  25.132  24.612  1.00  0.00     0.092 C 
ATOM     12  C   UNL A   1      31.908  23.026  26.011  1.00  0.00     0.021 C 
ATOM     13  C   UNL A   1      30.806  24.508  23.581  1.00  0.00     0.045 C 
ATOM     14  C   UNL A   1      31.503  24.486  25.986  1.00  0.00     0.039 C 
BRANCH  11  15
ATOM     15  C   UNL A   1      31.523  26.681  24.772  1.00  0.00     0.149 C 
BRANCH  15  16
ATOM     16  C   UNL A   1      32.743  27.613  25.062  1.00  0.00     0.021 C 
ATOM     17  C   UNL A   1      32.642  29.082  24.637  1.00  0.00     0.006 C 
ATOM     18  C   UNL A   1      33.143  27.585  26.559  1.00  0.00     0.006 C 
ATOM     19  C   UNL A   1      31.629  29.865  25.460  1.00  0.00     0.000 C 
ATOM     20  C   UNL A   1      32.251  28.434  27.474  1.00  0.00     0.000 C 
ATOM     21  C   UNL A   1      31.999  29.843  26.939  1.00  0.00     0.000 C 
ENDBRANCH  15  16
BRANCH  15  22
ATOM     22  O   UNL A   1      30.747  27.163  23.672  1.00  0.00    -0.390 OA
ATOM     23  H   UNL A   1      29.963  26.604  23.560  1.00  0.00     0.211 HD
ENDBRANCH  15  22
ENDBRANCH  11  15
ENDBRANCH   4   6
ENDBRANCH   3   4
ENDBRANCH   2   3
ENDBRANCH   1   2
BRANCH   1  24
ATOM     24  O   UNL A   1      37.556  21.256  25.491  1.00  0.00    -0.458 OA
BRANCH  24  25
ATOM     25  C   UNL A   1      38.793  20.984  25.956  1.00  0.00     0.338 C 
ATOM     26  O   UNL A   1      39.376  19.907  25.927  1.00  0.00    -0.246 OA
BRANCH  25  27
ATOM     27  C   UNL A   1      39.401  22.201  26.506  1.00  0.00     0.060 A 
ATOM     28  C   UNL A   1      38.959  23.453  26.075  1.00  0.00     0.016 A 
ATOM     29  C   UNL A   1      40.492  22.095  27.366  1.00  0.00     0.016 A 
ATOM     30  C   UNL A   1      39.623  24.608  26.474  1.00  0.00     0.010 A 
ATOM     31  C   UNL A   1      41.129  23.256  27.804  1.00  0.00     0.010 A 
ATOM     32  C   UNL A   1      40.713  24.519  27.348  1.00  0.00    -0.014 A 
BRANCH  32  33
ATOM     33  C   UNL A   1      41.436  25.738  27.784  1.00  0.00     0.031 A 
ATOM     34  C   UNL A   1      40.707  26.802  28.554  1.00  0.00     0.074 A 
ATOM     35  C   UNL A   1      42.724  25.911  27.433  1.00  0.00     0.049 A 
ATOM     36  N   UNL A   1      41.093  28.013  28.853  1.00  0.00    -0.248 NA
ATOM     37  C   UNL A   1      39.362  26.459  29.044  1.00  0.00     0.031 C 
ATOM     38  C   UNL A   1      43.537  24.940  26.700  1.00  0.00     0.029 A 
ATOM     39  N   UNL A   1      43.563  26.982  27.614  1.00  0.00    -0.354 N 
ATOM     40  C   UNL A   1      40.020  28.601  29.510  1.00  0.00     0.074 A 
ATOM     41  C   UNL A   1      38.970  27.607  29.581  1.00  0.00     0.031 C 
ATOM     42  C   UNL A   1      44.751  25.467  26.474  1.00  0.00     0.029 A 
ATOM     43  C   UNL A   1      44.780  26.830  26.993  1.00  0.00     0.049 A 
ATOM     44  H   UNL A   1      43.318  27.779  28.138  1.00  0.00     0.167 HD
ATOM     45  C   UNL A   1      39.923  29.854  30.014  1.00  0.00     0.034 A 
ATOM     46  C   UNL A   1      45.790  27.706  26.821  1.00  0.00     0.034 A 
ATOM     47  C   UNL A   1      40.991  30.816  29.985  1.00  0.00     0.049 A 
ATOM     48  C   UNL A   1      45.655  29.093  27.387  1.00  0.00     0.074 A 
ATOM     49  C   UNL A   1      41.010  32.096  30.510  1.00  0.00     0.029 A 
ATOM     50  N   UNL A   1      42.232  30.603  29.405  1.00  0.00    -0.354 N 
ATOM     51  N   UNL A   1      44.663  29.610  28.071  1.00  0.00    -0.248 NA
ATOM     52  C   UNL A   1      46.782  30.011  27.174  1.00  0.00     0.031 C 
ATOM     53  C   UNL A   1      42.261  32.660  30.240  1.00  0.00     0.029 A 
ATOM     54  C   UNL A   1      43.024  31.728  29.555  1.00  0.00     0.049 A 
ATOM     55  H   UNL A   1      42.509  29.774  28.953  1.00  0.00     0.167 HD
ATOM     56  C   UNL A   1      45.055  30.905  28.389  1.00  0.00     0.074 A 
ATOM     57  C   UNL A   1      46.384  31.086  27.843  1.00  0.00     0.031 C 
ATOM     58  C   UNL A   1      44.368  31.866  29.054  1.00  0.00     0.034 A 
BRANCH  45  59
ATOM     59  C   UNL A   1      38.627  30.248  30.666  1.00  0.00     0.023 A 
ATOM     60  C   UNL A   1      38.398  29.915  32.015  1.00  0.00     0.012 A 
ATOM     61  C   UNL A   1      37.662  30.998  29.964  1.00  0.00     0.148 A 
ATOM     62  C   UNL A   1      37.219  30.303  32.651  1.00  0.00     0.002 A 
ATOM     63  C   UNL A   1      36.504  31.410  30.615  1.00  0.00     0.091 A 
ATOM     64  F   UNL A   1      37.885  31.280  28.673  1.00  0.00    -0.205 F 
ATOM     65  C   UNL A   1      36.279  31.058  31.956  1.00  0.00     0.022 A 
BRANCH  63  66
ATOM     66  S   UNL A   1      35.269  32.443  29.817  1.00  0.00     0.127 S 
ATOM     67  O   UNL A   1      36.073  33.583  29.381  1.00  0.00    -0.237 OA
ATOM     68  O   UNL A   1      34.796  31.582  28.732  1.00  0.00    -0.237 OA
ATOM     69  O   UNL A   1      34.271  32.728  30.839  1.00  0.00    -0.744 OA
ENDBRANCH  63  66
ENDBRANCH  45  59
BRANCH  46  70
ATOM     70  C   UNL A   1      47.020  27.281  26.099  1.00  0.00     0.023 A 
ATOM     71  C   UNL A   1      47.160  27.595  24.734  1.00  0.00     0.012 A 
ATOM     72  C   UNL A   1      48.073  26.622  26.763  1.00  0.00     0.148 A 
ATOM     73  C   UNL A   1      48.320  27.247  24.039  1.00  0.00     0.002 A 
ATOM     74  C   UNL A   1      49.248  26.328  26.079  1.00  0.00     0.091 A 
ATOM     75  F   UNL A   1      47.915  26.308  28.057  1.00  0.00    -0.205 F 
ATOM     76  C   UNL A   1      49.368  26.628  24.715  1.00  0.00     0.022 A 
BRANCH  74  77
ATOM     77  S   UNL A   1      50.694  25.662  26.914  1.00  0.00     0.127 S 
ATOM     78  O   UNL A   1      50.171  24.420  27.474  1.00  0.00    -0.237 OA
ATOM     79  O   UNL A   1      51.637  25.489  25.807  1.00  0.00    -0.237 OA
ATOM     80  O   UNL A   1      51.088  26.682  27.876  1.00  0.00    -0.744 OA
ENDBRANCH  74  77
ENDBRANCH  46  70
BRANCH  58  81
ATOM     81  C   UNL A   1      45.046  33.194  29.251  1.00  0.00     0.023 A 
ATOM     82  C   UNL A   1      45.843  33.403  30.393  1.00  0.00     0.012 A 
ATOM     83  C   UNL A   1      44.962  34.200  28.268  1.00  0.00     0.148 A 
ATOM     84  C   UNL A   1      46.530  34.603  30.565  1.00  0.00     0.002 A 
ATOM     85  C   UNL A   1      45.681  35.379  28.428  1.00  0.00     0.091 A 
ATOM     86  F   UNL A   1      44.180  33.989  27.199  1.00  0.00    -0.205 F 
ATOM     87  C   UNL A   1      46.460  35.585  29.579  1.00  0.00     0.022 A 
BRANCH  85  88
ATOM     88  S   UNL A   1      45.714  36.657  27.166  1.00  0.00     0.127 S 
ATOM     89  O   UNL A   1      46.595  37.653  27.773  1.00  0.00    -0.237 OA
ATOM     90  O   UNL A   1      46.289  35.952  26.020  1.00  0.00    -0.237 OA
ATOM     91  O   UNL A   1      44.329  37.068  26.982  1.00  0.00    -0.744 OA
ENDBRANCH  85  88
ENDBRANCH  58  81
ENDBRANCH  32  33
ENDBRANCH  25  27
ENDBRANCH  24  25
ENDBRANCH   1  24
TORSDOF 17
ENDMDL
