MODEL 1
REMARK VINA RESULT:     -11.1      0.000      0.000
REMARK SMILES CC1(C(=O)N[C@H](C(=O)OCCOC(=O)c2ccc(-c3c4nc(c(-c5cccc(S(=O)(=O)[O-])c5F)c5ccc([nH]5)c(-c5cccc(S(=O)(=O)[O-])c5F)c5nc(c(-c6cccc(S(=O)(=O)[O-])c6F)c6ccc3[nH]6)C=C5)C=C4)cc2)C2CC2)CCCC1
REMARK SMILES IDX 11 1 10 2 9 3 7 4 8 5 6 6 5 7 3 8 4 9 2 11 1 12 81 13 84 14
REMARK SMILES IDX 82 15 83 16 78 17 79 18 80 19 12 20 13 21 14 22 15 23 16 24
REMARK SMILES IDX 77 25 17 26 76 27 18 28 19 29 20 30 70 31 21 32 75 33 69 34
REMARK SMILES IDX 71 35 22 36 74 37 68 38 67 39 23 41 55 42 35 43 54 44 36 45
REMARK SMILES IDX 39 46 53 47 72 48 37 49 38 50 52 52 73 53 40 54 24 55 25 56
REMARK SMILES IDX 33 57 26 58 28 59 34 60 27 61 29 62 30 63 31 64 32 65 56 66
REMARK SMILES IDX 57 67 65 68 58 69 60 70 66 71 59 72 61 73 62 74 63 75 64 76
REMARK SMILES IDX 41 77 42 78 50 79 43 80 45 81 51 82 44 83 46 84 47 85 48 86
REMARK SMILES IDX 49 87
REMARK H PARENT 5 10 71 40 39 51
REMARK Flexibility Score: inf
ROOT
ATOM      1  C   UNL A   1      36.694  20.275  25.054  1.00  0.00     0.275 C 
ENDROOT
BRANCH   1   2
ATOM      2  C   UNL A   1      35.289  20.878  25.024  1.00  0.00     0.274 C 
BRANCH   2   3
ATOM      3  O   UNL A   1      35.280  22.216  24.490  1.00  0.00    -0.461 OA
BRANCH   3   4
ATOM      4  C   UNL A   1      34.688  23.134  25.303  1.00  0.00     0.329 C 
ATOM      5  O   UNL A   1      35.034  23.351  26.462  1.00  0.00    -0.250 OA
BRANCH   4   6
ATOM      6  C   UNL A   1      33.549  23.935  24.623  1.00  0.00     0.195 C 
BRANCH   6   7
ATOM      7  N   UNL A   1      33.876  24.570  23.351  1.00  0.00    -0.342 N 
ATOM      8  C   UNL A   1      33.535  25.772  22.812  1.00  0.00     0.226 C 
ATOM      9  O   UNL A   1      33.771  25.896  21.604  1.00  0.00    -0.274 OA
ATOM     10  H   UNL A   1      34.455  24.024  22.772  1.00  0.00     0.164 HD
BRANCH   8  11
ATOM     11  C   UNL A   1      32.907  26.926  23.628  1.00  0.00     0.046 C 
ATOM     12  C   UNL A   1      33.589  27.136  24.989  1.00  0.00     0.022 C 
ATOM     13  C   UNL A   1      31.403  26.643  23.876  1.00  0.00     0.016 C 
ATOM     14  C   UNL A   1      32.855  28.221  22.800  1.00  0.00     0.016 C 
ATOM     15  C   UNL A   1      30.768  28.013  24.050  1.00  0.00     0.001 C 
ATOM     16  C   UNL A   1      31.495  28.883  23.040  1.00  0.00     0.001 C 
ENDBRANCH   8  11
ENDBRANCH   6   7
BRANCH   6  17
ATOM     17  C   UNL A   1      32.363  23.011  24.405  1.00  0.00     0.023 C 
ATOM     18  C   UNL A   1      31.860  22.135  25.529  1.00  0.00     0.007 C 
ATOM     19  C   UNL A   1      31.001  23.253  25.015  1.00  0.00     0.007 C 
ENDBRANCH   6  17
ENDBRANCH   4   6
ENDBRANCH   3   4
ENDBRANCH   2   3
ENDBRANCH   1   2
BRANCH   1  20
ATOM     20  O   UNL A   1      37.704  21.297  24.976  1.00  0.00    -0.458 OA
BRANCH  20  21
ATOM     21  C   UNL A   1      38.792  21.070  25.749  1.00  0.00     0.338 C 
ATOM     22  O   UNL A   1      39.365  20.004  25.903  1.00  0.00    -0.246 OA
BRANCH  21  23
ATOM     23  C   UNL A   1      39.260  22.296  26.421  1.00  0.00     0.060 A 
ATOM     24  C   UNL A   1      38.671  23.534  26.157  1.00  0.00     0.016 A 
ATOM     25  C   UNL A   1      40.447  22.224  27.151  1.00  0.00     0.016 A 
ATOM     26  C   UNL A   1      39.339  24.706  26.524  1.00  0.00     0.010 A 
ATOM     27  C   UNL A   1      41.064  23.395  27.595  1.00  0.00     0.010 A 
ATOM     28  C   UNL A   1      40.544  24.649  27.246  1.00  0.00    -0.014 A 
BRANCH  28  29
ATOM     29  C   UNL A   1      41.236  25.895  27.671  1.00  0.00     0.031 A 
ATOM     30  C   UNL A   1      40.530  26.956  28.473  1.00  0.00     0.074 A 
ATOM     31  C   UNL A   1      42.512  26.094  27.285  1.00  0.00     0.049 A 
ATOM     32  N   UNL A   1      40.977  28.124  28.863  1.00  0.00    -0.248 NA
ATOM     33  C   UNL A   1      39.145  26.680  28.885  1.00  0.00     0.031 C 
ATOM     34  C   UNL A   1      43.293  25.167  26.466  1.00  0.00     0.029 A 
ATOM     35  N   UNL A   1      43.366  27.143  27.513  1.00  0.00    -0.354 N 
ATOM     36  C   UNL A   1      39.921  28.741  29.521  1.00  0.00     0.074 A 
ATOM     37  C   UNL A   1      38.807  27.815  29.486  1.00  0.00     0.031 C 
ATOM     38  C   UNL A   1      44.516  25.680  26.272  1.00  0.00     0.029 A 
ATOM     39  C   UNL A   1      44.592  26.990  26.912  1.00  0.00     0.049 A 
ATOM     40  H   UNL A   1      43.124  27.929  28.055  1.00  0.00     0.167 HD
ATOM     41  C   UNL A   1      39.885  29.958  30.117  1.00  0.00     0.034 A 
ATOM     42  C   UNL A   1      45.657  27.812  26.858  1.00  0.00     0.034 A 
ATOM     43  C   UNL A   1      41.005  30.860  30.206  1.00  0.00     0.049 A 
ATOM     44  C   UNL A   1      45.608  29.131  27.569  1.00  0.00     0.074 A 
ATOM     45  C   UNL A   1      41.073  32.085  30.847  1.00  0.00     0.029 A 
ATOM     46  N   UNL A   1      42.252  30.636  29.644  1.00  0.00    -0.354 N 
ATOM     47  N   UNL A   1      44.636  29.644  28.282  1.00  0.00    -0.248 NA
ATOM     48  C   UNL A   1      46.809  29.975  27.489  1.00  0.00     0.031 C 
ATOM     49  C   UNL A   1      42.363  32.602  30.676  1.00  0.00     0.029 A 
ATOM     50  C   UNL A   1      43.096  31.701  29.922  1.00  0.00     0.049 A 
ATOM     51  H   UNL A   1      42.501  29.839  29.123  1.00  0.00     0.167 HD
ATOM     52  C   UNL A   1      45.106  30.870  28.737  1.00  0.00     0.074 A 
ATOM     53  C   UNL A   1      46.464  31.006  28.251  1.00  0.00     0.031 C 
ATOM     54  C   UNL A   1      44.458  31.810  29.467  1.00  0.00     0.034 A 
BRANCH  41  55
ATOM     55  C   UNL A   1      38.601  30.376  30.782  1.00  0.00     0.023 A 
ATOM     56  C   UNL A   1      38.415  30.093  32.149  1.00  0.00     0.012 A 
ATOM     57  C   UNL A   1      37.626  31.121  30.092  1.00  0.00     0.148 A 
ATOM     58  C   UNL A   1      37.272  30.537  32.816  1.00  0.00     0.002 A 
ATOM     59  C   UNL A   1      36.502  31.582  30.769  1.00  0.00     0.091 A 
ATOM     60  F   UNL A   1      37.803  31.358  28.783  1.00  0.00    -0.205 F 
ATOM     61  C   UNL A   1      36.322  31.290  32.131  1.00  0.00     0.022 A 
BRANCH  59  62
ATOM     62  S   UNL A   1      35.280  32.611  29.948  1.00  0.00     0.127 S 
ATOM     63  O   UNL A   1      36.101  33.712  29.447  1.00  0.00    -0.237 OA
ATOM     64  O   UNL A   1      34.753  31.727  28.907  1.00  0.00    -0.237 OA
ATOM     65  O   UNL A   1      34.316  32.949  30.986  1.00  0.00    -0.744 OA
ENDBRANCH  59  62
ENDBRANCH  41  55
BRANCH  42  66
ATOM     66  C   UNL A   1      46.879  27.352  26.146  1.00  0.00     0.023 A 
ATOM     67  C   UNL A   1      47.693  26.370  26.741  1.00  0.00     0.012 A 
ATOM     68  C   UNL A   1      47.164  27.783  24.836  1.00  0.00     0.148 A 
ATOM     69  C   UNL A   1      48.767  25.822  26.042  1.00  0.00     0.002 A 
ATOM     70  C   UNL A   1      48.197  27.187  24.122  1.00  0.00     0.091 A 
ATOM     71  F   UNL A   1      46.394  28.738  24.296  1.00  0.00    -0.205 F 
ATOM     72  C   UNL A   1      49.006  26.215  24.726  1.00  0.00     0.022 A 
BRANCH  70  73
ATOM     73  S   UNL A   1      48.435  27.518  22.372  1.00  0.00     0.127 S 
ATOM     74  O   UNL A   1      48.667  26.180  21.840  1.00  0.00    -0.237 OA
ATOM     75  O   UNL A   1      47.155  28.121  21.991  1.00  0.00    -0.237 OA
ATOM     76  O   UNL A   1      49.561  28.442  22.314  1.00  0.00    -0.744 OA
ENDBRANCH  70  73
ENDBRANCH  42  66
BRANCH  54  77
ATOM     77  C   UNL A   1      45.203  33.082  29.764  1.00  0.00     0.023 A 
ATOM     78  C   UNL A   1      45.987  33.155  30.932  1.00  0.00     0.012 A 
ATOM     79  C   UNL A   1      45.168  34.180  28.887  1.00  0.00     0.148 A 
ATOM     80  C   UNL A   1      46.701  34.313  31.237  1.00  0.00     0.002 A 
ATOM     81  C   UNL A   1      45.906  35.322  29.183  1.00  0.00     0.091 A 
ATOM     82  F   UNL A   1      44.399  34.108  27.789  1.00  0.00    -0.205 F 
ATOM     83  C   UNL A   1      46.668  35.394  30.358  1.00  0.00     0.022 A 
BRANCH  81  84
ATOM     84  S   UNL A   1      45.939  36.715  28.047  1.00  0.00     0.127 S 
ATOM     85  O   UNL A   1      44.545  37.150  28.059  1.00  0.00    -0.237 OA
ATOM     86  O   UNL A   1      46.870  37.643  28.691  1.00  0.00    -0.237 OA
ATOM     87  O   UNL A   1      46.430  36.157  26.793  1.00  0.00    -0.744 OA
ENDBRANCH  81  84
ENDBRANCH  54  77
ENDBRANCH  28  29
ENDBRANCH  21  23
ENDBRANCH  20  21
ENDBRANCH   1  20
TORSDOF 17
ENDMDL
MODEL 2
REMARK VINA RESULT:     -11.0      5.315     10.071
REMARK SMILES CC1(C(=O)N[C@H](C(=O)OCCOC(=O)c2ccc(-c3c4nc(c(-c5cccc(S(=O)(=O)[O-])c5F)c5ccc([nH]5)c(-c5cccc(S(=O)(=O)[O-])c5F)c5nc(c(-c6cccc(S(=O)(=O)[O-])c6F)c6ccc3[nH]6)C=C5)C=C4)cc2)C2CC2)CCCC1
REMARK SMILES IDX 11 1 10 2 9 3 7 4 8 5 6 6 5 7 3 8 4 9 2 11 1 12 81 13 84 14
REMARK SMILES IDX 82 15 83 16 78 17 79 18 80 19 12 20 13 21 14 22 15 23 16 24
REMARK SMILES IDX 77 25 17 26 76 27 18 28 19 29 20 30 70 31 21 32 75 33 69 34
REMARK SMILES IDX 71 35 22 36 74 37 68 38 67 39 23 41 55 42 35 43 54 44 36 45
REMARK SMILES IDX 39 46 53 47 72 48 37 49 38 50 52 52 73 53 40 54 24 55 25 56
REMARK SMILES IDX 33 57 26 58 28 59 34 60 27 61 29 62 30 63 31 64 32 65 56 66
REMARK SMILES IDX 57 67 65 68 58 69 60 70 66 71 59 72 61 73 62 74 63 75 64 76
REMARK SMILES IDX 41 77 42 78 50 79 43 80 45 81 51 82 44 83 46 84 47 85 48 86
REMARK SMILES IDX 49 87
REMARK H PARENT 5 10 71 40 39 51
REMARK Flexibility Score: inf
ROOT
ATOM      1  C   UNL A   1      31.546  30.676  25.724  1.00  0.00     0.275 C 
ENDROOT
BRANCH   1   2
ATOM      2  C   UNL A   1      31.400  29.284  25.110  1.00  0.00     0.274 C 
BRANCH   2   3
ATOM      3  O   UNL A   1      32.249  28.313  25.751  1.00  0.00    -0.461 OA
BRANCH   3   4
ATOM      4  C   UNL A   1      31.580  27.415  26.527  1.00  0.00     0.329 C 
ATOM      5  O   UNL A   1      31.026  27.700  27.586  1.00  0.00    -0.250 OA
BRANCH   4   6
ATOM      6  C   UNL A   1      31.530  25.985  25.933  1.00  0.00     0.195 C 
BRANCH   6   7
ATOM      7  N   UNL A   1      31.691  24.886  26.879  1.00  0.00    -0.342 N 
ATOM      8  C   UNL A   1      32.379  23.714  26.814  1.00  0.00     0.226 C 
ATOM      9  O   UNL A   1      32.100  22.887  27.690  1.00  0.00    -0.274 OA
ATOM     10  H   UNL A   1      31.210  25.018  27.727  1.00  0.00     0.164 HD
BRANCH   8  11
ATOM     11  C   UNL A   1      33.450  23.412  25.740  1.00  0.00     0.046 C 
ATOM     12  C   UNL A   1      32.850  22.876  24.431  1.00  0.00     0.022 C 
ATOM     13  C   UNL A   1      34.460  22.365  26.278  1.00  0.00     0.016 C 
ATOM     14  C   UNL A   1      34.354  24.634  25.505  1.00  0.00     0.016 C 
ATOM     15  C   UNL A   1      35.745  22.628  25.511  1.00  0.00     0.001 C 
ATOM     16  C   UNL A   1      35.800  24.141  25.397  1.00  0.00     0.001 C 
ENDBRANCH   8  11
ENDBRANCH   6   7
BRANCH   6  17
ATOM     17  C   UNL A   1      30.207  25.802  25.208  1.00  0.00     0.023 C 
ATOM     18  C   UNL A   1      29.881  26.634  23.989  1.00  0.00     0.007 C 
ATOM     19  C   UNL A   1      30.090  25.155  23.847  1.00  0.00     0.007 C 
ENDBRANCH   6  17
ENDBRANCH   4   6
ENDBRANCH   3   4
ENDBRANCH   2   3
ENDBRANCH   1   2
BRANCH   1  20
ATOM     20  O   UNL A   1      32.226  30.622  26.992  1.00  0.00    -0.458 OA
BRANCH  20  21
ATOM     21  C   UNL A   1      33.045  31.672  27.234  1.00  0.00     0.338 C 
ATOM     22  O   UNL A   1      32.764  32.854  27.124  1.00  0.00    -0.246 OA
BRANCH  21  23
ATOM     23  C   UNL A   1      34.382  31.240  27.680  1.00  0.00     0.060 A 
ATOM     24  C   UNL A   1      34.658  29.896  27.939  1.00  0.00     0.016 A 
ATOM     25  C   UNL A   1      35.294  32.229  28.054  1.00  0.00     0.016 A 
ATOM     26  C   UNL A   1      35.794  29.557  28.679  1.00  0.00     0.010 A 
ATOM     27  C   UNL A   1      36.472  31.877  28.713  1.00  0.00     0.010 A 
ATOM     28  C   UNL A   1      36.713  30.544  29.076  1.00  0.00    -0.014 A 
BRANCH  28  29
ATOM     29  C   UNL A   1      37.942  30.181  29.831  1.00  0.00     0.031 A 
ATOM     30  C   UNL A   1      38.964  29.230  29.264  1.00  0.00     0.074 A 
ATOM     31  C   UNL A   1      38.116  30.681  31.070  1.00  0.00     0.049 A 
ATOM     32  N   UNL A   1      40.052  28.765  29.826  1.00  0.00    -0.248 NA
ATOM     33  C   UNL A   1      38.736  28.728  27.901  1.00  0.00     0.031 C 
ATOM     34  C   UNL A   1      37.179  31.574  31.751  1.00  0.00     0.029 A 
ATOM     35  N   UNL A   1      39.128  30.498  31.978  1.00  0.00    -0.354 N 
ATOM     36  C   UNL A   1      40.612  27.884  28.910  1.00  0.00     0.074 A 
ATOM     37  C   UNL A   1      39.747  27.881  27.748  1.00  0.00     0.031 C 
ATOM     38  C   UNL A   1      37.664  31.873  32.964  1.00  0.00     0.029 A 
ATOM     39  C   UNL A   1      38.921  31.159  33.165  1.00  0.00     0.049 A 
ATOM     40  H   UNL A   1      39.923  29.947  31.798  1.00  0.00     0.167 HD
ATOM     41  C   UNL A   1      41.751  27.157  29.016  1.00  0.00     0.034 A 
ATOM     42  C   UNL A   1      39.646  31.180  34.301  1.00  0.00     0.034 A 
ATOM     43  C   UNL A   1      42.647  27.198  30.144  1.00  0.00     0.049 A 
ATOM     44  C   UNL A   1      40.928  30.407  34.373  1.00  0.00     0.074 A 
ATOM     45  C   UNL A   1      43.856  26.542  30.307  1.00  0.00     0.029 A 
ATOM     46  N   UNL A   1      42.438  27.936  31.299  1.00  0.00    -0.354 N 
ATOM     47  N   UNL A   1      41.496  29.670  33.450  1.00  0.00    -0.248 NA
ATOM     48  C   UNL A   1      41.682  30.485  35.632  1.00  0.00     0.031 C 
ATOM     49  C   UNL A   1      44.380  26.886  31.559  1.00  0.00     0.029 A 
ATOM     50  C   UNL A   1      43.493  27.751  32.178  1.00  0.00     0.049 A 
ATOM     51  H   UNL A   1      41.654  28.506  31.469  1.00  0.00     0.167 HD
ATOM     52  C   UNL A   1      42.674  29.197  34.014  1.00  0.00     0.074 A 
ATOM     53  C   UNL A   1      42.758  29.762  35.346  1.00  0.00     0.031 C 
ATOM     54  C   UNL A   1      43.588  28.347  33.486  1.00  0.00     0.034 A 
BRANCH  41  55
ATOM     55  C   UNL A   1      42.140  26.287  27.852  1.00  0.00     0.023 A 
ATOM     56  C   UNL A   1      43.046  26.787  26.896  1.00  0.00     0.012 A 
ATOM     57  C   UNL A   1      41.690  24.957  27.747  1.00  0.00     0.148 A 
ATOM     58  C   UNL A   1      43.489  25.979  25.847  1.00  0.00     0.002 A 
ATOM     59  C   UNL A   1      42.157  24.150  26.715  1.00  0.00     0.091 A 
ATOM     60  F   UNL A   1      40.806  24.503  28.648  1.00  0.00    -0.205 F 
ATOM     61  C   UNL A   1      43.055  24.659  25.763  1.00  0.00     0.022 A 
BRANCH  59  62
ATOM     62  S   UNL A   1      41.678  22.422  26.598  1.00  0.00     0.127 S 
ATOM     63  O   UNL A   1      40.224  22.520  26.481  1.00  0.00    -0.237 OA
ATOM     64  O   UNL A   1      42.355  21.976  25.379  1.00  0.00    -0.237 OA
ATOM     65  O   UNL A   1      42.186  21.810  27.819  1.00  0.00    -0.744 OA
ENDBRANCH  59  62
ENDBRANCH  41  55
BRANCH  42  66
ATOM     66  C   UNL A   1      39.179  32.030  35.429  1.00  0.00     0.023 A 
ATOM     67  C   UNL A   1      38.396  31.452  36.445  1.00  0.00     0.012 A 
ATOM     68  C   UNL A   1      39.613  33.362  35.565  1.00  0.00     0.148 A 
ATOM     69  C   UNL A   1      38.057  32.186  37.581  1.00  0.00     0.002 A 
ATOM     70  C   UNL A   1      39.325  34.067  36.727  1.00  0.00     0.091 A 
ATOM     71  F   UNL A   1      40.336  33.903  34.574  1.00  0.00    -0.205 F 
ATOM     72  C   UNL A   1      38.538  33.485  37.732  1.00  0.00     0.022 A 
BRANCH  70  73
ATOM     73  S   UNL A   1      40.069  35.670  37.057  1.00  0.00     0.127 S 
ATOM     74  O   UNL A   1      41.488  35.338  37.112  1.00  0.00    -0.237 OA
ATOM     75  O   UNL A   1      39.662  36.450  35.886  1.00  0.00    -0.237 OA
ATOM     76  O   UNL A   1      39.461  36.117  38.303  1.00  0.00    -0.744 OA
ENDBRANCH  70  73
ENDBRANCH  42  66
BRANCH  54  77
ATOM     77  C   UNL A   1      44.747  27.957  34.360  1.00  0.00     0.023 A 
ATOM     78  C   UNL A   1      45.925  28.728  34.314  1.00  0.00     0.012 A 
ATOM     79  C   UNL A   1      44.669  26.868  35.247  1.00  0.00     0.148 A 
ATOM     80  C   UNL A   1      47.017  28.404  35.117  1.00  0.00     0.002 A 
ATOM     81  C   UNL A   1      45.753  26.569  36.066  1.00  0.00     0.091 A 
ATOM     82  F   UNL A   1      43.551  26.127  35.265  1.00  0.00    -0.205 F 
ATOM     83  C   UNL A   1      46.929  27.330  36.000  1.00  0.00     0.022 A 
BRANCH  81  84
ATOM     84  S   UNL A   1      45.659  25.229  37.261  1.00  0.00     0.127 S 
ATOM     85  O   UNL A   1      45.259  24.101  36.423  1.00  0.00    -0.237 OA
ATOM     86  O   UNL A   1      47.028  25.149  37.774  1.00  0.00    -0.237 OA
ATOM     87  O   UNL A   1      44.683  25.679  38.245  1.00  0.00    -0.744 OA
ENDBRANCH  81  84
ENDBRANCH  54  77
ENDBRANCH  28  29
ENDBRANCH  21  23
ENDBRANCH  20  21
ENDBRANCH   1  20
TORSDOF 17
ENDMDL
MODEL 3
REMARK VINA RESULT:     -10.8      1.315      1.714
REMARK SMILES CC1(C(=O)N[C@H](C(=O)OCCOC(=O)c2ccc(-c3c4nc(c(-c5cccc(S(=O)(=O)[O-])c5F)c5ccc([nH]5)c(-c5cccc(S(=O)(=O)[O-])c5F)c5nc(c(-c6cccc(S(=O)(=O)[O-])c6F)c6ccc3[nH]6)C=C5)C=C4)cc2)C2CC2)CCCC1
REMARK SMILES IDX 11 1 10 2 9 3 7 4 8 5 6 6 5 7 3 8 4 9 2 11 1 12 81 13 84 14
REMARK SMILES IDX 82 15 83 16 78 17 79 18 80 19 12 20 13 21 14 22 15 23 16 24
REMARK SMILES IDX 77 25 17 26 76 27 18 28 19 29 20 30 70 31 21 32 75 33 69 34
REMARK SMILES IDX 71 35 22 36 74 37 68 38 67 39 23 41 55 42 35 43 54 44 36 45
REMARK SMILES IDX 39 46 53 47 72 48 37 49 38 50 52 52 73 53 40 54 24 55 25 56
REMARK SMILES IDX 33 57 26 58 28 59 34 60 27 61 29 62 30 63 31 64 32 65 56 66
REMARK SMILES IDX 57 67 65 68 58 69 60 70 66 71 59 72 61 73 62 74 63 75 64 76
REMARK SMILES IDX 41 77 42 78 50 79 43 80 45 81 51 82 44 83 46 84 47 85 48 86
REMARK SMILES IDX 49 87
REMARK H PARENT 5 10 71 40 39 51
REMARK Flexibility Score: inf
ROOT
ATOM      1  C   UNL A   1      36.530  20.638  25.118  1.00  0.00     0.275 C 
ENDROOT
BRANCH   1   2
ATOM      2  C   UNL A   1      35.403  21.429  24.453  1.00  0.00     0.274 C 
BRANCH   2   3
ATOM      3  O   UNL A   1      34.338  21.739  25.373  1.00  0.00    -0.461 OA
BRANCH   3   4
ATOM      4  C   UNL A   1      34.326  23.035  25.792  1.00  0.00     0.329 C 
ATOM      5  O   UNL A   1      35.063  23.481  26.668  1.00  0.00    -0.250 OA
BRANCH   4   6
ATOM      6  C   UNL A   1      33.319  23.933  25.030  1.00  0.00     0.195 C 
BRANCH   6   7
ATOM      7  N   UNL A   1      33.783  24.496  23.767  1.00  0.00    -0.342 N 
ATOM      8  C   UNL A   1      33.698  25.745  23.233  1.00  0.00     0.226 C 
ATOM      9  O   UNL A   1      33.968  25.826  22.029  1.00  0.00    -0.274 OA
ATOM     10  H   UNL A   1      34.246  23.848  23.189  1.00  0.00     0.164 HD
BRANCH   8  11
ATOM     11  C   UNL A   1      33.306  26.997  24.052  1.00  0.00     0.046 C 
ATOM     12  C   UNL A   1      33.896  28.295  23.477  1.00  0.00     0.022 C 
ATOM     13  C   UNL A   1      33.794  26.848  25.516  1.00  0.00     0.016 C 
ATOM     14  C   UNL A   1      31.782  27.084  24.231  1.00  0.00     0.016 C 
ATOM     15  C   UNL A   1      32.848  27.711  26.335  1.00  0.00     0.001 C 
ATOM     16  C   UNL A   1      31.497  27.498  25.678  1.00  0.00     0.001 C 
ENDBRANCH   8  11
ENDBRANCH   6   7
BRANCH   6  17
ATOM     17  C   UNL A   1      32.055  23.134  24.762  1.00  0.00     0.023 C 
ATOM     18  C   UNL A   1      31.160  22.715  25.906  1.00  0.00     0.007 C 
ATOM     19  C   UNL A   1      30.665  23.712  24.899  1.00  0.00     0.007 C 
ENDBRANCH   6  17
ENDBRANCH   4   6
ENDBRANCH   3   4
ENDBRANCH   2   3
ENDBRANCH   1   2
BRANCH   1  20
ATOM     20  O   UNL A   1      37.819  21.197  24.803  1.00  0.00    -0.458 OA
BRANCH  20  21
ATOM     21  C   UNL A   1      38.775  20.956  25.730  1.00  0.00     0.338 C 
ATOM     22  O   UNL A   1      39.238  19.868  26.032  1.00  0.00    -0.246 OA
BRANCH  21  23
ATOM     23  C   UNL A   1      39.247  22.195  26.375  1.00  0.00     0.060 A 
ATOM     24  C   UNL A   1      38.621  23.419  26.133  1.00  0.00     0.016 A 
ATOM     25  C   UNL A   1      40.468  22.152  27.050  1.00  0.00     0.016 A 
ATOM     26  C   UNL A   1      39.279  24.607  26.464  1.00  0.00     0.010 A 
ATOM     27  C   UNL A   1      41.079  23.338  27.461  1.00  0.00     0.010 A 
ATOM     28  C   UNL A   1      40.517  24.579  27.131  1.00  0.00    -0.014 A 
BRANCH  28  29
ATOM     29  C   UNL A   1      41.201  25.841  27.518  1.00  0.00     0.031 A 
ATOM     30  C   UNL A   1      40.508  26.893  28.344  1.00  0.00     0.074 A 
ATOM     31  C   UNL A   1      42.455  26.064  27.076  1.00  0.00     0.049 A 
ATOM     32  N   UNL A   1      40.948  28.072  28.708  1.00  0.00    -0.248 NA
ATOM     33  C   UNL A   1      39.148  26.592  28.817  1.00  0.00     0.031 C 
ATOM     34  C   UNL A   1      43.219  25.148  26.230  1.00  0.00     0.029 A 
ATOM     35  N   UNL A   1      43.296  27.131  27.262  1.00  0.00    -0.354 N 
ATOM     36  C   UNL A   1      39.908  28.672  29.407  1.00  0.00     0.074 A 
ATOM     37  C   UNL A   1      38.813  27.724  29.425  1.00  0.00     0.031 C 
ATOM     38  C   UNL A   1      44.421  25.684  25.981  1.00  0.00     0.029 A 
ATOM     39  C   UNL A   1      44.498  26.999  26.609  1.00  0.00     0.049 A 
ATOM     40  H   UNL A   1      43.062  27.915  27.809  1.00  0.00     0.167 HD
ATOM     41  C   UNL A   1      39.873  29.892  29.997  1.00  0.00     0.034 A 
ATOM     42  C   UNL A   1      45.543  27.843  26.505  1.00  0.00     0.034 A 
ATOM     43  C   UNL A   1      40.977  30.817  30.033  1.00  0.00     0.049 A 
ATOM     44  C   UNL A   1      45.498  29.165  27.210  1.00  0.00     0.074 A 
ATOM     45  C   UNL A   1      41.048  32.048  30.663  1.00  0.00     0.029 A 
ATOM     46  N   UNL A   1      42.203  30.615  29.419  1.00  0.00    -0.354 N 
ATOM     47  N   UNL A   1      44.546  29.663  27.961  1.00  0.00    -0.248 NA
ATOM     48  C   UNL A   1      46.676  30.033  27.073  1.00  0.00     0.031 C 
ATOM     49  C   UNL A   1      42.319  32.589  30.434  1.00  0.00     0.029 A 
ATOM     50  C   UNL A   1      43.036  31.698  29.654  1.00  0.00     0.049 A 
ATOM     51  H   UNL A   1      42.446  29.820  28.892  1.00  0.00     0.167 HD
ATOM     52  C   UNL A   1      45.010  30.900  28.389  1.00  0.00     0.074 A 
ATOM     53  C   UNL A   1      46.343  31.061  27.843  1.00  0.00     0.031 C 
ATOM     54  C   UNL A   1      44.375  31.832  29.140  1.00  0.00     0.034 A 
BRANCH  41  55
ATOM     55  C   UNL A   1      38.611  30.288  30.714  1.00  0.00     0.023 A 
ATOM     56  C   UNL A   1      38.469  29.967  32.078  1.00  0.00     0.012 A 
ATOM     57  C   UNL A   1      37.613  31.050  30.077  1.00  0.00     0.148 A 
ATOM     58  C   UNL A   1      37.347  30.389  32.794  1.00  0.00     0.002 A 
ATOM     59  C   UNL A   1      36.511  31.490  30.803  1.00  0.00     0.091 A 
ATOM     60  F   UNL A   1      37.747  31.324  28.770  1.00  0.00    -0.205 F 
ATOM     61  C   UNL A   1      36.375  31.159  32.161  1.00  0.00     0.022 A 
BRANCH  59  62
ATOM     62  S   UNL A   1      35.262  32.539  30.050  1.00  0.00     0.127 S 
ATOM     63  O   UNL A   1      34.334  32.747  31.161  1.00  0.00    -0.237 OA
ATOM     64  O   UNL A   1      36.022  33.729  29.664  1.00  0.00    -0.237 OA
ATOM     65  O   UNL A   1      34.754  31.767  28.924  1.00  0.00    -0.744 OA
ENDBRANCH  59  62
ENDBRANCH  41  55
BRANCH  42  66
ATOM     66  C   UNL A   1      46.743  27.402  25.743  1.00  0.00     0.023 A 
ATOM     67  C   UNL A   1      46.841  27.717  24.375  1.00  0.00     0.012 A 
ATOM     68  C   UNL A   1      47.834  26.793  26.392  1.00  0.00     0.148 A 
ATOM     69  C   UNL A   1      48.010  27.437  23.668  1.00  0.00     0.002 A 
ATOM     70  C   UNL A   1      49.016  26.574  25.696  1.00  0.00     0.091 A 
ATOM     71  F   UNL A   1      47.710  26.476  27.689  1.00  0.00    -0.205 F 
ATOM     72  C   UNL A   1      49.103  26.886  24.332  1.00  0.00     0.022 A 
BRANCH  70  73
ATOM     73  S   UNL A   1      50.511  26.041  26.540  1.00  0.00     0.127 S 
ATOM     74  O   UNL A   1      50.104  24.752  27.088  1.00  0.00    -0.237 OA
ATOM     75  O   UNL A   1      51.480  25.968  25.444  1.00  0.00    -0.237 OA
ATOM     76  O   UNL A   1      50.793  27.094  27.507  1.00  0.00    -0.744 OA
ENDBRANCH  70  73
ENDBRANCH  42  66
BRANCH  54  77
ATOM     77  C   UNL A   1      45.106  33.120  29.398  1.00  0.00     0.023 A 
ATOM     78  C   UNL A   1      45.909  33.230  30.550  1.00  0.00     0.012 A 
ATOM     79  C   UNL A   1      45.038  34.200  28.499  1.00  0.00     0.148 A 
ATOM     80  C   UNL A   1      46.612  34.404  30.817  1.00  0.00     0.002 A 
ATOM     81  C   UNL A   1      45.764  35.359  28.758  1.00  0.00     0.091 A 
ATOM     82  F   UNL A   1      44.251  34.094  27.417  1.00  0.00    -0.205 F 
ATOM     83  C   UNL A   1      46.546  35.466  29.917  1.00  0.00     0.022 A 
BRANCH  81  84
ATOM     84  S   UNL A   1      45.755  36.728  27.594  1.00  0.00     0.127 S 
ATOM     85  O   UNL A   1      46.644  37.687  28.244  1.00  0.00    -0.237 OA
ATOM     86  O   UNL A   1      46.299  36.126  26.375  1.00  0.00    -0.237 OA
ATOM     87  O   UNL A   1      44.354  37.115  27.490  1.00  0.00    -0.744 OA
ENDBRANCH  81  84
ENDBRANCH  54  77
ENDBRANCH  28  29
ENDBRANCH  21  23
ENDBRANCH  20  21
ENDBRANCH   1  20
TORSDOF 17
ENDMDL
