MODEL 1
REMARK VINA RESULT:     -11.3      0.000      0.000
REMARK SMILES CC[C@](O)(C(=O)OCCOC(=O)c1ccc(-c2c3nc(c(-c4cccc(S(=O)(=O)[O-])c4F)c4ccc([nH]4)c(-c4cccc(S(=O)(=O)[O-])c4F)c4nc(c(-c5cccc(S(=O)(=O)[O-])c5F)c5ccc2[nH]5)C=C4)C=C3)cc1)[C@@H](C)c1ccc2c(c1)OCCO2
REMARK SMILES IDX 9 1 8 2 7 3 5 4 6 5 3 6 2 7 1 8 76 9 77 10 78 11 79 12 83 13
REMARK SMILES IDX 80 14 82 15 81 16 84 17 87 18 85 19 86 20 4 21 10 23 11 24
REMARK SMILES IDX 12 25 13 26 14 27 75 28 15 29 74 30 16 31 17 32 18 33 68 34
REMARK SMILES IDX 19 35 73 36 67 37 69 38 20 39 72 40 66 41 65 42 21 44 53 45
REMARK SMILES IDX 33 46 52 47 34 48 37 49 51 50 70 51 35 52 36 53 50 55 71 56
REMARK SMILES IDX 38 57 22 58 23 59 31 60 24 61 26 62 32 63 25 64 27 65 28 66
REMARK SMILES IDX 29 67 30 68 54 69 55 70 63 71 56 72 58 73 64 74 57 75 59 76
REMARK SMILES IDX 60 77 61 78 62 79 39 80 40 81 48 82 41 83 43 84 49 85 42 86
REMARK SMILES IDX 44 87 45 88 46 89 47 90
REMARK H PARENT 4 22 69 43 37 54
REMARK Flexibility Score: inf
ROOT
ATOM      1  C   UNL A   1      36.334  20.370  24.956  1.00  0.00     0.275 C 
ENDROOT
BRANCH   1   2
ATOM      2  C   UNL A   1      34.945  20.984  24.834  1.00  0.00     0.274 C 
BRANCH   2   3
ATOM      3  O   UNL A   1      35.012  22.419  24.970  1.00  0.00    -0.460 OA
BRANCH   3   4
ATOM      4  C   UNL A   1      34.723  23.144  23.849  1.00  0.00     0.338 C 
ATOM      5  O   UNL A   1      35.397  23.147  22.827  1.00  0.00    -0.249 OA
BRANCH   4   6
ATOM      6  C   UNL A   1      33.427  23.991  24.041  1.00  0.00     0.168 C 
BRANCH   6   7
ATOM      7  C   UNL A   1      33.472  24.463  25.515  1.00  0.00     0.044 C 
ATOM      8  C   UNL A   1      32.156  24.356  26.272  1.00  0.00     0.007 C 
ENDBRANCH   6   7
BRANCH   6   9
ATOM      9  C   UNL A   1      33.504  25.157  23.010  1.00  0.00     0.059 C 
ATOM     10  C   UNL A   1      32.756  24.802  21.704  1.00  0.00     0.016 C 
BRANCH   9  11
ATOM     11  C   UNL A   1      33.008  26.543  23.424  1.00  0.00    -0.038 A 
ATOM     12  C   UNL A   1      31.625  26.807  23.444  1.00  0.00     0.008 A 
ATOM     13  C   UNL A   1      33.879  27.417  24.091  1.00  0.00     0.054 A 
ATOM     14  C   UNL A   1      31.111  27.814  24.264  1.00  0.00     0.051 A 
ATOM     15  C   UNL A   1      33.358  28.315  25.011  1.00  0.00     0.161 A 
ATOM     16  C   UNL A   1      31.978  28.491  25.112  1.00  0.00     0.161 A 
ATOM     17  O   UNL A   1      34.249  28.866  25.889  1.00  0.00    -0.486 OA
ATOM     18  O   UNL A   1      31.440  29.216  26.146  1.00  0.00    -0.486 OA
ATOM     19  C   UNL A   1      33.658  29.249  27.141  1.00  0.00     0.271 C 
ATOM     20  C   UNL A   1      32.193  28.853  27.312  1.00  0.00     0.271 C 
ENDBRANCH   9  11
ENDBRANCH   6   9
BRANCH   6  21
ATOM     21  O   UNL A   1      32.246  23.208  23.826  1.00  0.00    -0.378 OA
ATOM     22  H   UNL A   1      32.124  23.061  22.875  1.00  0.00     0.212 HD
ENDBRANCH   6  21
ENDBRANCH   4   6
ENDBRANCH   3   4
ENDBRANCH   2   3
ENDBRANCH   1   2
BRANCH   1  23
ATOM     23  O   UNL A   1      37.299  21.427  25.086  1.00  0.00    -0.458 OA
BRANCH  23  24
ATOM     24  C   UNL A   1      38.468  21.088  25.679  1.00  0.00     0.338 C 
ATOM     25  O   UNL A   1      39.010  19.998  25.654  1.00  0.00    -0.246 OA
BRANCH  24  26
ATOM     26  C   UNL A   1      39.061  22.268  26.346  1.00  0.00     0.060 A 
ATOM     27  C   UNL A   1      38.543  23.546  26.124  1.00  0.00     0.016 A 
ATOM     28  C   UNL A   1      40.240  22.112  27.073  1.00  0.00     0.016 A 
ATOM     29  C   UNL A   1      39.279  24.667  26.508  1.00  0.00     0.010 A 
ATOM     30  C   UNL A   1      40.900  23.237  27.575  1.00  0.00     0.010 A 
ATOM     31  C   UNL A   1      40.457  24.534  27.262  1.00  0.00    -0.014 A 
BRANCH  31  32
ATOM     32  C   UNL A   1      41.227  25.730  27.721  1.00  0.00     0.031 A 
ATOM     33  C   UNL A   1      40.573  26.779  28.588  1.00  0.00     0.074 A 
ATOM     34  C   UNL A   1      42.504  25.912  27.330  1.00  0.00     0.049 A 
ATOM     35  N   UNL A   1      40.974  27.996  28.857  1.00  0.00    -0.248 NA
ATOM     36  C   UNL A   1      39.289  26.424  29.217  1.00  0.00     0.031 C 
ATOM     37  C   UNL A   1      43.280  24.987  26.502  1.00  0.00     0.029 A 
ATOM     38  N   UNL A   1      43.376  26.951  27.562  1.00  0.00    -0.354 N 
ATOM     39  C   UNL A   1      39.952  28.582  29.597  1.00  0.00     0.074 A 
ATOM     40  C   UNL A   1      38.924  27.578  29.762  1.00  0.00     0.031 C 
ATOM     41  C   UNL A   1      44.513  25.477  26.323  1.00  0.00     0.029 A 
ATOM     42  C   UNL A   1      44.587  26.801  26.929  1.00  0.00     0.049 A 
ATOM     43  H   UNL A   1      43.153  27.726  28.126  1.00  0.00     0.167 HD
ATOM     44  C   UNL A   1      39.881  29.839  30.096  1.00  0.00     0.034 A 
ATOM     45  C   UNL A   1      45.628  27.647  26.790  1.00  0.00     0.034 A 
ATOM     46  C   UNL A   1      40.948  30.804  30.022  1.00  0.00     0.049 A 
ATOM     47  C   UNL A   1      45.544  29.018  27.392  1.00  0.00     0.074 A 
ATOM     48  C   UNL A   1      40.980  32.091  30.532  1.00  0.00     0.029 A 
ATOM     49  N   UNL A   1      42.179  30.581  29.426  1.00  0.00    -0.354 N 
ATOM     50  N   UNL A   1      44.571  29.553  28.088  1.00  0.00    -0.248 NA
ATOM     51  C   UNL A   1      46.700  29.903  27.189  1.00  0.00     0.031 C 
ATOM     52  C   UNL A   1      42.236  32.643  30.251  1.00  0.00     0.029 A 
ATOM     53  C   UNL A   1      42.983  31.698  29.569  1.00  0.00     0.049 A 
ATOM     54  H   UNL A   1      42.442  29.749  28.969  1.00  0.00     0.167 HD
ATOM     55  C   UNL A   1      44.996  30.836  28.409  1.00  0.00     0.074 A 
ATOM     56  C   UNL A   1      46.330  30.984  27.865  1.00  0.00     0.031 C 
ATOM     57  C   UNL A   1      44.328  31.815  29.065  1.00  0.00     0.034 A 
BRANCH  44  58
ATOM     58  C   UNL A   1      38.617  30.249  30.806  1.00  0.00     0.023 A 
ATOM     59  C   UNL A   1      38.441  29.919  32.164  1.00  0.00     0.012 A 
ATOM     60  C   UNL A   1      37.644  31.031  30.152  1.00  0.00     0.148 A 
ATOM     61  C   UNL A   1      37.305  30.344  32.855  1.00  0.00     0.002 A 
ATOM     62  C   UNL A   1      36.533  31.482  30.858  1.00  0.00     0.091 A 
ATOM     63  F   UNL A   1      37.815  31.314  28.853  1.00  0.00    -0.205 F 
ATOM     64  C   UNL A   1      36.359  31.134  32.206  1.00  0.00     0.022 A 
BRANCH  62  65
ATOM     65  S   UNL A   1      35.307  32.571  30.119  1.00  0.00     0.127 S 
ATOM     66  O   UNL A   1      36.122  33.729  29.758  1.00  0.00    -0.237 OA
ATOM     67  O   UNL A   1      34.831  31.783  28.982  1.00  0.00    -0.237 OA
ATOM     68  O   UNL A   1      34.308  32.797  31.154  1.00  0.00    -0.744 OA
ENDBRANCH  62  65
ENDBRANCH  44  58
BRANCH  45  69
ATOM     69  C   UNL A   1      46.836  27.198  26.044  1.00  0.00     0.023 A 
ATOM     70  C   UNL A   1      46.985  27.554  24.691  1.00  0.00     0.012 A 
ATOM     71  C   UNL A   1      47.878  26.501  26.689  1.00  0.00     0.148 A 
ATOM     72  C   UNL A   1      48.148  27.223  23.994  1.00  0.00     0.002 A 
ATOM     73  C   UNL A   1      49.061  26.239  26.010  1.00  0.00     0.091 A 
ATOM     74  F   UNL A   1      47.708  26.139  27.969  1.00  0.00    -0.205 F 
ATOM     75  C   UNL A   1      49.194  26.585  24.658  1.00  0.00     0.022 A 
BRANCH  73  76
ATOM     76  S   UNL A   1      50.506  25.594  26.862  1.00  0.00     0.127 S 
ATOM     77  O   UNL A   1      51.462  25.448  25.768  1.00  0.00    -0.237 OA
ATOM     78  O   UNL A   1      50.814  26.664  27.812  1.00  0.00    -0.237 OA
ATOM     79  O   UNL A   1      50.053  24.359  27.491  1.00  0.00    -0.744 OA
ENDBRANCH  73  76
ENDBRANCH  45  69
BRANCH  57  80
ATOM     80  C   UNL A   1      45.030  33.132  29.239  1.00  0.00     0.023 A 
ATOM     81  C   UNL A   1      45.811  33.349  30.391  1.00  0.00     0.012 A 
ATOM     82  C   UNL A   1      44.964  34.129  28.247  1.00  0.00     0.148 A 
ATOM     83  C   UNL A   1      46.499  34.549  30.564  1.00  0.00     0.002 A 
ATOM     84  C   UNL A   1      45.680  35.310  28.411  1.00  0.00     0.091 A 
ATOM     85  F   UNL A   1      44.194  33.914  27.170  1.00  0.00    -0.205 F 
ATOM     86  C   UNL A   1      46.441  35.524  29.572  1.00  0.00     0.022 A 
BRANCH  84  87
ATOM     87  S   UNL A   1      45.716  36.584  27.146  1.00  0.00     0.127 S 
ATOM     88  O   UNL A   1      44.310  36.978  27.078  1.00  0.00    -0.237 OA
ATOM     89  O   UNL A   1      46.603  37.590  27.733  1.00  0.00    -0.237 OA
ATOM     90  O   UNL A   1      46.250  35.938  25.954  1.00  0.00    -0.744 OA
ENDBRANCH  84  87
ENDBRANCH  57  80
ENDBRANCH  31  32
ENDBRANCH  24  26
ENDBRANCH  23  24
ENDBRANCH   1  23
TORSDOF 18
ENDMDL
MODEL 2
REMARK VINA RESULT:     -11.2      1.655      2.220
REMARK SMILES CC[C@](O)(C(=O)OCCOC(=O)c1ccc(-c2c3nc(c(-c4cccc(S(=O)(=O)[O-])c4F)c4ccc([nH]4)c(-c4cccc(S(=O)(=O)[O-])c4F)c4nc(c(-c5cccc(S(=O)(=O)[O-])c5F)c5ccc2[nH]5)C=C4)C=C3)cc1)[C@@H](C)c1ccc2c(c1)OCCO2
REMARK SMILES IDX 9 1 8 2 7 3 5 4 6 5 3 6 2 7 1 8 76 9 77 10 78 11 79 12 83 13
REMARK SMILES IDX 80 14 82 15 81 16 84 17 87 18 85 19 86 20 4 21 10 23 11 24
REMARK SMILES IDX 12 25 13 26 14 27 75 28 15 29 74 30 16 31 17 32 18 33 68 34
REMARK SMILES IDX 19 35 73 36 67 37 69 38 20 39 72 40 66 41 65 42 21 44 53 45
REMARK SMILES IDX 33 46 52 47 34 48 37 49 51 50 70 51 35 52 36 53 50 55 71 56
REMARK SMILES IDX 38 57 22 58 23 59 31 60 24 61 26 62 32 63 25 64 27 65 28 66
REMARK SMILES IDX 29 67 30 68 54 69 55 70 63 71 56 72 58 73 64 74 57 75 59 76
REMARK SMILES IDX 60 77 61 78 62 79 39 80 40 81 48 82 41 83 43 84 49 85 42 86
REMARK SMILES IDX 44 87 45 88 46 89 47 90
REMARK H PARENT 4 22 69 43 37 54
REMARK Flexibility Score: inf
ROOT
ATOM      1  C   UNL A   1      36.340  20.930  25.565  1.00  0.00     0.275 C 
ENDROOT
BRANCH   1   2
ATOM      2  C   UNL A   1      35.110  21.539  24.903  1.00  0.00     0.274 C 
BRANCH   2   3
ATOM      3  O   UNL A   1      33.932  21.288  25.697  1.00  0.00    -0.460 OA
BRANCH   3   4
ATOM      4  C   UNL A   1      33.383  22.374  26.318  1.00  0.00     0.338 C 
ATOM      5  O   UNL A   1      33.965  23.082  27.130  1.00  0.00    -0.249 OA
BRANCH   4   6
ATOM      6  C   UNL A   1      31.902  22.590  25.877  1.00  0.00     0.168 C 
BRANCH   6   7
ATOM      7  C   UNL A   1      31.171  23.074  27.153  1.00  0.00     0.044 C 
ATOM      8  C   UNL A   1      29.674  22.806  27.186  1.00  0.00     0.007 C 
ENDBRANCH   6   7
BRANCH   6   9
ATOM      9  C   UNL A   1      31.931  23.650  24.735  1.00  0.00     0.059 C 
ATOM     10  C   UNL A   1      31.038  23.221  23.547  1.00  0.00     0.016 C 
BRANCH   9  11
ATOM     11  C   UNL A   1      31.549  25.095  25.057  1.00  0.00    -0.038 A 
ATOM     12  C   UNL A   1      32.534  25.983  25.532  1.00  0.00     0.008 A 
ATOM     13  C   UNL A   1      30.341  25.614  24.572  1.00  0.00     0.054 A 
ATOM     14  C   UNL A   1      32.387  27.360  25.355  1.00  0.00     0.051 A 
ATOM     15  C   UNL A   1      30.262  26.965  24.267  1.00  0.00     0.161 A 
ATOM     16  C   UNL A   1      31.294  27.827  24.635  1.00  0.00     0.161 A 
ATOM     17  O   UNL A   1      29.221  27.344  23.464  1.00  0.00    -0.486 OA
ATOM     18  O   UNL A   1      31.329  29.117  24.166  1.00  0.00    -0.486 OA
ATOM     19  C   UNL A   1      29.497  28.519  22.685  1.00  0.00     0.271 C 
ATOM     20  C   UNL A   1      30.927  29.045  22.791  1.00  0.00     0.271 C 
ENDBRANCH   9  11
ENDBRANCH   6   9
BRANCH   6  21
ATOM     21  O   UNL A   1      31.303  21.373  25.416  1.00  0.00    -0.378 OA
ATOM     22  H   UNL A   1      30.337  21.466  25.420  1.00  0.00     0.212 HD
ENDBRANCH   6  21
ENDBRANCH   4   6
ENDBRANCH   3   4
ENDBRANCH   2   3
ENDBRANCH   1   2
BRANCH   1  23
ATOM     23  O   UNL A   1      37.507  21.642  25.124  1.00  0.00    -0.458 OA
BRANCH  23  24
ATOM     24  C   UNL A   1      38.663  21.327  25.754  1.00  0.00     0.338 C 
ATOM     25  O   UNL A   1      39.225  20.246  25.752  1.00  0.00    -0.246 OA
BRANCH  24  26
ATOM     26  C   UNL A   1      39.215  22.521  26.431  1.00  0.00     0.060 A 
ATOM     27  C   UNL A   1      38.740  23.798  26.121  1.00  0.00     0.016 A 
ATOM     28  C   UNL A   1      40.322  22.374  27.264  1.00  0.00     0.016 A 
ATOM     29  C   UNL A   1      39.459  24.921  26.532  1.00  0.00     0.010 A 
ATOM     30  C   UNL A   1      40.955  23.507  27.786  1.00  0.00     0.010 A 
ATOM     31  C   UNL A   1      40.563  24.798  27.391  1.00  0.00    -0.014 A 
BRANCH  31  32
ATOM     32  C   UNL A   1      41.310  25.998  27.877  1.00  0.00     0.031 A 
ATOM     33  C   UNL A   1      40.620  27.046  28.716  1.00  0.00     0.074 A 
ATOM     34  C   UNL A   1      42.601  26.185  27.534  1.00  0.00     0.049 A 
ATOM     35  N   UNL A   1      41.004  28.265  28.998  1.00  0.00    -0.248 NA
ATOM     36  C   UNL A   1      39.314  26.686  29.297  1.00  0.00     0.031 C 
ATOM     37  C   UNL A   1      43.411  25.262  26.737  1.00  0.00     0.029 A 
ATOM     38  N   UNL A   1      43.458  27.229  27.796  1.00  0.00    -0.354 N 
ATOM     39  C   UNL A   1      39.953  28.847  29.698  1.00  0.00     0.074 A 
ATOM     40  C   UNL A   1      38.924  27.839  29.826  1.00  0.00     0.031 C 
ATOM     41  C   UNL A   1      44.648  25.758  26.603  1.00  0.00     0.029 A 
ATOM     42  C   UNL A   1      44.693  27.083  27.209  1.00  0.00     0.049 A 
ATOM     43  H   UNL A   1      43.210  28.004  28.350  1.00  0.00     0.167 HD
ATOM     44  C   UNL A   1      39.858  30.105  30.192  1.00  0.00     0.034 A 
ATOM     45  C   UNL A   1      45.734  27.934  27.108  1.00  0.00     0.034 A 
ATOM     46  C   UNL A   1      40.922  31.075  30.156  1.00  0.00     0.049 A 
ATOM     47  C   UNL A   1      45.622  29.305  27.704  1.00  0.00     0.074 A 
ATOM     48  C   UNL A   1      40.930  32.363  30.665  1.00  0.00     0.029 A 
ATOM     49  N   UNL A   1      42.175  30.856  29.607  1.00  0.00    -0.354 N 
ATOM     50  N   UNL A   1      44.621  29.837  28.362  1.00  0.00    -0.248 NA
ATOM     51  C   UNL A   1      46.780  30.195  27.543  1.00  0.00     0.031 C 
ATOM     52  C   UNL A   1      42.193  32.920  30.430  1.00  0.00     0.029 A 
ATOM     53  C   UNL A   1      42.969  31.978  29.777  1.00  0.00     0.049 A 
ATOM     54  H   UNL A   1      42.460  30.025  29.162  1.00  0.00     0.167 HD
ATOM     55  C   UNL A   1      45.028  31.122  28.696  1.00  0.00     0.074 A 
ATOM     56  C   UNL A   1      46.381  31.276  28.202  1.00  0.00     0.031 C 
ATOM     57  C   UNL A   1      44.331  32.100  29.325  1.00  0.00     0.034 A 
BRANCH  44  58
ATOM     58  C   UNL A   1      38.566  30.511  30.853  1.00  0.00     0.023 A 
ATOM     59  C   UNL A   1      38.387  30.284  32.232  1.00  0.00     0.012 A 
ATOM     60  C   UNL A   1      37.567  31.189  30.128  1.00  0.00     0.148 A 
ATOM     61  C   UNL A   1      37.222  30.709  32.874  1.00  0.00     0.002 A 
ATOM     62  C   UNL A   1      36.426  31.642  30.782  1.00  0.00     0.091 A 
ATOM     63  F   UNL A   1      37.742  31.373  28.811  1.00  0.00    -0.205 F 
ATOM     64  C   UNL A   1      36.250  31.398  32.153  1.00  0.00     0.022 A 
BRANCH  62  65
ATOM     65  S   UNL A   1      35.161  32.608  29.945  1.00  0.00     0.127 S 
ATOM     66  O   UNL A   1      34.230  32.885  31.038  1.00  0.00    -0.237 OA
ATOM     67  O   UNL A   1      35.913  33.772  29.476  1.00  0.00    -0.237 OA
ATOM     68  O   UNL A   1      34.653  31.752  28.882  1.00  0.00    -0.744 OA
ENDBRANCH  62  65
ENDBRANCH  44  58
BRANCH  45  69
ATOM     69  C   UNL A   1      46.972  27.489  26.409  1.00  0.00     0.023 A 
ATOM     70  C   UNL A   1      47.860  26.617  27.065  1.00  0.00     0.012 A 
ATOM     71  C   UNL A   1      47.227  27.849  25.070  1.00  0.00     0.148 A 
ATOM     72  C   UNL A   1      48.981  26.114  26.401  1.00  0.00     0.002 A 
ATOM     73  C   UNL A   1      48.304  27.289  24.395  1.00  0.00     0.091 A 
ATOM     74  F   UNL A   1      46.390  28.707  24.469  1.00  0.00    -0.205 F 
ATOM     75  C   UNL A   1      49.191  26.432  25.061  1.00  0.00     0.022 A 
BRANCH  73  76
ATOM     76  S   UNL A   1      48.515  27.511  22.624  1.00  0.00     0.127 S 
ATOM     77  O   UNL A   1      48.561  26.130  22.149  1.00  0.00    -0.237 OA
ATOM     78  O   UNL A   1      47.307  28.250  22.254  1.00  0.00    -0.237 OA
ATOM     79  O   UNL A   1      49.744  28.281  22.484  1.00  0.00    -0.744 OA
ENDBRANCH  73  76
ENDBRANCH  45  69
BRANCH  57  80
ATOM     80  C   UNL A   1      45.020  33.420  29.523  1.00  0.00     0.023 A 
ATOM     81  C   UNL A   1      45.739  33.650  30.712  1.00  0.00     0.012 A 
ATOM     82  C   UNL A   1      45.005  34.408  28.519  1.00  0.00     0.148 A 
ATOM     83  C   UNL A   1      46.414  34.854  30.909  1.00  0.00     0.002 A 
ATOM     84  C   UNL A   1      45.709  35.591  28.709  1.00  0.00     0.091 A 
ATOM     85  F   UNL A   1      44.293  34.179  27.405  1.00  0.00    -0.205 F 
ATOM     86  C   UNL A   1      46.407  35.819  29.906  1.00  0.00     0.022 A 
BRANCH  84  87
ATOM     87  S   UNL A   1      45.809  36.853  27.434  1.00  0.00     0.127 S 
ATOM     88  O   UNL A   1      44.501  37.497  27.547  1.00  0.00    -0.237 OA
ATOM     89  O   UNL A   1      46.933  37.674  27.887  1.00  0.00    -0.237 OA
ATOM     90  O   UNL A   1      46.055  36.136  26.190  1.00  0.00    -0.744 OA
ENDBRANCH  84  87
ENDBRANCH  57  80
ENDBRANCH  31  32
ENDBRANCH  24  26
ENDBRANCH  23  24
ENDBRANCH   1  23
TORSDOF 18
ENDMDL
MODEL 3
REMARK VINA RESULT:     -11.2      4.746      9.971
REMARK SMILES CC[C@](O)(C(=O)OCCOC(=O)c1ccc(-c2c3nc(c(-c4cccc(S(=O)(=O)[O-])c4F)c4ccc([nH]4)c(-c4cccc(S(=O)(=O)[O-])c4F)c4nc(c(-c5cccc(S(=O)(=O)[O-])c5F)c5ccc2[nH]5)C=C4)C=C3)cc1)[C@@H](C)c1ccc2c(c1)OCCO2
REMARK SMILES IDX 9 1 8 2 7 3 5 4 6 5 3 6 2 7 1 8 76 9 77 10 78 11 79 12 83 13
REMARK SMILES IDX 80 14 82 15 81 16 84 17 87 18 85 19 86 20 4 21 10 23 11 24
REMARK SMILES IDX 12 25 13 26 14 27 75 28 15 29 74 30 16 31 17 32 18 33 68 34
REMARK SMILES IDX 19 35 73 36 67 37 69 38 20 39 72 40 66 41 65 42 21 44 53 45
REMARK SMILES IDX 33 46 52 47 34 48 37 49 51 50 70 51 35 52 36 53 50 55 71 56
REMARK SMILES IDX 38 57 22 58 23 59 31 60 24 61 26 62 32 63 25 64 27 65 28 66
REMARK SMILES IDX 29 67 30 68 54 69 55 70 63 71 56 72 58 73 64 74 57 75 59 76
REMARK SMILES IDX 60 77 61 78 62 79 39 80 40 81 48 82 41 83 43 84 49 85 42 86
REMARK SMILES IDX 44 87 45 88 46 89 47 90
REMARK H PARENT 4 22 69 43 37 54
REMARK Flexibility Score: inf
ROOT
ATOM      1  C   UNL A   1      31.338  29.993  25.641  1.00  0.00     0.275 C 
ENDROOT
BRANCH   1   2
ATOM      2  C   UNL A   1      31.052  29.733  24.167  1.00  0.00     0.274 C 
BRANCH   2   3
ATOM      3  O   UNL A   1      30.674  28.356  23.962  1.00  0.00    -0.460 OA
BRANCH   3   4
ATOM      4  C   UNL A   1      31.696  27.477  23.739  1.00  0.00     0.338 C 
ATOM      5  O   UNL A   1      32.660  27.697  23.016  1.00  0.00    -0.249 OA
BRANCH   4   6
ATOM      6  C   UNL A   1      31.472  26.140  24.509  1.00  0.00     0.168 C 
BRANCH   6   7
ATOM      7  C   UNL A   1      31.711  25.028  23.459  1.00  0.00     0.044 C 
ATOM      8  C   UNL A   1      30.654  23.934  23.417  1.00  0.00     0.007 C 
ENDBRANCH   6   7
BRANCH   6   9
ATOM      9  C   UNL A   1      32.501  26.125  25.679  1.00  0.00     0.059 C 
ATOM     10  C   UNL A   1      32.016  26.990  26.866  1.00  0.00     0.016 C 
BRANCH   9  11
ATOM     11  C   UNL A   1      32.925  24.781  26.274  1.00  0.00    -0.038 A 
ATOM     12  C   UNL A   1      31.958  23.954  26.877  1.00  0.00     0.008 A 
ATOM     13  C   UNL A   1      34.169  24.234  25.926  1.00  0.00     0.054 A 
ATOM     14  C   UNL A   1      32.162  22.575  26.962  1.00  0.00     0.051 A 
ATOM     15  C   UNL A   1      34.308  22.855  25.878  1.00  0.00     0.161 A 
ATOM     16  C   UNL A   1      33.296  22.032  26.371  1.00  0.00     0.161 A 
ATOM     17  O   UNL A   1      35.389  22.380  25.187  1.00  0.00    -0.486 OA
ATOM     18  O   UNL A   1      33.326  20.678  26.148  1.00  0.00    -0.486 OA
ATOM     19  C   UNL A   1      35.184  21.072  24.632  1.00  0.00     0.271 C 
ATOM     20  C   UNL A   1      33.772  20.513  24.795  1.00  0.00     0.271 C 
ENDBRANCH   9  11
ENDBRANCH   6   9
BRANCH   6  21
ATOM     21  O   UNL A   1      30.135  26.038  25.017  1.00  0.00    -0.378 OA
ATOM     22  H   UNL A   1      29.825  25.122  24.931  1.00  0.00     0.212 HD
ENDBRANCH   6  21
ENDBRANCH   4   6
ENDBRANCH   3   4
ENDBRANCH   2   3
ENDBRANCH   1   2
BRANCH   1  23
ATOM     23  O   UNL A   1      32.735  30.285  25.800  1.00  0.00    -0.458 OA
BRANCH  23  24
ATOM     24  C   UNL A   1      33.047  31.165  26.781  1.00  0.00     0.338 C 
ATOM     25  O   UNL A   1      32.333  32.045  27.226  1.00  0.00    -0.246 OA
BRANCH  24  26
ATOM     26  C   UNL A   1      34.399  30.880  27.308  1.00  0.00     0.060 A 
ATOM     27  C   UNL A   1      34.791  29.570  27.594  1.00  0.00     0.016 A 
ATOM     28  C   UNL A   1      35.223  31.946  27.665  1.00  0.00     0.016 A 
ATOM     29  C   UNL A   1      35.935  29.342  28.360  1.00  0.00     0.010 A 
ATOM     30  C   UNL A   1      36.438  31.699  28.312  1.00  0.00     0.010 A 
ATOM     31  C   UNL A   1      36.792  30.398  28.711  1.00  0.00    -0.014 A 
BRANCH  31  32
ATOM     32  C   UNL A   1      38.045  30.159  29.489  1.00  0.00     0.031 A 
ATOM     33  C   UNL A   1      39.142  29.283  28.930  1.00  0.00     0.074 A 
ATOM     34  C   UNL A   1      38.196  30.684  30.721  1.00  0.00     0.049 A 
ATOM     35  N   UNL A   1      40.161  28.740  29.547  1.00  0.00    -0.248 NA
ATOM     36  C   UNL A   1      39.072  28.955  27.495  1.00  0.00     0.031 C 
ATOM     37  C   UNL A   1      37.235  31.557  31.397  1.00  0.00     0.029 A 
ATOM     38  N   UNL A   1      39.212  30.546  31.639  1.00  0.00    -0.354 N 
ATOM     39  C   UNL A   1      40.792  27.932  28.608  1.00  0.00     0.074 A 
ATOM     40  C   UNL A   1      40.059  28.077  27.368  1.00  0.00     0.031 C 
ATOM     41  C   UNL A   1      37.715  31.903  32.598  1.00  0.00     0.029 A 
ATOM     42  C   UNL A   1      38.966  31.192  32.828  1.00  0.00     0.049 A 
ATOM     43  H   UNL A   1      40.034  30.034  31.461  1.00  0.00     0.167 HD
ATOM     44  C   UNL A   1      41.883  27.145  28.763  1.00  0.00     0.034 A 
ATOM     45  C   UNL A   1      39.631  31.175  34.001  1.00  0.00     0.034 A 
ATOM     46  C   UNL A   1      42.674  27.080  29.965  1.00  0.00     0.049 A 
ATOM     47  C   UNL A   1      40.864  30.333  34.135  1.00  0.00     0.074 A 
ATOM     48  C   UNL A   1      43.819  26.339  30.203  1.00  0.00     0.029 A 
ATOM     49  N   UNL A   1      42.420  27.803  31.120  1.00  0.00    -0.354 N 
ATOM     50  N   UNL A   1      41.445  29.576  33.236  1.00  0.00    -0.248 NA
ATOM     51  C   UNL A   1      41.533  30.338  35.443  1.00  0.00     0.031 C 
ATOM     52  C   UNL A   1      44.262  26.621  31.501  1.00  0.00     0.029 A 
ATOM     53  C   UNL A   1      43.394  27.538  32.068  1.00  0.00     0.049 A 
ATOM     54  H   UNL A   1      41.659  28.415  31.248  1.00  0.00     0.167 HD
ATOM     55  C   UNL A   1      42.549  29.018  33.867  1.00  0.00     0.074 A 
ATOM     56  C   UNL A   1      42.578  29.552  35.213  1.00  0.00     0.031 C 
ATOM     57  C   UNL A   1      43.438  28.115  33.387  1.00  0.00     0.034 A 
BRANCH  44  58
ATOM     58  C   UNL A   1      42.324  26.305  27.592  1.00  0.00     0.023 A 
ATOM     59  C   UNL A   1      43.223  26.839  26.649  1.00  0.00     0.012 A 
ATOM     60  C   UNL A   1      41.913  24.962  27.473  1.00  0.00     0.148 A 
ATOM     61  C   UNL A   1      43.690  26.055  25.593  1.00  0.00     0.002 A 
ATOM     62  C   UNL A   1      42.412  24.176  26.439  1.00  0.00     0.091 A 
ATOM     63  F   UNL A   1      41.036  24.478  28.365  1.00  0.00    -0.205 F 
ATOM     64  C   UNL A   1      43.295  24.723  25.495  1.00  0.00     0.022 A 
BRANCH  62  65
ATOM     65  S   UNL A   1      42.017  22.429  26.288  1.00  0.00     0.127 S 
ATOM     66  O   UNL A   1      42.668  22.088  25.024  1.00  0.00    -0.237 OA
ATOM     67  O   UNL A   1      42.654  21.858  27.474  1.00  0.00    -0.237 OA
ATOM     68  O   UNL A   1      40.563  22.353  26.292  1.00  0.00    -0.744 OA
ENDBRANCH  62  65
ENDBRANCH  44  58
BRANCH  45  69
ATOM     69  C   UNL A   1      39.125  31.998  35.135  1.00  0.00     0.023 A 
ATOM     70  C   UNL A   1      38.219  31.430  36.050  1.00  0.00     0.012 A 
ATOM     71  C   UNL A   1      39.604  33.303  35.364  1.00  0.00     0.148 A 
ATOM     72  C   UNL A   1      37.799  32.149  37.171  1.00  0.00     0.002 A 
ATOM     73  C   UNL A   1      39.238  33.984  36.518  1.00  0.00     0.091 A 
ATOM     74  F   UNL A   1      40.441  33.844  34.466  1.00  0.00    -0.205 F 
ATOM     75  C   UNL A   1      38.324  33.416  37.417  1.00  0.00     0.022 A 
BRANCH  73  76
ATOM     76  S   UNL A   1      40.025  35.532  36.981  1.00  0.00     0.127 S 
ATOM     77  O   UNL A   1      41.436  35.155  37.018  1.00  0.00    -0.237 OA
ATOM     78  O   UNL A   1      39.652  36.417  35.876  1.00  0.00    -0.237 OA
ATOM     79  O   UNL A   1      39.422  35.895  38.257  1.00  0.00    -0.744 OA
ENDBRANCH  73  76
ENDBRANCH  45  69
BRANCH  57  80
ATOM     80  C   UNL A   1      44.524  27.654  34.318  1.00  0.00     0.023 A 
ATOM     81  C   UNL A   1      45.728  28.382  34.385  1.00  0.00     0.012 A 
ATOM     82  C   UNL A   1      44.337  26.542  35.161  1.00  0.00     0.148 A 
ATOM     83  C   UNL A   1      46.740  27.996  35.262  1.00  0.00     0.002 A 
ATOM     84  C   UNL A   1      45.338  26.183  36.057  1.00  0.00     0.091 A 
ATOM     85  F   UNL A   1      43.194  25.847  35.062  1.00  0.00    -0.205 F 
ATOM     86  C   UNL A   1      46.542  26.904  36.104  1.00  0.00     0.022 A 
BRANCH  84  87
ATOM     87  S   UNL A   1      45.130  24.834  37.224  1.00  0.00     0.127 S 
ATOM     88  O   UNL A   1      43.963  25.276  37.987  1.00  0.00    -0.237 OA
ATOM     89  O   UNL A   1      44.885  23.689  36.346  1.00  0.00    -0.237 OA
ATOM     90  O   UNL A   1      46.381  24.761  37.967  1.00  0.00    -0.744 OA
ENDBRANCH  84  87
ENDBRANCH  57  80
ENDBRANCH  31  32
ENDBRANCH  24  26
ENDBRANCH  23  24
ENDBRANCH   1  23
TORSDOF 18
ENDMDL
