MODEL 1
REMARK VINA RESULT:     -13.1      0.000      0.000
REMARK SMILES O=C(OCCOC(=O)C1(Cc2ccccc2Cl)CCN(c2ncnc3[nH]ccc23)CC1)c1ccc(-c2c3nc(c(-c4cccc(S(=O)(=O)[O-])c4F)c4ccc([nH]4)c(-c4cccc(S(=O)(=O)[O-])c4F)c4nc(c(-c5cccc(S(=O)(=O)[O-])c5F)c5ccc2[nH]5)C=C4)C=C3)cc1
REMARK SMILES IDX 4 1 3 2 2 3 1 4 32 5 33 6 94 7 34 8 93 9 35 10 36 11 37 12
REMARK SMILES IDX 87 13 38 14 92 15 86 16 88 17 39 18 91 19 85 20 84 21 40 23
REMARK SMILES IDX 72 24 52 25 71 26 53 27 56 28 70 29 89 30 54 31 55 32 69 34
REMARK SMILES IDX 90 35 57 36 41 37 42 38 50 39 43 40 45 41 51 42 44 43 46 44
REMARK SMILES IDX 47 45 48 46 49 47 73 48 74 49 82 50 75 51 77 52 83 53 76 54
REMARK SMILES IDX 78 55 79 56 80 57 81 58 58 59 59 60 67 61 60 62 62 63 68 64
REMARK SMILES IDX 61 65 63 66 64 67 65 68 66 69 5 70 6 71 7 72 8 73 9 74 18 75
REMARK SMILES IDX 31 76 19 77 30 78 20 79 10 80 11 81 12 82 16 83 13 84 15 85
REMARK SMILES IDX 17 86 14 87 21 88 22 89 29 90 23 91 25 92 28 93 24 94 26 95
REMARK SMILES IDX 27 96
REMARK H PARENT 88 22 56 33 26 97
REMARK Flexibility Score: inf
ROOT
ATOM      1  C   UNL A   1      32.265  30.387  26.107  1.00  0.00     0.275 C 
ENDROOT
BRANCH   1   2
ATOM      2  O   UNL A   1      32.297  31.402  27.144  1.00  0.00    -0.458 OA
BRANCH   2   3
ATOM      3  C   UNL A   1      33.298  32.191  27.614  1.00  0.00     0.338 C 
ATOM      4  O   UNL A   1      33.105  33.406  27.646  1.00  0.00    -0.246 OA
BRANCH   3   5
ATOM      5  C   UNL A   1      34.709  31.714  27.833  1.00  0.00     0.060 A 
ATOM      6  C   UNL A   1      35.820  32.526  27.967  1.00  0.00     0.016 A 
ATOM      7  C   UNL A   1      34.933  30.322  28.001  1.00  0.00     0.016 A 
ATOM      8  C   UNL A   1      37.038  31.972  28.427  1.00  0.00     0.010 A 
ATOM      9  C   UNL A   1      36.157  29.793  28.530  1.00  0.00     0.010 A 
ATOM     10  C   UNL A   1      37.217  30.641  28.861  1.00  0.00    -0.014 A 
BRANCH  10  11
ATOM     11  C   UNL A   1      38.618  30.245  29.325  1.00  0.00     0.031 A 
ATOM     12  C   UNL A   1      38.875  30.548  30.772  1.00  0.00     0.074 A 
ATOM     13  C   UNL A   1      39.553  29.461  28.710  1.00  0.00     0.049 A 
ATOM     14  N   UNL A   1      39.735  30.013  31.597  1.00  0.00    -0.248 NA
ATOM     15  C   UNL A   1      37.986  31.556  31.369  1.00  0.00     0.031 C 
ATOM     16  C   UNL A   1      39.573  29.010  27.325  1.00  0.00     0.029 A 
ATOM     17  N   UNL A   1      40.658  28.781  29.242  1.00  0.00    -0.354 N 
ATOM     18  C   UNL A   1      39.481  30.613  32.816  1.00  0.00     0.074 A 
ATOM     19  C   UNL A   1      38.365  31.517  32.632  1.00  0.00     0.031 C 
ATOM     20  C   UNL A   1      40.476  28.025  27.160  1.00  0.00     0.029 A 
ATOM     21  C   UNL A   1      41.232  27.840  28.391  1.00  0.00     0.049 A 
ATOM     22  H   UNL A   1      41.001  28.957  30.148  1.00  0.00     0.167 HD
ATOM     23  C   UNL A   1      40.124  30.473  33.994  1.00  0.00     0.034 A 
ATOM     24  C   UNL A   1      42.247  26.945  28.545  1.00  0.00     0.034 A 
ATOM     25  C   UNL A   1      41.320  29.725  34.217  1.00  0.00     0.049 A 
ATOM     26  C   UNL A   1      43.046  26.935  29.831  1.00  0.00     0.074 A 
ATOM     27  C   UNL A   1      42.094  29.695  35.363  1.00  0.00     0.029 A 
ATOM     28  N   UNL A   1      41.955  28.935  33.280  1.00  0.00    -0.354 N 
ATOM     29  N   UNL A   1      42.761  27.478  30.986  1.00  0.00    -0.248 NA
ATOM     30  C   UNL A   1      44.335  26.210  29.821  1.00  0.00     0.031 C 
ATOM     31  C   UNL A   1      43.229  28.924  35.103  1.00  0.00     0.029 A 
ATOM     32  C   UNL A   1      43.127  28.428  33.815  1.00  0.00     0.049 A 
ATOM     33  H   UNL A   1      41.623  28.757  32.371  1.00  0.00     0.167 HD
ATOM     34  C   UNL A   1      43.826  27.165  31.830  1.00  0.00     0.074 A 
ATOM     35  C   UNL A   1      44.737  26.335  31.078  1.00  0.00     0.031 C 
ATOM     36  C   UNL A   1      44.035  27.567  33.106  1.00  0.00     0.034 A 
BRANCH  23  37
ATOM     37  C   UNL A   1      39.564  31.286  35.113  1.00  0.00     0.023 A 
ATOM     38  C   UNL A   1      38.562  30.744  35.939  1.00  0.00     0.012 A 
ATOM     39  C   UNL A   1      39.976  32.619  35.267  1.00  0.00     0.148 A 
ATOM     40  C   UNL A   1      37.949  31.543  36.898  1.00  0.00     0.002 A 
ATOM     41  C   UNL A   1      39.388  33.395  36.249  1.00  0.00     0.091 A 
ATOM     42  F   UNL A   1      40.889  33.108  34.417  1.00  0.00    -0.205 F 
ATOM     43  C   UNL A   1      38.368  32.865  37.057  1.00  0.00     0.022 A 
BRANCH  41  44
ATOM     44  S   UNL A   1      39.879  35.092  36.542  1.00  0.00     0.127 S 
ATOM     45  O   UNL A   1      39.184  35.386  37.794  1.00  0.00    -0.237 OA
ATOM     46  O   UNL A   1      41.331  34.967  36.661  1.00  0.00    -0.237 OA
ATOM     47  O   UNL A   1      39.422  35.850  35.386  1.00  0.00    -0.744 OA
ENDBRANCH  41  44
ENDBRANCH  23  37
BRANCH  24  48
ATOM     48  C   UNL A   1      42.668  25.976  27.458  1.00  0.00     0.023 A 
ATOM     49  C   UNL A   1      43.511  26.411  26.405  1.00  0.00     0.012 A 
ATOM     50  C   UNL A   1      42.150  24.669  27.385  1.00  0.00     0.148 A 
ATOM     51  C   UNL A   1      43.785  25.589  25.302  1.00  0.00     0.002 A 
ATOM     52  C   UNL A   1      42.499  23.826  26.331  1.00  0.00     0.091 A 
ATOM     53  F   UNL A   1      41.283  24.275  28.328  1.00  0.00    -0.205 F 
ATOM     54  C   UNL A   1      43.291  24.290  25.274  1.00  0.00     0.022 A 
BRANCH  52  55
ATOM     55  S   UNL A   1      42.027  22.093  26.308  1.00  0.00     0.127 S 
ATOM     56  O   UNL A   1      42.789  21.586  25.170  1.00  0.00    -0.237 OA
ATOM     57  O   UNL A   1      42.492  21.633  27.617  1.00  0.00    -0.237 OA
ATOM     58  O   UNL A   1      40.578  22.094  26.157  1.00  0.00    -0.744 OA
ENDBRANCH  52  55
ENDBRANCH  24  48
BRANCH  36  59
ATOM     59  C   UNL A   1      45.290  27.126  33.819  1.00  0.00     0.023 A 
ATOM     60  C   UNL A   1      46.433  27.950  33.814  1.00  0.00     0.012 A 
ATOM     61  C   UNL A   1      45.295  25.951  34.596  1.00  0.00     0.148 A 
ATOM     62  C   UNL A   1      47.566  27.600  34.551  1.00  0.00     0.002 A 
ATOM     63  C   UNL A   1      46.407  25.634  35.369  1.00  0.00     0.091 A 
ATOM     64  F   UNL A   1      44.206  25.168  34.577  1.00  0.00    -0.205 F 
ATOM     65  C   UNL A   1      47.548  26.452  35.339  1.00  0.00     0.022 A 
BRANCH  63  66
ATOM     66  S   UNL A   1      46.431  24.235  36.497  1.00  0.00     0.127 S 
ATOM     67  O   UNL A   1      45.321  24.556  37.393  1.00  0.00    -0.237 OA
ATOM     68  O   UNL A   1      46.184  23.108  35.597  1.00  0.00    -0.237 OA
ATOM     69  O   UNL A   1      47.751  24.239  37.113  1.00  0.00    -0.744 OA
ENDBRANCH  63  66
ENDBRANCH  36  59
ENDBRANCH  10  11
ENDBRANCH   3   5
ENDBRANCH   2   3
ENDBRANCH   1   2
BRANCH   1  70
ATOM     70  C   UNL A   1      31.753  29.070  26.673  1.00  0.00     0.274 C 
BRANCH  70  71
ATOM     71  O   UNL A   1      31.977  28.064  25.681  1.00  0.00    -0.462 OA
BRANCH  71  72
ATOM     72  C   UNL A   1      31.287  26.901  25.782  1.00  0.00     0.312 C 
ATOM     73  O   UNL A   1      30.585  26.597  26.742  1.00  0.00    -0.252 OA
BRANCH  72  74
ATOM     74  C   UNL A   1      31.399  26.102  24.488  1.00  0.00     0.075 C 
ATOM     75  C   UNL A   1      31.409  24.632  24.904  1.00  0.00     0.040 C 
ATOM     76  C   UNL A   1      32.799  26.349  23.824  1.00  0.00     0.040 C 
ATOM     77  C   UNL A   1      32.617  24.131  25.698  1.00  0.00     0.119 C 
ATOM     78  C   UNL A   1      34.039  25.743  24.566  1.00  0.00     0.119 C 
ATOM     79  N   UNL A   1      33.789  24.339  24.877  1.00  0.00    -0.356 N 
BRANCH  74  80
ATOM     80  C   UNL A   1      30.195  26.491  23.450  1.00  0.00     0.056 C 
BRANCH  80  81
ATOM     81  C   UNL A   1      29.432  27.843  23.320  1.00  0.00    -0.028 A 
ATOM     82  C   UNL A   1      28.025  27.870  23.207  1.00  0.00     0.005 A 
ATOM     83  C   UNL A   1      30.016  29.102  23.119  1.00  0.00     0.044 A 
ATOM     84  C   UNL A   1      27.262  29.060  23.217  1.00  0.00     0.000 A 
ATOM     85  C   UNL A   1      29.281  30.307  23.246  1.00  0.00     0.021 A 
ATOM     86  Cl  UNL A   1      31.577  29.246  22.382  1.00  0.00    -0.084 Cl
ATOM     87  C   UNL A   1      27.897  30.284  23.350  1.00  0.00     0.002 A 
ENDBRANCH  80  81
ENDBRANCH  74  80
BRANCH  79  88
ATOM     88  C   UNL A   1      34.839  23.454  25.118  1.00  0.00     0.141 A 
ATOM     89  N   UNL A   1      36.072  23.906  25.471  1.00  0.00    -0.219 NA
ATOM     90  C   UNL A   1      34.679  22.044  25.022  1.00  0.00     0.061 A 
ATOM     91  C   UNL A   1      37.051  23.005  25.726  1.00  0.00     0.226 A 
ATOM     92  C   UNL A   1      35.787  21.249  25.283  1.00  0.00     0.142 A 
ATOM     93  C   UNL A   1      33.623  21.146  24.681  1.00  0.00     0.033 A 
ATOM     94  N   UNL A   1      37.006  21.661  25.656  1.00  0.00    -0.218 NA
ATOM     95  N   UNL A   1      35.440  19.939  25.079  1.00  0.00    -0.346 N 
ATOM     96  C   UNL A   1      34.117  19.858  24.727  1.00  0.00     0.085 A 
ATOM     97  H   UNL A   1      36.049  19.170  25.171  1.00  0.00     0.167 HD
ENDBRANCH  79  88
ENDBRANCH  72  74
ENDBRANCH  71  72
ENDBRANCH  70  71
ENDBRANCH   1  70
TORSDOF 17
ENDMDL
MODEL 2
REMARK VINA RESULT:     -13.0      4.639     10.124
REMARK SMILES O=C(OCCOC(=O)C1(Cc2ccccc2Cl)CCN(c2ncnc3[nH]ccc23)CC1)c1ccc(-c2c3nc(c(-c4cccc(S(=O)(=O)[O-])c4F)c4ccc([nH]4)c(-c4cccc(S(=O)(=O)[O-])c4F)c4nc(c(-c5cccc(S(=O)(=O)[O-])c5F)c5ccc2[nH]5)C=C4)C=C3)cc1
REMARK SMILES IDX 4 1 3 2 2 3 1 4 32 5 33 6 94 7 34 8 93 9 35 10 36 11 37 12
REMARK SMILES IDX 87 13 38 14 92 15 86 16 88 17 39 18 91 19 85 20 84 21 40 23
REMARK SMILES IDX 72 24 52 25 71 26 53 27 56 28 70 29 89 30 54 31 55 32 69 34
REMARK SMILES IDX 90 35 57 36 41 37 42 38 50 39 43 40 45 41 51 42 44 43 46 44
REMARK SMILES IDX 47 45 48 46 49 47 73 48 74 49 82 50 75 51 77 52 83 53 76 54
REMARK SMILES IDX 78 55 79 56 80 57 81 58 58 59 59 60 67 61 60 62 62 63 68 64
REMARK SMILES IDX 61 65 63 66 64 67 65 68 66 69 5 70 6 71 7 72 8 73 9 74 18 75
REMARK SMILES IDX 31 76 19 77 30 78 20 79 10 80 11 81 12 82 16 83 13 84 15 85
REMARK SMILES IDX 17 86 14 87 21 88 22 89 29 90 23 91 25 92 28 93 24 94 26 95
REMARK SMILES IDX 27 96
REMARK H PARENT 88 22 56 33 26 97
REMARK Flexibility Score: inf
ROOT
ATOM      1  C   UNL A   1      36.916  21.118  25.258  1.00  0.00     0.275 C 
ENDROOT
BRANCH   1   2
ATOM      2  O   UNL A   1      38.337  20.913  25.052  1.00  0.00    -0.458 OA
BRANCH   2   3
ATOM      3  C   UNL A   1      39.404  21.034  25.885  1.00  0.00     0.338 C 
ATOM      4  O   UNL A   1      40.023  20.012  26.178  1.00  0.00    -0.246 OA
BRANCH   3   5
ATOM      5  C   UNL A   1      39.708  22.274  26.683  1.00  0.00     0.060 A 
ATOM      6  C   UNL A   1      40.683  22.384  27.657  1.00  0.00     0.016 A 
ATOM      7  C   UNL A   1      39.002  23.466  26.375  1.00  0.00     0.016 A 
ATOM      8  C   UNL A   1      41.041  23.663  28.144  1.00  0.00     0.010 A 
ATOM      9  C   UNL A   1      39.425  24.758  26.831  1.00  0.00     0.010 A 
ATOM     10  C   UNL A   1      40.544  24.891  27.658  1.00  0.00    -0.014 A 
BRANCH  10  11
ATOM     11  C   UNL A   1      41.066  26.163  28.324  1.00  0.00     0.031 A 
ATOM     12  C   UNL A   1      42.413  26.591  27.819  1.00  0.00     0.074 A 
ATOM     13  C   UNL A   1      40.410  27.075  29.102  1.00  0.00     0.049 A 
ATOM     14  N   UNL A   1      42.971  27.772  27.827  1.00  0.00    -0.248 NA
ATOM     15  C   UNL A   1      43.201  25.537  27.163  1.00  0.00     0.031 C 
ATOM     16  C   UNL A   1      39.103  26.939  29.730  1.00  0.00     0.029 A 
ATOM     17  N   UNL A   1      40.731  28.405  29.408  1.00  0.00    -0.354 N 
ATOM     18  C   UNL A   1      44.173  27.604  27.165  1.00  0.00     0.074 A 
ATOM     19  C   UNL A   1      44.243  26.223  26.735  1.00  0.00     0.031 C 
ATOM     20  C   UNL A   1      38.659  28.134  30.165  1.00  0.00     0.029 A 
ATOM     21  C   UNL A   1      39.700  29.138  29.990  1.00  0.00     0.049 A 
ATOM     22  H   UNL A   1      41.619  28.790  29.225  1.00  0.00     0.167 HD
ATOM     23  C   UNL A   1      45.167  28.490  26.949  1.00  0.00     0.034 A 
ATOM     24  C   UNL A   1      39.583  30.442  30.363  1.00  0.00     0.034 A 
ATOM     25  C   UNL A   1      45.241  29.817  27.472  1.00  0.00     0.049 A 
ATOM     26  C   UNL A   1      40.780  31.362  30.250  1.00  0.00     0.074 A 
ATOM     27  C   UNL A   1      46.313  30.688  27.411  1.00  0.00     0.029 A 
ATOM     28  N   UNL A   1      44.251  30.446  28.199  1.00  0.00    -0.354 N 
ATOM     29  N   UNL A   1      41.892  31.195  29.580  1.00  0.00    -0.248 NA
ATOM     30  C   UNL A   1      40.718  32.647  30.981  1.00  0.00     0.031 C 
ATOM     31  C   UNL A   1      45.990  31.830  28.148  1.00  0.00     0.029 A 
ATOM     32  C   UNL A   1      44.696  31.690  28.615  1.00  0.00     0.049 A 
ATOM     33  H   UNL A   1      43.363  30.068  28.393  1.00  0.00     0.167 HD
ATOM     34  C   UNL A   1      42.653  32.341  29.810  1.00  0.00     0.074 A 
ATOM     35  C   UNL A   1      41.859  33.225  30.630  1.00  0.00     0.031 C 
ATOM     36  C   UNL A   1      43.915  32.608  29.398  1.00  0.00     0.034 A 
BRANCH  23  37
ATOM     37  C   UNL A   1      46.329  27.952  26.185  1.00  0.00     0.023 A 
ATOM     38  C   UNL A   1      46.361  28.068  24.782  1.00  0.00     0.012 A 
ATOM     39  C   UNL A   1      47.335  27.249  26.867  1.00  0.00     0.148 A 
ATOM     40  C   UNL A   1      47.378  27.454  24.060  1.00  0.00     0.002 A 
ATOM     41  C   UNL A   1      48.364  26.674  26.143  1.00  0.00     0.091 A 
ATOM     42  F   UNL A   1      47.230  27.113  28.196  1.00  0.00    -0.205 F 
ATOM     43  C   UNL A   1      48.382  26.764  24.741  1.00  0.00     0.022 A 
BRANCH  41  44
ATOM     44  S   UNL A   1      49.707  25.794  26.934  1.00  0.00     0.127 S 
ATOM     45  O   UNL A   1      50.084  26.726  27.995  1.00  0.00    -0.237 OA
ATOM     46  O   UNL A   1      49.038  24.578  27.394  1.00  0.00    -0.237 OA
ATOM     47  O   UNL A   1      50.716  25.586  25.904  1.00  0.00    -0.744 OA
ENDBRANCH  41  44
ENDBRANCH  23  37
BRANCH  24  48
ATOM     48  C   UNL A   1      38.313  31.025  30.951  1.00  0.00     0.023 A 
ATOM     49  C   UNL A   1      38.010  30.830  32.321  1.00  0.00     0.012 A 
ATOM     50  C   UNL A   1      37.346  31.659  30.150  1.00  0.00     0.148 A 
ATOM     51  C   UNL A   1      36.771  31.213  32.857  1.00  0.00     0.002 A 
ATOM     52  C   UNL A   1      36.153  32.118  30.707  1.00  0.00     0.091 A 
ATOM     53  F   UNL A   1      37.582  31.770  28.835  1.00  0.00    -0.205 F 
ATOM     54  C   UNL A   1      35.849  31.873  32.052  1.00  0.00     0.022 A 
BRANCH  52  55
ATOM     55  S   UNL A   1      34.987  33.111  29.767  1.00  0.00     0.127 S 
ATOM     56  O   UNL A   1      34.444  32.133  28.830  1.00  0.00    -0.237 OA
ATOM     57  O   UNL A   1      34.057  33.553  30.806  1.00  0.00    -0.237 OA
ATOM     58  O   UNL A   1      35.783  34.183  29.184  1.00  0.00    -0.744 OA
ENDBRANCH  52  55
ENDBRANCH  24  48
BRANCH  36  59
ATOM     59  C   UNL A   1      44.556  33.914  29.800  1.00  0.00     0.023 A 
ATOM     60  C   UNL A   1      45.347  33.985  30.964  1.00  0.00     0.012 A 
ATOM     61  C   UNL A   1      44.475  35.040  28.956  1.00  0.00     0.148 A 
ATOM     62  C   UNL A   1      46.026  35.160  31.293  1.00  0.00     0.002 A 
ATOM     63  C   UNL A   1      45.195  36.190  29.261  1.00  0.00     0.091 A 
ATOM     64  F   UNL A   1      43.704  34.963  27.861  1.00  0.00    -0.205 F 
ATOM     65  C   UNL A   1      45.962  36.256  30.435  1.00  0.00     0.022 A 
BRANCH  63  66
ATOM     66  S   UNL A   1      45.258  37.609  28.161  1.00  0.00     0.127 S 
ATOM     67  O   UNL A   1      46.266  38.446  28.811  1.00  0.00    -0.237 OA
ATOM     68  O   UNL A   1      45.688  37.004  26.900  1.00  0.00    -0.237 OA
ATOM     69  O   UNL A   1      43.910  38.160  28.138  1.00  0.00    -0.744 OA
ENDBRANCH  63  66
ENDBRANCH  36  59
ENDBRANCH  10  11
ENDBRANCH   3   5
ENDBRANCH   2   3
ENDBRANCH   1   2
BRANCH   1  70
ATOM     70  C   UNL A   1      36.377  22.126  24.252  1.00  0.00     0.274 C 
BRANCH  70  71
ATOM     71  O   UNL A   1      35.125  22.603  24.755  1.00  0.00    -0.462 OA
BRANCH  71  72
ATOM     72  C   UNL A   1      34.155  22.917  23.861  1.00  0.00     0.312 C 
ATOM     73  O   UNL A   1      34.330  22.986  22.648  1.00  0.00    -0.252 OA
BRANCH  72  74
ATOM     74  C   UNL A   1      32.805  23.030  24.561  1.00  0.00     0.075 C 
ATOM     75  C   UNL A   1      31.963  23.965  23.696  1.00  0.00     0.040 C 
ATOM     76  C   UNL A   1      32.971  23.778  25.931  1.00  0.00     0.040 C 
ATOM     77  C   UNL A   1      32.402  25.428  23.602  1.00  0.00     0.119 C 
ATOM     78  C   UNL A   1      33.309  25.306  25.853  1.00  0.00     0.119 C 
ATOM     79  N   UNL A   1      32.381  25.971  24.943  1.00  0.00    -0.356 N 
BRANCH  74  80
ATOM     80  C   UNL A   1      32.135  21.554  24.791  1.00  0.00     0.056 C 
BRANCH  80  81
ATOM     81  C   UNL A   1      32.564  20.192  24.169  1.00  0.00    -0.028 A 
ATOM     82  C   UNL A   1      33.520  19.375  24.811  1.00  0.00     0.005 A 
ATOM     83  C   UNL A   1      32.227  19.727  22.890  1.00  0.00     0.044 A 
ATOM     84  C   UNL A   1      33.859  18.074  24.373  1.00  0.00     0.000 A 
ATOM     85  C   UNL A   1      32.454  18.389  22.486  1.00  0.00     0.021 A 
ATOM     86  Cl  UNL A   1      31.818  20.837  21.624  1.00  0.00    -0.084 Cl
ATOM     87  C   UNL A   1      33.233  17.538  23.260  1.00  0.00     0.002 A 
ENDBRANCH  80  81
ENDBRANCH  74  80
BRANCH  79  88
ATOM     88  C   UNL A   1      32.155  27.344  25.016  1.00  0.00     0.141 A 
ATOM     89  N   UNL A   1      31.088  27.914  24.393  1.00  0.00    -0.219 NA
ATOM     90  C   UNL A   1      33.008  28.216  25.747  1.00  0.00     0.061 A 
ATOM     91  C   UNL A   1      30.894  29.249  24.520  1.00  0.00     0.226 A 
ATOM     92  C   UNL A   1      32.694  29.568  25.758  1.00  0.00     0.142 A 
ATOM     93  C   UNL A   1      34.206  28.085  26.513  1.00  0.00     0.033 A 
ATOM     94  N   UNL A   1      31.640  30.157  25.177  1.00  0.00    -0.218 NA
ATOM     95  N   UNL A   1      33.664  30.234  26.460  1.00  0.00    -0.346 N 
ATOM     96  C   UNL A   1      34.585  29.340  26.942  1.00  0.00     0.085 A 
ATOM     97  H   UNL A   1      33.695  31.209  26.599  1.00  0.00     0.167 HD
ENDBRANCH  79  88
ENDBRANCH  72  74
ENDBRANCH  71  72
ENDBRANCH  70  71
ENDBRANCH   1  70
TORSDOF 17
ENDMDL
MODEL 3
REMARK VINA RESULT:     -12.6      5.009     10.168
REMARK SMILES O=C(OCCOC(=O)C1(Cc2ccccc2Cl)CCN(c2ncnc3[nH]ccc23)CC1)c1ccc(-c2c3nc(c(-c4cccc(S(=O)(=O)[O-])c4F)c4ccc([nH]4)c(-c4cccc(S(=O)(=O)[O-])c4F)c4nc(c(-c5cccc(S(=O)(=O)[O-])c5F)c5ccc2[nH]5)C=C4)C=C3)cc1
REMARK SMILES IDX 4 1 3 2 2 3 1 4 32 5 33 6 94 7 34 8 93 9 35 10 36 11 37 12
REMARK SMILES IDX 87 13 38 14 92 15 86 16 88 17 39 18 91 19 85 20 84 21 40 23
REMARK SMILES IDX 72 24 52 25 71 26 53 27 56 28 70 29 89 30 54 31 55 32 69 34
REMARK SMILES IDX 90 35 57 36 41 37 42 38 50 39 43 40 45 41 51 42 44 43 46 44
REMARK SMILES IDX 47 45 48 46 49 47 73 48 74 49 82 50 75 51 77 52 83 53 76 54
REMARK SMILES IDX 78 55 79 56 80 57 81 58 58 59 59 60 67 61 60 62 62 63 68 64
REMARK SMILES IDX 61 65 63 66 64 67 65 68 66 69 5 70 6 71 7 72 8 73 9 74 18 75
REMARK SMILES IDX 31 76 19 77 30 78 20 79 10 80 11 81 12 82 16 83 13 84 15 85
REMARK SMILES IDX 17 86 14 87 21 88 22 89 29 90 23 91 25 92 28 93 24 94 26 95
REMARK SMILES IDX 27 96
REMARK H PARENT 88 22 56 33 26 97
REMARK Flexibility Score: inf
ROOT
ATOM      1  C   UNL A   1      37.432  21.554  24.769  1.00  0.00     0.275 C 
ENDROOT
BRANCH   1   2
ATOM      2  O   UNL A   1      38.227  21.205  25.931  1.00  0.00    -0.458 OA
BRANCH   2   3
ATOM      3  C   UNL A   1      39.537  21.404  26.232  1.00  0.00     0.338 C 
ATOM      4  O   UNL A   1      40.257  20.413  26.345  1.00  0.00    -0.246 OA
BRANCH   3   5
ATOM      5  C   UNL A   1      40.099  22.719  26.703  1.00  0.00     0.060 A 
ATOM      6  C   UNL A   1      39.662  23.968  26.304  1.00  0.00     0.016 A 
ATOM      7  C   UNL A   1      41.109  22.704  27.700  1.00  0.00     0.016 A 
ATOM      8  C   UNL A   1      40.091  25.116  27.011  1.00  0.00     0.010 A 
ATOM      9  C   UNL A   1      41.479  23.872  28.445  1.00  0.00     0.010 A 
ATOM     10  C   UNL A   1      40.883  25.107  28.179  1.00  0.00    -0.014 A 
BRANCH  10  11
ATOM     11  C   UNL A   1      41.233  26.463  28.791  1.00  0.00     0.031 A 
ATOM     12  C   UNL A   1      42.614  26.936  28.444  1.00  0.00     0.074 A 
ATOM     13  C   UNL A   1      40.420  27.391  29.380  1.00  0.00     0.049 A 
ATOM     14  N   UNL A   1      43.099  28.149  28.422  1.00  0.00    -0.248 NA
ATOM     15  C   UNL A   1      43.545  25.886  28.007  1.00  0.00     0.031 C 
ATOM     16  C   UNL A   1      39.044  27.221  29.827  1.00  0.00     0.029 A 
ATOM     17  N   UNL A   1      40.621  28.760  29.604  1.00  0.00    -0.354 N 
ATOM     18  C   UNL A   1      44.392  28.007  27.955  1.00  0.00     0.074 A 
ATOM     19  C   UNL A   1      44.600  26.603  27.669  1.00  0.00     0.031 C 
ATOM     20  C   UNL A   1      38.477  28.415  30.082  1.00  0.00     0.029 A 
ATOM     21  C   UNL A   1      39.477  29.469  29.963  1.00  0.00     0.049 A 
ATOM     22  H   UNL A   1      41.503  29.187  29.514  1.00  0.00     0.167 HD
ATOM     23  C   UNL A   1      45.358  28.936  27.800  1.00  0.00     0.034 A 
ATOM     24  C   UNL A   1      39.235  30.789  30.194  1.00  0.00     0.034 A 
ATOM     25  C   UNL A   1      45.283  30.304  28.202  1.00  0.00     0.049 A 
ATOM     26  C   UNL A   1      40.385  31.774  30.167  1.00  0.00     0.074 A 
ATOM     27  C   UNL A   1      46.303  31.237  28.213  1.00  0.00     0.029 A 
ATOM     28  N   UNL A   1      44.164  30.924  28.721  1.00  0.00    -0.354 N 
ATOM     29  N   UNL A   1      41.590  31.626  29.679  1.00  0.00    -0.248 NA
ATOM     30  C   UNL A   1      40.147  33.109  30.758  1.00  0.00     0.031 C 
ATOM     31  C   UNL A   1      45.814  32.413  28.787  1.00  0.00     0.029 A 
ATOM     32  C   UNL A   1      44.474  32.226  29.078  1.00  0.00     0.049 A 
ATOM     33  H   UNL A   1      43.279  30.505  28.821  1.00  0.00     0.167 HD
ATOM     34  C   UNL A   1      42.246  32.836  29.906  1.00  0.00     0.074 A 
ATOM     35  C   UNL A   1      41.293  33.731  30.521  1.00  0.00     0.031 C 
ATOM     36  C   UNL A   1      43.538  33.152  29.654  1.00  0.00     0.034 A 
BRANCH  23  37
ATOM     37  C   UNL A   1      46.648  28.415  27.261  1.00  0.00     0.023 A 
ATOM     38  C   UNL A   1      47.759  28.277  28.114  1.00  0.00     0.012 A 
ATOM     39  C   UNL A   1      46.765  28.158  25.886  1.00  0.00     0.148 A 
ATOM     40  C   UNL A   1      48.994  27.916  27.589  1.00  0.00     0.002 A 
ATOM     41  C   UNL A   1      47.989  27.762  25.378  1.00  0.00     0.091 A 
ATOM     42  F   UNL A   1      45.695  28.362  25.105  1.00  0.00    -0.205 F 
ATOM     43  C   UNL A   1      49.107  27.651  26.222  1.00  0.00     0.022 A 
BRANCH  41  44
ATOM     44  S   UNL A   1      48.219  27.376  23.645  1.00  0.00     0.127 S 
ATOM     45  O   UNL A   1      47.185  28.200  23.021  1.00  0.00    -0.237 OA
ATOM     46  O   UNL A   1      49.589  27.834  23.416  1.00  0.00    -0.237 OA
ATOM     47  O   UNL A   1      48.026  25.938  23.521  1.00  0.00    -0.744 OA
ENDBRANCH  41  44
ENDBRANCH  23  37
BRANCH  24  48
ATOM     48  C   UNL A   1      37.863  31.332  30.539  1.00  0.00     0.023 A 
ATOM     49  C   UNL A   1      37.431  31.365  31.888  1.00  0.00     0.012 A 
ATOM     50  C   UNL A   1      36.937  31.700  29.546  1.00  0.00     0.148 A 
ATOM     51  C   UNL A   1      36.113  31.708  32.225  1.00  0.00     0.002 A 
ATOM     52  C   UNL A   1      35.655  32.125  29.893  1.00  0.00     0.091 A 
ATOM     53  F   UNL A   1      37.304  31.588  28.261  1.00  0.00    -0.205 F 
ATOM     54  C   UNL A   1      35.230  32.103  31.227  1.00  0.00     0.022 A 
BRANCH  52  55
ATOM     55  S   UNL A   1      34.517  32.795  28.676  1.00  0.00     0.127 S 
ATOM     56  O   UNL A   1      33.859  31.590  28.181  1.00  0.00    -0.237 OA
ATOM     57  O   UNL A   1      33.674  33.668  29.495  1.00  0.00    -0.237 OA
ATOM     58  O   UNL A   1      35.356  33.504  27.718  1.00  0.00    -0.744 OA
ENDBRANCH  52  55
ENDBRANCH  24  48
BRANCH  36  59
ATOM     59  C   UNL A   1      44.042  34.527  30.020  1.00  0.00     0.023 A 
ATOM     60  C   UNL A   1      44.692  34.738  31.252  1.00  0.00     0.012 A 
ATOM     61  C   UNL A   1      43.979  35.583  29.088  1.00  0.00     0.148 A 
ATOM     62  C   UNL A   1      45.250  35.981  31.559  1.00  0.00     0.002 A 
ATOM     63  C   UNL A   1      44.582  36.802  29.378  1.00  0.00     0.091 A 
ATOM     64  F   UNL A   1      43.341  35.372  27.927  1.00  0.00    -0.205 F 
ATOM     65  C   UNL A   1      45.208  37.006  30.617  1.00  0.00     0.022 A 
BRANCH  63  66
ATOM     66  S   UNL A   1      44.671  38.142  28.184  1.00  0.00     0.127 S 
ATOM     67  O   UNL A   1      45.415  39.156  28.930  1.00  0.00    -0.237 OA
ATOM     68  O   UNL A   1      45.413  37.527  27.083  1.00  0.00    -0.237 OA
ATOM     69  O   UNL A   1      43.292  38.488  27.865  1.00  0.00    -0.744 OA
ENDBRANCH  63  66
ENDBRANCH  36  59
ENDBRANCH  10  11
ENDBRANCH   3   5
ENDBRANCH   2   3
ENDBRANCH   1   2
BRANCH   1  70
ATOM     70  C   UNL A   1      36.385  22.594  25.139  1.00  0.00     0.274 C 
BRANCH  70  71
ATOM     71  O   UNL A   1      35.100  21.994  24.947  1.00  0.00    -0.462 OA
BRANCH  71  72
ATOM     72  C   UNL A   1      34.112  22.303  25.823  1.00  0.00     0.312 C 
ATOM     73  O   UNL A   1      34.305  22.689  26.972  1.00  0.00    -0.252 OA
BRANCH  72  74
ATOM     74  C   UNL A   1      32.753  22.236  25.136  1.00  0.00     0.075 C 
ATOM     75  C   UNL A   1      32.945  22.879  23.765  1.00  0.00     0.040 C 
ATOM     76  C   UNL A   1      31.728  23.163  25.883  1.00  0.00     0.040 C 
ATOM     77  C   UNL A   1      33.254  24.377  23.724  1.00  0.00     0.119 C 
ATOM     78  C   UNL A   1      31.965  24.706  25.756  1.00  0.00     0.119 C 
ATOM     79  N   UNL A   1      32.148  25.064  24.353  1.00  0.00    -0.356 N 
BRANCH  74  80
ATOM     80  C   UNL A   1      32.197  20.698  25.078  1.00  0.00     0.056 C 
BRANCH  80  81
ATOM     81  C   UNL A   1      32.776  19.493  24.277  1.00  0.00    -0.028 A 
ATOM     82  C   UNL A   1      33.880  18.763  24.770  1.00  0.00     0.005 A 
ATOM     83  C   UNL A   1      32.425  19.126  22.971  1.00  0.00     0.044 A 
ATOM     84  C   UNL A   1      34.372  17.584  24.165  1.00  0.00     0.000 A 
ATOM     85  C   UNL A   1      32.815  17.890  22.400  1.00  0.00     0.021 A 
ATOM     86  Cl  UNL A   1      31.778  20.295  21.867  1.00  0.00    -0.084 Cl
ATOM     87  C   UNL A   1      33.758  17.086  23.028  1.00  0.00     0.002 A 
ENDBRANCH  80  81
ENDBRANCH  74  80
BRANCH  79  88
ATOM     88  C   UNL A   1      31.934  26.366  23.904  1.00  0.00     0.141 A 
ATOM     89  N   UNL A   1      31.064  26.625  22.891  1.00  0.00    -0.219 NA
ATOM     90  C   UNL A   1      32.595  27.485  24.480  1.00  0.00     0.061 A 
ATOM     91  C   UNL A   1      30.867  27.911  22.512  1.00  0.00     0.226 A 
ATOM     92  C   UNL A   1      32.311  28.741  23.961  1.00  0.00     0.142 A 
ATOM     93  C   UNL A   1      33.564  27.695  25.507  1.00  0.00     0.033 A 
ATOM     94  N   UNL A   1      31.444  29.032  22.983  1.00  0.00    -0.218 NA
ATOM     95  N   UNL A   1      33.089  29.665  24.608  1.00  0.00    -0.346 N 
ATOM     96  C   UNL A   1      33.848  29.044  25.566  1.00  0.00     0.085 A 
ATOM     97  H   UNL A   1      33.101  30.631  24.414  1.00  0.00     0.167 HD
ENDBRANCH  79  88
ENDBRANCH  72  74
ENDBRANCH  71  72
ENDBRANCH  70  71
ENDBRANCH   1  70
TORSDOF 17
ENDMDL
