MODEL 1
REMARK VINA RESULT:     -11.1      0.000      0.000
REMARK SMILES Cc1cn2c(CC(=O)N[C@@H](C(=O)OCCOC(=O)c3ccc(-c4c5nc(c(-c6cccc(S(=O)(=O)[O-])c6F)c6ccc([nH]6)c(-c6cccc(S(=O)(=O)[O-])c6F)c6nc(c(-c7cccc(S(=O)(=O)[O-])c7F)c7ccc4[nH]7)C=C6)C=C5)cc3)[C@H](C)O)csc2n1
REMARK SMILES IDX 14 1 13 2 11 3 12 4 10 5 9 6 7 7 8 8 6 10 5 11 1 12 2 13
REMARK SMILES IDX 3 14 88 15 4 16 87 17 86 18 85 19 82 20 83 21 84 22 15 24
REMARK SMILES IDX 16 25 17 26 18 27 19 28 20 29 81 30 21 31 80 32 22 33 23 34
REMARK SMILES IDX 24 35 74 36 25 37 79 38 73 39 75 40 26 41 78 42 72 43 71 44
REMARK SMILES IDX 27 46 59 47 39 48 58 49 40 50 43 51 57 52 76 53 41 54 42 55
REMARK SMILES IDX 56 57 77 58 44 59 28 60 29 61 37 62 30 63 32 64 38 65 31 66
REMARK SMILES IDX 33 67 34 68 35 69 36 70 60 71 61 72 69 73 62 74 64 75 70 76
REMARK SMILES IDX 63 77 65 78 66 79 67 80 68 81 45 82 46 83 54 84 47 85 49 86
REMARK SMILES IDX 55 87 48 88 50 89 51 90 52 91 53 92
REMARK H PARENT 9 9 84 23 75 45 43 56
REMARK Flexibility Score: inf
ROOT
ATOM      1  C   UNL A   1      31.674  28.547  24.769  1.00  0.00     0.274 C 
ENDROOT
BRANCH   1   2
ATOM      2  O   UNL A   1      30.880  27.453  25.280  1.00  0.00    -0.460 OA
BRANCH   2   3
ATOM      3  C   UNL A   1      31.355  26.820  26.391  1.00  0.00     0.331 C 
ATOM      4  O   UNL A   1      31.397  27.320  27.507  1.00  0.00    -0.250 OA
BRANCH   3   5
ATOM      5  C   UNL A   1      31.881  25.404  26.082  1.00  0.00     0.221 C 
BRANCH   5   6
ATOM      6  N   UNL A   1      32.490  25.306  24.742  1.00  0.00    -0.340 N 
ATOM      7  C   UNL A   1      33.797  25.048  24.440  1.00  0.00     0.226 C 
ATOM      8  O   UNL A   1      34.167  25.135  23.269  1.00  0.00    -0.275 OA
ATOM      9  H   UNL A   1      31.886  25.442  23.977  1.00  0.00     0.164 HD
BRANCH   7  10
ATOM     10  C   UNL A   1      34.778  24.693  25.555  1.00  0.00     0.155 C 
BRANCH  10  11
ATOM     11  C   UNL A   1      35.531  23.455  25.185  1.00  0.00     0.044 A 
ATOM     12  C   UNL A   1      32.890  19.219  25.369  1.00  0.00     0.068 C 
ATOM     13  C   UNL A   1      33.881  20.299  25.156  1.00  0.00     0.057 A 
ATOM     14  C   UNL A   1      33.683  21.674  25.195  1.00  0.00     0.117 A 
ATOM     15  N   UNL A   1      35.210  19.996  24.912  1.00  0.00    -0.224 NA
ATOM     16  N   UNL A   1      34.934  22.207  25.078  1.00  0.00    -0.294 N 
ATOM     17  C   UNL A   1      35.784  21.164  24.861  1.00  0.00     0.194 A 
ATOM     18  S   UNL A   1      37.423  21.708  24.707  1.00  0.00    -0.105 S 
ATOM     19  C   UNL A   1      36.866  23.360  25.004  1.00  0.00     0.091 A 
ENDBRANCH  10  11
ENDBRANCH   7  10
ENDBRANCH   5   6
BRANCH   5  20
ATOM     20  C   UNL A   1      30.841  24.288  26.281  1.00  0.00     0.145 C 
ATOM     21  C   UNL A   1      30.610  23.450  25.026  1.00  0.00     0.041 C 
BRANCH  20  22
ATOM     22  O   UNL A   1      29.572  24.890  26.592  1.00  0.00    -0.391 OA
ATOM     23  H   UNL A   1      29.579  25.821  26.317  1.00  0.00     0.211 HD
ENDBRANCH  20  22
ENDBRANCH   5  20
ENDBRANCH   3   5
ENDBRANCH   2   3
ENDBRANCH   1   2
BRANCH   1  24
ATOM     24  C   UNL A   1      31.601  29.755  25.700  1.00  0.00     0.275 C 
BRANCH  24  25
ATOM     25  O   UNL A   1      32.891  30.386  25.766  1.00  0.00    -0.458 OA
BRANCH  25  26
ATOM     26  C   UNL A   1      33.108  31.184  26.832  1.00  0.00     0.338 C 
ATOM     27  O   UNL A   1      32.308  31.937  27.376  1.00  0.00    -0.246 OA
BRANCH  26  28
ATOM     28  C   UNL A   1      34.452  30.931  27.365  1.00  0.00     0.060 A 
ATOM     29  C   UNL A   1      34.818  29.612  27.615  1.00  0.00     0.016 A 
ATOM     30  C   UNL A   1      35.286  31.974  27.760  1.00  0.00     0.016 A 
ATOM     31  C   UNL A   1      35.953  29.330  28.365  1.00  0.00     0.010 A 
ATOM     32  C   UNL A   1      36.492  31.680  28.409  1.00  0.00     0.010 A 
ATOM     33  C   UNL A   1      36.817  30.357  28.764  1.00  0.00    -0.014 A 
BRANCH  33  34
ATOM     34  C   UNL A   1      38.023  30.029  29.580  1.00  0.00     0.031 A 
ATOM     35  C   UNL A   1      39.130  29.183  29.005  1.00  0.00     0.074 A 
ATOM     36  C   UNL A   1      38.150  30.520  30.831  1.00  0.00     0.049 A 
ATOM     37  N   UNL A   1      40.193  28.704  29.599  1.00  0.00    -0.248 NA
ATOM     38  C   UNL A   1      39.021  28.809  27.585  1.00  0.00     0.031 C 
ATOM     39  C   UNL A   1      37.161  31.354  31.517  1.00  0.00     0.029 A 
ATOM     40  N   UNL A   1      39.167  30.398  31.746  1.00  0.00    -0.354 N 
ATOM     41  C   UNL A   1      40.824  27.899  28.659  1.00  0.00     0.074 A 
ATOM     42  C   UNL A   1      40.040  27.971  27.446  1.00  0.00     0.031 C 
ATOM     43  C   UNL A   1      37.640  31.714  32.715  1.00  0.00     0.029 A 
ATOM     44  C   UNL A   1      38.932  31.070  32.924  1.00  0.00     0.049 A 
ATOM     45  H   UNL A   1      39.987  29.880  31.575  1.00  0.00     0.167 HD
ATOM     46  C   UNL A   1      41.959  27.171  28.789  1.00  0.00     0.034 A 
ATOM     47  C   UNL A   1      39.655  31.141  34.060  1.00  0.00     0.034 A 
ATOM     48  C   UNL A   1      42.802  27.185  29.955  1.00  0.00     0.049 A 
ATOM     49  C   UNL A   1      40.950  30.386  34.152  1.00  0.00     0.074 A 
ATOM     50  C   UNL A   1      44.000  26.522  30.157  1.00  0.00     0.029 A 
ATOM     51  N   UNL A   1      42.552  27.917  31.105  1.00  0.00    -0.354 N 
ATOM     52  N   UNL A   1      41.545  29.660  33.237  1.00  0.00    -0.248 NA
ATOM     53  C   UNL A   1      41.674  30.459  35.429  1.00  0.00     0.031 C 
ATOM     54  C   UNL A   1      44.478  26.858  31.429  1.00  0.00     0.029 A 
ATOM     55  C   UNL A   1      43.574  27.728  32.019  1.00  0.00     0.049 A 
ATOM     56  H   UNL A   1      41.762  28.487  31.251  1.00  0.00     0.167 HD
ATOM     57  C   UNL A   1      42.708  29.183  33.829  1.00  0.00     0.074 A 
ATOM     58  C   UNL A   1      42.759  29.742  35.165  1.00  0.00     0.031 C 
ATOM     59  C   UNL A   1      43.631  28.326  33.326  1.00  0.00     0.034 A 
BRANCH  46  60
ATOM     60  C   UNL A   1      42.377  26.316  27.625  1.00  0.00     0.023 A 
ATOM     61  C   UNL A   1      43.215  26.850  26.628  1.00  0.00     0.012 A 
ATOM     62  C   UNL A   1      41.982  24.966  27.548  1.00  0.00     0.148 A 
ATOM     63  C   UNL A   1      43.635  26.060  25.559  1.00  0.00     0.002 A 
ATOM     64  C   UNL A   1      42.433  24.175  26.497  1.00  0.00     0.091 A 
ATOM     65  F   UNL A   1      41.158  24.482  28.489  1.00  0.00    -0.205 F 
ATOM     66  C   UNL A   1      43.254  24.721  25.499  1.00  0.00     0.022 A 
BRANCH  64  67
ATOM     67  S   UNL A   1      42.042  22.424  26.388  1.00  0.00     0.127 S 
ATOM     68  O   UNL A   1      42.600  21.917  27.640  1.00  0.00    -0.237 OA
ATOM     69  O   UNL A   1      40.578  22.430  26.333  1.00  0.00    -0.237 OA
ATOM     70  O   UNL A   1      42.686  21.955  25.169  1.00  0.00    -0.744 OA
ENDBRANCH  64  67
ENDBRANCH  46  60
BRANCH  47  71
ATOM     71  C   UNL A   1      39.168  31.985  35.188  1.00  0.00     0.023 A 
ATOM     72  C   UNL A   1      38.319  31.419  36.158  1.00  0.00     0.012 A 
ATOM     73  C   UNL A   1      39.602  33.315  35.350  1.00  0.00     0.148 A 
ATOM     74  C   UNL A   1      37.910  32.164  37.266  1.00  0.00     0.002 A 
ATOM     75  C   UNL A   1      39.247  34.027  36.489  1.00  0.00     0.091 A 
ATOM     76  F   UNL A   1      40.381  33.852  34.400  1.00  0.00    -0.205 F 
ATOM     77  C   UNL A   1      38.389  33.460  37.443  1.00  0.00     0.022 A 
BRANCH  75  78
ATOM     78  S   UNL A   1      39.981  35.626  36.856  1.00  0.00     0.127 S 
ATOM     79  O   UNL A   1      39.391  35.939  38.154  1.00  0.00    -0.237 OA
ATOM     80  O   UNL A   1      41.411  35.315  36.889  1.00  0.00    -0.237 OA
ATOM     81  O   UNL A   1      39.588  36.482  35.744  1.00  0.00    -0.744 OA
ENDBRANCH  75  78
ENDBRANCH  47  71
BRANCH  59  82
ATOM     82  C   UNL A   1      44.763  27.925  34.232  1.00  0.00     0.023 A 
ATOM     83  C   UNL A   1      45.931  28.714  34.257  1.00  0.00     0.012 A 
ATOM     84  C   UNL A   1      44.657  26.817  35.092  1.00  0.00     0.148 A 
ATOM     85  C   UNL A   1      46.986  28.392  35.109  1.00  0.00     0.002 A 
ATOM     86  C   UNL A   1      45.699  26.522  35.964  1.00  0.00     0.091 A 
ATOM     87  F   UNL A   1      43.550  26.063  35.037  1.00  0.00    -0.205 F 
ATOM     88  C   UNL A   1      46.867  27.303  35.969  1.00  0.00     0.022 A 
BRANCH  86  89
ATOM     89  S   UNL A   1      45.581  25.179  37.151  1.00  0.00     0.127 S 
ATOM     90  O   UNL A   1      44.316  25.477  37.818  1.00  0.00    -0.237 OA
ATOM     91  O   UNL A   1      45.551  23.993  36.292  1.00  0.00    -0.237 OA
ATOM     92  O   UNL A   1      46.778  25.286  37.976  1.00  0.00    -0.744 OA
ENDBRANCH  86  89
ENDBRANCH  59  82
ENDBRANCH  33  34
ENDBRANCH  26  28
ENDBRANCH  25  26
ENDBRANCH  24  25
ENDBRANCH   1  24
TORSDOF 19
ENDMDL
MODEL 2
REMARK VINA RESULT:     -11.0      5.089      7.546
REMARK SMILES Cc1cn2c(CC(=O)N[C@@H](C(=O)OCCOC(=O)c3ccc(-c4c5nc(c(-c6cccc(S(=O)(=O)[O-])c6F)c6ccc([nH]6)c(-c6cccc(S(=O)(=O)[O-])c6F)c6nc(c(-c7cccc(S(=O)(=O)[O-])c7F)c7ccc4[nH]7)C=C6)C=C5)cc3)[C@H](C)O)csc2n1
REMARK SMILES IDX 14 1 13 2 11 3 12 4 10 5 9 6 7 7 8 8 6 10 5 11 1 12 2 13
REMARK SMILES IDX 3 14 88 15 4 16 87 17 86 18 85 19 82 20 83 21 84 22 15 24
REMARK SMILES IDX 16 25 17 26 18 27 19 28 20 29 81 30 21 31 80 32 22 33 23 34
REMARK SMILES IDX 24 35 74 36 25 37 79 38 73 39 75 40 26 41 78 42 72 43 71 44
REMARK SMILES IDX 27 46 59 47 39 48 58 49 40 50 43 51 57 52 76 53 41 54 42 55
REMARK SMILES IDX 56 57 77 58 44 59 28 60 29 61 37 62 30 63 32 64 38 65 31 66
REMARK SMILES IDX 33 67 34 68 35 69 36 70 60 71 61 72 69 73 62 74 64 75 70 76
REMARK SMILES IDX 63 77 65 78 66 79 67 80 68 81 45 82 46 83 54 84 47 85 49 86
REMARK SMILES IDX 55 87 48 88 50 89 51 90 52 91 53 92
REMARK H PARENT 9 9 84 23 75 45 43 56
REMARK Flexibility Score: inf
ROOT
ATOM      1  C   UNL A   1      35.327  21.396  24.721  1.00  0.00     0.274 C 
ENDROOT
BRANCH   1   2
ATOM      2  O   UNL A   1      34.226  20.490  24.483  1.00  0.00    -0.460 OA
BRANCH   2   3
ATOM      3  C   UNL A   1      32.980  20.949  24.791  1.00  0.00     0.331 C 
ATOM      4  O   UNL A   1      32.113  20.281  25.340  1.00  0.00    -0.250 OA
BRANCH   3   5
ATOM      5  C   UNL A   1      32.757  22.403  24.331  1.00  0.00     0.221 C 
BRANCH   5   6
ATOM      6  N   UNL A   1      31.962  23.187  25.295  1.00  0.00    -0.340 N 
ATOM      7  C   UNL A   1      32.376  24.253  26.042  1.00  0.00     0.226 C 
ATOM      8  O   UNL A   1      31.621  24.709  26.901  1.00  0.00    -0.275 OA
ATOM      9  H   UNL A   1      31.026  22.910  25.415  1.00  0.00     0.164 HD
BRANCH   7  10
ATOM     10  C   UNL A   1      33.771  24.836  25.825  1.00  0.00     0.155 C 
BRANCH  10  11
ATOM     11  C   UNL A   1      33.685  26.017  24.912  1.00  0.00     0.044 A 
ATOM     12  C   UNL A   1      32.256  30.287  27.075  1.00  0.00     0.068 C 
ATOM     13  C   UNL A   1      32.764  29.208  26.195  1.00  0.00     0.057 A 
ATOM     14  C   UNL A   1      33.181  27.931  26.546  1.00  0.00     0.117 A 
ATOM     15  N   UNL A   1      32.837  29.396  24.825  1.00  0.00    -0.224 NA
ATOM     16  N   UNL A   1      33.409  27.302  25.357  1.00  0.00    -0.294 N 
ATOM     17  C   UNL A   1      33.238  28.238  24.381  1.00  0.00     0.194 A 
ATOM     18  S   UNL A   1      33.486  27.560  22.805  1.00  0.00    -0.105 S 
ATOM     19  C   UNL A   1      33.766  25.987  23.564  1.00  0.00     0.091 A 
ENDBRANCH  10  11
ENDBRANCH   7  10
ENDBRANCH   5   6
BRANCH   5  20
ATOM     20  C   UNL A   1      32.166  22.534  22.917  1.00  0.00     0.145 C 
ATOM     21  C   UNL A   1      33.178  23.023  21.884  1.00  0.00     0.041 C 
BRANCH  20  22
ATOM     22  O   UNL A   1      31.120  23.523  22.944  1.00  0.00    -0.391 OA
ATOM     23  H   UNL A   1      30.343  23.186  22.470  1.00  0.00     0.211 HD
ENDBRANCH  20  22
ENDBRANCH   5  20
ENDBRANCH   3   5
ENDBRANCH   2   3
ENDBRANCH   1   2
BRANCH   1  24
ATOM     24  C   UNL A   1      36.527  20.653  25.304  1.00  0.00     0.275 C 
BRANCH  24  25
ATOM     25  O   UNL A   1      37.728  21.391  25.025  1.00  0.00    -0.458 OA
BRANCH  25  26
ATOM     26  C   UNL A   1      38.809  21.069  25.765  1.00  0.00     0.338 C 
ATOM     27  O   UNL A   1      39.373  19.983  25.828  1.00  0.00    -0.246 OA
BRANCH  26  28
ATOM     28  C   UNL A   1      39.329  22.276  26.420  1.00  0.00     0.060 A 
ATOM     29  C   UNL A   1      38.722  23.492  26.125  1.00  0.00     0.016 A 
ATOM     30  C   UNL A   1      40.488  22.242  27.191  1.00  0.00     0.016 A 
ATOM     31  C   UNL A   1      39.330  24.686  26.490  1.00  0.00     0.010 A 
ATOM     32  C   UNL A   1      41.032  23.444  27.663  1.00  0.00     0.010 A 
ATOM     33  C   UNL A   1      40.489  24.683  27.277  1.00  0.00    -0.014 A 
BRANCH  33  34
ATOM     34  C   UNL A   1      41.131  25.979  27.647  1.00  0.00     0.031 A 
ATOM     35  C   UNL A   1      42.516  26.316  27.157  1.00  0.00     0.074 A 
ATOM     36  C   UNL A   1      40.459  26.880  28.394  1.00  0.00     0.049 A 
ATOM     37  N   UNL A   1      43.273  27.336  27.466  1.00  0.00    -0.248 NA
ATOM     38  C   UNL A   1      43.142  25.375  26.213  1.00  0.00     0.031 C 
ATOM     39  C   UNL A   1      39.112  26.693  28.936  1.00  0.00     0.029 A 
ATOM     40  N   UNL A   1      40.812  28.138  28.820  1.00  0.00    -0.354 N 
ATOM     41  C   UNL A   1      44.491  27.113  26.837  1.00  0.00     0.074 A 
ATOM     42  C   UNL A   1      44.366  25.871  26.105  1.00  0.00     0.031 C 
ATOM     43  C   UNL A   1      38.731  27.810  29.571  1.00  0.00     0.029 A 
ATOM     44  C   UNL A   1      39.834  28.764  29.559  1.00  0.00     0.049 A 
ATOM     45  H   UNL A   1      41.682  28.552  28.615  1.00  0.00     0.167 HD
ATOM     46  C   UNL A   1      45.610  27.875  26.856  1.00  0.00     0.034 A 
ATOM     47  C   UNL A   1      39.828  29.958  30.184  1.00  0.00     0.034 A 
ATOM     48  C   UNL A   1      45.702  29.165  27.488  1.00  0.00     0.049 A 
ATOM     49  C   UNL A   1      41.056  30.821  30.127  1.00  0.00     0.074 A 
ATOM     50  C   UNL A   1      46.779  30.035  27.513  1.00  0.00     0.029 A 
ATOM     51  N   UNL A   1      44.674  29.782  28.183  1.00  0.00    -0.354 N 
ATOM     52  N   UNL A   1      42.184  30.605  29.494  1.00  0.00    -0.248 NA
ATOM     53  C   UNL A   1      41.013  32.091  30.866  1.00  0.00     0.031 C 
ATOM     54  C   UNL A   1      46.398  31.182  28.219  1.00  0.00     0.029 A 
ATOM     55  C   UNL A   1      45.086  31.023  28.636  1.00  0.00     0.049 A 
ATOM     56  H   UNL A   1      43.781  29.393  28.332  1.00  0.00     0.167 HD
ATOM     57  C   UNL A   1      42.987  31.705  29.765  1.00  0.00     0.074 A 
ATOM     58  C   UNL A   1      42.200  32.610  30.578  1.00  0.00     0.031 C 
ATOM     59  C   UNL A   1      44.276  31.929  29.406  1.00  0.00     0.034 A 
BRANCH  46  60
ATOM     60  C   UNL A   1      46.826  27.349  26.144  1.00  0.00     0.023 A 
ATOM     61  C   UNL A   1      47.663  26.416  26.783  1.00  0.00     0.012 A 
ATOM     62  C   UNL A   1      47.108  27.740  24.820  1.00  0.00     0.148 A 
ATOM     63  C   UNL A   1      48.777  25.896  26.124  1.00  0.00     0.002 A 
ATOM     64  C   UNL A   1      48.200  27.192  24.158  1.00  0.00     0.091 A 
ATOM     65  F   UNL A   1      46.318  28.654  24.238  1.00  0.00    -0.205 F 
ATOM     66  C   UNL A   1      49.039  26.275  24.810  1.00  0.00     0.022 A 
BRANCH  64  67
ATOM     67  S   UNL A   1      48.563  27.577  22.440  1.00  0.00     0.127 S 
ATOM     68  O   UNL A   1      48.714  26.244  21.862  1.00  0.00    -0.237 OA
ATOM     69  O   UNL A   1      47.357  28.292  22.015  1.00  0.00    -0.237 OA
ATOM     70  O   UNL A   1      49.766  28.398  22.470  1.00  0.00    -0.744 OA
ENDBRANCH  64  67
ENDBRANCH  46  60
BRANCH  47  71
ATOM     71  C   UNL A   1      38.599  30.407  30.898  1.00  0.00     0.023 A 
ATOM     72  C   UNL A   1      38.501  30.223  32.290  1.00  0.00     0.012 A 
ATOM     73  C   UNL A   1      37.565  31.084  30.222  1.00  0.00     0.148 A 
ATOM     74  C   UNL A   1      37.395  30.703  32.995  1.00  0.00     0.002 A 
ATOM     75  C   UNL A   1      36.501  31.618  30.939  1.00  0.00     0.091 A 
ATOM     76  F   UNL A   1      37.654  31.220  28.891  1.00  0.00    -0.205 F 
ATOM     77  C   UNL A   1      36.405  31.418  32.323  1.00  0.00     0.022 A 
BRANCH  75  78
ATOM     78  S   UNL A   1      35.298  32.700  30.155  1.00  0.00     0.127 S 
ATOM     79  O   UNL A   1      34.437  33.058  31.278  1.00  0.00    -0.237 OA
ATOM     80  O   UNL A   1      36.137  33.789  29.651  1.00  0.00    -0.237 OA
ATOM     81  O   UNL A   1      34.691  31.889  29.108  1.00  0.00    -0.744 OA
ENDBRANCH  75  78
ENDBRANCH  47  71
BRANCH  59  82
ATOM     82  C   UNL A   1      44.921  33.191  29.908  1.00  0.00     0.023 A 
ATOM     83  C   UNL A   1      45.630  33.159  31.125  1.00  0.00     0.012 A 
ATOM     84  C   UNL A   1      44.879  34.383  29.162  1.00  0.00     0.148 A 
ATOM     85  C   UNL A   1      46.270  34.302  31.604  1.00  0.00     0.002 A 
ATOM     86  C   UNL A   1      45.548  35.509  29.629  1.00  0.00     0.091 A 
ATOM     87  F   UNL A   1      44.178  34.403  28.019  1.00  0.00    -0.205 F 
ATOM     88  C   UNL A   1      46.238  35.473  30.852  1.00  0.00     0.022 A 
BRANCH  86  89
ATOM     89  S   UNL A   1      45.610  37.030  28.673  1.00  0.00     0.127 S 
ATOM     90  O   UNL A   1      46.229  37.955  29.620  1.00  0.00    -0.237 OA
ATOM     91  O   UNL A   1      46.461  36.662  27.540  1.00  0.00    -0.237 OA
ATOM     92  O   UNL A   1      44.228  37.317  28.313  1.00  0.00    -0.744 OA
ENDBRANCH  86  89
ENDBRANCH  59  82
ENDBRANCH  33  34
ENDBRANCH  26  28
ENDBRANCH  25  26
ENDBRANCH  24  25
ENDBRANCH   1  24
TORSDOF 19
ENDMDL
MODEL 3
REMARK VINA RESULT:     -11.0      0.785      7.831
REMARK SMILES Cc1cn2c(CC(=O)N[C@@H](C(=O)OCCOC(=O)c3ccc(-c4c5nc(c(-c6cccc(S(=O)(=O)[O-])c6F)c6ccc([nH]6)c(-c6cccc(S(=O)(=O)[O-])c6F)c6nc(c(-c7cccc(S(=O)(=O)[O-])c7F)c7ccc4[nH]7)C=C6)C=C5)cc3)[C@H](C)O)csc2n1
REMARK SMILES IDX 14 1 13 2 11 3 12 4 10 5 9 6 7 7 8 8 6 10 5 11 1 12 2 13
REMARK SMILES IDX 3 14 88 15 4 16 87 17 86 18 85 19 82 20 83 21 84 22 15 24
REMARK SMILES IDX 16 25 17 26 18 27 19 28 20 29 81 30 21 31 80 32 22 33 23 34
REMARK SMILES IDX 24 35 74 36 25 37 79 38 73 39 75 40 26 41 78 42 72 43 71 44
REMARK SMILES IDX 27 46 59 47 39 48 58 49 40 50 43 51 57 52 76 53 41 54 42 55
REMARK SMILES IDX 56 57 77 58 44 59 28 60 29 61 37 62 30 63 32 64 38 65 31 66
REMARK SMILES IDX 33 67 34 68 35 69 36 70 60 71 61 72 69 73 62 74 64 75 70 76
REMARK SMILES IDX 63 77 65 78 66 79 67 80 68 81 45 82 46 83 54 84 47 85 49 86
REMARK SMILES IDX 55 87 48 88 50 89 51 90 52 91 53 92
REMARK H PARENT 9 9 84 23 75 45 43 56
REMARK Flexibility Score: inf
ROOT
ATOM      1  C   UNL A   1      32.024  29.522  24.886  1.00  0.00     0.274 C 
ENDROOT
BRANCH   1   2
ATOM      2  O   UNL A   1      31.155  28.377  25.035  1.00  0.00    -0.460 OA
BRANCH   2   3
ATOM      3  C   UNL A   1      31.081  27.523  23.975  1.00  0.00     0.331 C 
ATOM      4  O   UNL A   1      30.595  27.809  22.888  1.00  0.00    -0.250 OA
BRANCH   3   5
ATOM      5  C   UNL A   1      31.643  26.125  24.304  1.00  0.00     0.221 C 
BRANCH   5   6
ATOM      6  N   UNL A   1      32.527  25.606  23.243  1.00  0.00    -0.340 N 
ATOM      7  C   UNL A   1      33.793  25.113  23.383  1.00  0.00     0.226 C 
ATOM      8  O   UNL A   1      34.444  24.845  22.374  1.00  0.00    -0.275 OA
ATOM      9  H   UNL A   1      32.163  25.616  22.329  1.00  0.00     0.164 HD
BRANCH   7  10
ATOM     10  C   UNL A   1      34.389  24.936  24.778  1.00  0.00     0.155 C 
BRANCH  10  11
ATOM     11  C   UNL A   1      35.234  23.702  24.810  1.00  0.00     0.044 A 
ATOM     12  C   UNL A   1      32.713  19.392  24.956  1.00  0.00     0.068 C 
ATOM     13  C   UNL A   1      33.706  20.486  24.841  1.00  0.00     0.057 A 
ATOM     14  C   UNL A   1      33.481  21.838  24.617  1.00  0.00     0.117 A 
ATOM     15  N   UNL A   1      35.058  20.227  24.998  1.00  0.00    -0.224 NA
ATOM     16  N   UNL A   1      34.708  22.420  24.746  1.00  0.00    -0.294 N 
ATOM     17  C   UNL A   1      35.605  21.407  24.918  1.00  0.00     0.194 A 
ATOM     18  S   UNL A   1      37.216  22.016  25.110  1.00  0.00    -0.105 S 
ATOM     19  C   UNL A   1      36.571  23.659  24.996  1.00  0.00     0.091 A 
ENDBRANCH  10  11
ENDBRANCH   7  10
ENDBRANCH   5   6
BRANCH   5  20
ATOM     20  C   UNL A   1      30.571  25.084  24.666  1.00  0.00     0.145 C 
ATOM     21  C   UNL A   1      30.270  24.110  23.530  1.00  0.00     0.041 C 
BRANCH  20  22
ATOM     22  O   UNL A   1      29.334  25.769  24.936  1.00  0.00    -0.391 OA
ATOM     23  H   UNL A   1      29.318  26.056  25.863  1.00  0.00     0.211 HD
ENDBRANCH  20  22
ENDBRANCH   5  20
ENDBRANCH   3   5
ENDBRANCH   2   3
ENDBRANCH   1   2
BRANCH   1  24
ATOM     24  C   UNL A   1      31.564  30.674  25.775  1.00  0.00     0.275 C 
BRANCH  24  25
ATOM     25  O   UNL A   1      32.310  30.656  27.005  1.00  0.00    -0.458 OA
BRANCH  25  26
ATOM     26  C   UNL A   1      33.061  31.747  27.259  1.00  0.00     0.338 C 
ATOM     27  O   UNL A   1      32.704  32.919  27.246  1.00  0.00    -0.246 OA
BRANCH  26  28
ATOM     28  C   UNL A   1      34.397  31.327  27.701  1.00  0.00     0.060 A 
ATOM     29  C   UNL A   1      34.603  29.976  27.963  1.00  0.00     0.016 A 
ATOM     30  C   UNL A   1      35.388  32.256  28.004  1.00  0.00     0.016 A 
ATOM     31  C   UNL A   1      35.743  29.559  28.637  1.00  0.00     0.010 A 
ATOM     32  C   UNL A   1      36.590  31.815  28.573  1.00  0.00     0.010 A 
ATOM     33  C   UNL A   1      36.763  30.469  28.942  1.00  0.00    -0.014 A 
BRANCH  33  34
ATOM     34  C   UNL A   1      37.973  29.998  29.678  1.00  0.00     0.031 A 
ATOM     35  C   UNL A   1      38.189  30.377  31.121  1.00  0.00     0.074 A 
ATOM     36  C   UNL A   1      38.870  29.195  29.067  1.00  0.00     0.049 A 
ATOM     37  N   UNL A   1      39.229  30.157  31.884  1.00  0.00    -0.248 NA
ATOM     38  C   UNL A   1      37.105  31.117  31.790  1.00  0.00     0.031 C 
ATOM     39  C   UNL A   1      38.791  28.744  27.676  1.00  0.00     0.029 A 
ATOM     40  N   UNL A   1      40.018  28.607  29.538  1.00  0.00    -0.354 N 
ATOM     41  C   UNL A   1      38.968  30.809  33.083  1.00  0.00     0.074 A 
ATOM     42  C   UNL A   1      37.659  31.414  32.958  1.00  0.00     0.031 C 
ATOM     43  C   UNL A   1      39.808  27.910  27.423  1.00  0.00     0.029 A 
ATOM     44  C   UNL A   1      40.663  27.829  28.603  1.00  0.00     0.049 A 
ATOM     45  H   UNL A   1      40.348  28.728  30.457  1.00  0.00     0.167 HD
ATOM     46  C   UNL A   1      39.741  30.891  34.191  1.00  0.00     0.034 A 
ATOM     47  C   UNL A   1      41.825  27.149  28.668  1.00  0.00     0.034 A 
ATOM     48  C   UNL A   1      40.991  30.199  34.361  1.00  0.00     0.049 A 
ATOM     49  C   UNL A   1      42.627  27.192  29.937  1.00  0.00     0.074 A 
ATOM     50  C   UNL A   1      41.818  30.178  35.471  1.00  0.00     0.029 A 
ATOM     51  N   UNL A   1      41.581  29.384  33.407  1.00  0.00    -0.354 N 
ATOM     52  N   UNL A   1      42.343  27.787  31.070  1.00  0.00    -0.248 NA
ATOM     53  C   UNL A   1      43.909  26.473  29.938  1.00  0.00     0.031 C 
ATOM     54  C   UNL A   1      42.907  29.345  35.190  1.00  0.00     0.029 A 
ATOM     55  C   UNL A   1      42.758  28.851  33.903  1.00  0.00     0.049 A 
ATOM     56  H   UNL A   1      41.217  29.212  32.509  1.00  0.00     0.167 HD
ATOM     57  C   UNL A   1      43.412  27.521  31.916  1.00  0.00     0.074 A 
ATOM     58  C   UNL A   1      44.327  26.671  31.182  1.00  0.00     0.031 C 
ATOM     59  C   UNL A   1      43.635  27.972  33.175  1.00  0.00     0.034 A 
BRANCH  46  60
ATOM     60  C   UNL A   1      39.243  31.740  35.329  1.00  0.00     0.023 A 
ATOM     61  C   UNL A   1      38.336  31.201  36.260  1.00  0.00     0.012 A 
ATOM     62  C   UNL A   1      39.717  33.055  35.504  1.00  0.00     0.148 A 
ATOM     63  C   UNL A   1      37.889  31.966  37.337  1.00  0.00     0.002 A 
ATOM     64  C   UNL A   1      39.293  33.799  36.599  1.00  0.00     0.091 A 
ATOM     65  F   UNL A   1      40.556  33.563  34.589  1.00  0.00    -0.205 F 
ATOM     66  C   UNL A   1      38.375  33.260  37.512  1.00  0.00     0.022 A 
BRANCH  64  67
ATOM     67  S   UNL A   1      39.928  35.448  36.931  1.00  0.00     0.127 S 
ATOM     68  O   UNL A   1      41.364  35.198  37.035  1.00  0.00    -0.237 OA
ATOM     69  O   UNL A   1      39.525  36.189  35.734  1.00  0.00    -0.237 OA
ATOM     70  O   UNL A   1      39.268  35.881  38.155  1.00  0.00    -0.744 OA
ENDBRANCH  64  67
ENDBRANCH  46  60
BRANCH  47  71
ATOM     71  C   UNL A   1      42.275  26.350  27.493  1.00  0.00     0.023 A 
ATOM     72  C   UNL A   1      43.156  26.930  26.560  1.00  0.00     0.012 A 
ATOM     73  C   UNL A   1      41.903  25.001  27.336  1.00  0.00     0.148 A 
ATOM     74  C   UNL A   1      43.654  26.180  25.492  1.00  0.00     0.002 A 
ATOM     75  C   UNL A   1      42.456  24.242  26.312  1.00  0.00     0.091 A 
ATOM     76  F   UNL A   1      41.035  24.473  28.212  1.00  0.00    -0.205 F 
ATOM     77  C   UNL A   1      43.321  24.833  25.379  1.00  0.00     0.022 A 
BRANCH  75  78
ATOM     78  S   UNL A   1      42.206  22.465  26.228  1.00  0.00     0.127 S 
ATOM     79  O   UNL A   1      42.741  22.024  27.513  1.00  0.00    -0.237 OA
ATOM     80  O   UNL A   1      40.752  22.358  26.097  1.00  0.00    -0.237 OA
ATOM     81  O   UNL A   1      42.938  22.039  25.042  1.00  0.00    -0.744 OA
ENDBRANCH  75  78
ENDBRANCH  47  71
BRANCH  59  82
ATOM     82  C   UNL A   1      44.929  27.574  33.830  1.00  0.00     0.023 A 
ATOM     83  C   UNL A   1      46.052  28.413  33.692  1.00  0.00     0.012 A 
ATOM     84  C   UNL A   1      45.024  26.415  34.622  1.00  0.00     0.148 A 
ATOM     85  C   UNL A   1      47.258  28.093  34.314  1.00  0.00     0.002 A 
ATOM     86  C   UNL A   1      46.219  26.119  35.267  1.00  0.00     0.091 A 
ATOM     87  F   UNL A   1      43.952  25.614  34.722  1.00  0.00    -0.205 F 
ATOM     88  C   UNL A   1      47.339  26.952  35.109  1.00  0.00     0.022 A 
BRANCH  86  89
ATOM     89  S   UNL A   1      46.371  24.706  36.367  1.00  0.00     0.127 S 
ATOM     90  O   UNL A   1      46.117  23.590  35.459  1.00  0.00    -0.237 OA
ATOM     91  O   UNL A   1      47.756  24.808  36.831  1.00  0.00    -0.237 OA
ATOM     92  O   UNL A   1      45.376  24.919  37.410  1.00  0.00    -0.744 OA
ENDBRANCH  86  89
ENDBRANCH  59  82
ENDBRANCH  33  34
ENDBRANCH  26  28
ENDBRANCH  25  26
ENDBRANCH  24  25
ENDBRANCH   1  24
TORSDOF 19
ENDMDL
