MODEL 1
REMARK VINA RESULT:     -11.2      0.000      0.000
REMARK SMILES CC[C@H](C)[C@H](Nc1ncnc2scc(-c3ccccc3)c12)C(=O)OCCOC(=O)c1ccc(-c2c3nc(c(-c4cccc(S(=O)(=O)[O-])c4F)c4ccc([nH]4)c(-c4cccc(S(=O)(=O)[O-])c4F)c4nc(c(-c5cccc(S(=O)(=O)[O-])c5F)c5ccc2[nH]5)C=C4)C=C3)cc1
REMARK SMILES IDX 25 1 24 2 22 3 23 4 5 5 3 6 4 7 2 8 1 9 6 10 7 12 8 13 21 14
REMARK SMILES IDX 9 15 11 16 14 17 10 18 12 19 13 20 15 21 16 22 20 23 17 24
REMARK SMILES IDX 19 25 18 26 26 27 27 28 28 29 29 30 30 31 31 32 92 33 32 34
REMARK SMILES IDX 91 35 33 36 34 37 35 38 85 39 36 40 90 41 84 42 86 43 37 44
REMARK SMILES IDX 89 45 83 46 82 47 38 49 70 50 50 51 69 52 51 53 54 54 68 55
REMARK SMILES IDX 87 56 52 57 53 58 67 60 88 61 55 62 39 63 40 64 48 65 41 66
REMARK SMILES IDX 43 67 49 68 42 69 44 70 45 71 46 72 47 73 71 74 72 75 80 76
REMARK SMILES IDX 73 77 75 78 81 79 74 80 76 81 77 82 78 83 79 84 56 85 57 86
REMARK SMILES IDX 65 87 58 88 60 89 66 90 59 91 61 92 62 93 63 94 64 95
REMARK H PARENT 6 11 86 48 54 59
REMARK Flexibility Score: inf
ROOT
ATOM      1  C   UNL A   1      37.008  22.543  23.353  1.00  0.00     0.274 C 
ENDROOT
BRANCH   1   2
ATOM      2  O   UNL A   1      35.702  23.028  22.992  1.00  0.00    -0.461 OA
BRANCH   2   3
ATOM      3  C   UNL A   1      35.021  23.676  23.982  1.00  0.00     0.328 C 
ATOM      4  O   UNL A   1      35.553  24.411  24.807  1.00  0.00    -0.250 OA
BRANCH   3   5
ATOM      5  C   UNL A   1      33.496  23.462  23.895  1.00  0.00     0.194 C 
BRANCH   5   6
ATOM      6  C   UNL A   1      33.189  21.995  23.462  1.00  0.00     0.019 C 
ATOM      7  C   UNL A   1      33.301  21.033  24.649  1.00  0.00     0.010 C 
BRANCH   6   8
ATOM      8  C   UNL A   1      31.833  21.887  22.735  1.00  0.00     0.002 C 
ATOM      9  C   UNL A   1      31.782  20.858  21.617  1.00  0.00     0.004 C 
ENDBRANCH   6   8
ENDBRANCH   5   6
BRANCH   5  10
ATOM     10  N   UNL A   1      32.835  24.429  23.020  1.00  0.00    -0.356 N 
ATOM     11  H   UNL A   1      32.146  24.115  22.389  1.00  0.00     0.163 HD
BRANCH  10  12
ATOM     12  C   UNL A   1      33.154  25.769  23.055  1.00  0.00     0.139 A 
ATOM     13  N   UNL A   1      33.721  26.342  21.970  1.00  0.00    -0.219 NA
ATOM     14  C   UNL A   1      32.942  26.572  24.198  1.00  0.00     0.062 A 
ATOM     15  C   UNL A   1      34.023  27.648  21.994  1.00  0.00     0.225 A 
ATOM     16  C   UNL A   1      33.339  27.897  24.092  1.00  0.00     0.129 A 
ATOM     17  C   UNL A   1      32.410  26.310  25.516  1.00  0.00     0.006 A 
ATOM     18  N   UNL A   1      33.874  28.494  23.014  1.00  0.00    -0.225 NA
ATOM     19  S   UNL A   1      33.095  28.783  25.529  1.00  0.00    -0.123 S 
ATOM     20  C   UNL A   1      32.455  27.420  26.334  1.00  0.00     0.076 A 
BRANCH  17  21
ATOM     21  C   UNL A   1      31.884  25.051  26.011  1.00  0.00    -0.017 A 
ATOM     22  C   UNL A   1      32.696  24.216  26.787  1.00  0.00     0.009 A 
ATOM     23  C   UNL A   1      30.540  24.722  25.809  1.00  0.00     0.009 A 
ATOM     24  C   UNL A   1      32.158  23.068  27.372  1.00  0.00     0.001 A 
ATOM     25  C   UNL A   1      30.003  23.580  26.405  1.00  0.00     0.001 A 
ATOM     26  C   UNL A   1      30.811  22.757  27.189  1.00  0.00     0.000 A 
ENDBRANCH  17  21
ENDBRANCH  10  12
ENDBRANCH   5  10
ENDBRANCH   3   5
ENDBRANCH   2   3
ENDBRANCH   1   2
BRANCH   1  27
ATOM     27  C   UNL A   1      36.908  21.290  24.227  1.00  0.00     0.275 C 
BRANCH  27  28
ATOM     28  O   UNL A   1      37.254  21.572  25.595  1.00  0.00    -0.458 OA
BRANCH  28  29
ATOM     29  C   UNL A   1      38.539  21.301  25.926  1.00  0.00     0.338 C 
ATOM     30  O   UNL A   1      39.141  20.257  25.753  1.00  0.00    -0.246 OA
BRANCH  29  31
ATOM     31  C   UNL A   1      39.171  22.495  26.504  1.00  0.00     0.060 A 
ATOM     32  C   UNL A   1      38.677  23.754  26.158  1.00  0.00     0.016 A 
ATOM     33  C   UNL A   1      40.332  22.378  27.266  1.00  0.00     0.016 A 
ATOM     34  C   UNL A   1      39.379  24.901  26.505  1.00  0.00     0.010 A 
ATOM     35  C   UNL A   1      41.001  23.537  27.672  1.00  0.00     0.010 A 
ATOM     36  C   UNL A   1      40.548  24.805  27.268  1.00  0.00    -0.014 A 
BRANCH  36  37
ATOM     37  C   UNL A   1      41.297  26.036  27.621  1.00  0.00     0.031 A 
ATOM     38  C   UNL A   1      40.630  27.121  28.418  1.00  0.00     0.074 A 
ATOM     39  C   UNL A   1      42.577  26.173  27.223  1.00  0.00     0.049 A 
ATOM     40  N   UNL A   1      41.081  28.305  28.735  1.00  0.00    -0.248 NA
ATOM     41  C   UNL A   1      39.274  26.841  28.920  1.00  0.00     0.031 C 
ATOM     42  C   UNL A   1      43.333  25.179  26.459  1.00  0.00     0.029 A 
ATOM     43  N   UNL A   1      43.463  27.205  27.395  1.00  0.00    -0.354 N 
ATOM     44  C   UNL A   1      40.048  28.936  29.417  1.00  0.00     0.074 A 
ATOM     45  C   UNL A   1      38.947  27.998  29.480  1.00  0.00     0.031 C 
ATOM     46  C   UNL A   1      44.570  25.648  26.232  1.00  0.00     0.029 A 
ATOM     47  C   UNL A   1      44.676  26.994  26.783  1.00  0.00     0.049 A 
ATOM     48  H   UNL A   1      43.251  28.019  27.906  1.00  0.00     0.167 HD
ATOM     49  C   UNL A   1      40.024  30.179  29.952  1.00  0.00     0.034 A 
ATOM     50  C   UNL A   1      45.744  27.804  26.655  1.00  0.00     0.034 A 
ATOM     51  C   UNL A   1      41.143  31.082  29.944  1.00  0.00     0.049 A 
ATOM     52  C   UNL A   1      45.693  29.175  27.269  1.00  0.00     0.074 A 
ATOM     53  C   UNL A   1      41.235  32.346  30.500  1.00  0.00     0.029 A 
ATOM     54  N   UNL A   1      42.370  30.814  29.355  1.00  0.00    -0.354 N 
ATOM     55  N   UNL A   1      44.734  29.727  27.975  1.00  0.00    -0.248 NA
ATOM     56  C   UNL A   1      46.873  30.031  27.084  1.00  0.00     0.031 C 
ATOM     57  C   UNL A   1      42.517  32.844  30.242  1.00  0.00     0.029 A 
ATOM     58  C   UNL A   1      43.225  31.888  29.531  1.00  0.00     0.049 A 
ATOM     59  H   UNL A   1      42.600  29.982  28.881  1.00  0.00     0.167 HD
ATOM     60  C   UNL A   1      45.203  30.984  28.336  1.00  0.00     0.074 A 
ATOM     61  C   UNL A   1      46.542  31.102  27.793  1.00  0.00     0.031 C 
ATOM     62  C   UNL A   1      44.574  31.963  29.032  1.00  0.00     0.034 A 
BRANCH  49  63
ATOM     63  C   UNL A   1      38.753  30.630  30.621  1.00  0.00     0.023 A 
ATOM     64  C   UNL A   1      38.599  30.459  32.010  1.00  0.00     0.012 A 
ATOM     65  C   UNL A   1      37.737  31.270  29.884  1.00  0.00     0.148 A 
ATOM     66  C   UNL A   1      37.442  30.898  32.654  1.00  0.00     0.002 A 
ATOM     67  C   UNL A   1      36.602  31.735  30.539  1.00  0.00     0.091 A 
ATOM     68  F   UNL A   1      37.890  31.398  28.558  1.00  0.00    -0.205 F 
ATOM     69  C   UNL A   1      36.449  31.544  31.922  1.00  0.00     0.022 A 
BRANCH  67  70
ATOM     70  S   UNL A   1      35.302  32.637  29.686  1.00  0.00     0.127 S 
ATOM     71  O   UNL A   1      36.047  33.753  29.106  1.00  0.00    -0.237 OA
ATOM     72  O   UNL A   1      34.825  31.651  28.714  1.00  0.00    -0.237 OA
ATOM     73  O   UNL A   1      34.328  32.993  30.709  1.00  0.00    -0.744 OA
ENDBRANCH  67  70
ENDBRANCH  49  63
BRANCH  50  74
ATOM     74  C   UNL A   1      46.961  27.320  25.945  1.00  0.00     0.023 A 
ATOM     75  C   UNL A   1      47.103  27.580  24.568  1.00  0.00     0.012 A 
ATOM     76  C   UNL A   1      47.996  26.653  26.628  1.00  0.00     0.148 A 
ATOM     77  C   UNL A   1      48.247  27.168  23.883  1.00  0.00     0.002 A 
ATOM     78  C   UNL A   1      49.157  26.296  25.951  1.00  0.00     0.091 A 
ATOM     79  F   UNL A   1      47.834  26.391  27.933  1.00  0.00    -0.205 F 
ATOM     80  C   UNL A   1      49.279  26.540  24.575  1.00  0.00     0.022 A 
BRANCH  78  81
ATOM     81  S   UNL A   1      50.583  25.614  26.805  1.00  0.00     0.127 S 
ATOM     82  O   UNL A   1      50.005  24.455  27.477  1.00  0.00    -0.237 OA
ATOM     83  O   UNL A   1      51.487  25.299  25.698  1.00  0.00    -0.237 OA
ATOM     84  O   UNL A   1      51.058  26.686  27.672  1.00  0.00    -0.744 OA
ENDBRANCH  78  81
ENDBRANCH  50  74
BRANCH  62  85
ATOM     85  C   UNL A   1      45.329  33.242  29.264  1.00  0.00     0.023 A 
ATOM     86  C   UNL A   1      46.186  33.347  30.377  1.00  0.00     0.012 A 
ATOM     87  C   UNL A   1      45.252  34.306  28.345  1.00  0.00     0.148 A 
ATOM     88  C   UNL A   1      46.937  34.502  30.586  1.00  0.00     0.002 A 
ATOM     89  C   UNL A   1      46.034  35.439  28.538  1.00  0.00     0.091 A 
ATOM     90  F   UNL A   1      44.413  34.195  27.305  1.00  0.00    -0.205 F 
ATOM     91  C   UNL A   1      46.870  35.543  29.661  1.00  0.00     0.022 A 
BRANCH  89  92
ATOM     92  S   UNL A   1      46.070  36.785  27.349  1.00  0.00     0.127 S 
ATOM     93  O   UNL A   1      44.646  37.049  27.151  1.00  0.00    -0.237 OA
ATOM     94  O   UNL A   1      46.789  37.831  28.078  1.00  0.00    -0.237 OA
ATOM     95  O   UNL A   1      46.783  36.267  26.188  1.00  0.00    -0.744 OA
ENDBRANCH  89  92
ENDBRANCH  62  85
ENDBRANCH  36  37
ENDBRANCH  29  31
ENDBRANCH  28  29
ENDBRANCH  27  28
ENDBRANCH   1  27
TORSDOF 19
ENDMDL
MODEL 2
REMARK VINA RESULT:     -11.0      1.774      2.881
REMARK SMILES CC[C@H](C)[C@H](Nc1ncnc2scc(-c3ccccc3)c12)C(=O)OCCOC(=O)c1ccc(-c2c3nc(c(-c4cccc(S(=O)(=O)[O-])c4F)c4ccc([nH]4)c(-c4cccc(S(=O)(=O)[O-])c4F)c4nc(c(-c5cccc(S(=O)(=O)[O-])c5F)c5ccc2[nH]5)C=C4)C=C3)cc1
REMARK SMILES IDX 25 1 24 2 22 3 23 4 5 5 3 6 4 7 2 8 1 9 6 10 7 12 8 13 21 14
REMARK SMILES IDX 9 15 11 16 14 17 10 18 12 19 13 20 15 21 16 22 20 23 17 24
REMARK SMILES IDX 19 25 18 26 26 27 27 28 28 29 29 30 30 31 31 32 92 33 32 34
REMARK SMILES IDX 91 35 33 36 34 37 35 38 85 39 36 40 90 41 84 42 86 43 37 44
REMARK SMILES IDX 89 45 83 46 82 47 38 49 70 50 50 51 69 52 51 53 54 54 68 55
REMARK SMILES IDX 87 56 52 57 53 58 67 60 88 61 55 62 39 63 40 64 48 65 41 66
REMARK SMILES IDX 43 67 49 68 42 69 44 70 45 71 46 72 47 73 71 74 72 75 80 76
REMARK SMILES IDX 73 77 75 78 81 79 74 80 76 81 77 82 78 83 79 84 56 85 57 86
REMARK SMILES IDX 65 87 58 88 60 89 66 90 59 91 61 92 62 93 63 94 64 95
REMARK H PARENT 6 11 86 48 54 59
REMARK Flexibility Score: inf
ROOT
ATOM      1  C   UNL A   1      36.573  23.052  23.440  1.00  0.00     0.274 C 
ENDROOT
BRANCH   1   2
ATOM      2  O   UNL A   1      35.363  23.241  22.684  1.00  0.00    -0.461 OA
BRANCH   2   3
ATOM      3  C   UNL A   1      34.536  24.228  23.135  1.00  0.00     0.328 C 
ATOM      4  O   UNL A   1      34.796  24.953  24.091  1.00  0.00    -0.250 OA
BRANCH   3   5
ATOM      5  C   UNL A   1      33.280  24.402  22.257  1.00  0.00     0.194 C 
BRANCH   5   6
ATOM      6  C   UNL A   1      33.389  25.719  21.429  1.00  0.00     0.019 C 
ATOM      7  C   UNL A   1      32.577  25.626  20.132  1.00  0.00     0.010 C 
BRANCH   6   8
ATOM      8  C   UNL A   1      33.020  26.956  22.273  1.00  0.00     0.002 C 
ATOM      9  C   UNL A   1      34.093  28.030  22.345  1.00  0.00     0.004 C 
ENDBRANCH   6   8
ENDBRANCH   5   6
BRANCH   5  10
ATOM     10  N   UNL A   1      32.037  24.352  23.026  1.00  0.00    -0.356 N 
ATOM     11  H   UNL A   1      31.359  25.054  22.889  1.00  0.00     0.163 HD
BRANCH  10  12
ATOM     12  C   UNL A   1      31.793  23.349  23.937  1.00  0.00     0.139 A 
ATOM     13  N   UNL A   1      32.285  22.110  23.704  1.00  0.00    -0.219 NA
ATOM     14  C   UNL A   1      31.015  23.548  25.099  1.00  0.00     0.062 A 
ATOM     15  C   UNL A   1      32.060  21.132  24.592  1.00  0.00     0.225 A 
ATOM     16  C   UNL A   1      30.833  22.435  25.908  1.00  0.00     0.129 A 
ATOM     17  C   UNL A   1      30.313  24.687  25.646  1.00  0.00     0.006 A 
ATOM     18  N   UNL A   1      31.339  21.206  25.712  1.00  0.00    -0.225 NA
ATOM     19  S   UNL A   1      29.844  22.749  27.261  1.00  0.00    -0.123 S 
ATOM     20  C   UNL A   1      29.628  24.380  26.803  1.00  0.00     0.076 A 
BRANCH  17  21
ATOM     21  C   UNL A   1      30.269  26.031  25.098  1.00  0.00    -0.017 A 
ATOM     22  C   UNL A   1      31.169  26.998  25.558  1.00  0.00     0.009 A 
ATOM     23  C   UNL A   1      29.407  26.330  24.038  1.00  0.00     0.009 A 
ATOM     24  C   UNL A   1      31.218  28.252  24.948  1.00  0.00     0.001 A 
ATOM     25  C   UNL A   1      29.467  27.581  23.422  1.00  0.00     0.001 A 
ATOM     26  C   UNL A   1      30.374  28.539  23.875  1.00  0.00     0.000 A 
ENDBRANCH  17  21
ENDBRANCH  10  12
ENDBRANCH   5  10
ENDBRANCH   3   5
ENDBRANCH   2   3
ENDBRANCH   1   2
BRANCH   1  27
ATOM     27  C   UNL A   1      36.529  21.742  24.231  1.00  0.00     0.275 C 
BRANCH  27  28
ATOM     28  O   UNL A   1      36.963  21.932  25.590  1.00  0.00    -0.458 OA
BRANCH  28  29
ATOM     29  C   UNL A   1      38.260  21.622  25.824  1.00  0.00     0.338 C 
ATOM     30  O   UNL A   1      38.841  20.597  25.516  1.00  0.00    -0.246 OA
BRANCH  29  31
ATOM     31  C   UNL A   1      38.934  22.749  26.483  1.00  0.00     0.060 A 
ATOM     32  C   UNL A   1      38.447  24.041  26.277  1.00  0.00     0.016 A 
ATOM     33  C   UNL A   1      40.123  22.547  27.181  1.00  0.00     0.016 A 
ATOM     34  C   UNL A   1      39.181  25.141  26.699  1.00  0.00     0.010 A 
ATOM     35  C   UNL A   1      40.827  23.654  27.665  1.00  0.00     0.010 A 
ATOM     36  C   UNL A   1      40.378  24.960  27.400  1.00  0.00    -0.014 A 
BRANCH  36  37
ATOM     37  C   UNL A   1      41.161  26.143  27.834  1.00  0.00     0.031 A 
ATOM     38  C   UNL A   1      40.517  27.202  28.684  1.00  0.00     0.074 A 
ATOM     39  C   UNL A   1      42.450  26.261  27.461  1.00  0.00     0.049 A 
ATOM     40  N   UNL A   1      41.002  28.350  29.075  1.00  0.00    -0.248 NA
ATOM     41  C   UNL A   1      39.146  26.937  29.151  1.00  0.00     0.031 C 
ATOM     42  C   UNL A   1      43.186  25.289  26.651  1.00  0.00     0.029 A 
ATOM     43  N   UNL A   1      43.366  27.252  27.704  1.00  0.00    -0.354 N 
ATOM     44  C   UNL A   1      39.979  28.974  29.780  1.00  0.00     0.074 A 
ATOM     45  C   UNL A   1      38.848  28.071  29.773  1.00  0.00     0.031 C 
ATOM     46  C   UNL A   1      44.440  25.730  26.467  1.00  0.00     0.029 A 
ATOM     47  C   UNL A   1      44.581  27.038  27.097  1.00  0.00     0.049 A 
ATOM     48  H   UNL A   1      43.173  28.042  28.260  1.00  0.00     0.167 HD
ATOM     49  C   UNL A   1      39.987  30.184  30.386  1.00  0.00     0.034 A 
ATOM     50  C   UNL A   1      45.677  27.818  27.031  1.00  0.00     0.034 A 
ATOM     51  C   UNL A   1      41.134  31.049  30.445  1.00  0.00     0.049 A 
ATOM     52  C   UNL A   1      45.660  29.153  27.723  1.00  0.00     0.074 A 
ATOM     53  C   UNL A   1      41.258  32.275  31.075  1.00  0.00     0.029 A 
ATOM     54  N   UNL A   1      42.360  30.775  29.857  1.00  0.00    -0.354 N 
ATOM     55  N   UNL A   1      44.709  29.693  28.447  1.00  0.00    -0.248 NA
ATOM     56  C   UNL A   1      46.869  29.978  27.604  1.00  0.00     0.031 C 
ATOM     57  C   UNL A   1      42.559  32.744  30.864  1.00  0.00     0.029 A 
ATOM     58  C   UNL A   1      43.247  31.809  30.107  1.00  0.00     0.049 A 
ATOM     59  H   UNL A   1      42.571  29.965  29.339  1.00  0.00     0.167 HD
ATOM     60  C   UNL A   1      45.212  30.911  28.887  1.00  0.00     0.074 A 
ATOM     61  C   UNL A   1      46.562  31.017  28.369  1.00  0.00     0.031 C 
ATOM     62  C   UNL A   1      44.605  31.868  29.631  1.00  0.00     0.034 A 
BRANCH  49  63
ATOM     63  C   UNL A   1      38.721  30.637  31.064  1.00  0.00     0.023 A 
ATOM     64  C   UNL A   1      38.560  30.431  32.448  1.00  0.00     0.012 A 
ATOM     65  C   UNL A   1      37.717  31.312  30.342  1.00  0.00     0.148 A 
ATOM     66  C   UNL A   1      37.408  30.870  33.100  1.00  0.00     0.002 A 
ATOM     67  C   UNL A   1      36.587  31.777  31.006  1.00  0.00     0.091 A 
ATOM     68  F   UNL A   1      37.876  31.473  29.020  1.00  0.00    -0.205 F 
ATOM     69  C   UNL A   1      36.428  31.551  32.383  1.00  0.00     0.022 A 
BRANCH  67  70
ATOM     70  S   UNL A   1      35.304  32.722  30.174  1.00  0.00     0.127 S 
ATOM     71  O   UNL A   1      36.054  33.883  29.697  1.00  0.00    -0.237 OA
ATOM     72  O   UNL A   1      34.872  31.801  29.122  1.00  0.00    -0.237 OA
ATOM     73  O   UNL A   1      34.294  32.997  31.187  1.00  0.00    -0.744 OA
ENDBRANCH  67  70
ENDBRANCH  49  63
BRANCH  50  74
ATOM     74  C   UNL A   1      46.888  27.336  26.309  1.00  0.00     0.023 A 
ATOM     75  C   UNL A   1      47.753  26.427  26.947  1.00  0.00     0.012 A 
ATOM     76  C   UNL A   1      47.160  27.729  24.984  1.00  0.00     0.148 A 
ATOM     77  C   UNL A   1      48.877  25.932  26.285  1.00  0.00     0.002 A 
ATOM     78  C   UNL A   1      48.250  27.188  24.312  1.00  0.00     0.091 A 
ATOM     79  F   UNL A   1      46.341  28.615  24.400  1.00  0.00    -0.205 F 
ATOM     80  C   UNL A   1      49.119  26.301  24.964  1.00  0.00     0.022 A 
BRANCH  78  81
ATOM     81  S   UNL A   1      48.541  27.506  22.567  1.00  0.00     0.127 S 
ATOM     82  O   UNL A   1      48.617  26.154  22.024  1.00  0.00    -0.237 OA
ATOM     83  O   UNL A   1      47.345  28.258  22.184  1.00  0.00    -0.237 OA
ATOM     84  O   UNL A   1      49.772  28.286  22.520  1.00  0.00    -0.744 OA
ENDBRANCH  78  81
ENDBRANCH  50  74
BRANCH  62  85
ATOM     85  C   UNL A   1      45.397  33.106  29.946  1.00  0.00     0.023 A 
ATOM     86  C   UNL A   1      46.210  33.132  31.096  1.00  0.00     0.012 A 
ATOM     87  C   UNL A   1      45.397  34.209  29.072  1.00  0.00     0.148 A 
ATOM     88  C   UNL A   1      46.994  34.248  31.384  1.00  0.00     0.002 A 
ATOM     89  C   UNL A   1      46.212  35.302  29.344  1.00  0.00     0.091 A 
ATOM     90  F   UNL A   1      44.598  34.174  27.995  1.00  0.00    -0.205 F 
ATOM     91  C   UNL A   1      47.004  35.327  30.502  1.00  0.00     0.022 A 
BRANCH  89  92
ATOM     92  S   UNL A   1      46.347  36.693  28.215  1.00  0.00     0.127 S 
ATOM     93  O   UNL A   1      46.842  36.048  27.001  1.00  0.00    -0.237 OA
ATOM     94  O   UNL A   1      44.965  37.168  28.133  1.00  0.00    -0.237 OA
ATOM     95  O   UNL A   1      47.264  37.631  28.851  1.00  0.00    -0.744 OA
ENDBRANCH  89  92
ENDBRANCH  62  85
ENDBRANCH  36  37
ENDBRANCH  29  31
ENDBRANCH  28  29
ENDBRANCH  27  28
ENDBRANCH   1  27
TORSDOF 19
ENDMDL
MODEL 3
REMARK VINA RESULT:     -10.9      1.633      2.411
REMARK SMILES CC[C@H](C)[C@H](Nc1ncnc2scc(-c3ccccc3)c12)C(=O)OCCOC(=O)c1ccc(-c2c3nc(c(-c4cccc(S(=O)(=O)[O-])c4F)c4ccc([nH]4)c(-c4cccc(S(=O)(=O)[O-])c4F)c4nc(c(-c5cccc(S(=O)(=O)[O-])c5F)c5ccc2[nH]5)C=C4)C=C3)cc1
REMARK SMILES IDX 25 1 24 2 22 3 23 4 5 5 3 6 4 7 2 8 1 9 6 10 7 12 8 13 21 14
REMARK SMILES IDX 9 15 11 16 14 17 10 18 12 19 13 20 15 21 16 22 20 23 17 24
REMARK SMILES IDX 19 25 18 26 26 27 27 28 28 29 29 30 30 31 31 32 92 33 32 34
REMARK SMILES IDX 91 35 33 36 34 37 35 38 85 39 36 40 90 41 84 42 86 43 37 44
REMARK SMILES IDX 89 45 83 46 82 47 38 49 70 50 50 51 69 52 51 53 54 54 68 55
REMARK SMILES IDX 87 56 52 57 53 58 67 60 88 61 55 62 39 63 40 64 48 65 41 66
REMARK SMILES IDX 43 67 49 68 42 69 44 70 45 71 46 72 47 73 71 74 72 75 80 76
REMARK SMILES IDX 73 77 75 78 81 79 74 80 76 81 77 82 78 83 79 84 56 85 57 86
REMARK SMILES IDX 65 87 58 88 60 89 66 90 59 91 61 92 62 93 63 94 64 95
REMARK H PARENT 6 11 86 48 54 59
REMARK Flexibility Score: inf
ROOT
ATOM      1  C   UNL A   1      35.910  22.019  24.074  1.00  0.00     0.274 C 
ENDROOT
BRANCH   1   2
ATOM      2  O   UNL A   1      35.018  22.345  25.157  1.00  0.00    -0.461 OA
BRANCH   2   3
ATOM      3  C   UNL A   1      34.786  23.676  25.347  1.00  0.00     0.328 C 
ATOM      4  O   UNL A   1      35.545  24.562  24.967  1.00  0.00    -0.250 OA
BRANCH   3   5
ATOM      5  C   UNL A   1      33.421  23.955  26.008  1.00  0.00     0.194 C 
BRANCH   5   6
ATOM      6  C   UNL A   1      32.772  22.615  26.473  1.00  0.00     0.019 C 
ATOM      7  C   UNL A   1      32.915  22.428  27.987  1.00  0.00     0.010 C 
BRANCH   6   8
ATOM      8  C   UNL A   1      31.311  22.492  25.994  1.00  0.00     0.002 C 
ATOM      9  C   UNL A   1      30.265  22.960  26.992  1.00  0.00     0.004 C 
ENDBRANCH   6   8
ENDBRANCH   5   6
BRANCH   5  10
ATOM     10  N   UNL A   1      32.518  24.717  25.146  1.00  0.00    -0.356 N 
ATOM     11  H   UNL A   1      31.707  25.119  25.535  1.00  0.00     0.163 HD
BRANCH  10  12
ATOM     12  C   UNL A   1      32.774  24.885  23.803  1.00  0.00     0.139 A 
ATOM     13  N   UNL A   1      32.815  23.800  22.997  1.00  0.00    -0.219 NA
ATOM     14  C   UNL A   1      33.030  26.151  23.229  1.00  0.00     0.062 A 
ATOM     15  C   UNL A   1      33.052  23.959  21.687  1.00  0.00     0.225 A 
ATOM     16  C   UNL A   1      33.298  26.158  21.868  1.00  0.00     0.129 A 
ATOM     17  C   UNL A   1      33.108  27.491  23.765  1.00  0.00     0.006 A 
ATOM     18  N   UNL A   1      33.313  25.098  21.044  1.00  0.00    -0.225 NA
ATOM     19  S   UNL A   1      33.645  27.716  21.266  1.00  0.00    -0.123 S 
ATOM     20  C   UNL A   1      33.449  28.423  22.808  1.00  0.00     0.076 A 
BRANCH  17  21
ATOM     21  C   UNL A   1      32.882  27.896  25.141  1.00  0.00    -0.017 A 
ATOM     22  C   UNL A   1      31.598  27.809  25.688  1.00  0.00     0.009 A 
ATOM     23  C   UNL A   1      33.960  28.267  25.951  1.00  0.00     0.009 A 
ATOM     24  C   UNL A   1      31.398  28.074  27.044  1.00  0.00     0.001 A 
ATOM     25  C   UNL A   1      33.759  28.520  27.309  1.00  0.00     0.001 A 
ATOM     26  C   UNL A   1      32.479  28.420  27.854  1.00  0.00     0.000 A 
ENDBRANCH  17  21
ENDBRANCH  10  12
ENDBRANCH   5  10
ENDBRANCH   3   5
ENDBRANCH   2   3
ENDBRANCH   1   2
BRANCH   1  27
ATOM     27  C   UNL A   1      37.042  21.104  24.549  1.00  0.00     0.275 C 
BRANCH  27  28
ATOM     28  O   UNL A   1      37.487  21.459  25.871  1.00  0.00    -0.458 OA
BRANCH  28  29
ATOM     29  C   UNL A   1      38.810  21.282  26.095  1.00  0.00     0.338 C 
ATOM     30  O   UNL A   1      39.477  20.296  25.838  1.00  0.00    -0.246 OA
BRANCH  29  31
ATOM     31  C   UNL A   1      39.390  22.505  26.667  1.00  0.00     0.060 A 
ATOM     32  C   UNL A   1      38.861  23.741  26.294  1.00  0.00     0.016 A 
ATOM     33  C   UNL A   1      40.540  22.438  27.452  1.00  0.00     0.016 A 
ATOM     34  C   UNL A   1      39.517  24.916  26.637  1.00  0.00     0.010 A 
ATOM     35  C   UNL A   1      41.161  23.624  27.854  1.00  0.00     0.010 A 
ATOM     36  C   UNL A   1      40.673  24.870  27.424  1.00  0.00    -0.014 A 
BRANCH  36  37
ATOM     37  C   UNL A   1      41.373  26.131  27.773  1.00  0.00     0.031 A 
ATOM     38  C   UNL A   1      40.659  27.198  28.553  1.00  0.00     0.074 A 
ATOM     39  C   UNL A   1      42.651  26.311  27.387  1.00  0.00     0.049 A 
ATOM     40  N   UNL A   1      41.063  28.401  28.864  1.00  0.00    -0.248 NA
ATOM     41  C   UNL A   1      39.308  26.873  29.044  1.00  0.00     0.031 C 
ATOM     42  C   UNL A   1      43.452  25.339  26.640  1.00  0.00     0.029 A 
ATOM     43  N   UNL A   1      43.497  27.377  27.558  1.00  0.00    -0.354 N 
ATOM     44  C   UNL A   1      40.000  28.999  29.530  1.00  0.00     0.074 A 
ATOM     45  C   UNL A   1      38.934  28.023  29.590  1.00  0.00     0.031 C 
ATOM     46  C   UNL A   1      44.672  25.851  26.421  1.00  0.00     0.029 A 
ATOM     47  C   UNL A   1      44.724  27.205  26.961  1.00  0.00     0.049 A 
ATOM     48  H   UNL A   1      43.250  28.187  28.060  1.00  0.00     0.167 HD
ATOM     49  C   UNL A   1      39.926  30.246  30.053  1.00  0.00     0.034 A 
ATOM     50  C   UNL A   1      45.763  28.052  26.837  1.00  0.00     0.034 A 
ATOM     51  C   UNL A   1      41.011  31.189  30.048  1.00  0.00     0.049 A 
ATOM     52  C   UNL A   1      45.655  29.426  27.437  1.00  0.00     0.074 A 
ATOM     53  C   UNL A   1      41.051  32.460  30.593  1.00  0.00     0.029 A 
ATOM     54  N   UNL A   1      42.253  30.960  29.474  1.00  0.00    -0.354 N 
ATOM     55  N   UNL A   1      44.670  29.948  28.128  1.00  0.00    -0.248 NA
ATOM     56  C   UNL A   1      46.805  30.323  27.257  1.00  0.00     0.031 C 
ATOM     57  C   UNL A   1      42.317  33.002  30.344  1.00  0.00     0.029 A 
ATOM     58  C   UNL A   1      43.067  32.066  29.649  1.00  0.00     0.049 A 
ATOM     59  H   UNL A   1      42.518  30.133  29.010  1.00  0.00     0.167 HD
ATOM     60  C   UNL A   1      45.089  31.225  28.482  1.00  0.00     0.074 A 
ATOM     61  C   UNL A   1      46.428  31.387  27.952  1.00  0.00     0.031 C 
ATOM     62  C   UNL A   1      44.418  32.186  29.163  1.00  0.00     0.034 A 
BRANCH  49  63
ATOM     63  C   UNL A   1      38.632  30.656  30.705  1.00  0.00     0.023 A 
ATOM     64  C   UNL A   1      38.420  30.374  32.068  1.00  0.00     0.012 A 
ATOM     65  C   UNL A   1      37.653  31.365  29.982  1.00  0.00     0.148 A 
ATOM     66  C   UNL A   1      37.241  30.773  32.699  1.00  0.00     0.002 A 
ATOM     67  C   UNL A   1      36.495  31.789  30.627  1.00  0.00     0.091 A 
ATOM     68  F   UNL A   1      37.861  31.598  28.678  1.00  0.00    -0.205 F 
ATOM     69  C   UNL A   1      36.285  31.488  31.982  1.00  0.00     0.022 A 
BRANCH  67  70
ATOM     70  S   UNL A   1      35.239  32.772  29.798  1.00  0.00     0.127 S 
ATOM     71  O   UNL A   1      34.778  31.850  28.761  1.00  0.00    -0.237 OA
ATOM     72  O   UNL A   1      34.273  33.013  30.872  1.00  0.00    -0.237 OA
ATOM     73  O   UNL A   1      35.921  33.967  29.322  1.00  0.00    -0.744 OA
ENDBRANCH  67  70
ENDBRANCH  49  63
BRANCH  50  74
ATOM     74  C   UNL A   1      47.004  27.607  26.143  1.00  0.00     0.023 A 
ATOM     75  C   UNL A   1      47.973  26.882  26.864  1.00  0.00     0.012 A 
ATOM     76  C   UNL A   1      47.208  27.848  24.771  1.00  0.00     0.148 A 
ATOM     77  C   UNL A   1      49.130  26.423  26.234  1.00  0.00     0.002 A 
ATOM     78  C   UNL A   1      48.336  27.338  24.137  1.00  0.00     0.091 A 
ATOM     79  F   UNL A   1      46.288  28.561  24.105  1.00  0.00    -0.205 F 
ATOM     80  C   UNL A   1      49.306  26.637  24.869  1.00  0.00     0.022 A 
BRANCH  78  81
ATOM     81  S   UNL A   1      48.557  27.452  22.357  1.00  0.00     0.127 S 
ATOM     82  O   UNL A   1      49.802  28.207  22.257  1.00  0.00    -0.237 OA
ATOM     83  O   UNL A   1      48.657  26.046  21.966  1.00  0.00    -0.237 OA
ATOM     84  O   UNL A   1      47.359  28.122  21.865  1.00  0.00    -0.744 OA
ENDBRANCH  78  81
ENDBRANCH  50  74
BRANCH  62  85
ATOM     85  C   UNL A   1      45.123  33.494  29.390  1.00  0.00     0.023 A 
ATOM     86  C   UNL A   1      45.899  33.668  30.553  1.00  0.00     0.012 A 
ATOM     87  C   UNL A   1      45.082  34.518  28.425  1.00  0.00     0.148 A 
ATOM     88  C   UNL A   1      46.605  34.851  30.763  1.00  0.00     0.002 A 
ATOM     89  C   UNL A   1      45.821  35.679  28.622  1.00  0.00     0.091 A 
ATOM     90  F   UNL A   1      44.319  34.342  27.336  1.00  0.00    -0.205 F 
ATOM     91  C   UNL A   1      46.575  35.850  29.793  1.00  0.00     0.022 A 
BRANCH  89  92
ATOM     92  S   UNL A   1      45.904  36.976  27.382  1.00  0.00     0.127 S 
ATOM     93  O   UNL A   1      44.501  37.365  27.260  1.00  0.00    -0.237 OA
ATOM     94  O   UNL A   1      46.760  37.974  28.026  1.00  0.00    -0.237 OA
ATOM     95  O   UNL A   1      46.492  36.356  26.201  1.00  0.00    -0.744 OA
ENDBRANCH  89  92
ENDBRANCH  62  85
ENDBRANCH  36  37
ENDBRANCH  29  31
ENDBRANCH  28  29
ENDBRANCH  27  28
ENDBRANCH   1  27
TORSDOF 19
ENDMDL
