MODEL 1
REMARK VINA RESULT:     -12.2      0.000      0.000
REMARK SMILES CC(C)(C)c1cc2c(cc1Cl)C=C(C(=O)OCCOC(=O)c1ccc(-c3c4nc(c(-c5cccc(S(=O)(=O)[O-])c5F)c5ccc([nH]5)c(-c5cccc(S(=O)(=O)[O-])c5F)c5nc(c(-c6cccc(S(=O)(=O)[O-])c6F)c6ccc3[nH]6)C=C5)C=C4)cc1)[C@H](C(F)(F)F)O2
REMARK SMILES IDX 18 1 17 2 16 3 14 4 15 5 13 6 5 7 6 8 10 9 7 10 9 11 11 12
REMARK SMILES IDX 8 13 90 14 12 15 85 16 2 17 1 18 3 19 4 20 86 21 87 22 88 23
REMARK SMILES IDX 89 24 19 25 20 26 21 27 22 28 23 29 84 30 24 31 83 32 25 33
REMARK SMILES IDX 26 34 27 35 77 36 28 37 82 38 76 39 78 40 29 41 81 42 75 43
REMARK SMILES IDX 74 44 30 46 62 47 42 48 61 49 43 50 46 51 60 52 79 53 44 54
REMARK SMILES IDX 45 55 59 57 80 58 47 59 31 60 32 61 40 62 33 63 35 64 41 65
REMARK SMILES IDX 34 66 36 67 37 68 38 69 39 70 63 71 64 72 72 73 65 74 67 75
REMARK SMILES IDX 73 76 66 77 68 78 69 79 70 80 71 81 48 82 49 83 57 84 50 85
REMARK SMILES IDX 52 86 58 87 51 88 53 89 54 90 55 91 56 92
REMARK H PARENT 78 45 46 56
REMARK Flexibility Score: inf
ROOT
ATOM      1  C   UNL A   1      37.302  20.783  24.889  1.00  0.00     0.275 C 
ENDROOT
BRANCH   1   2
ATOM      2  C   UNL A   1      35.855  20.588  25.355  1.00  0.00     0.275 C 
BRANCH   2   3
ATOM      3  O   UNL A   1      35.410  21.689  26.174  1.00  0.00    -0.459 OA
BRANCH   3   4
ATOM      4  C   UNL A   1      34.104  21.691  26.509  1.00  0.00     0.338 C 
ATOM      5  O   UNL A   1      33.596  20.993  27.375  1.00  0.00    -0.246 OA
BRANCH   4   6
ATOM      6  C   UNL A   1      33.355  22.716  25.755  1.00  0.00     0.087 C 
ATOM      7  C   UNL A   1      31.694  27.197  24.037  1.00  0.00    -0.020 A 
ATOM      8  C   UNL A   1      31.203  25.861  24.020  1.00  0.00     0.053 A 
ATOM      9  C   UNL A   1      32.965  27.386  24.631  1.00  0.00     0.045 A 
ATOM     10  C   UNL A   1      31.902  24.798  24.607  1.00  0.00     0.128 A 
ATOM     11  C   UNL A   1      33.650  26.320  25.230  1.00  0.00     0.032 A 
ATOM     12  Cl  UNL A   1      33.783  28.903  24.747  1.00  0.00    -0.084 Cl
ATOM     13  C   UNL A   1      33.103  25.041  25.249  1.00  0.00     0.019 A 
ATOM     14  O   UNL A   1      31.315  23.558  24.596  1.00  0.00    -0.475 OA
ATOM     15  C   UNL A   1      33.749  23.976  25.986  1.00  0.00     0.027 C 
ATOM     16  C   UNL A   1      32.182  22.398  24.859  1.00  0.00     0.316 C 
BRANCH   7  17
ATOM     17  C   UNL A   1      30.801  28.362  23.532  1.00  0.00    -0.012 C 
ATOM     18  C   UNL A   1      31.278  28.966  22.184  1.00  0.00     0.016 C 
ATOM     19  C   UNL A   1      30.733  29.558  24.510  1.00  0.00     0.016 C 
ATOM     20  C   UNL A   1      29.379  27.810  23.278  1.00  0.00     0.016 C 
ENDBRANCH   7  17
BRANCH  16  21
ATOM     21  C   UNL A   1      32.496  21.705  23.521  1.00  0.00     0.430 C 
ATOM     22  F   UNL A   1      32.628  20.370  23.638  1.00  0.00    -0.167 F 
ATOM     23  F   UNL A   1      31.570  21.963  22.570  1.00  0.00    -0.167 F 
ATOM     24  F   UNL A   1      33.670  22.178  23.015  1.00  0.00    -0.167 F 
ENDBRANCH  16  21
ENDBRANCH   4   6
ENDBRANCH   3   4
ENDBRANCH   2   3
ENDBRANCH   1   2
BRANCH   1  25
ATOM     25  O   UNL A   1      37.951  21.885  25.558  1.00  0.00    -0.458 OA
BRANCH  25  26
ATOM     26  C   UNL A   1      39.135  21.583  26.147  1.00  0.00     0.338 C 
ATOM     27  O   UNL A   1      39.700  20.504  26.126  1.00  0.00    -0.246 OA
BRANCH  26  28
ATOM     28  C   UNL A   1      39.758  22.808  26.684  1.00  0.00     0.060 A 
ATOM     29  C   UNL A   1      40.731  22.792  27.682  1.00  0.00     0.016 A 
ATOM     30  C   UNL A   1      39.378  24.018  26.102  1.00  0.00     0.016 A 
ATOM     31  C   UNL A   1      41.283  24.006  28.118  1.00  0.00     0.010 A 
ATOM     32  C   UNL A   1      39.922  25.224  26.535  1.00  0.00     0.010 A 
ATOM     33  C   UNL A   1      40.871  25.235  27.561  1.00  0.00    -0.014 A 
BRANCH  33  34
ATOM     34  C   UNL A   1      41.464  26.524  28.003  1.00  0.00     0.031 A 
ATOM     35  C   UNL A   1      42.895  26.876  27.685  1.00  0.00     0.074 A 
ATOM     36  C   UNL A   1      40.729  27.362  28.760  1.00  0.00     0.049 A 
ATOM     37  N   UNL A   1      43.537  27.991  27.923  1.00  0.00    -0.248 NA
ATOM     38  C   UNL A   1      43.721  25.838  27.047  1.00  0.00     0.031 C 
ATOM     39  C   UNL A   1      39.383  27.082  29.263  1.00  0.00     0.029 A 
ATOM     40  N   UNL A   1      41.009  28.617  29.242  1.00  0.00    -0.354 N 
ATOM     41  C   UNL A   1      44.841  27.783  27.490  1.00  0.00     0.074 A 
ATOM     42  C   UNL A   1      44.912  26.423  27.005  1.00  0.00     0.031 C 
ATOM     43  C   UNL A   1      38.937  28.151  29.941  1.00  0.00     0.029 A 
ATOM     44  C   UNL A   1      39.963  29.191  29.923  1.00  0.00     0.049 A 
ATOM     45  H   UNL A   1      41.877  29.063  29.112  1.00  0.00     0.167 HD
ATOM     46  C   UNL A   1      45.874  28.660  27.457  1.00  0.00     0.034 A 
ATOM     47  C   UNL A   1      39.825  30.428  30.442  1.00  0.00     0.034 A 
ATOM     48  C   UNL A   1      45.779  30.033  27.866  1.00  0.00     0.049 A 
ATOM     49  C   UNL A   1      40.941  31.423  30.284  1.00  0.00     0.074 A 
ATOM     50  C   UNL A   1      46.728  31.034  27.743  1.00  0.00     0.029 A 
ATOM     51  N   UNL A   1      44.671  30.604  28.469  1.00  0.00    -0.354 N 
ATOM     52  N   UNL A   1      42.101  31.268  29.695  1.00  0.00    -0.248 NA
ATOM     53  C   UNL A   1      40.718  32.771  30.829  1.00  0.00     0.031 C 
ATOM     54  C   UNL A   1      46.190  32.211  28.269  1.00  0.00     0.029 A 
ATOM     55  C   UNL A   1      44.909  31.943  28.722  1.00  0.00     0.049 A 
ATOM     56  H   UNL A   1      43.837  30.127  28.686  1.00  0.00     0.167 HD
ATOM     57  C   UNL A   1      42.742  32.497  29.786  1.00  0.00     0.074 A 
ATOM     58  C   UNL A   1      41.833  33.396  30.468  1.00  0.00     0.031 C 
ATOM     59  C   UNL A   1      43.980  32.841  29.358  1.00  0.00     0.034 A 
BRANCH  46  60
ATOM     60  C   UNL A   1      47.174  28.201  26.851  1.00  0.00     0.023 A 
ATOM     61  C   UNL A   1      48.220  27.809  27.712  1.00  0.00     0.012 A 
ATOM     62  C   UNL A   1      47.330  28.057  25.459  1.00  0.00     0.148 A 
ATOM     63  C   UNL A   1      49.410  27.298  27.198  1.00  0.00     0.002 A 
ATOM     64  C   UNL A   1      48.511  27.518  24.955  1.00  0.00     0.091 A 
ATOM     65  F   UNL A   1      46.325  28.439  24.660  1.00  0.00    -0.205 F 
ATOM     66  C   UNL A   1      49.551  27.145  25.821  1.00  0.00     0.022 A 
BRANCH  64  67
ATOM     67  S   UNL A   1      48.782  27.223  23.203  1.00  0.00     0.127 S 
ATOM     68  O   UNL A   1      48.070  28.351  22.601  1.00  0.00    -0.237 OA
ATOM     69  O   UNL A   1      50.240  27.298  23.102  1.00  0.00    -0.237 OA
ATOM     70  O   UNL A   1      48.215  25.913  22.920  1.00  0.00    -0.744 OA
ENDBRANCH  64  67
ENDBRANCH  46  60
BRANCH  47  71
ATOM     71  C   UNL A   1      38.518  30.822  31.032  1.00  0.00     0.023 A 
ATOM     72  C   UNL A   1      38.319  30.643  32.415  1.00  0.00     0.012 A 
ATOM     73  C   UNL A   1      37.519  31.448  30.264  1.00  0.00     0.148 A 
ATOM     74  C   UNL A   1      37.141  31.076  33.024  1.00  0.00     0.002 A 
ATOM     75  C   UNL A   1      36.364  31.910  30.884  1.00  0.00     0.091 A 
ATOM     76  F   UNL A   1      37.736  31.606  28.951  1.00  0.00    -0.205 F 
ATOM     77  C   UNL A   1      36.169  31.718  32.261  1.00  0.00     0.022 A 
BRANCH  75  78
ATOM     78  S   UNL A   1      35.098  32.841  30.012  1.00  0.00     0.127 S 
ATOM     79  O   UNL A   1      35.877  33.931  29.430  1.00  0.00    -0.237 OA
ATOM     80  O   UNL A   1      34.611  31.851  29.050  1.00  0.00    -0.237 OA
ATOM     81  O   UNL A   1      34.127  33.234  31.023  1.00  0.00    -0.744 OA
ENDBRANCH  75  78
ENDBRANCH  47  71
BRANCH  59  82
ATOM     82  C   UNL A   1      44.460  34.241  29.613  1.00  0.00     0.023 A 
ATOM     83  C   UNL A   1      45.131  34.524  30.818  1.00  0.00     0.012 A 
ATOM     84  C   UNL A   1      44.389  35.226  28.607  1.00  0.00     0.148 A 
ATOM     85  C   UNL A   1      45.726  35.767  31.021  1.00  0.00     0.002 A 
ATOM     86  C   UNL A   1      45.010  36.453  28.805  1.00  0.00     0.091 A 
ATOM     87  F   UNL A   1      43.740  34.930  27.472  1.00  0.00    -0.205 F 
ATOM     88  C   UNL A   1      45.677  36.726  30.011  1.00  0.00     0.022 A 
BRANCH  86  89
ATOM     89  S   UNL A   1      45.072  37.726  27.538  1.00  0.00     0.127 S 
ATOM     90  O   UNL A   1      45.716  38.827  28.253  1.00  0.00    -0.237 OA
ATOM     91  O   UNL A   1      45.900  37.098  26.509  1.00  0.00    -0.237 OA
ATOM     92  O   UNL A   1      43.691  37.972  27.143  1.00  0.00    -0.744 OA
ENDBRANCH  86  89
ENDBRANCH  59  82
ENDBRANCH  33  34
ENDBRANCH  26  28
ENDBRANCH  25  26
ENDBRANCH   1  25
TORSDOF 16
ENDMDL
MODEL 2
REMARK VINA RESULT:     -12.1      5.146     10.099
REMARK SMILES CC(C)(C)c1cc2c(cc1Cl)C=C(C(=O)OCCOC(=O)c1ccc(-c3c4nc(c(-c5cccc(S(=O)(=O)[O-])c5F)c5ccc([nH]5)c(-c5cccc(S(=O)(=O)[O-])c5F)c5nc(c(-c6cccc(S(=O)(=O)[O-])c6F)c6ccc3[nH]6)C=C5)C=C4)cc1)[C@H](C(F)(F)F)O2
REMARK SMILES IDX 18 1 17 2 16 3 14 4 15 5 13 6 5 7 6 8 10 9 7 10 9 11 11 12
REMARK SMILES IDX 8 13 90 14 12 15 85 16 2 17 1 18 3 19 4 20 86 21 87 22 88 23
REMARK SMILES IDX 89 24 19 25 20 26 21 27 22 28 23 29 84 30 24 31 83 32 25 33
REMARK SMILES IDX 26 34 27 35 77 36 28 37 82 38 76 39 78 40 29 41 81 42 75 43
REMARK SMILES IDX 74 44 30 46 62 47 42 48 61 49 43 50 46 51 60 52 79 53 44 54
REMARK SMILES IDX 45 55 59 57 80 58 47 59 31 60 32 61 40 62 33 63 35 64 41 65
REMARK SMILES IDX 34 66 36 67 37 68 38 69 39 70 63 71 64 72 72 73 65 74 67 75
REMARK SMILES IDX 73 76 66 77 68 78 69 79 70 80 71 81 48 82 49 83 57 84 50 85
REMARK SMILES IDX 52 86 58 87 51 88 53 89 54 90 55 91 56 92
REMARK H PARENT 78 45 46 56
REMARK Flexibility Score: inf
ROOT
ATOM      1  C   UNL A   1      32.812  29.698  25.077  1.00  0.00     0.275 C 
ENDROOT
BRANCH   1   2
ATOM      2  C   UNL A   1      32.242  28.342  24.647  1.00  0.00     0.275 C 
BRANCH   2   3
ATOM      3  O   UNL A   1      33.271  27.333  24.576  1.00  0.00    -0.459 OA
BRANCH   3   4
ATOM      4  C   UNL A   1      33.305  26.596  23.448  1.00  0.00     0.338 C 
ATOM      5  O   UNL A   1      33.603  27.016  22.339  1.00  0.00    -0.246 OA
BRANCH   4   6
ATOM      6  C   UNL A   1      33.019  25.174  23.724  1.00  0.00     0.087 C 
ATOM      7  C   UNL A   1      33.606  20.182  24.454  1.00  0.00    -0.020 A 
ATOM      8  C   UNL A   1      32.509  21.040  24.158  1.00  0.00     0.053 A 
ATOM      9  C   UNL A   1      34.859  20.814  24.636  1.00  0.00     0.045 A 
ATOM     10  C   UNL A   1      32.662  22.424  23.996  1.00  0.00     0.128 A 
ATOM     11  C   UNL A   1      35.007  22.196  24.456  1.00  0.00     0.032 A 
ATOM     12  Cl  UNL A   1      36.328  19.994  25.029  1.00  0.00    -0.084 Cl
ATOM     13  C   UNL A   1      33.921  22.989  24.101  1.00  0.00     0.019 A 
ATOM     14  O   UNL A   1      31.556  23.157  23.647  1.00  0.00    -0.475 OA
ATOM     15  C   UNL A   1      34.104  24.390  23.784  1.00  0.00     0.027 C 
ATOM     16  C   UNL A   1      31.622  24.614  23.844  1.00  0.00     0.316 C 
BRANCH   7  17
ATOM     17  C   UNL A   1      33.413  18.642  24.447  1.00  0.00    -0.012 C 
ATOM     18  C   UNL A   1      32.779  18.094  25.754  1.00  0.00     0.016 C 
ATOM     19  C   UNL A   1      34.733  17.854  24.278  1.00  0.00     0.016 C 
ATOM     20  C   UNL A   1      32.435  18.279  23.307  1.00  0.00     0.016 C 
ENDBRANCH   7  17
BRANCH  16  21
ATOM     21  C   UNL A   1      30.836  24.974  25.118  1.00  0.00     0.430 C 
ATOM     22  F   UNL A   1      30.109  23.945  25.595  1.00  0.00    -0.167 F 
ATOM     23  F   UNL A   1      31.632  25.433  26.109  1.00  0.00    -0.167 F 
ATOM     24  F   UNL A   1      29.965  25.989  24.857  1.00  0.00    -0.167 F 
ENDBRANCH  16  21
ENDBRANCH   4   6
ENDBRANCH   3   4
ENDBRANCH   2   3
ENDBRANCH   1   2
BRANCH   1  25
ATOM     25  O   UNL A   1      32.525  30.000  26.459  1.00  0.00    -0.458 OA
BRANCH  25  26
ATOM     26  C   UNL A   1      33.017  31.184  26.902  1.00  0.00     0.338 C 
ATOM     27  O   UNL A   1      32.442  32.259  26.888  1.00  0.00    -0.246 OA
BRANCH  26  28
ATOM     28  C   UNL A   1      34.306  30.970  27.586  1.00  0.00     0.060 A 
ATOM     29  C   UNL A   1      35.162  32.012  27.941  1.00  0.00     0.016 A 
ATOM     30  C   UNL A   1      34.627  29.657  27.935  1.00  0.00     0.016 A 
ATOM     31  C   UNL A   1      36.361  31.716  28.608  1.00  0.00     0.010 A 
ATOM     32  C   UNL A   1      35.816  29.361  28.595  1.00  0.00     0.010 A 
ATOM     33  C   UNL A   1      36.707  30.386  28.926  1.00  0.00    -0.014 A 
BRANCH  33  34
ATOM     34  C   UNL A   1      37.965  30.064  29.649  1.00  0.00     0.031 A 
ATOM     35  C   UNL A   1      38.225  30.592  31.037  1.00  0.00     0.074 A 
ATOM     36  C   UNL A   1      38.918  29.345  29.025  1.00  0.00     0.049 A 
ATOM     37  N   UNL A   1      39.229  30.337  31.836  1.00  0.00    -0.248 NA
ATOM     38  C   UNL A   1      37.253  31.551  31.590  1.00  0.00     0.031 C 
ATOM     39  C   UNL A   1      38.859  28.895  27.633  1.00  0.00     0.029 A 
ATOM     40  N   UNL A   1      40.124  28.868  29.478  1.00  0.00    -0.354 N 
ATOM     41  C   UNL A   1      39.027  31.116  32.969  1.00  0.00     0.074 A 
ATOM     42  C   UNL A   1      37.821  31.882  32.743  1.00  0.00     0.031 C 
ATOM     43  C   UNL A   1      39.954  28.169  27.360  1.00  0.00     0.029 A 
ATOM     44  C   UNL A   1      40.793  28.101  28.554  1.00  0.00     0.049 A 
ATOM     45  H   UNL A   1      40.475  29.056  30.378  1.00  0.00     0.167 HD
ATOM     46  C   UNL A   1      39.753  31.157  34.112  1.00  0.00     0.034 A 
ATOM     47  C   UNL A   1      41.933  27.390  28.663  1.00  0.00     0.034 A 
ATOM     48  C   UNL A   1      40.905  30.336  34.364  1.00  0.00     0.049 A 
ATOM     49  C   UNL A   1      42.657  27.353  29.980  1.00  0.00     0.074 A 
ATOM     50  C   UNL A   1      41.625  30.206  35.539  1.00  0.00     0.029 A 
ATOM     51  N   UNL A   1      41.502  29.503  33.433  1.00  0.00    -0.354 N 
ATOM     52  N   UNL A   1      42.342  27.945  31.106  1.00  0.00    -0.248 NA
ATOM     53  C   UNL A   1      43.870  26.525  30.055  1.00  0.00     0.031 C 
ATOM     54  C   UNL A   1      42.656  29.288  35.319  1.00  0.00     0.029 A 
ATOM     55  C   UNL A   1      42.579  28.852  34.006  1.00  0.00     0.049 A 
ATOM     56  H   UNL A   1      41.204  29.391  32.501  1.00  0.00     0.167 HD
ATOM     57  C   UNL A   1      43.307  27.554  32.026  1.00  0.00     0.074 A 
ATOM     58  C   UNL A   1      44.208  26.655  31.333  1.00  0.00     0.031 C 
ATOM     59  C   UNL A   1      43.441  27.923  33.322  1.00  0.00     0.034 A 
BRANCH  46  60
ATOM     60  C   UNL A   1      39.262  32.034  35.233  1.00  0.00     0.023 A 
ATOM     61  C   UNL A   1      38.362  31.490  36.172  1.00  0.00     0.012 A 
ATOM     62  C   UNL A   1      39.759  33.338  35.422  1.00  0.00     0.148 A 
ATOM     63  C   UNL A   1      37.947  32.236  37.273  1.00  0.00     0.002 A 
ATOM     64  C   UNL A   1      39.362  34.066  36.540  1.00  0.00     0.091 A 
ATOM     65  F   UNL A   1      40.611  33.836  34.516  1.00  0.00    -0.205 F 
ATOM     66  C   UNL A   1      38.453  33.519  37.461  1.00  0.00     0.022 A 
BRANCH  64  67
ATOM     67  S   UNL A   1      39.992  35.707  36.914  1.00  0.00     0.127 S 
ATOM     68  O   UNL A   1      41.427  35.449  37.035  1.00  0.00    -0.237 OA
ATOM     69  O   UNL A   1      39.607  36.462  35.722  1.00  0.00    -0.237 OA
ATOM     70  O   UNL A   1      39.333  36.124  38.143  1.00  0.00    -0.744 OA
ENDBRANCH  64  67
ENDBRANCH  46  60
BRANCH  47  71
ATOM     71  C   UNL A   1      42.371  26.547  27.519  1.00  0.00     0.023 A 
ATOM     72  C   UNL A   1      43.298  27.079  26.601  1.00  0.00     0.012 A 
ATOM     73  C   UNL A   1      41.955  25.209  27.386  1.00  0.00     0.148 A 
ATOM     74  C   UNL A   1      43.798  26.294  25.563  1.00  0.00     0.002 A 
ATOM     75  C   UNL A   1      42.486  24.422  26.371  1.00  0.00     0.091 A 
ATOM     76  F   UNL A   1      41.072  24.729  28.273  1.00  0.00    -0.205 F 
ATOM     77  C   UNL A   1      43.400  24.964  25.454  1.00  0.00     0.022 A 
BRANCH  75  78
ATOM     78  S   UNL A   1      42.118  22.671  26.205  1.00  0.00     0.127 S 
ATOM     79  O   UNL A   1      42.764  22.350  24.934  1.00  0.00    -0.237 OA
ATOM     80  O   UNL A   1      42.777  22.115  27.388  1.00  0.00    -0.237 OA
ATOM     81  O   UNL A   1      40.666  22.567  26.213  1.00  0.00    -0.744 OA
ENDBRANCH  75  78
ENDBRANCH  47  71
BRANCH  59  82
ATOM     82  C   UNL A   1      44.606  27.381  34.102  1.00  0.00     0.023 A 
ATOM     83  C   UNL A   1      45.807  28.116  34.132  1.00  0.00     0.012 A 
ATOM     84  C   UNL A   1      44.464  26.243  34.920  1.00  0.00     0.148 A 
ATOM     85  C   UNL A   1      46.852  27.727  34.967  1.00  0.00     0.002 A 
ATOM     86  C   UNL A   1      45.499  25.879  35.772  1.00  0.00     0.091 A 
ATOM     87  F   UNL A   1      43.311  25.561  34.866  1.00  0.00    -0.205 F 
ATOM     88  C   UNL A   1      46.694  26.618  35.795  1.00  0.00     0.022 A 
BRANCH  86  89
ATOM     89  S   UNL A   1      45.366  24.514  36.934  1.00  0.00     0.127 S 
ATOM     90  O   UNL A   1      44.177  24.888  37.697  1.00  0.00    -0.237 OA
ATOM     91  O   UNL A   1      45.186  23.367  36.044  1.00  0.00    -0.237 OA
ATOM     92  O   UNL A   1      46.610  24.507  37.694  1.00  0.00    -0.744 OA
ENDBRANCH  86  89
ENDBRANCH  59  82
ENDBRANCH  33  34
ENDBRANCH  26  28
ENDBRANCH  25  26
ENDBRANCH   1  25
TORSDOF 16
ENDMDL
MODEL 3
REMARK VINA RESULT:     -11.9      5.238     10.263
REMARK SMILES CC(C)(C)c1cc2c(cc1Cl)C=C(C(=O)OCCOC(=O)c1ccc(-c3c4nc(c(-c5cccc(S(=O)(=O)[O-])c5F)c5ccc([nH]5)c(-c5cccc(S(=O)(=O)[O-])c5F)c5nc(c(-c6cccc(S(=O)(=O)[O-])c6F)c6ccc3[nH]6)C=C5)C=C4)cc1)[C@H](C(F)(F)F)O2
REMARK SMILES IDX 18 1 17 2 16 3 14 4 15 5 13 6 5 7 6 8 10 9 7 10 9 11 11 12
REMARK SMILES IDX 8 13 90 14 12 15 85 16 2 17 1 18 3 19 4 20 86 21 87 22 88 23
REMARK SMILES IDX 89 24 19 25 20 26 21 27 22 28 23 29 84 30 24 31 83 32 25 33
REMARK SMILES IDX 26 34 27 35 77 36 28 37 82 38 76 39 78 40 29 41 81 42 75 43
REMARK SMILES IDX 74 44 30 46 62 47 42 48 61 49 43 50 46 51 60 52 79 53 44 54
REMARK SMILES IDX 45 55 59 57 80 58 47 59 31 60 32 61 40 62 33 63 35 64 41 65
REMARK SMILES IDX 34 66 36 67 37 68 38 69 39 70 63 71 64 72 72 73 65 74 67 75
REMARK SMILES IDX 73 76 66 77 68 78 69 79 70 80 71 81 48 82 49 83 57 84 50 85
REMARK SMILES IDX 52 86 58 87 51 88 53 89 54 90 55 91 56 92
REMARK H PARENT 78 45 46 56
REMARK Flexibility Score: inf
ROOT
ATOM      1  C   UNL A   1      31.786  30.062  25.856  1.00  0.00     0.275 C 
ENDROOT
BRANCH   1   2
ATOM      2  C   UNL A   1      31.533  29.117  24.675  1.00  0.00     0.275 C 
BRANCH   2   3
ATOM      3  O   UNL A   1      31.013  27.845  25.117  1.00  0.00    -0.459 OA
BRANCH   3   4
ATOM      4  C   UNL A   1      30.776  26.933  24.154  1.00  0.00     0.338 C 
ATOM      5  O   UNL A   1      30.126  27.132  23.137  1.00  0.00    -0.246 OA
BRANCH   4   6
ATOM      6  C   UNL A   1      31.478  25.664  24.427  1.00  0.00     0.087 C 
ATOM      7  C   UNL A   1      32.901  20.792  24.241  1.00  0.00    -0.020 A 
ATOM      8  C   UNL A   1      33.052  21.856  25.175  1.00  0.00     0.053 A 
ATOM      9  C   UNL A   1      32.233  21.112  23.035  1.00  0.00     0.045 A 
ATOM     10  C   UNL A   1      32.521  23.133  24.949  1.00  0.00     0.128 A 
ATOM     11  C   UNL A   1      31.691  22.388  22.824  1.00  0.00     0.032 A 
ATOM     12  Cl  UNL A   1      31.953  20.004  21.739  1.00  0.00    -0.084 Cl
ATOM     13  C   UNL A   1      31.803  23.379  23.792  1.00  0.00     0.019 A 
ATOM     14  O   UNL A   1      32.662  24.073  25.938  1.00  0.00    -0.475 OA
ATOM     15  C   UNL A   1      31.126  24.648  23.627  1.00  0.00     0.027 C 
ATOM     16  C   UNL A   1      32.453  25.481  25.566  1.00  0.00     0.316 C 
BRANCH   7  17
ATOM     17  C   UNL A   1      33.352  19.355  24.618  1.00  0.00    -0.012 C 
ATOM     18  C   UNL A   1      32.949  18.287  23.567  1.00  0.00     0.016 C 
ATOM     19  C   UNL A   1      32.759  18.852  25.955  1.00  0.00     0.016 C 
ATOM     20  C   UNL A   1      34.896  19.332  24.687  1.00  0.00     0.016 C 
ENDBRANCH   7  17
BRANCH  16  21
ATOM     21  C   UNL A   1      33.827  26.160  25.421  1.00  0.00     0.430 C 
ATOM     22  F   UNL A   1      33.961  27.247  26.205  1.00  0.00    -0.167 F 
ATOM     23  F   UNL A   1      34.854  25.318  25.675  1.00  0.00    -0.167 F 
ATOM     24  F   UNL A   1      34.011  26.572  24.135  1.00  0.00    -0.167 F 
ENDBRANCH  16  21
ENDBRANCH   4   6
ENDBRANCH   3   4
ENDBRANCH   2   3
ENDBRANCH   1   2
BRANCH   1  25
ATOM     25  O   UNL A   1      33.191  30.319  26.062  1.00  0.00    -0.458 OA
BRANCH  25  26
ATOM     26  C   UNL A   1      33.471  31.306  26.949  1.00  0.00     0.338 C 
ATOM     27  O   UNL A   1      32.729  32.214  27.280  1.00  0.00    -0.246 OA
BRANCH  26  28
ATOM     28  C   UNL A   1      34.760  31.036  27.614  1.00  0.00     0.060 A 
ATOM     29  C   UNL A   1      35.647  32.042  27.990  1.00  0.00     0.016 A 
ATOM     30  C   UNL A   1      35.046  29.705  27.921  1.00  0.00     0.016 A 
ATOM     31  C   UNL A   1      36.843  31.693  28.638  1.00  0.00     0.010 A 
ATOM     32  C   UNL A   1      36.232  29.357  28.561  1.00  0.00     0.010 A 
ATOM     33  C   UNL A   1      37.154  30.346  28.913  1.00  0.00    -0.014 A 
BRANCH  33  34
ATOM     34  C   UNL A   1      38.409  29.968  29.615  1.00  0.00     0.031 A 
ATOM     35  C   UNL A   1      38.721  30.491  30.994  1.00  0.00     0.074 A 
ATOM     36  C   UNL A   1      39.314  29.198  28.978  1.00  0.00     0.049 A 
ATOM     37  N   UNL A   1      39.727  30.192  31.776  1.00  0.00    -0.248 NA
ATOM     38  C   UNL A   1      37.808  31.499  31.558  1.00  0.00     0.031 C 
ATOM     39  C   UNL A   1      39.206  28.743  27.591  1.00  0.00     0.029 A 
ATOM     40  N   UNL A   1      40.503  28.666  29.412  1.00  0.00    -0.354 N 
ATOM     41  C   UNL A   1      39.584  30.987  32.906  1.00  0.00     0.074 A 
ATOM     42  C   UNL A   1      38.413  31.810  32.697  1.00  0.00     0.031 C 
ATOM     43  C   UNL A   1      40.260  27.963  27.303  1.00  0.00     0.029 A 
ATOM     44  C   UNL A   1      41.117  27.862  28.481  1.00  0.00     0.049 A 
ATOM     45  H   UNL A   1      40.880  28.843  30.304  1.00  0.00     0.167 HD
ATOM     46  C   UNL A   1      40.333  31.000  34.035  1.00  0.00     0.034 A 
ATOM     47  C   UNL A   1      42.223  27.097  28.574  1.00  0.00     0.034 A 
ATOM     48  C   UNL A   1      41.449  30.126  34.272  1.00  0.00     0.049 A 
ATOM     49  C   UNL A   1      42.969  27.033  29.878  1.00  0.00     0.074 A 
ATOM     50  C   UNL A   1      42.184  29.968  35.434  1.00  0.00     0.029 A 
ATOM     51  N   UNL A   1      41.987  29.258  33.336  1.00  0.00    -0.354 N 
ATOM     52  N   UNL A   1      42.705  27.646  31.005  1.00  0.00    -0.248 NA
ATOM     53  C   UNL A   1      44.142  26.147  29.935  1.00  0.00     0.031 C 
ATOM     54  C   UNL A   1      43.164  29.000  35.201  1.00  0.00     0.029 A 
ATOM     55  C   UNL A   1      43.042  28.560  33.893  1.00  0.00     0.049 A 
ATOM     56  H   UNL A   1      41.665  29.155  32.411  1.00  0.00     0.167 HD
ATOM     57  C   UNL A   1      43.667  27.215  31.909  1.00  0.00     0.074 A 
ATOM     58  C   UNL A   1      44.510  26.269  31.206  1.00  0.00     0.031 C 
ATOM     59  C   UNL A   1      43.844  27.586  33.200  1.00  0.00     0.034 A 
BRANCH  46  60
ATOM     60  C   UNL A   1      39.907  31.907  35.159  1.00  0.00     0.023 A 
ATOM     61  C   UNL A   1      40.302  33.260  35.123  1.00  0.00     0.012 A 
ATOM     62  C   UNL A   1      39.045  31.462  36.180  1.00  0.00     0.148 A 
ATOM     63  C   UNL A   1      39.862  34.155  36.096  1.00  0.00     0.002 A 
ATOM     64  C   UNL A   1      38.585  32.369  37.131  1.00  0.00     0.091 A 
ATOM     65  F   UNL A   1      38.684  30.172  36.196  1.00  0.00    -0.205 F 
ATOM     66  C   UNL A   1      38.998  33.711  37.093  1.00  0.00     0.022 A 
BRANCH  64  67
ATOM     67  S   UNL A   1      37.425  31.923  38.429  1.00  0.00     0.127 S 
ATOM     68  O   UNL A   1      36.322  32.849  38.167  1.00  0.00    -0.237 OA
ATOM     69  O   UNL A   1      37.135  30.525  38.113  1.00  0.00    -0.237 OA
ATOM     70  O   UNL A   1      38.123  32.136  39.688  1.00  0.00    -0.744 OA
ENDBRANCH  64  67
ENDBRANCH  46  60
BRANCH  47  71
ATOM     71  C   UNL A   1      42.597  26.226  27.428  1.00  0.00     0.023 A 
ATOM     72  C   UNL A   1      43.499  26.723  26.466  1.00  0.00     0.012 A 
ATOM     73  C   UNL A   1      42.146  24.896  27.333  1.00  0.00     0.148 A 
ATOM     74  C   UNL A   1      43.942  25.910  25.423  1.00  0.00     0.002 A 
ATOM     75  C   UNL A   1      42.620  24.082  26.311  1.00  0.00     0.091 A 
ATOM     76  F   UNL A   1      41.289  24.450  28.261  1.00  0.00    -0.205 F 
ATOM     77  C   UNL A   1      43.511  24.588  25.351  1.00  0.00     0.022 A 
BRANCH  75  78
ATOM     78  S   UNL A   1      42.208  22.337  26.189  1.00  0.00     0.127 S 
ATOM     79  O   UNL A   1      42.934  21.943  24.983  1.00  0.00    -0.237 OA
ATOM     80  O   UNL A   1      42.760  21.812  27.438  1.00  0.00    -0.237 OA
ATOM     81  O   UNL A   1      40.756  22.278  26.093  1.00  0.00    -0.744 OA
ENDBRANCH  75  78
ENDBRANCH  47  71
BRANCH  59  82
ATOM     82  C   UNL A   1      44.996  26.993  33.961  1.00  0.00     0.023 A 
ATOM     83  C   UNL A   1      46.224  27.682  33.985  1.00  0.00     0.012 A 
ATOM     84  C   UNL A   1      44.820  25.852  34.770  1.00  0.00     0.148 A 
ATOM     85  C   UNL A   1      47.262  27.245  34.805  1.00  0.00     0.002 A 
ATOM     86  C   UNL A   1      45.849  25.441  35.606  1.00  0.00     0.091 A 
ATOM     87  F   UNL A   1      43.642  25.214  34.722  1.00  0.00    -0.205 F 
ATOM     88  C   UNL A   1      47.071  26.134  35.624  1.00  0.00     0.022 A 
BRANCH  86  89
ATOM     89  S   UNL A   1      45.678  24.070  36.757  1.00  0.00     0.127 S 
ATOM     90  O   UNL A   1      44.731  24.614  37.729  1.00  0.00    -0.237 OA
ATOM     91  O   UNL A   1      45.136  23.015  35.901  1.00  0.00    -0.237 OA
ATOM     92  O   UNL A   1      47.014  23.808  37.277  1.00  0.00    -0.744 OA
ENDBRANCH  86  89
ENDBRANCH  59  82
ENDBRANCH  33  34
ENDBRANCH  26  28
ENDBRANCH  25  26
ENDBRANCH   1  25
TORSDOF 16
ENDMDL
