MODEL 1
REMARK VINA RESULT:     -11.9      0.000      0.000
REMARK SMILES O=C(CC1(CC(=O)OCCOC(=O)c2ccc(-c3c4nc(c(-c5cccc(S(=O)(=O)[O-])c5F)c5ccc([nH]5)c(-c5cccc(S(=O)(=O)[O-])c5F)c5nc(c(-c6cccc(S(=O)(=O)[O-])c6F)c6ccc3[nH]6)C=C5)C=C4)cc2)CCCCC1)NNC(=O)C1CC1
REMARK SMILES IDX 9 1 8 2 6 3 7 4 5 5 4 6 77 7 81 8 78 9 80 10 79 11 3 12 2 13
REMARK SMILES IDX 1 14 82 15 83 17 84 18 85 20 86 21 87 22 88 23 10 24 11 25
REMARK SMILES IDX 12 26 13 27 14 28 15 29 76 30 16 31 75 32 17 33 18 34 19 35
REMARK SMILES IDX 69 36 20 37 74 38 68 39 70 40 21 41 73 42 67 43 66 44 22 46
REMARK SMILES IDX 54 47 34 48 53 49 35 50 38 51 52 52 71 53 36 54 37 55 51 57
REMARK SMILES IDX 72 58 39 59 23 60 24 61 32 62 25 63 27 64 33 65 26 66 28 67
REMARK SMILES IDX 29 68 30 69 31 70 55 71 56 72 64 73 57 74 59 75 65 76 58 77
REMARK SMILES IDX 60 78 61 79 62 80 63 81 40 82 41 83 49 84 42 85 44 86 50 87
REMARK SMILES IDX 43 88 45 89 46 90 47 91 48 92
REMARK H PARENT 82 16 83 19 70 45 38 56
REMARK Flexibility Score: inf
ROOT
ATOM      1  C   UNL A   1      35.401  22.803  23.987  1.00  0.00     0.274 C 
ENDROOT
BRANCH   1   2
ATOM      2  O   UNL A   1      35.351  24.120  24.578  1.00  0.00    -0.462 OA
BRANCH   2   3
ATOM      3  C   UNL A   1      34.120  24.674  24.632  1.00  0.00     0.306 C 
ATOM      4  O   UNL A   1      33.121  24.193  24.105  1.00  0.00    -0.252 OA
BRANCH   3   5
ATOM      5  C   UNL A   1      34.022  25.974  25.401  1.00  0.00     0.130 C 
BRANCH   5   6
ATOM      6  C   UNL A   1      33.242  27.233  24.916  1.00  0.00    -0.010 C 
ATOM      7  C   UNL A   1      33.762  28.437  25.759  1.00  0.00     0.008 C 
ATOM      8  C   UNL A   1      31.711  27.148  25.139  1.00  0.00     0.008 C 
ATOM      9  C   UNL A   1      33.326  28.442  27.228  1.00  0.00     0.001 C 
ATOM     10  C   UNL A   1      31.317  27.046  26.608  1.00  0.00     0.001 C 
ATOM     11  C   UNL A   1      31.825  28.251  27.389  1.00  0.00     0.000 C 
BRANCH   6  12
ATOM     12  C   UNL A   1      33.480  27.537  23.402  1.00  0.00     0.109 C 
BRANCH  12  13
ATOM     13  C   UNL A   1      32.265  27.977  22.606  1.00  0.00     0.238 C 
ATOM     14  O   UNL A   1      31.576  27.166  21.995  1.00  0.00    -0.273 OA
ATOM     15  N   UNL A   1      31.983  29.326  22.563  1.00  0.00    -0.268 N 
ATOM     16  H   UNL A   1      32.432  29.973  23.154  1.00  0.00     0.191 HD
BRANCH  15  17
ATOM     17  N   UNL A   1      31.022  29.715  21.628  1.00  0.00    -0.267 N 
ATOM     18  C   UNL A   1      29.722  30.077  21.883  1.00  0.00     0.241 C 
ATOM     19  H   UNL A   1      31.306  29.731  20.686  1.00  0.00     0.191 HD
ATOM     20  O   UNL A   1      29.081  30.700  21.043  1.00  0.00    -0.273 OA
BRANCH  18  21
ATOM     21  C   UNL A   1      29.021  29.651  23.121  1.00  0.00     0.080 C 
ATOM     22  C   UNL A   1      27.554  29.437  23.361  1.00  0.00     0.014 C 
ATOM     23  C   UNL A   1      28.432  28.250  23.127  1.00  0.00     0.014 C 
ENDBRANCH  18  21
ENDBRANCH  15  17
ENDBRANCH  12  13
ENDBRANCH   6  12
ENDBRANCH   5   6
ENDBRANCH   3   5
ENDBRANCH   2   3
ENDBRANCH   1   2
BRANCH   1  24
ATOM     24  C   UNL A   1      36.793  22.197  24.123  1.00  0.00     0.275 C 
BRANCH  24  25
ATOM     25  O   UNL A   1      37.066  21.887  25.497  1.00  0.00    -0.458 OA
BRANCH  25  26
ATOM     26  C   UNL A   1      38.369  21.643  25.773  1.00  0.00     0.338 C 
ATOM     27  O   UNL A   1      38.992  20.626  25.514  1.00  0.00    -0.246 OA
BRANCH  26  28
ATOM     28  C   UNL A   1      38.959  22.799  26.465  1.00  0.00     0.060 A 
ATOM     29  C   UNL A   1      38.505  24.090  26.187  1.00  0.00     0.016 A 
ATOM     30  C   UNL A   1      40.086  22.602  27.260  1.00  0.00     0.016 A 
ATOM     31  C   UNL A   1      39.257  25.188  26.601  1.00  0.00     0.010 A 
ATOM     32  C   UNL A   1      40.767  23.707  27.772  1.00  0.00     0.010 A 
ATOM     33  C   UNL A   1      40.387  25.012  27.414  1.00  0.00    -0.014 A 
BRANCH  33  34
ATOM     34  C   UNL A   1      41.157  26.178  27.922  1.00  0.00     0.031 A 
ATOM     35  C   UNL A   1      40.476  27.271  28.704  1.00  0.00     0.074 A 
ATOM     36  C   UNL A   1      42.462  26.290  27.607  1.00  0.00     0.049 A 
ATOM     37  N   UNL A   1      40.929  28.454  29.035  1.00  0.00    -0.248 NA
ATOM     38  C   UNL A   1      39.099  27.011  29.155  1.00  0.00     0.031 C 
ATOM     39  C   UNL A   1      43.236  25.304  26.849  1.00  0.00     0.029 A 
ATOM     40  N   UNL A   1      43.362  27.296  27.856  1.00  0.00    -0.354 N 
ATOM     41  C   UNL A   1      39.878  29.102  29.673  1.00  0.00     0.074 A 
ATOM     42  C   UNL A   1      38.763  28.178  29.689  1.00  0.00     0.031 C 
ATOM     43  C   UNL A   1      44.489  25.751  26.693  1.00  0.00     0.029 A 
ATOM     44  C   UNL A   1      44.588  27.086  27.271  1.00  0.00     0.049 A 
ATOM     45  H   UNL A   1      43.150  28.090  28.399  1.00  0.00     0.167 HD
ATOM     46  C   UNL A   1      39.850  30.349  30.204  1.00  0.00     0.034 A 
ATOM     47  C   UNL A   1      45.664  27.889  27.166  1.00  0.00     0.034 A 
ATOM     48  C   UNL A   1      40.986  31.233  30.247  1.00  0.00     0.049 A 
ATOM     49  C   UNL A   1      45.614  29.255  27.781  1.00  0.00     0.074 A 
ATOM     50  C   UNL A   1      41.076  32.493  30.815  1.00  0.00     0.029 A 
ATOM     51  N   UNL A   1      42.234  30.948  29.713  1.00  0.00    -0.354 N 
ATOM     52  N   UNL A   1      44.635  29.828  28.439  1.00  0.00    -0.248 NA
ATOM     53  C   UNL A   1      46.822  30.083  27.657  1.00  0.00     0.031 C 
ATOM     54  C   UNL A   1      42.375  32.973  30.614  1.00  0.00     0.029 A 
ATOM     55  C   UNL A   1      43.098  32.008  29.932  1.00  0.00     0.049 A 
ATOM     56  H   UNL A   1      42.471  30.114  29.247  1.00  0.00     0.167 HD
ATOM     57  C   UNL A   1      45.112  31.072  28.827  1.00  0.00     0.074 A 
ATOM     58  C   UNL A   1      46.479  31.160  28.351  1.00  0.00     0.031 C 
ATOM     59  C   UNL A   1      44.471  32.061  29.496  1.00  0.00     0.034 A 
BRANCH  46  60
ATOM     60  C   UNL A   1      38.560  30.827  30.820  1.00  0.00     0.023 A 
ATOM     61  C   UNL A   1      38.367  30.716  32.211  1.00  0.00     0.012 A 
ATOM     62  C   UNL A   1      37.569  31.453  30.035  1.00  0.00     0.148 A 
ATOM     63  C   UNL A   1      37.201  31.195  32.809  1.00  0.00     0.002 A 
ATOM     64  C   UNL A   1      36.425  31.962  30.644  1.00  0.00     0.091 A 
ATOM     65  F   UNL A   1      37.755  31.533  28.710  1.00  0.00    -0.205 F 
ATOM     66  C   UNL A   1      36.236  31.827  32.028  1.00  0.00     0.022 A 
BRANCH  64  67
ATOM     67  S   UNL A   1      35.166  32.859  29.726  1.00  0.00     0.127 S 
ATOM     68  O   UNL A   1      34.683  31.831  28.804  1.00  0.00    -0.237 OA
ATOM     69  O   UNL A   1      34.215  33.227  30.777  1.00  0.00    -0.237 OA
ATOM     70  O   UNL A   1      35.849  33.987  29.112  1.00  0.00    -0.744 OA
ENDBRANCH  64  67
ENDBRANCH  46  60
BRANCH  47  71
ATOM     71  C   UNL A   1      46.881  27.387  26.470  1.00  0.00     0.023 A 
ATOM     72  C   UNL A   1      47.703  26.446  27.119  1.00  0.00     0.012 A 
ATOM     73  C   UNL A   1      47.178  27.765  25.146  1.00  0.00     0.148 A 
ATOM     74  C   UNL A   1      48.806  25.898  26.464  1.00  0.00     0.002 A 
ATOM     75  C   UNL A   1      48.244  27.171  24.480  1.00  0.00     0.091 A 
ATOM     76  F   UNL A   1      46.395  28.677  24.553  1.00  0.00    -0.205 F 
ATOM     77  C   UNL A   1      49.068  26.248  25.142  1.00  0.00     0.022 A 
BRANCH  75  78
ATOM     78  S   UNL A   1      48.554  27.450  22.732  1.00  0.00     0.127 S 
ATOM     79  O   UNL A   1      49.820  28.175  22.764  1.00  0.00    -0.237 OA
ATOM     80  O   UNL A   1      48.641  26.082  22.214  1.00  0.00    -0.237 OA
ATOM     81  O   UNL A   1      47.403  28.198  22.246  1.00  0.00    -0.744 OA
ENDBRANCH  75  78
ENDBRANCH  47  71
BRANCH  59  82
ATOM     82  C   UNL A   1      45.244  33.322  29.771  1.00  0.00     0.023 A 
ATOM     83  C   UNL A   1      45.946  33.453  30.985  1.00  0.00     0.012 A 
ATOM     84  C   UNL A   1      45.324  34.348  28.809  1.00  0.00     0.148 A 
ATOM     85  C   UNL A   1      46.695  34.599  31.250  1.00  0.00     0.002 A 
ATOM     86  C   UNL A   1      46.105  35.469  29.063  1.00  0.00     0.091 A 
ATOM     87  F   UNL A   1      44.630  34.215  27.669  1.00  0.00    -0.205 F 
ATOM     88  C   UNL A   1      46.783  35.601  30.287  1.00  0.00     0.022 A 
BRANCH  86  89
ATOM     89  S   UNL A   1      46.341  36.769  27.845  1.00  0.00     0.127 S 
ATOM     90  O   UNL A   1      44.962  37.150  27.543  1.00  0.00    -0.237 OA
ATOM     91  O   UNL A   1      47.100  37.769  28.595  1.00  0.00    -0.237 OA
ATOM     92  O   UNL A   1      47.079  36.155  26.748  1.00  0.00    -0.744 OA
ENDBRANCH  86  89
ENDBRANCH  59  82
ENDBRANCH  33  34
ENDBRANCH  26  28
ENDBRANCH  25  26
ENDBRANCH  24  25
ENDBRANCH   1  24
TORSDOF 19
ENDMDL
MODEL 2
REMARK VINA RESULT:     -11.7      5.194      9.866
REMARK SMILES O=C(CC1(CC(=O)OCCOC(=O)c2ccc(-c3c4nc(c(-c5cccc(S(=O)(=O)[O-])c5F)c5ccc([nH]5)c(-c5cccc(S(=O)(=O)[O-])c5F)c5nc(c(-c6cccc(S(=O)(=O)[O-])c6F)c6ccc3[nH]6)C=C5)C=C4)cc2)CCCCC1)NNC(=O)C1CC1
REMARK SMILES IDX 9 1 8 2 6 3 7 4 5 5 4 6 77 7 81 8 78 9 80 10 79 11 3 12 2 13
REMARK SMILES IDX 1 14 82 15 83 17 84 18 85 20 86 21 87 22 88 23 10 24 11 25
REMARK SMILES IDX 12 26 13 27 14 28 15 29 76 30 16 31 75 32 17 33 18 34 19 35
REMARK SMILES IDX 69 36 20 37 74 38 68 39 70 40 21 41 73 42 67 43 66 44 22 46
REMARK SMILES IDX 54 47 34 48 53 49 35 50 38 51 52 52 71 53 36 54 37 55 51 57
REMARK SMILES IDX 72 58 39 59 23 60 24 61 32 62 25 63 27 64 33 65 26 66 28 67
REMARK SMILES IDX 29 68 30 69 31 70 55 71 56 72 64 73 57 74 59 75 65 76 58 77
REMARK SMILES IDX 60 78 61 79 62 80 63 81 40 82 41 83 49 84 42 85 44 86 50 87
REMARK SMILES IDX 43 88 45 89 46 90 47 91 48 92
REMARK H PARENT 82 16 83 19 70 45 38 56
REMARK Flexibility Score: inf
ROOT
ATOM      1  C   UNL A   1      31.015  30.793  26.057  1.00  0.00     0.274 C 
ENDROOT
BRANCH   1   2
ATOM      2  O   UNL A   1      31.938  29.730  25.735  1.00  0.00    -0.462 OA
BRANCH   2   3
ATOM      3  C   UNL A   1      31.889  28.662  26.562  1.00  0.00     0.306 C 
ATOM      4  O   UNL A   1      31.299  28.648  27.638  1.00  0.00    -0.252 OA
BRANCH   3   5
ATOM      5  C   UNL A   1      32.632  27.433  26.086  1.00  0.00     0.130 C 
BRANCH   5   6
ATOM      6  C   UNL A   1      32.252  26.602  24.824  1.00  0.00    -0.010 C 
ATOM      7  C   UNL A   1      30.697  26.506  24.799  1.00  0.00     0.008 C 
ATOM      8  C   UNL A   1      32.798  25.151  24.838  1.00  0.00     0.008 C 
ATOM      9  C   UNL A   1      30.082  25.601  25.871  1.00  0.00     0.001 C 
ATOM     10  C   UNL A   1      32.246  24.309  25.982  1.00  0.00     0.001 C 
ATOM     11  C   UNL A   1      30.727  24.223  25.907  1.00  0.00     0.000 C 
BRANCH   6  12
ATOM     12  C   UNL A   1      32.737  27.272  23.498  1.00  0.00     0.109 C 
BRANCH  12  13
ATOM     13  C   UNL A   1      31.663  27.895  22.626  1.00  0.00     0.238 C 
ATOM     14  O   UNL A   1      31.075  27.237  21.773  1.00  0.00    -0.273 OA
ATOM     15  N   UNL A   1      31.394  29.235  22.802  1.00  0.00    -0.268 N 
ATOM     16  H   UNL A   1      31.747  29.743  23.568  1.00  0.00     0.191 HD
BRANCH  15  17
ATOM     17  N   UNL A   1      30.591  29.826  21.824  1.00  0.00    -0.267 N 
ATOM     18  C   UNL A   1      29.473  30.597  22.029  1.00  0.00     0.241 C 
ATOM     19  H   UNL A   1      30.853  29.673  20.889  1.00  0.00     0.191 HD
ATOM     20  O   UNL A   1      29.049  31.317  21.131  1.00  0.00    -0.273 OA
BRANCH  18  21
ATOM     21  C   UNL A   1      28.690  30.517  23.289  1.00  0.00     0.080 C 
ATOM     22  C   UNL A   1      27.453  31.267  23.692  1.00  0.00     0.014 C 
ATOM     23  C   UNL A   1      27.323  29.859  23.205  1.00  0.00     0.014 C 
ENDBRANCH  18  21
ENDBRANCH  15  17
ENDBRANCH  12  13
ENDBRANCH   6  12
ENDBRANCH   5   6
ENDBRANCH   3   5
ENDBRANCH   2   3
ENDBRANCH   1   2
BRANCH   1  24
ATOM     24  C   UNL A   1      31.746  31.985  26.662  1.00  0.00     0.275 C 
BRANCH  24  25
ATOM     25  O   UNL A   1      33.108  31.635  26.953  1.00  0.00    -0.458 OA
BRANCH  25  26
ATOM     26  C   UNL A   1      33.789  32.562  27.667  1.00  0.00     0.338 C 
ATOM     27  O   UNL A   1      33.416  33.692  27.939  1.00  0.00    -0.246 OA
BRANCH  26  28
ATOM     28  C   UNL A   1      35.093  32.019  28.077  1.00  0.00     0.060 A 
ATOM     29  C   UNL A   1      35.211  30.677  28.442  1.00  0.00     0.016 A 
ATOM     30  C   UNL A   1      36.157  32.900  28.262  1.00  0.00     0.016 A 
ATOM     31  C   UNL A   1      36.353  30.244  29.113  1.00  0.00     0.010 A 
ATOM     32  C   UNL A   1      37.344  32.431  28.827  1.00  0.00     0.010 A 
ATOM     33  C   UNL A   1      37.442  31.111  29.298  1.00  0.00    -0.014 A 
BRANCH  33  34
ATOM     34  C   UNL A   1      38.695  30.642  29.949  1.00  0.00     0.031 A 
ATOM     35  C   UNL A   1      39.574  29.618  29.282  1.00  0.00     0.074 A 
ATOM     36  C   UNL A   1      38.997  31.086  31.185  1.00  0.00     0.049 A 
ATOM     37  N   UNL A   1      40.573  28.936  29.783  1.00  0.00    -0.248 NA
ATOM     38  C   UNL A   1      39.281  29.300  27.875  1.00  0.00     0.031 C 
ATOM     39  C   UNL A   1      38.222  32.071  31.942  1.00  0.00     0.029 A 
ATOM     40  N   UNL A   1      40.018  30.742  32.036  1.00  0.00    -0.354 N 
ATOM     41  C   UNL A   1      40.986  28.067  28.780  1.00  0.00     0.074 A 
ATOM     42  C   UNL A   1      40.132  28.310  27.636  1.00  0.00     0.031 C 
ATOM     43  C   UNL A   1      38.791  32.253  33.141  1.00  0.00     0.029 A 
ATOM     44  C   UNL A   1      39.923  31.344  33.269  1.00  0.00     0.049 A 
ATOM     45  H   UNL A   1      40.745  30.127  31.789  1.00  0.00     0.167 HD
ATOM     46  C   UNL A   1      41.989  27.156  28.809  1.00  0.00     0.034 A 
ATOM     47  C   UNL A   1      40.632  31.157  34.397  1.00  0.00     0.034 A 
ATOM     48  C   UNL A   1      42.879  26.971  29.926  1.00  0.00     0.049 A 
ATOM     49  C   UNL A   1      41.752  30.160  34.395  1.00  0.00     0.074 A 
ATOM     50  C   UNL A   1      43.964  26.116  30.032  1.00  0.00     0.029 A 
ATOM     51  N   UNL A   1      42.797  27.660  31.127  1.00  0.00    -0.354 N 
ATOM     52  N   UNL A   1      42.172  29.394  33.417  1.00  0.00    -0.248 NA
ATOM     53  C   UNL A   1      42.510  30.011  35.645  1.00  0.00     0.031 C 
ATOM     54  C   UNL A   1      44.529  26.280  31.302  1.00  0.00     0.029 A 
ATOM     55  C   UNL A   1      43.806  27.246  31.982  1.00  0.00     0.049 A 
ATOM     56  H   UNL A   1      42.121  28.342  31.342  1.00  0.00     0.167 HD
ATOM     57  C   UNL A   1      43.255  28.688  33.924  1.00  0.00     0.074 A 
ATOM     58  C   UNL A   1      43.442  29.137  35.290  1.00  0.00     0.031 C 
ATOM     59  C   UNL A   1      44.010  27.738  33.321  1.00  0.00     0.034 A 
BRANCH  46  60
ATOM     60  C   UNL A   1      42.212  26.309  27.582  1.00  0.00     0.023 A 
ATOM     61  C   UNL A   1      42.873  26.858  26.465  1.00  0.00     0.012 A 
ATOM     62  C   UNL A   1      41.834  24.950  27.559  1.00  0.00     0.148 A 
ATOM     63  C   UNL A   1      43.132  26.079  25.337  1.00  0.00     0.002 A 
ATOM     64  C   UNL A   1      42.130  24.169  26.446  1.00  0.00     0.091 A 
ATOM     65  F   UNL A   1      41.187  24.447  28.620  1.00  0.00    -0.205 F 
ATOM     66  C   UNL A   1      42.770  24.734  25.331  1.00  0.00     0.022 A 
BRANCH  64  67
ATOM     67  S   UNL A   1      41.769  22.409  26.382  1.00  0.00     0.127 S 
ATOM     68  O   UNL A   1      42.466  22.007  25.160  1.00  0.00    -0.237 OA
ATOM     69  O   UNL A   1      42.379  21.919  27.619  1.00  0.00    -0.237 OA
ATOM     70  O   UNL A   1      40.317  22.303  26.344  1.00  0.00    -0.744 OA
ENDBRANCH  64  67
ENDBRANCH  46  60
BRANCH  47  71
ATOM     71  C   UNL A   1      40.308  31.968  35.604  1.00  0.00     0.023 A 
ATOM     72  C   UNL A   1      41.045  33.139  35.862  1.00  0.00     0.012 A 
ATOM     73  C   UNL A   1      39.223  31.638  36.440  1.00  0.00     0.148 A 
ATOM     74  C   UNL A   1      40.715  33.961  36.939  1.00  0.00     0.002 A 
ATOM     75  C   UNL A   1      38.863  32.493  37.475  1.00  0.00     0.091 A 
ATOM     76  F   UNL A   1      38.545  30.509  36.188  1.00  0.00    -0.205 F 
ATOM     77  C   UNL A   1      39.616  33.647  37.735  1.00  0.00     0.022 A 
BRANCH  75  78
ATOM     78  S   UNL A   1      37.372  32.242  38.447  1.00  0.00     0.127 S 
ATOM     79  O   UNL A   1      37.759  32.797  39.740  1.00  0.00    -0.237 OA
ATOM     80  O   UNL A   1      36.387  33.035  37.707  1.00  0.00    -0.237 OA
ATOM     81  O   UNL A   1      37.124  30.808  38.417  1.00  0.00    -0.744 OA
ENDBRANCH  75  78
ENDBRANCH  47  71
BRANCH  59  82
ATOM     82  C   UNL A   1      45.125  27.129  34.128  1.00  0.00     0.023 A 
ATOM     83  C   UNL A   1      46.392  27.742  34.133  1.00  0.00     0.012 A 
ATOM     84  C   UNL A   1      44.904  25.988  34.923  1.00  0.00     0.148 A 
ATOM     85  C   UNL A   1      47.432  27.214  34.896  1.00  0.00     0.002 A 
ATOM     86  C   UNL A   1      45.933  25.490  35.714  1.00  0.00     0.091 A 
ATOM     87  F   UNL A   1      43.696  25.403  34.888  1.00  0.00    -0.205 F 
ATOM     88  C   UNL A   1      47.201  26.097  35.694  1.00  0.00     0.022 A 
BRANCH  86  89
ATOM     89  S   UNL A   1      45.698  24.105  36.834  1.00  0.00     0.127 S 
ATOM     90  O   UNL A   1      44.769  24.666  37.813  1.00  0.00    -0.237 OA
ATOM     91  O   UNL A   1      45.119  23.087  35.958  1.00  0.00    -0.237 OA
ATOM     92  O   UNL A   1      47.024  23.776  37.342  1.00  0.00    -0.744 OA
ENDBRANCH  86  89
ENDBRANCH  59  82
ENDBRANCH  33  34
ENDBRANCH  26  28
ENDBRANCH  25  26
ENDBRANCH  24  25
ENDBRANCH   1  24
TORSDOF 19
ENDMDL
MODEL 3
REMARK VINA RESULT:     -11.6      2.426      3.856
REMARK SMILES O=C(CC1(CC(=O)OCCOC(=O)c2ccc(-c3c4nc(c(-c5cccc(S(=O)(=O)[O-])c5F)c5ccc([nH]5)c(-c5cccc(S(=O)(=O)[O-])c5F)c5nc(c(-c6cccc(S(=O)(=O)[O-])c6F)c6ccc3[nH]6)C=C5)C=C4)cc2)CCCCC1)NNC(=O)C1CC1
REMARK SMILES IDX 9 1 8 2 6 3 7 4 5 5 4 6 77 7 81 8 78 9 80 10 79 11 3 12 2 13
REMARK SMILES IDX 1 14 82 15 83 17 84 18 85 20 86 21 87 22 88 23 10 24 11 25
REMARK SMILES IDX 12 26 13 27 14 28 15 29 76 30 16 31 75 32 17 33 18 34 19 35
REMARK SMILES IDX 69 36 20 37 74 38 68 39 70 40 21 41 73 42 67 43 66 44 22 46
REMARK SMILES IDX 54 47 34 48 53 49 35 50 38 51 52 52 71 53 36 54 37 55 51 57
REMARK SMILES IDX 72 58 39 59 23 60 24 61 32 62 25 63 27 64 33 65 26 66 28 67
REMARK SMILES IDX 29 68 30 69 31 70 55 71 56 72 64 73 57 74 59 75 65 76 58 77
REMARK SMILES IDX 60 78 61 79 62 80 63 81 40 82 41 83 49 84 42 85 44 86 50 87
REMARK SMILES IDX 43 88 45 89 46 90 47 91 48 92
REMARK H PARENT 82 16 83 19 70 45 38 56
REMARK Flexibility Score: inf
ROOT
ATOM      1  C   UNL A   1      36.164  22.720  23.659  1.00  0.00     0.274 C 
ENDROOT
BRANCH   1   2
ATOM      2  O   UNL A   1      34.754  22.546  23.923  1.00  0.00    -0.462 OA
BRANCH   2   3
ATOM      3  C   UNL A   1      33.935  23.329  23.188  1.00  0.00     0.306 C 
ATOM      4  O   UNL A   1      34.088  23.556  21.991  1.00  0.00    -0.252 OA
BRANCH   3   5
ATOM      5  C   UNL A   1      32.774  23.945  23.937  1.00  0.00     0.130 C 
BRANCH   5   6
ATOM      6  C   UNL A   1      32.899  24.716  25.284  1.00  0.00    -0.010 C 
ATOM      7  C   UNL A   1      31.562  25.493  25.485  1.00  0.00     0.008 C 
ATOM      8  C   UNL A   1      34.041  25.764  25.305  1.00  0.00     0.008 C 
ATOM      9  C   UNL A   1      31.354  26.687  24.548  1.00  0.00     0.001 C 
ATOM     10  C   UNL A   1      33.856  26.882  24.285  1.00  0.00     0.001 C 
ATOM     11  C   UNL A   1      32.550  27.627  24.531  1.00  0.00     0.000 C 
BRANCH   6  12
ATOM     12  C   UNL A   1      33.116  23.762  26.502  1.00  0.00     0.109 C 
BRANCH  12  13
ATOM     13  C   UNL A   1      32.562  22.357  26.363  1.00  0.00     0.238 C 
ATOM     14  O   UNL A   1      31.353  22.148  26.341  1.00  0.00    -0.273 OA
ATOM     15  N   UNL A   1      33.465  21.318  26.296  1.00  0.00    -0.268 N 
ATOM     16  H   UNL A   1      34.429  21.470  26.170  1.00  0.00     0.191 HD
BRANCH  15  17
ATOM     17  N   UNL A   1      32.925  20.036  26.422  1.00  0.00    -0.267 N 
ATOM     18  C   UNL A   1      32.988  19.020  25.501  1.00  0.00     0.241 C 
ATOM     19  H   UNL A   1      32.449  19.840  27.260  1.00  0.00     0.191 HD
ATOM     20  O   UNL A   1      32.769  17.863  25.844  1.00  0.00    -0.273 OA
BRANCH  18  21
ATOM     21  C   UNL A   1      33.220  19.288  24.058  1.00  0.00     0.080 C 
ATOM     22  C   UNL A   1      32.539  18.698  22.857  1.00  0.00     0.014 C 
ATOM     23  C   UNL A   1      32.138  20.061  23.322  1.00  0.00     0.014 C 
ENDBRANCH  18  21
ENDBRANCH  15  17
ENDBRANCH  12  13
ENDBRANCH   6  12
ENDBRANCH   5   6
ENDBRANCH   3   5
ENDBRANCH   2   3
ENDBRANCH   1   2
BRANCH   1  24
ATOM     24  C   UNL A   1      36.956  21.494  24.098  1.00  0.00     0.275 C 
BRANCH  24  25
ATOM     25  O   UNL A   1      37.238  21.565  25.503  1.00  0.00    -0.458 OA
BRANCH  25  26
ATOM     26  C   UNL A   1      38.530  21.322  25.832  1.00  0.00     0.338 C 
ATOM     27  O   UNL A   1      39.149  20.287  25.641  1.00  0.00    -0.246 OA
BRANCH  26  28
ATOM     28  C   UNL A   1      39.110  22.503  26.489  1.00  0.00     0.060 A 
ATOM     29  C   UNL A   1      38.628  23.779  26.191  1.00  0.00     0.016 A 
ATOM     30  C   UNL A   1      40.253  22.342  27.269  1.00  0.00     0.016 A 
ATOM     31  C   UNL A   1      39.367  24.899  26.568  1.00  0.00     0.010 A 
ATOM     32  C   UNL A   1      40.923  23.470  27.745  1.00  0.00     0.010 A 
ATOM     33  C   UNL A   1      40.513  24.760  27.366  1.00  0.00    -0.014 A 
BRANCH  33  34
ATOM     34  C   UNL A   1      41.271  25.951  27.836  1.00  0.00     0.031 A 
ATOM     35  C   UNL A   1      40.597  27.019  28.657  1.00  0.00     0.074 A 
ATOM     36  C   UNL A   1      42.552  26.106  27.451  1.00  0.00     0.049 A 
ATOM     37  N   UNL A   1      41.028  28.216  28.967  1.00  0.00    -0.248 NA
ATOM     38  C   UNL A   1      39.256  26.713  29.180  1.00  0.00     0.031 C 
ATOM     39  C   UNL A   1      43.316  25.149  26.648  1.00  0.00     0.029 A 
ATOM     40  N   UNL A   1      43.431  27.142  27.654  1.00  0.00    -0.354 N 
ATOM     41  C   UNL A   1      39.992  28.828  29.663  1.00  0.00     0.074 A 
ATOM     42  C   UNL A   1      38.910  27.867  29.736  1.00  0.00     0.031 C 
ATOM     43  C   UNL A   1      44.543  25.638  26.427  1.00  0.00     0.029 A 
ATOM     44  C   UNL A   1      44.629  26.974  27.003  1.00  0.00     0.049 A 
ATOM     45  H   UNL A   1      43.222  27.927  28.211  1.00  0.00     0.167 HD
ATOM     46  C   UNL A   1      39.951  30.072  30.199  1.00  0.00     0.034 A 
ATOM     47  C   UNL A   1      45.670  27.812  26.842  1.00  0.00     0.034 A 
ATOM     48  C   UNL A   1      41.057  30.994  30.183  1.00  0.00     0.049 A 
ATOM     49  C   UNL A   1      45.609  29.175  27.465  1.00  0.00     0.074 A 
ATOM     50  C   UNL A   1      41.136  32.255  30.750  1.00  0.00     0.029 A 
ATOM     51  N   UNL A   1      42.283  30.751  29.581  1.00  0.00    -0.354 N 
ATOM     52  N   UNL A   1      44.648  29.714  28.176  1.00  0.00    -0.248 NA
ATOM     53  C   UNL A   1      46.779  30.043  27.278  1.00  0.00     0.031 C 
ATOM     54  C   UNL A   1      42.406  32.779  30.480  1.00  0.00     0.029 A 
ATOM     55  C   UNL A   1      43.123  31.839  29.757  1.00  0.00     0.049 A 
ATOM     56  H   UNL A   1      42.522  29.926  29.100  1.00  0.00     0.167 HD
ATOM     57  C   UNL A   1      45.104  30.973  28.542  1.00  0.00     0.074 A 
ATOM     58  C   UNL A   1      46.440  31.107  27.993  1.00  0.00     0.031 C 
ATOM     59  C   UNL A   1      44.467  31.938  29.248  1.00  0.00     0.034 A 
BRANCH  46  60
ATOM     60  C   UNL A   1      38.681  30.506  30.885  1.00  0.00     0.023 A 
ATOM     61  C   UNL A   1      38.534  30.308  32.272  1.00  0.00     0.012 A 
ATOM     62  C   UNL A   1      37.664  31.176  30.174  1.00  0.00     0.148 A 
ATOM     63  C   UNL A   1      37.387  30.744  32.937  1.00  0.00     0.002 A 
ATOM     64  C   UNL A   1      36.540  31.641  30.850  1.00  0.00     0.091 A 
ATOM     65  F   UNL A   1      37.806  31.338  28.851  1.00  0.00    -0.205 F 
ATOM     66  C   UNL A   1      36.396  31.419  32.228  1.00  0.00     0.022 A 
BRANCH  64  67
ATOM     67  S   UNL A   1      35.249  32.588  30.031  1.00  0.00     0.127 S 
ATOM     68  O   UNL A   1      34.310  32.821  31.129  1.00  0.00    -0.237 OA
ATOM     69  O   UNL A   1      35.970  33.782  29.586  1.00  0.00    -0.237 OA
ATOM     70  O   UNL A   1      34.760  31.743  28.952  1.00  0.00    -0.744 OA
ENDBRANCH  64  67
ENDBRANCH  46  60
BRANCH  47  71
ATOM     71  C   UNL A   1      46.865  27.352  26.081  1.00  0.00     0.023 A 
ATOM     72  C   UNL A   1      46.983  27.690  24.720  1.00  0.00     0.012 A 
ATOM     73  C   UNL A   1      47.918  26.664  26.714  1.00  0.00     0.148 A 
ATOM     74  C   UNL A   1      48.125  27.342  24.000  1.00  0.00     0.002 A 
ATOM     75  C   UNL A   1      49.078  26.373  26.005  1.00  0.00     0.091 A 
ATOM     76  F   UNL A   1      47.779  26.334  28.006  1.00  0.00    -0.205 F 
ATOM     77  C   UNL A   1      49.178  26.698  24.645  1.00  0.00     0.022 A 
BRANCH  75  78
ATOM     78  S   UNL A   1      50.537  25.687  26.800  1.00  0.00     0.127 S 
ATOM     79  O   UNL A   1      51.422  25.464  25.661  1.00  0.00    -0.237 OA
ATOM     80  O   UNL A   1      50.942  26.777  27.690  1.00  0.00    -0.237 OA
ATOM     81  O   UNL A   1      50.077  24.492  27.494  1.00  0.00    -0.744 OA
ENDBRANCH  75  78
ENDBRANCH  47  71
BRANCH  59  82
ATOM     82  C   UNL A   1      45.212  33.224  29.485  1.00  0.00     0.023 A 
ATOM     83  C   UNL A   1      46.096  33.321  30.576  1.00  0.00     0.012 A 
ATOM     84  C   UNL A   1      45.082  34.311  28.599  1.00  0.00     0.148 A 
ATOM     85  C   UNL A   1      46.821  34.491  30.799  1.00  0.00     0.002 A 
ATOM     86  C   UNL A   1      45.838  35.459  28.804  1.00  0.00     0.091 A 
ATOM     87  F   UNL A   1      44.218  34.208  27.578  1.00  0.00    -0.205 F 
ATOM     88  C   UNL A   1      46.701  35.555  29.909  1.00  0.00     0.022 A 
BRANCH  86  89
ATOM     89  S   UNL A   1      45.807  36.845  27.660  1.00  0.00     0.127 S 
ATOM     90  O   UNL A   1      46.701  36.378  26.601  1.00  0.00    -0.237 OA
ATOM     91  O   UNL A   1      44.396  36.908  27.281  1.00  0.00    -0.237 OA
ATOM     92  O   UNL A   1      46.277  37.997  28.418  1.00  0.00    -0.744 OA
ENDBRANCH  86  89
ENDBRANCH  59  82
ENDBRANCH  33  34
ENDBRANCH  26  28
ENDBRANCH  25  26
ENDBRANCH  24  25
ENDBRANCH   1  24
TORSDOF 19
ENDMDL
