MODEL 1
REMARK VINA RESULT:     -10.1      0.000      0.000
REMARK SMILES C=Cc1cccc(-c2ccc([C@@H](C)C(=O)OCCOC(=O)c3ccc(-c4c5nc(c(-c6cccc(S(=O)(=O)[O-])c6F)c6ccc([nH]6)c(-c6cccc(S(=O)(=O)[O-])c6F)c6nc(c(-c7cccc(S(=O)(=O)[O-])c7F)c7ccc4[nH]7)C=C6)C=C5)cc3)cc2)c1
REMARK SMILES IDX 17 1 16 2 14 3 15 4 12 5 13 6 11 7 8 8 9 9 86 10 10 11 85 12
REMARK SMILES IDX 7 13 3 14 4 15 87 16 5 17 6 18 2 19 1 20 18 21 19 22 20 23
REMARK SMILES IDX 21 24 22 25 23 26 84 27 24 28 83 29 25 30 26 31 27 32 77 33
REMARK SMILES IDX 28 34 82 35 76 36 78 37 29 38 81 39 75 40 74 41 30 43 62 44
REMARK SMILES IDX 42 45 61 46 43 47 46 48 60 49 79 50 44 51 45 52 59 54 80 55
REMARK SMILES IDX 47 56 31 57 32 58 40 59 33 60 35 61 41 62 34 63 36 64 37 65
REMARK SMILES IDX 38 66 39 67 63 68 64 69 72 70 65 71 67 72 73 73 66 74 68 75
REMARK SMILES IDX 69 76 70 77 71 78 48 79 49 80 57 81 50 82 52 83 58 84 51 85
REMARK SMILES IDX 53 86 54 87 55 88 56 89
REMARK H PARENT 78 42 46 53
REMARK Flexibility Score: inf
ROOT
ATOM      1  C   UNL A   1      33.614  34.197  29.159  1.00  0.00     0.274 C 
ENDROOT
BRANCH   1   2
ATOM      2  O   UNL A   1      34.546  34.590  30.185  1.00  0.00    -0.462 OA
BRANCH   2   3
ATOM      3  C   UNL A   1      34.507  33.884  31.344  1.00  0.00     0.313 C 
ATOM      4  O   UNL A   1      33.617  33.986  32.183  1.00  0.00    -0.252 OA
BRANCH   3   5
ATOM      5  C   UNL A   1      35.716  32.984  31.561  1.00  0.00     0.126 C 
ATOM      6  C   UNL A   1      35.809  32.597  33.037  1.00  0.00     0.025 C 
BRANCH   5   7
ATOM      7  C   UNL A   1      37.043  33.486  31.013  1.00  0.00    -0.034 A 
ATOM      8  C   UNL A   1      39.573  34.289  29.986  1.00  0.00    -0.018 A 
ATOM      9  C   UNL A   1      39.152  34.673  31.269  1.00  0.00     0.009 A 
ATOM     10  C   UNL A   1      38.688  33.527  29.211  1.00  0.00     0.009 A 
ATOM     11  C   UNL A   1      37.910  34.277  31.777  1.00  0.00     0.005 A 
ATOM     12  C   UNL A   1      37.445  33.130  29.717  1.00  0.00     0.005 A 
BRANCH   8  13
ATOM     13  C   UNL A   1      40.922  34.623  29.496  1.00  0.00    -0.018 A 
ATOM     14  C   UNL A   1      42.417  35.839  27.981  1.00  0.00    -0.026 A 
ATOM     15  C   UNL A   1      43.512  35.161  28.530  1.00  0.00     0.008 A 
ATOM     16  C   UNL A   1      41.129  35.556  28.464  1.00  0.00     0.016 A 
ATOM     17  C   UNL A   1      43.330  34.239  29.558  1.00  0.00     0.001 A 
ATOM     18  C   UNL A   1      42.047  33.975  30.035  1.00  0.00     0.009 A 
BRANCH  14  19
ATOM     19  C   UNL A   1      42.655  36.771  26.873  1.00  0.00     0.000 C 
ATOM     20  C   UNL A   1      42.493  38.098  26.957  1.00  0.00     0.009 C 
ENDBRANCH  14  19
ENDBRANCH   8  13
ENDBRANCH   5   7
ENDBRANCH   3   5
ENDBRANCH   2   3
ENDBRANCH   1   2
BRANCH   1  21
ATOM     21  C   UNL A   1      34.252  33.201  28.190  1.00  0.00     0.275 C 
BRANCH  21  22
ATOM     22  O   UNL A   1      34.250  31.871  28.738  1.00  0.00    -0.458 OA
BRANCH  22  23
ATOM     23  C   UNL A   1      34.523  30.884  27.854  1.00  0.00     0.338 C 
ATOM     24  O   UNL A   1      33.881  30.572  26.868  1.00  0.00    -0.246 OA
BRANCH  23  25
ATOM     25  C   UNL A   1      35.811  30.268  28.199  1.00  0.00     0.060 A 
ATOM     26  C   UNL A   1      35.957  29.701  29.466  1.00  0.00     0.016 A 
ATOM     27  C   UNL A   1      36.889  30.329  27.316  1.00  0.00     0.016 A 
ATOM     28  C   UNL A   1      37.194  29.205  29.870  1.00  0.00     0.010 A 
ATOM     29  C   UNL A   1      38.127  29.817  27.717  1.00  0.00     0.010 A 
ATOM     30  C   UNL A   1      38.291  29.270  29.003  1.00  0.00    -0.014 A 
BRANCH  30  31
ATOM     31  C   UNL A   1      39.621  28.794  29.453  1.00  0.00     0.031 A 
ATOM     32  C   UNL A   1      40.346  29.524  30.548  1.00  0.00     0.074 A 
ATOM     33  C   UNL A   1      40.179  27.719  28.865  1.00  0.00     0.049 A 
ATOM     34  N   UNL A   1      41.541  29.308  31.030  1.00  0.00    -0.248 NA
ATOM     35  C   UNL A   1      39.635  30.648  31.180  1.00  0.00     0.031 C 
ATOM     36  C   UNL A   1      39.570  26.934  27.792  1.00  0.00     0.029 A 
ATOM     37  N   UNL A   1      41.396  27.120  29.072  1.00  0.00    -0.354 N 
ATOM     38  C   UNL A   1      41.746  30.291  31.990  1.00  0.00     0.074 A 
ATOM     39  C   UNL A   1      40.550  31.105  32.024  1.00  0.00     0.031 C 
ATOM     40  C   UNL A   1      40.425  25.968  27.419  1.00  0.00     0.029 A 
ATOM     41  C   UNL A   1      41.652  26.086  28.203  1.00  0.00     0.049 A 
ATOM     42  H   UNL A   1      42.026  27.403  29.774  1.00  0.00     0.167 HD
ATOM     43  C   UNL A   1      42.827  30.489  32.781  1.00  0.00     0.034 A 
ATOM     44  C   UNL A   1      42.758  25.334  28.041  1.00  0.00     0.034 A 
ATOM     45  C   UNL A   1      43.996  29.651  32.775  1.00  0.00     0.049 A 
ATOM     46  C   UNL A   1      43.942  25.571  28.939  1.00  0.00     0.074 A 
ATOM     47  C   UNL A   1      45.120  29.737  33.578  1.00  0.00     0.029 A 
ATOM     48  N   UNL A   1      44.193  28.574  31.925  1.00  0.00    -0.354 N 
ATOM     49  N   UNL A   1      44.075  26.432  29.919  1.00  0.00    -0.248 NA
ATOM     50  C   UNL A   1      45.118  24.715  28.729  1.00  0.00     0.031 C 
ATOM     51  C   UNL A   1      46.003  28.716  33.206  1.00  0.00     0.029 A 
ATOM     52  C   UNL A   1      45.424  27.991  32.178  1.00  0.00     0.049 A 
ATOM     53  H   UNL A   1      43.554  28.269  31.241  1.00  0.00     0.167 HD
ATOM     54  C   UNL A   1      45.336  26.206  30.457  1.00  0.00     0.074 A 
ATOM     55  C   UNL A   1      45.918  25.109  29.712  1.00  0.00     0.031 C 
ATOM     56  C   UNL A   1      45.965  26.862  31.465  1.00  0.00     0.034 A 
BRANCH  43  57
ATOM     57  C   UNL A   1      42.782  31.637  33.752  1.00  0.00     0.023 A 
ATOM     58  C   UNL A   1      43.139  32.928  33.315  1.00  0.00     0.012 A 
ATOM     59  C   UNL A   1      42.332  31.451  35.073  1.00  0.00     0.148 A 
ATOM     60  C   UNL A   1      43.069  34.015  34.185  1.00  0.00     0.002 A 
ATOM     61  C   UNL A   1      42.233  32.546  35.926  1.00  0.00     0.091 A 
ATOM     62  F   UNL A   1      42.024  30.211  35.477  1.00  0.00    -0.205 F 
ATOM     63  C   UNL A   1      42.607  33.826  35.485  1.00  0.00     0.022 A 
BRANCH  61  64
ATOM     64  S   UNL A   1      41.587  32.410  37.596  1.00  0.00     0.127 S 
ATOM     65  O   UNL A   1      41.844  33.750  38.122  1.00  0.00    -0.237 OA
ATOM     66  O   UNL A   1      40.174  32.111  37.360  1.00  0.00    -0.237 OA
ATOM     67  O   UNL A   1      42.336  31.332  38.227  1.00  0.00    -0.744 OA
ENDBRANCH  61  64
ENDBRANCH  43  57
BRANCH  44  68
ATOM     68  C   UNL A   1      42.777  24.259  27.009  1.00  0.00     0.023 A 
ATOM     69  C   UNL A   1      43.498  24.458  25.817  1.00  0.00     0.012 A 
ATOM     70  C   UNL A   1      42.121  23.030  27.220  1.00  0.00     0.148 A 
ATOM     71  C   UNL A   1      43.549  23.460  24.843  1.00  0.00     0.002 A 
ATOM     72  C   UNL A   1      42.221  22.021  26.269  1.00  0.00     0.091 A 
ATOM     73  F   UNL A   1      41.419  22.868  28.350  1.00  0.00    -0.205 F 
ATOM     74  C   UNL A   1      42.923  22.238  25.073  1.00  0.00     0.022 A 
BRANCH  72  75
ATOM     75  S   UNL A   1      41.555  20.376  26.553  1.00  0.00     0.127 S 
ATOM     76  O   UNL A   1      40.118  20.631  26.556  1.00  0.00    -0.237 OA
ATOM     77  O   UNL A   1      42.049  19.638  25.390  1.00  0.00    -0.237 OA
ATOM     78  O   UNL A   1      42.132  19.942  27.820  1.00  0.00    -0.744 OA
ENDBRANCH  72  75
ENDBRANCH  44  68
BRANCH  56  79
ATOM     79  C   UNL A   1      47.349  26.404  31.837  1.00  0.00     0.023 A 
ATOM     80  C   UNL A   1      47.514  25.489  32.895  1.00  0.00     0.012 A 
ATOM     81  C   UNL A   1      48.472  26.816  31.094  1.00  0.00     0.148 A 
ATOM     82  C   UNL A   1      48.780  25.007  33.223  1.00  0.00     0.002 A 
ATOM     83  C   UNL A   1      49.727  26.299  31.400  1.00  0.00     0.091 A 
ATOM     84  F   UNL A   1      48.298  27.705  30.105  1.00  0.00    -0.205 F 
ATOM     85  C   UNL A   1      49.884  25.402  32.469  1.00  0.00     0.022 A 
BRANCH  83  86
ATOM     86  S   UNL A   1      51.184  26.689  30.424  1.00  0.00     0.127 S 
ATOM     87  O   UNL A   1      50.784  26.235  29.095  1.00  0.00    -0.237 OA
ATOM     88  O   UNL A   1      51.282  28.142  30.569  1.00  0.00    -0.237 OA
ATOM     89  O   UNL A   1      52.280  25.950  31.040  1.00  0.00    -0.744 OA
ENDBRANCH  83  86
ENDBRANCH  56  79
ENDBRANCH  30  31
ENDBRANCH  23  25
ENDBRANCH  22  23
ENDBRANCH  21  22
ENDBRANCH   1  21
TORSDOF 17
ENDMDL
MODEL 2
REMARK VINA RESULT:     -10.0      2.936      8.763
REMARK SMILES C=Cc1cccc(-c2ccc([C@@H](C)C(=O)OCCOC(=O)c3ccc(-c4c5nc(c(-c6cccc(S(=O)(=O)[O-])c6F)c6ccc([nH]6)c(-c6cccc(S(=O)(=O)[O-])c6F)c6nc(c(-c7cccc(S(=O)(=O)[O-])c7F)c7ccc4[nH]7)C=C6)C=C5)cc3)cc2)c1
REMARK SMILES IDX 17 1 16 2 14 3 15 4 12 5 13 6 11 7 8 8 9 9 86 10 10 11 85 12
REMARK SMILES IDX 7 13 3 14 4 15 87 16 5 17 6 18 2 19 1 20 18 21 19 22 20 23
REMARK SMILES IDX 21 24 22 25 23 26 84 27 24 28 83 29 25 30 26 31 27 32 77 33
REMARK SMILES IDX 28 34 82 35 76 36 78 37 29 38 81 39 75 40 74 41 30 43 62 44
REMARK SMILES IDX 42 45 61 46 43 47 46 48 60 49 79 50 44 51 45 52 59 54 80 55
REMARK SMILES IDX 47 56 31 57 32 58 40 59 33 60 35 61 41 62 34 63 36 64 37 65
REMARK SMILES IDX 38 66 39 67 63 68 64 69 72 70 65 71 67 72 73 73 66 74 68 75
REMARK SMILES IDX 69 76 70 77 71 78 48 79 49 80 57 81 50 82 52 83 58 84 51 85
REMARK SMILES IDX 53 86 54 87 55 88 56 89
REMARK H PARENT 78 42 46 53
REMARK Flexibility Score: inf
ROOT
ATOM      1  C   UNL A   1      33.307  36.527  29.899  1.00  0.00     0.274 C 
ENDROOT
BRANCH   1   2
ATOM      2  O   UNL A   1      32.475  37.002  30.975  1.00  0.00    -0.462 OA
BRANCH   2   3
ATOM      3  C   UNL A   1      32.286  36.152  32.017  1.00  0.00     0.313 C 
ATOM      4  O   UNL A   1      31.284  35.460  32.170  1.00  0.00    -0.252 OA
BRANCH   3   5
ATOM      5  C   UNL A   1      33.411  36.172  33.044  1.00  0.00     0.126 C 
ATOM      6  C   UNL A   1      34.247  37.439  32.863  1.00  0.00     0.025 C 
BRANCH   5   7
ATOM      7  C   UNL A   1      34.274  34.922  33.132  1.00  0.00    -0.034 A 
ATOM      8  C   UNL A   1      36.003  32.669  33.307  1.00  0.00    -0.018 A 
ATOM      9  C   UNL A   1      35.268  32.934  32.141  1.00  0.00     0.009 A 
ATOM     10  C   UNL A   1      35.828  33.531  34.398  1.00  0.00     0.009 A 
ATOM     11  C   UNL A   1      34.419  34.043  32.052  1.00  0.00     0.005 A 
ATOM     12  C   UNL A   1      34.979  34.641  34.312  1.00  0.00     0.005 A 
BRANCH   8  13
ATOM     13  C   UNL A   1      36.971  31.559  33.359  1.00  0.00    -0.018 A 
ATOM     14  C   UNL A   1      37.853  29.436  32.511  1.00  0.00    -0.026 A 
ATOM     15  C   UNL A   1      38.784  29.412  33.555  1.00  0.00     0.008 A 
ATOM     16  C   UNL A   1      36.947  30.506  32.428  1.00  0.00     0.016 A 
ATOM     17  C   UNL A   1      38.830  30.449  34.484  1.00  0.00     0.001 A 
ATOM     18  C   UNL A   1      37.932  31.512  34.384  1.00  0.00     0.009 A 
BRANCH  14  19
ATOM     19  C   UNL A   1      37.817  28.301  31.580  1.00  0.00     0.000 C 
ATOM     20  C   UNL A   1      38.855  27.490  31.342  1.00  0.00     0.009 C 
ENDBRANCH  14  19
ENDBRANCH   8  13
ENDBRANCH   5   7
ENDBRANCH   3   5
ENDBRANCH   2   3
ENDBRANCH   1   2
BRANCH   1  21
ATOM     21  C   UNL A   1      32.822  35.169  29.389  1.00  0.00     0.275 C 
BRANCH  21  22
ATOM     22  O   UNL A   1      33.516  34.790  28.187  1.00  0.00    -0.458 OA
BRANCH  22  23
ATOM     23  C   UNL A   1      33.641  33.457  27.992  1.00  0.00     0.338 C 
ATOM     24  O   UNL A   1      32.816  32.694  27.524  1.00  0.00    -0.246 OA
BRANCH  23  25
ATOM     25  C   UNL A   1      35.005  33.042  28.346  1.00  0.00     0.060 A 
ATOM     26  C   UNL A   1      35.214  31.720  28.745  1.00  0.00     0.016 A 
ATOM     27  C   UNL A   1      36.049  33.967  28.370  1.00  0.00     0.016 A 
ATOM     28  C   UNL A   1      36.470  31.317  29.192  1.00  0.00     0.010 A 
ATOM     29  C   UNL A   1      37.312  33.558  28.804  1.00  0.00     0.010 A 
ATOM     30  C   UNL A   1      37.526  32.235  29.236  1.00  0.00    -0.014 A 
BRANCH  30  31
ATOM     31  C   UNL A   1      38.847  31.821  29.765  1.00  0.00     0.031 A 
ATOM     32  C   UNL A   1      39.556  30.639  29.167  1.00  0.00     0.074 A 
ATOM     33  C   UNL A   1      39.396  32.496  30.792  1.00  0.00     0.049 A 
ATOM     34  N   UNL A   1      40.678  30.079  29.534  1.00  0.00    -0.248 NA
ATOM     35  C   UNL A   1      38.915  29.999  28.006  1.00  0.00     0.031 C 
ATOM     36  C   UNL A   1      38.799  33.656  31.453  1.00  0.00     0.029 A 
ATOM     37  N   UNL A   1      40.568  32.286  31.474  1.00  0.00    -0.354 N 
ATOM     38  C   UNL A   1      40.860  28.997  28.682  1.00  0.00     0.074 A 
ATOM     39  C   UNL A   1      39.731  28.980  27.776  1.00  0.00     0.031 C 
ATOM     40  C   UNL A   1      39.599  34.043  32.461  1.00  0.00     0.029 A 
ATOM     41  C   UNL A   1      40.745  33.142  32.535  1.00  0.00     0.049 A 
ATOM     42  H   UNL A   1      41.219  31.590  31.227  1.00  0.00     0.167 HD
ATOM     43  C   UNL A   1      41.880  28.109  28.648  1.00  0.00     0.034 A 
ATOM     44  C   UNL A   1      41.709  33.181  33.475  1.00  0.00     0.034 A 
ATOM     45  C   UNL A   1      43.021  28.157  29.522  1.00  0.00     0.049 A 
ATOM     46  C   UNL A   1      42.836  32.185  33.408  1.00  0.00     0.074 A 
ATOM     47  C   UNL A   1      44.135  27.334  29.530  1.00  0.00     0.029 A 
ATOM     48  N   UNL A   1      43.197  29.077  30.544  1.00  0.00    -0.354 N 
ATOM     49  N   UNL A   1      43.051  31.239  32.526  1.00  0.00    -0.248 NA
ATOM     50  C   UNL A   1      43.869  32.278  34.450  1.00  0.00     0.031 C 
ATOM     51  C   UNL A   1      44.980  27.751  30.564  1.00  0.00     0.029 A 
ATOM     52  C   UNL A   1      44.397  28.838  31.194  1.00  0.00     0.049 A 
ATOM     53  H   UNL A   1      42.563  29.793  30.775  1.00  0.00     0.167 HD
ATOM     54  C   UNL A   1      44.251  30.642  32.890  1.00  0.00     0.074 A 
ATOM     55  C   UNL A   1      44.732  31.350  34.059  1.00  0.00     0.031 C 
ATOM     56  C   UNL A   1      44.889  29.589  32.321  1.00  0.00     0.034 A 
BRANCH  43  57
ATOM     57  C   UNL A   1      41.831  27.027  27.604  1.00  0.00     0.023 A 
ATOM     58  C   UNL A   1      42.402  27.259  26.339  1.00  0.00     0.012 A 
ATOM     59  C   UNL A   1      41.276  25.765  27.895  1.00  0.00     0.148 A 
ATOM     60  C   UNL A   1      42.404  26.258  25.367  1.00  0.00     0.002 A 
ATOM     61  C   UNL A   1      41.312  24.761  26.933  1.00  0.00     0.091 A 
ATOM     62  F   UNL A   1      40.714  25.573  29.097  1.00  0.00    -0.205 F 
ATOM     63  C   UNL A   1      41.869  25.008  25.667  1.00  0.00     0.022 A 
BRANCH  61  64
ATOM     64  S   UNL A   1      40.707  23.100  27.251  1.00  0.00     0.127 S 
ATOM     65  O   UNL A   1      39.266  23.325  27.350  1.00  0.00    -0.237 OA
ATOM     66  O   UNL A   1      41.129  22.378  26.050  1.00  0.00    -0.237 OA
ATOM     67  O   UNL A   1      41.361  22.665  28.478  1.00  0.00    -0.744 OA
ENDBRANCH  61  64
ENDBRANCH  43  57
BRANCH  44  68
ATOM     68  C   UNL A   1      41.668  34.226  34.535  1.00  0.00     0.023 A 
ATOM     69  C   UNL A   1      42.280  35.472  34.300  1.00  0.00     0.012 A 
ATOM     70  C   UNL A   1      40.995  34.009  35.753  1.00  0.00     0.148 A 
ATOM     71  C   UNL A   1      42.239  36.477  35.269  1.00  0.00     0.002 A 
ATOM     72  C   UNL A   1      40.913  35.032  36.691  1.00  0.00     0.091 A 
ATOM     73  F   UNL A   1      40.441  32.807  35.969  1.00  0.00    -0.205 F 
ATOM     74  C   UNL A   1      41.546  36.262  36.457  1.00  0.00     0.022 A 
BRANCH  72  75
ATOM     75  S   UNL A   1      39.925  34.877  38.184  1.00  0.00     0.127 S 
ATOM     76  O   UNL A   1      40.751  33.990  38.998  1.00  0.00    -0.237 OA
ATOM     77  O   UNL A   1      39.858  36.261  38.655  1.00  0.00    -0.237 OA
ATOM     78  O   UNL A   1      38.645  34.336  37.744  1.00  0.00    -0.744 OA
ENDBRANCH  72  75
ENDBRANCH  44  68
BRANCH  56  79
ATOM     79  C   UNL A   1      46.187  29.143  32.939  1.00  0.00     0.023 A 
ATOM     80  C   UNL A   1      47.396  29.716  32.499  1.00  0.00     0.012 A 
ATOM     81  C   UNL A   1      46.203  28.220  34.002  1.00  0.00     0.148 A 
ATOM     82  C   UNL A   1      48.605  29.360  33.094  1.00  0.00     0.002 A 
ATOM     83  C   UNL A   1      47.408  27.901  34.618  1.00  0.00     0.091 A 
ATOM     84  F   UNL A   1      45.044  27.668  34.392  1.00  0.00    -0.205 F 
ATOM     85  C   UNL A   1      48.611  28.464  34.160  1.00  0.00     0.022 A 
BRANCH  83  86
ATOM     86  S   UNL A   1      47.492  26.823  36.053  1.00  0.00     0.127 S 
ATOM     87  O   UNL A   1      46.425  27.362  36.895  1.00  0.00    -0.237 OA
ATOM     88  O   UNL A   1      47.209  25.508  35.478  1.00  0.00    -0.237 OA
ATOM     89  O   UNL A   1      48.844  26.969  36.578  1.00  0.00    -0.744 OA
ENDBRANCH  83  86
ENDBRANCH  56  79
ENDBRANCH  30  31
ENDBRANCH  23  25
ENDBRANCH  22  23
ENDBRANCH  21  22
ENDBRANCH   1  21
TORSDOF 17
ENDMDL
MODEL 3
REMARK VINA RESULT:      -9.9      1.997      2.380
REMARK SMILES C=Cc1cccc(-c2ccc([C@@H](C)C(=O)OCCOC(=O)c3ccc(-c4c5nc(c(-c6cccc(S(=O)(=O)[O-])c6F)c6ccc([nH]6)c(-c6cccc(S(=O)(=O)[O-])c6F)c6nc(c(-c7cccc(S(=O)(=O)[O-])c7F)c7ccc4[nH]7)C=C6)C=C5)cc3)cc2)c1
REMARK SMILES IDX 17 1 16 2 14 3 15 4 12 5 13 6 11 7 8 8 9 9 86 10 10 11 85 12
REMARK SMILES IDX 7 13 3 14 4 15 87 16 5 17 6 18 2 19 1 20 18 21 19 22 20 23
REMARK SMILES IDX 21 24 22 25 23 26 84 27 24 28 83 29 25 30 26 31 27 32 77 33
REMARK SMILES IDX 28 34 82 35 76 36 78 37 29 38 81 39 75 40 74 41 30 43 62 44
REMARK SMILES IDX 42 45 61 46 43 47 46 48 60 49 79 50 44 51 45 52 59 54 80 55
REMARK SMILES IDX 47 56 31 57 32 58 40 59 33 60 35 61 41 62 34 63 36 64 37 65
REMARK SMILES IDX 38 66 39 67 63 68 64 69 72 70 65 71 67 72 73 73 66 74 68 75
REMARK SMILES IDX 69 76 70 77 71 78 48 79 49 80 57 81 50 82 52 83 58 84 51 85
REMARK SMILES IDX 53 86 54 87 55 88 56 89
REMARK H PARENT 78 42 46 53
REMARK Flexibility Score: inf
ROOT
ATOM      1  C   UNL A   1      33.584  34.656  28.981  1.00  0.00     0.274 C 
ENDROOT
BRANCH   1   2
ATOM      2  O   UNL A   1      33.295  34.198  30.316  1.00  0.00    -0.462 OA
BRANCH   2   3
ATOM      3  C   UNL A   1      34.044  34.731  31.316  1.00  0.00     0.313 C 
ATOM      4  O   UNL A   1      33.978  35.902  31.678  1.00  0.00    -0.252 OA
BRANCH   3   5
ATOM      5  C   UNL A   1      35.046  33.757  31.923  1.00  0.00     0.126 C 
ATOM      6  C   UNL A   1      34.990  33.850  33.449  1.00  0.00     0.025 C 
BRANCH   5   7
ATOM      7  C   UNL A   1      36.470  33.830  31.394  1.00  0.00    -0.034 A 
ATOM      8  C   UNL A   1      39.126  34.110  30.412  1.00  0.00    -0.018 A 
ATOM      9  C   UNL A   1      38.106  33.572  29.612  1.00  0.00     0.009 A 
ATOM     10  C   UNL A   1      38.801  34.471  31.726  1.00  0.00     0.009 A 
ATOM     11  C   UNL A   1      36.799  33.436  30.092  1.00  0.00     0.005 A 
ATOM     12  C   UNL A   1      37.494  34.336  32.210  1.00  0.00     0.005 A 
BRANCH   8  13
ATOM     13  C   UNL A   1      40.476  34.345  29.869  1.00  0.00    -0.018 A 
ATOM     14  C   UNL A   1      42.008  35.514  28.355  1.00  0.00    -0.026 A 
ATOM     15  C   UNL A   1      43.055  34.695  28.793  1.00  0.00     0.008 A 
ATOM     16  C   UNL A   1      40.724  35.325  28.891  1.00  0.00     0.016 A 
ATOM     17  C   UNL A   1      42.833  33.724  29.766  1.00  0.00     0.001 A 
ATOM     18  C   UNL A   1      41.555  33.553  30.298  1.00  0.00     0.009 A 
BRANCH  14  19
ATOM     19  C   UNL A   1      42.284  36.496  27.299  1.00  0.00     0.000 C 
ATOM     20  C   UNL A   1      43.511  36.826  26.879  1.00  0.00     0.009 C 
ENDBRANCH  14  19
ENDBRANCH   8  13
ENDBRANCH   5   7
ENDBRANCH   3   5
ENDBRANCH   2   3
ENDBRANCH   1   2
BRANCH   1  21
ATOM     21  C   UNL A   1      33.675  33.481  28.006  1.00  0.00     0.275 C 
BRANCH  21  22
ATOM     22  O   UNL A   1      34.146  32.294  28.669  1.00  0.00    -0.458 OA
BRANCH  22  23
ATOM     23  C   UNL A   1      34.351  31.227  27.862  1.00  0.00     0.338 C 
ATOM     24  O   UNL A   1      33.689  30.887  26.899  1.00  0.00    -0.246 OA
BRANCH  23  25
ATOM     25  C   UNL A   1      35.595  30.554  28.257  1.00  0.00     0.060 A 
ATOM     26  C   UNL A   1      35.578  29.744  29.395  1.00  0.00     0.016 A 
ATOM     27  C   UNL A   1      36.783  30.787  27.566  1.00  0.00     0.016 A 
ATOM     28  C   UNL A   1      36.759  29.176  29.864  1.00  0.00     0.010 A 
ATOM     29  C   UNL A   1      37.966  30.204  28.029  1.00  0.00     0.010 A 
ATOM     30  C   UNL A   1      37.965  29.411  29.191  1.00  0.00    -0.014 A 
BRANCH  30  31
ATOM     31  C   UNL A   1      39.231  28.853  29.723  1.00  0.00     0.031 A 
ATOM     32  C   UNL A   1      39.872  29.470  30.933  1.00  0.00     0.074 A 
ATOM     33  C   UNL A   1      39.809  27.805  29.106  1.00  0.00     0.049 A 
ATOM     34  N   UNL A   1      41.009  29.174  31.504  1.00  0.00    -0.248 NA
ATOM     35  C   UNL A   1      39.139  30.570  31.583  1.00  0.00     0.031 C 
ATOM     36  C   UNL A   1      39.280  27.127  27.922  1.00  0.00     0.029 A 
ATOM     37  N   UNL A   1      40.982  27.147  29.374  1.00  0.00    -0.354 N 
ATOM     38  C   UNL A   1      41.153  30.073  32.553  1.00  0.00     0.074 A 
ATOM     39  C   UNL A   1      39.984  30.926  32.541  1.00  0.00     0.031 C 
ATOM     40  C   UNL A   1      40.137  26.160  27.554  1.00  0.00     0.029 A 
ATOM     41  C   UNL A   1      41.287  26.172  28.455  1.00  0.00     0.049 A 
ATOM     42  H   UNL A   1      41.551  27.352  30.152  1.00  0.00     0.167 HD
ATOM     43  C   UNL A   1      42.160  30.170  33.452  1.00  0.00     0.034 A 
ATOM     44  C   UNL A   1      42.380  25.394  28.335  1.00  0.00     0.034 A 
ATOM     45  C   UNL A   1      43.298  29.292  33.488  1.00  0.00     0.049 A 
ATOM     46  C   UNL A   1      43.481  25.517  29.354  1.00  0.00     0.074 A 
ATOM     47  C   UNL A   1      44.344  29.274  34.394  1.00  0.00     0.029 A 
ATOM     48  N   UNL A   1      43.542  28.275  32.577  1.00  0.00    -0.354 N 
ATOM     49  N   UNL A   1      43.547  26.297  30.407  1.00  0.00    -0.248 NA
ATOM     50  C   UNL A   1      44.646  24.636  29.186  1.00  0.00     0.031 C 
ATOM     51  C   UNL A   1      45.226  28.252  34.026  1.00  0.00     0.029 A 
ATOM     52  C   UNL A   1      44.725  27.628  32.895  1.00  0.00     0.049 A 
ATOM     53  H   UNL A   1      42.960  28.047  31.816  1.00  0.00     0.167 HD
ATOM     54  C   UNL A   1      44.745  25.984  31.038  1.00  0.00     0.074 A 
ATOM     55  C   UNL A   1      45.361  24.925  30.265  1.00  0.00     0.031 C 
ATOM     56  C   UNL A   1      45.296  26.537  32.148  1.00  0.00     0.034 A 
BRANCH  43  57
ATOM     57  C   UNL A   1      42.059  31.243  34.502  1.00  0.00     0.023 A 
ATOM     58  C   UNL A   1      41.461  30.944  35.742  1.00  0.00     0.012 A 
ATOM     59  C   UNL A   1      42.608  32.522  34.286  1.00  0.00     0.148 A 
ATOM     60  C   UNL A   1      41.390  31.910  36.746  1.00  0.00     0.002 A 
ATOM     61  C   UNL A   1      42.564  33.469  35.304  1.00  0.00     0.091 A 
ATOM     62  F   UNL A   1      43.148  32.794  33.090  1.00  0.00    -0.205 F 
ATOM     63  C   UNL A   1      41.950  33.167  36.530  1.00  0.00     0.022 A 
BRANCH  61  64
ATOM     64  S   UNL A   1      43.316  35.092  35.142  1.00  0.00     0.127 S 
ATOM     65  O   UNL A   1      42.634  35.617  33.960  1.00  0.00    -0.237 OA
ATOM     66  O   UNL A   1      42.938  35.738  36.399  1.00  0.00    -0.237 OA
ATOM     67  O   UNL A   1      44.746  34.856  34.991  1.00  0.00    -0.744 OA
ENDBRANCH  61  64
ENDBRANCH  43  57
BRANCH  44  68
ATOM     68  C   UNL A   1      42.464  24.400  27.229  1.00  0.00     0.023 A 
ATOM     69  C   UNL A   1      43.170  24.729  26.057  1.00  0.00     0.012 A 
ATOM     70  C   UNL A   1      41.884  23.121  27.347  1.00  0.00     0.148 A 
ATOM     71  C   UNL A   1      43.281  23.809  25.012  1.00  0.00     0.002 A 
ATOM     72  C   UNL A   1      42.044  22.192  26.326  1.00  0.00     0.091 A 
ATOM     73  F   UNL A   1      41.194  22.835  28.460  1.00  0.00    -0.205 F 
ATOM     74  C   UNL A   1      42.730  22.538  25.151  1.00  0.00     0.022 A 
BRANCH  72  75
ATOM     75  S   UNL A   1      41.480  20.493  26.488  1.00  0.00     0.127 S 
ATOM     76  O   UNL A   1      41.962  20.143  27.820  1.00  0.00    -0.237 OA
ATOM     77  O   UNL A   1      40.028  20.639  26.376  1.00  0.00    -0.237 OA
ATOM     78  O   UNL A   1      42.092  19.777  25.375  1.00  0.00    -0.744 OA
ENDBRANCH  72  75
ENDBRANCH  44  68
BRANCH  56  79
ATOM     79  C   UNL A   1      46.624  26.001  32.608  1.00  0.00     0.023 A 
ATOM     80  C   UNL A   1      47.810  26.628  32.176  1.00  0.00     0.012 A 
ATOM     81  C   UNL A   1      46.697  24.934  33.523  1.00  0.00     0.148 A 
ATOM     82  C   UNL A   1      49.051  26.184  32.632  1.00  0.00     0.002 A 
ATOM     83  C   UNL A   1      47.936  24.524  34.005  1.00  0.00     0.091 A 
ATOM     84  F   UNL A   1      45.559  24.336  33.904  1.00  0.00    -0.205 F 
ATOM     85  C   UNL A   1      49.113  25.142  33.555  1.00  0.00     0.022 A 
BRANCH  83  86
ATOM     86  S   UNL A   1      48.097  23.249  35.260  1.00  0.00     0.127 S 
ATOM     87  O   UNL A   1      49.545  23.064  35.315  1.00  0.00    -0.237 OA
ATOM     88  O   UNL A   1      47.520  23.892  36.441  1.00  0.00    -0.237 OA
ATOM     89  O   UNL A   1      47.334  22.109  34.765  1.00  0.00    -0.744 OA
ENDBRANCH  83  86
ENDBRANCH  56  79
ENDBRANCH  30  31
ENDBRANCH  23  25
ENDBRANCH  22  23
ENDBRANCH  21  22
ENDBRANCH   1  21
TORSDOF 17
ENDMDL
