MODEL 1
REMARK VINA RESULT:     -13.2      0.000      0.000
REMARK SMILES Cc1ccccc1S(=O)(=O)Nc1ccc(N2CCOCC2)cc1C(=O)OCCOC(=O)c1ccc(-c2c3nc(c(-c4cccc(S(=O)(=O)[O-])c4F)c4ccc([nH]4)c(-c4cccc(S(=O)(=O)[O-])c4F)c4nc(c(-c5cccc(S(=O)(=O)[O-])c5F)c5ccc2[nH]5)C=C4)C=C3)cc1
REMARK SMILES IDX 27 1 26 2 24 3 25 4 23 5 12 6 13 7 14 8 22 9 15 10 11 11
REMARK SMILES IDX 8 13 9 14 10 15 7 16 1 17 2 18 3 19 4 20 6 21 5 22 16 23
REMARK SMILES IDX 17 24 21 25 18 26 20 27 19 28 28 29 29 30 30 31 31 32 32 33
REMARK SMILES IDX 33 34 94 35 34 36 93 37 35 38 36 39 37 40 87 41 38 42 92 43
REMARK SMILES IDX 86 44 88 45 39 46 91 47 85 48 84 49 40 51 72 52 52 53 71 54
REMARK SMILES IDX 53 55 56 56 70 57 89 58 54 59 55 60 69 62 90 63 57 64 41 65
REMARK SMILES IDX 42 66 50 67 43 68 45 69 51 70 44 71 46 72 47 73 48 74 49 75
REMARK SMILES IDX 73 76 74 77 82 78 75 79 77 80 83 81 76 82 78 83 79 84 80 85
REMARK SMILES IDX 81 86 58 87 59 88 67 89 60 90 62 91 68 92 61 93 63 94 64 95
REMARK SMILES IDX 65 96 66 97
REMARK H PARENT 11 12 88 50 56 61
REMARK Flexibility Score: inf
ROOT
ATOM      1  C   UNL A   1      36.785  22.309  25.677  1.00  0.00     0.275 C 
ENDROOT
BRANCH   1   2
ATOM      2  O   UNL A   1      35.626  21.831  26.424  1.00  0.00    -0.458 OA
BRANCH   2   3
ATOM      3  C   UNL A   1      34.410  22.395  26.249  1.00  0.00     0.340 C 
ATOM      4  O   UNL A   1      34.036  23.342  26.903  1.00  0.00    -0.246 OA
BRANCH   3   5
ATOM      5  C   UNL A   1      33.581  21.779  25.172  1.00  0.00     0.086 A 
ATOM      6  C   UNL A   1      33.060  22.551  24.105  1.00  0.00     0.064 A 
ATOM      7  C   UNL A   1      32.385  21.912  23.066  1.00  0.00     0.030 A 
ATOM      8  C   UNL A   1      32.260  20.521  23.056  1.00  0.00     0.028 A 
ATOM      9  C   UNL A   1      33.389  20.384  25.170  1.00  0.00     0.043 A 
ATOM     10  C   UNL A   1      32.752  19.737  24.104  1.00  0.00     0.038 A 
BRANCH   6  11
ATOM     11  N   UNL A   1      33.135  23.984  24.053  1.00  0.00    -0.279 N 
ATOM     12  H   UNL A   1      34.000  24.428  24.203  1.00  0.00     0.180 HD
BRANCH  11  13
ATOM     13  S   UNL A   1      31.762  24.920  23.737  1.00  0.00     0.262 S 
ATOM     14  O   UNL A   1      30.659  24.307  24.455  1.00  0.00    -0.201 OA
ATOM     15  O   UNL A   1      31.622  25.159  22.316  1.00  0.00    -0.201 OA
BRANCH  13  16
ATOM     16  C   UNL A   1      32.079  26.499  24.547  1.00  0.00     0.090 A 
ATOM     17  C   UNL A   1      29.938  27.681  23.667  1.00  0.00     0.046 C 
ATOM     18  C   UNL A   1      31.254  27.633  24.387  1.00  0.00    -0.031 A 
ATOM     19  C   UNL A   1      31.730  28.870  24.875  1.00  0.00     0.005 A 
ATOM     20  C   UNL A   1      32.948  28.972  25.548  1.00  0.00     0.000 A 
ATOM     21  C   UNL A   1      33.279  26.599  25.283  1.00  0.00     0.022 A 
ATOM     22  C   UNL A   1      33.713  27.832  25.774  1.00  0.00     0.001 A 
ENDBRANCH  13  16
ENDBRANCH  11  13
ENDBRANCH   6  11
BRANCH  10  23
ATOM     23  N   UNL A   1      32.642  18.369  24.054  1.00  0.00    -0.367 N 
ATOM     24  C   UNL A   1      32.350  17.543  25.233  1.00  0.00     0.145 C 
ATOM     25  C   UNL A   1      32.987  17.629  22.842  1.00  0.00     0.145 C 
ATOM     26  C   UNL A   1      33.482  16.523  25.448  1.00  0.00     0.181 C 
ATOM     27  C   UNL A   1      34.131  16.657  23.171  1.00  0.00     0.181 C 
ATOM     28  O   UNL A   1      33.784  15.775  24.251  1.00  0.00    -0.378 OA
ENDBRANCH  10  23
ENDBRANCH   3   5
ENDBRANCH   2   3
ENDBRANCH   1   2
BRANCH   1  29
ATOM     29  C   UNL A   1      38.186  21.626  25.731  1.00  0.00     0.275 C 
BRANCH  29  30
ATOM     30  O   UNL A   1      39.464  22.339  25.795  1.00  0.00    -0.458 OA
BRANCH  30  31
ATOM     31  C   UNL A   1      40.184  22.566  26.931  1.00  0.00     0.338 C 
ATOM     32  O   UNL A   1      40.474  21.706  27.749  1.00  0.00    -0.246 OA
BRANCH  31  33
ATOM     33  C   UNL A   1      40.297  23.999  27.207  1.00  0.00     0.060 A 
ATOM     34  C   UNL A   1      40.929  24.870  26.310  1.00  0.00     0.016 A 
ATOM     35  C   UNL A   1      39.601  24.460  28.318  1.00  0.00     0.016 A 
ATOM     36  C   UNL A   1      40.720  26.240  26.438  1.00  0.00     0.010 A 
ATOM     37  C   UNL A   1      39.322  25.795  28.404  1.00  0.00     0.010 A 
ATOM     38  C   UNL A   1      39.931  26.686  27.501  1.00  0.00    -0.014 A 
BRANCH  38  39
ATOM     39  C   UNL A   1      40.159  27.971  28.138  1.00  0.00     0.031 A 
ATOM     40  C   UNL A   1      39.178  29.055  28.211  1.00  0.00     0.074 A 
ATOM     41  C   UNL A   1      41.098  27.787  29.095  1.00  0.00     0.049 A 
ATOM     42  N   UNL A   1      39.451  30.176  28.779  1.00  0.00    -0.248 NA
ATOM     43  C   UNL A   1      37.821  28.982  27.680  1.00  0.00     0.031 C 
ATOM     44  C   UNL A   1      41.198  28.359  30.420  1.00  0.00     0.029 A 
ATOM     45  N   UNL A   1      42.195  26.920  29.020  1.00  0.00    -0.354 N 
ATOM     46  C   UNL A   1      38.262  30.840  28.962  1.00  0.00     0.074 A 
ATOM     47  C   UNL A   1      37.294  30.117  28.164  1.00  0.00     0.031 C 
ATOM     48  C   UNL A   1      42.405  28.033  30.922  1.00  0.00     0.029 A 
ATOM     49  C   UNL A   1      43.182  27.443  29.839  1.00  0.00     0.049 A 
ATOM     50  H   UNL A   1      42.253  26.096  28.486  1.00  0.00     0.167 HD
ATOM     51  C   UNL A   1      38.188  31.807  29.919  1.00  0.00     0.034 A 
ATOM     52  C   UNL A   1      44.339  27.920  29.291  1.00  0.00     0.034 A 
ATOM     53  C   UNL A   1      39.450  31.887  30.681  1.00  0.00     0.049 A 
ATOM     54  C   UNL A   1      44.485  29.412  29.538  1.00  0.00     0.074 A 
ATOM     55  C   UNL A   1      39.848  31.364  31.902  1.00  0.00     0.029 A 
ATOM     56  N   UNL A   1      40.615  32.304  30.052  1.00  0.00    -0.354 N 
ATOM     57  N   UNL A   1      43.647  30.154  30.208  1.00  0.00    -0.248 NA
ATOM     58  C   UNL A   1      45.544  30.195  28.918  1.00  0.00     0.031 C 
ATOM     59  C   UNL A   1      41.268  31.459  31.993  1.00  0.00     0.029 A 
ATOM     60  C   UNL A   1      41.737  32.061  30.840  1.00  0.00     0.049 A 
ATOM     61  H   UNL A   1      40.644  32.720  29.160  1.00  0.00     0.167 HD
ATOM     62  C   UNL A   1      43.899  31.478  29.958  1.00  0.00     0.074 A 
ATOM     63  C   UNL A   1      45.122  31.444  29.166  1.00  0.00     0.031 C 
ATOM     64  C   UNL A   1      43.045  32.483  30.340  1.00  0.00     0.034 A 
BRANCH  51  65
ATOM     65  C   UNL A   1      36.889  32.434  30.395  1.00  0.00     0.023 A 
ATOM     66  C   UNL A   1      36.447  32.111  31.698  1.00  0.00     0.012 A 
ATOM     67  C   UNL A   1      36.059  33.303  29.652  1.00  0.00     0.148 A 
ATOM     68  C   UNL A   1      35.212  32.531  32.201  1.00  0.00     0.002 A 
ATOM     69  C   UNL A   1      34.796  33.679  30.131  1.00  0.00     0.091 A 
ATOM     70  F   UNL A   1      36.509  33.820  28.499  1.00  0.00    -0.205 F 
ATOM     71  C   UNL A   1      34.370  33.288  31.405  1.00  0.00     0.022 A 
BRANCH  69  72
ATOM     72  S   UNL A   1      33.600  34.574  29.122  1.00  0.00     0.127 S 
ATOM     73  O   UNL A   1      34.393  35.704  28.628  1.00  0.00    -0.237 OA
ATOM     74  O   UNL A   1      33.243  33.594  28.100  1.00  0.00    -0.237 OA
ATOM     75  O   UNL A   1      32.529  34.963  30.034  1.00  0.00    -0.744 OA
ENDBRANCH  69  72
ENDBRANCH  51  65
BRANCH  52  76
ATOM     76  C   UNL A   1      44.733  27.235  27.998  1.00  0.00     0.023 A 
ATOM     77  C   UNL A   1      44.149  27.700  26.792  1.00  0.00     0.012 A 
ATOM     78  C   UNL A   1      45.904  26.455  27.902  1.00  0.00     0.148 A 
ATOM     79  C   UNL A   1      44.755  27.463  25.551  1.00  0.00     0.002 A 
ATOM     80  C   UNL A   1      46.516  26.247  26.663  1.00  0.00     0.091 A 
ATOM     81  F   UNL A   1      46.463  25.988  29.025  1.00  0.00    -0.205 F 
ATOM     82  C   UNL A   1      45.949  26.755  25.488  1.00  0.00     0.022 A 
BRANCH  80  83
ATOM     83  S   UNL A   1      48.167  25.531  26.556  1.00  0.00     0.127 S 
ATOM     84  O   UNL A   1      47.985  24.202  27.153  1.00  0.00    -0.237 OA
ATOM     85  O   UNL A   1      48.450  25.476  25.130  1.00  0.00    -0.237 OA
ATOM     86  O   UNL A   1      48.955  26.472  27.343  1.00  0.00    -0.744 OA
ENDBRANCH  80  83
ENDBRANCH  52  76
BRANCH  64  87
ATOM     87  C   UNL A   1      43.312  33.976  30.175  1.00  0.00     0.023 A 
ATOM     88  C   UNL A   1      43.403  34.859  31.264  1.00  0.00     0.012 A 
ATOM     89  C   UNL A   1      43.425  34.574  28.892  1.00  0.00     0.148 A 
ATOM     90  C   UNL A   1      43.784  36.196  31.117  1.00  0.00     0.002 A 
ATOM     91  C   UNL A   1      43.803  35.905  28.739  1.00  0.00     0.091 A 
ATOM     92  F   UNL A   1      43.078  33.889  27.795  1.00  0.00    -0.205 F 
ATOM     93  C   UNL A   1      44.022  36.711  29.854  1.00  0.00     0.022 A 
BRANCH  91  94
ATOM     94  S   UNL A   1      44.025  36.624  27.110  1.00  0.00     0.127 S 
ATOM     95  O   UNL A   1      42.897  36.049  26.377  1.00  0.00    -0.237 OA
ATOM     96  O   UNL A   1      43.905  38.057  27.384  1.00  0.00    -0.237 OA
ATOM     97  O   UNL A   1      45.351  36.206  26.680  1.00  0.00    -0.744 OA
ENDBRANCH  91  94
ENDBRANCH  64  87
ENDBRANCH  38  39
ENDBRANCH  31  33
ENDBRANCH  30  31
ENDBRANCH  29  30
ENDBRANCH   1  29
TORSDOF 18
ENDMDL
MODEL 2
REMARK VINA RESULT:     -12.8      4.016      9.970
REMARK SMILES Cc1ccccc1S(=O)(=O)Nc1ccc(N2CCOCC2)cc1C(=O)OCCOC(=O)c1ccc(-c2c3nc(c(-c4cccc(S(=O)(=O)[O-])c4F)c4ccc([nH]4)c(-c4cccc(S(=O)(=O)[O-])c4F)c4nc(c(-c5cccc(S(=O)(=O)[O-])c5F)c5ccc2[nH]5)C=C4)C=C3)cc1
REMARK SMILES IDX 27 1 26 2 24 3 25 4 23 5 12 6 13 7 14 8 22 9 15 10 11 11
REMARK SMILES IDX 8 13 9 14 10 15 7 16 1 17 2 18 3 19 4 20 6 21 5 22 16 23
REMARK SMILES IDX 17 24 21 25 18 26 20 27 19 28 28 29 29 30 30 31 31 32 32 33
REMARK SMILES IDX 33 34 94 35 34 36 93 37 35 38 36 39 37 40 87 41 38 42 92 43
REMARK SMILES IDX 86 44 88 45 39 46 91 47 85 48 84 49 40 51 72 52 52 53 71 54
REMARK SMILES IDX 53 55 56 56 70 57 89 58 54 59 55 60 69 62 90 63 57 64 41 65
REMARK SMILES IDX 42 66 50 67 43 68 45 69 51 70 44 71 46 72 47 73 48 74 49 75
REMARK SMILES IDX 73 76 74 77 82 78 75 79 77 80 83 81 76 82 78 83 79 84 80 85
REMARK SMILES IDX 81 86 58 87 59 88 67 89 60 90 62 91 68 92 61 93 63 94 64 95
REMARK SMILES IDX 65 96 66 97
REMARK H PARENT 11 12 88 50 56 61
REMARK Flexibility Score: inf
ROOT
ATOM      1  C   UNL A   1      32.569  27.612  26.912  1.00  0.00     0.275 C 
ENDROOT
BRANCH   1   2
ATOM      2  O   UNL A   1      31.169  27.244  26.731  1.00  0.00    -0.458 OA
BRANCH   2   3
ATOM      3  C   UNL A   1      30.727  26.773  25.543  1.00  0.00     0.340 C 
ATOM      4  O   UNL A   1      30.241  25.671  25.423  1.00  0.00    -0.246 OA
BRANCH   3   5
ATOM      5  C   UNL A   1      30.859  27.726  24.402  1.00  0.00     0.086 A 
ATOM      6  C   UNL A   1      31.884  27.585  23.434  1.00  0.00     0.064 A 
ATOM      7  C   UNL A   1      31.899  28.433  22.327  1.00  0.00     0.030 A 
ATOM      8  C   UNL A   1      30.891  29.384  22.153  1.00  0.00     0.028 A 
ATOM      9  C   UNL A   1      29.889  28.733  24.235  1.00  0.00     0.043 A 
ATOM     10  C   UNL A   1      29.877  29.555  23.101  1.00  0.00     0.038 A 
BRANCH   6  11
ATOM     11  N   UNL A   1      32.959  26.643  23.551  1.00  0.00    -0.279 N 
ATOM     12  H   UNL A   1      33.736  26.862  24.115  1.00  0.00     0.180 HD
BRANCH  11  13
ATOM     13  S   UNL A   1      32.915  25.160  22.737  1.00  0.00     0.262 S 
ATOM     14  O   UNL A   1      33.721  25.312  21.538  1.00  0.00    -0.201 OA
ATOM     15  O   UNL A   1      31.552  24.689  22.607  1.00  0.00    -0.201 OA
BRANCH  13  16
ATOM     16  C   UNL A   1      33.807  24.015  23.806  1.00  0.00     0.090 A 
ATOM     17  C   UNL A   1      32.738  21.856  22.832  1.00  0.00     0.046 C 
ATOM     18  C   UNL A   1      33.597  22.619  23.797  1.00  0.00    -0.031 A 
ATOM     19  C   UNL A   1      34.176  21.858  24.836  1.00  0.00     0.005 A 
ATOM     20  C   UNL A   1      34.982  22.444  25.813  1.00  0.00     0.000 A 
ATOM     21  C   UNL A   1      34.674  24.591  24.760  1.00  0.00     0.022 A 
ATOM     22  C   UNL A   1      35.251  23.808  25.762  1.00  0.00     0.001 A 
ENDBRANCH  13  16
ENDBRANCH  11  13
ENDBRANCH   6  11
BRANCH  10  23
ATOM     23  N   UNL A   1      28.882  30.477  22.891  1.00  0.00    -0.367 N 
ATOM     24  C   UNL A   1      28.002  30.456  21.715  1.00  0.00     0.145 C 
ATOM     25  C   UNL A   1      28.752  31.654  23.747  1.00  0.00     0.145 C 
ATOM     26  C   UNL A   1      28.128  31.782  20.944  1.00  0.00     0.181 C 
ATOM     27  C   UNL A   1      28.909  32.912  22.878  1.00  0.00     0.181 C 
ATOM     28  O   UNL A   1      27.960  32.933  21.800  1.00  0.00    -0.378 OA
ENDBRANCH  10  23
ENDBRANCH   3   5
ENDBRANCH   2   3
ENDBRANCH   1   2
BRANCH   1  29
ATOM     29  C   UNL A   1      33.047  29.071  27.188  1.00  0.00     0.275 C 
BRANCH  29  30
ATOM     30  O   UNL A   1      34.436  29.529  27.099  1.00  0.00    -0.458 OA
BRANCH  30  31
ATOM     31  C   UNL A   1      35.097  30.229  28.065  1.00  0.00     0.338 C 
ATOM     32  O   UNL A   1      34.712  31.288  28.538  1.00  0.00    -0.246 OA
BRANCH  31  33
ATOM     33  C   UNL A   1      36.462  29.729  28.237  1.00  0.00     0.060 A 
ATOM     34  C   UNL A   1      37.397  29.776  27.196  1.00  0.00     0.016 A 
ATOM     35  C   UNL A   1      36.816  29.364  29.531  1.00  0.00     0.016 A 
ATOM     36  C   UNL A   1      38.748  29.613  27.491  1.00  0.00     0.010 A 
ATOM     37  C   UNL A   1      38.143  29.285  29.846  1.00  0.00     0.010 A 
ATOM     38  C   UNL A   1      39.101  29.349  28.816  1.00  0.00    -0.014 A 
BRANCH  38  39
ATOM     39  C   UNL A   1      40.258  28.540  29.154  1.00  0.00     0.031 A 
ATOM     40  C   UNL A   1      40.376  27.102  28.909  1.00  0.00     0.074 A 
ATOM     41  C   UNL A   1      41.337  29.358  29.156  1.00  0.00     0.049 A 
ATOM     42  N   UNL A   1      41.427  26.442  29.247  1.00  0.00    -0.248 NA
ATOM     43  C   UNL A   1      39.355  26.286  28.259  1.00  0.00     0.031 C 
ATOM     44  C   UNL A   1      42.687  29.117  28.695  1.00  0.00     0.029 A 
ATOM     45  N   UNL A   1      41.359  30.694  29.576  1.00  0.00    -0.354 N 
ATOM     46  C   UNL A   1      41.365  25.225  28.613  1.00  0.00     0.074 A 
ATOM     47  C   UNL A   1      40.013  25.127  28.106  1.00  0.00     0.031 C 
ATOM     48  C   UNL A   1      43.450  30.155  29.086  1.00  0.00     0.029 A 
ATOM     49  C   UNL A   1      42.651  30.965  29.998  1.00  0.00     0.049 A 
ATOM     50  H   UNL A   1      40.601  31.321  29.572  1.00  0.00     0.167 HD
ATOM     51  C   UNL A   1      42.518  24.524  28.420  1.00  0.00     0.034 A 
ATOM     52  C   UNL A   1      42.896  31.217  31.318  1.00  0.00     0.034 A 
ATOM     53  C   UNL A   1      43.687  25.303  28.872  1.00  0.00     0.049 A 
ATOM     54  C   UNL A   1      43.797  30.150  31.919  1.00  0.00     0.074 A 
ATOM     55  C   UNL A   1      44.606  26.096  28.201  1.00  0.00     0.029 A 
ATOM     56  N   UNL A   1      43.845  25.599  30.218  1.00  0.00    -0.354 N 
ATOM     57  N   UNL A   1      44.305  29.137  31.272  1.00  0.00    -0.248 NA
ATOM     58  C   UNL A   1      44.076  30.093  33.346  1.00  0.00     0.031 C 
ATOM     59  C   UNL A   1      45.309  26.883  29.162  1.00  0.00     0.029 A 
ATOM     60  C   UNL A   1      44.838  26.554  30.419  1.00  0.00     0.049 A 
ATOM     61  H   UNL A   1      43.321  25.185  30.942  1.00  0.00     0.167 HD
ATOM     62  C   UNL A   1      44.778  28.211  32.165  1.00  0.00     0.074 A 
ATOM     63  C   UNL A   1      44.636  28.879  33.452  1.00  0.00     0.031 C 
ATOM     64  C   UNL A   1      45.162  26.947  31.791  1.00  0.00     0.034 A 
BRANCH  51  65
ATOM     65  C   UNL A   1      42.630  23.304  27.523  1.00  0.00     0.023 A 
ATOM     66  C   UNL A   1      41.832  22.182  27.843  1.00  0.00     0.012 A 
ATOM     67  C   UNL A   1      43.474  23.169  26.396  1.00  0.00     0.148 A 
ATOM     68  C   UNL A   1      41.935  20.964  27.163  1.00  0.00     0.002 A 
ATOM     69  C   UNL A   1      43.620  21.934  25.749  1.00  0.00     0.091 A 
ATOM     70  F   UNL A   1      44.098  24.250  25.907  1.00  0.00    -0.205 F 
ATOM     71  C   UNL A   1      42.854  20.829  26.136  1.00  0.00     0.022 A 
BRANCH  69  72
ATOM     72  S   UNL A   1      44.863  21.645  24.476  1.00  0.00     0.127 S 
ATOM     73  O   UNL A   1      44.471  22.601  23.436  1.00  0.00    -0.237 OA
ATOM     74  O   UNL A   1      46.109  21.974  25.162  1.00  0.00    -0.237 OA
ATOM     75  O   UNL A   1      44.703  20.250  24.080  1.00  0.00    -0.744 OA
ENDBRANCH  69  72
ENDBRANCH  51  65
BRANCH  52  76
ATOM     76  C   UNL A   1      41.729  31.848  32.049  1.00  0.00     0.023 A 
ATOM     77  C   UNL A   1      41.370  33.177  31.711  1.00  0.00     0.012 A 
ATOM     78  C   UNL A   1      40.776  31.064  32.734  1.00  0.00     0.148 A 
ATOM     79  C   UNL A   1      40.087  33.675  31.975  1.00  0.00     0.002 A 
ATOM     80  C   UNL A   1      39.490  31.559  32.968  1.00  0.00     0.091 A 
ATOM     81  F   UNL A   1      41.098  29.813  33.081  1.00  0.00    -0.205 F 
ATOM     82  C   UNL A   1      39.140  32.859  32.585  1.00  0.00     0.022 A 
BRANCH  80  83
ATOM     83  S   UNL A   1      38.174  30.474  33.551  1.00  0.00     0.127 S 
ATOM     84  O   UNL A   1      38.093  30.798  34.980  1.00  0.00    -0.237 OA
ATOM     85  O   UNL A   1      36.997  30.895  32.807  1.00  0.00    -0.237 OA
ATOM     86  O   UNL A   1      38.709  29.155  33.233  1.00  0.00    -0.744 OA
ENDBRANCH  80  83
ENDBRANCH  52  76
BRANCH  64  87
ATOM     87  C   UNL A   1      45.782  25.904  32.716  1.00  0.00     0.023 A 
ATOM     88  C   UNL A   1      47.154  25.604  32.715  1.00  0.00     0.012 A 
ATOM     89  C   UNL A   1      44.987  25.127  33.600  1.00  0.00     0.148 A 
ATOM     90  C   UNL A   1      47.737  24.751  33.658  1.00  0.00     0.002 A 
ATOM     91  C   UNL A   1      45.561  24.275  34.539  1.00  0.00     0.091 A 
ATOM     92  F   UNL A   1      43.653  25.127  33.485  1.00  0.00    -0.205 F 
ATOM     93  C   UNL A   1      46.944  24.115  34.597  1.00  0.00     0.022 A 
BRANCH  91  94
ATOM     94  S   UNL A   1      44.548  23.364  35.707  1.00  0.00     0.127 S 
ATOM     95  O   UNL A   1      43.783  24.440  36.336  1.00  0.00    -0.237 OA
ATOM     96  O   UNL A   1      43.764  22.495  34.826  1.00  0.00    -0.237 OA
ATOM     97  O   UNL A   1      45.487  22.656  36.565  1.00  0.00    -0.744 OA
ENDBRANCH  91  94
ENDBRANCH  64  87
ENDBRANCH  38  39
ENDBRANCH  31  33
ENDBRANCH  30  31
ENDBRANCH  29  30
ENDBRANCH   1  29
TORSDOF 18
ENDMDL
MODEL 3
REMARK VINA RESULT:     -12.1      4.372     10.419
REMARK SMILES Cc1ccccc1S(=O)(=O)Nc1ccc(N2CCOCC2)cc1C(=O)OCCOC(=O)c1ccc(-c2c3nc(c(-c4cccc(S(=O)(=O)[O-])c4F)c4ccc([nH]4)c(-c4cccc(S(=O)(=O)[O-])c4F)c4nc(c(-c5cccc(S(=O)(=O)[O-])c5F)c5ccc2[nH]5)C=C4)C=C3)cc1
REMARK SMILES IDX 27 1 26 2 24 3 25 4 23 5 12 6 13 7 14 8 22 9 15 10 11 11
REMARK SMILES IDX 8 13 9 14 10 15 7 16 1 17 2 18 3 19 4 20 6 21 5 22 16 23
REMARK SMILES IDX 17 24 21 25 18 26 20 27 19 28 28 29 29 30 30 31 31 32 32 33
REMARK SMILES IDX 33 34 94 35 34 36 93 37 35 38 36 39 37 40 87 41 38 42 92 43
REMARK SMILES IDX 86 44 88 45 39 46 91 47 85 48 84 49 40 51 72 52 52 53 71 54
REMARK SMILES IDX 53 55 56 56 70 57 89 58 54 59 55 60 69 62 90 63 57 64 41 65
REMARK SMILES IDX 42 66 50 67 43 68 45 69 51 70 44 71 46 72 47 73 48 74 49 75
REMARK SMILES IDX 73 76 74 77 82 78 75 79 77 80 83 81 76 82 78 83 79 84 80 85
REMARK SMILES IDX 81 86 58 87 59 88 67 89 60 90 62 91 68 92 61 93 63 94 64 95
REMARK SMILES IDX 65 96 66 97
REMARK H PARENT 11 12 88 50 56 61
REMARK Flexibility Score: inf
ROOT
ATOM      1  C   UNL A   1      33.481  30.620  26.510  1.00  0.00     0.275 C 
ENDROOT
BRANCH   1   2
ATOM      2  O   UNL A   1      32.730  29.432  26.117  1.00  0.00    -0.458 OA
BRANCH   2   3
ATOM      3  C   UNL A   1      32.918  28.866  24.904  1.00  0.00     0.340 C 
ATOM      4  O   UNL A   1      34.015  28.563  24.494  1.00  0.00    -0.246 OA
BRANCH   3   5
ATOM      5  C   UNL A   1      31.668  28.622  24.125  1.00  0.00     0.086 A 
ATOM      6  C   UNL A   1      31.277  27.315  23.745  1.00  0.00     0.064 A 
ATOM      7  C   UNL A   1      30.048  27.127  23.114  1.00  0.00     0.030 A 
ATOM      8  C   UNL A   1      29.192  28.210  22.898  1.00  0.00     0.028 A 
ATOM      9  C   UNL A   1      30.816  29.706  23.841  1.00  0.00     0.043 A 
ATOM     10  C   UNL A   1      29.561  29.512  23.250  1.00  0.00     0.038 A 
BRANCH   6  11
ATOM     11  N   UNL A   1      32.107  26.157  23.920  1.00  0.00    -0.279 N 
ATOM     12  H   UNL A   1      32.677  25.854  23.178  1.00  0.00     0.180 HD
BRANCH  11  13
ATOM     13  S   UNL A   1      32.120  25.305  25.382  1.00  0.00     0.262 S 
ATOM     14  O   UNL A   1      30.837  25.543  26.021  1.00  0.00    -0.201 OA
ATOM     15  O   UNL A   1      33.331  25.583  26.124  1.00  0.00    -0.201 OA
BRANCH  13  16
ATOM     16  C   UNL A   1      32.135  23.566  24.907  1.00  0.00     0.090 A 
ATOM     17  C   UNL A   1      32.525  22.642  27.305  1.00  0.00     0.046 C 
ATOM     18  C   UNL A   1      32.384  22.515  25.816  1.00  0.00    -0.031 A 
ATOM     19  C   UNL A   1      32.605  21.225  25.288  1.00  0.00     0.005 A 
ATOM     20  C   UNL A   1      32.525  20.969  23.918  1.00  0.00     0.000 A 
ATOM     21  C   UNL A   1      31.994  23.288  23.530  1.00  0.00     0.022 A 
ATOM     22  C   UNL A   1      32.195  21.997  23.040  1.00  0.00     0.001 A 
ENDBRANCH  13  16
ENDBRANCH  11  13
ENDBRANCH   6  11
BRANCH  10  23
ATOM     23  N   UNL A   1      28.689  30.554  23.054  1.00  0.00    -0.367 N 
ATOM     24  C   UNL A   1      27.767  30.626  21.913  1.00  0.00     0.145 C 
ATOM     25  C   UNL A   1      28.751  31.756  23.884  1.00  0.00     0.145 C 
ATOM     26  C   UNL A   1      28.036  31.908  21.104  1.00  0.00     0.181 C 
ATOM     27  C   UNL A   1      29.037  32.963  22.977  1.00  0.00     0.181 C 
ATOM     28  O   UNL A   1      28.057  33.088  21.935  1.00  0.00    -0.378 OA
ENDBRANCH  10  23
ENDBRANCH   3   5
ENDBRANCH   2   3
ENDBRANCH   1   2
BRANCH   1  29
ATOM     29  C   UNL A   1      33.813  30.979  27.992  1.00  0.00     0.275 C 
BRANCH  29  30
ATOM     30  O   UNL A   1      34.320  32.275  28.447  1.00  0.00    -0.458 OA
BRANCH  30  31
ATOM     31  C   UNL A   1      34.793  32.541  29.698  1.00  0.00     0.338 C 
ATOM     32  O   UNL A   1      34.321  33.379  30.452  1.00  0.00    -0.246 OA
BRANCH  31  33
ATOM     33  C   UNL A   1      36.107  31.932  29.906  1.00  0.00     0.060 A 
ATOM     34  C   UNL A   1      37.228  32.339  29.171  1.00  0.00     0.016 A 
ATOM     35  C   UNL A   1      36.208  31.055  30.980  1.00  0.00     0.016 A 
ATOM     36  C   UNL A   1      38.497  31.989  29.623  1.00  0.00     0.010 A 
ATOM     37  C   UNL A   1      37.449  30.776  31.479  1.00  0.00     0.010 A 
ATOM     38  C   UNL A   1      38.589  31.192  30.765  1.00  0.00    -0.014 A 
BRANCH  38  39
ATOM     39  C   UNL A   1      39.675  30.248  30.956  1.00  0.00     0.031 A 
ATOM     40  C   UNL A   1      39.931  29.084  30.106  1.00  0.00     0.074 A 
ATOM     41  C   UNL A   1      40.672  30.901  31.598  1.00  0.00     0.049 A 
ATOM     42  N   UNL A   1      40.905  28.277  30.341  1.00  0.00    -0.248 NA
ATOM     43  C   UNL A   1      39.147  28.729  28.928  1.00  0.00     0.031 C 
ATOM     44  C   UNL A   1      42.104  30.817  31.418  1.00  0.00     0.029 A 
ATOM     45  N   UNL A   1      40.514  31.884  32.582  1.00  0.00    -0.354 N 
ATOM     46  C   UNL A   1      41.070  27.501  29.219  1.00  0.00     0.074 A 
ATOM     47  C   UNL A   1      39.889  27.735  28.416  1.00  0.00     0.031 C 
ATOM     48  C   UNL A   1      42.689  31.504  32.418  1.00  0.00     0.029 A 
ATOM     49  C   UNL A   1      41.646  31.846  33.379  1.00  0.00     0.049 A 
ATOM     50  H   UNL A   1      39.744  32.488  32.688  1.00  0.00     0.167 HD
ATOM     51  C   UNL A   1      42.274  26.898  29.007  1.00  0.00     0.034 A 
ATOM     52  C   UNL A   1      41.550  31.440  34.680  1.00  0.00     0.034 A 
ATOM     53  C   UNL A   1      43.251  27.303  30.035  1.00  0.00     0.049 A 
ATOM     54  C   UNL A   1      42.339  30.162  34.912  1.00  0.00     0.074 A 
ATOM     55  C   UNL A   1      44.258  28.256  30.055  1.00  0.00     0.029 A 
ATOM     56  N   UNL A   1      43.061  26.928  31.358  1.00  0.00    -0.354 N 
ATOM     57  N   UNL A   1      43.046  29.535  34.013  1.00  0.00    -0.248 NA
ATOM     58  C   UNL A   1      42.267  29.431  36.168  1.00  0.00     0.031 C 
ATOM     59  C   UNL A   1      44.661  28.460  31.408  1.00  0.00     0.029 A 
ATOM     60  C   UNL A   1      43.919  27.615  32.213  1.00  0.00     0.049 A 
ATOM     61  H   UNL A   1      42.402  26.259  31.656  1.00  0.00     0.167 HD
ATOM     62  C   UNL A   1      43.342  28.272  34.456  1.00  0.00     0.074 A 
ATOM     63  C   UNL A   1      42.854  28.274  35.829  1.00  0.00     0.031 C 
ATOM     64  C   UNL A   1      43.878  27.305  33.642  1.00  0.00     0.034 A 
BRANCH  51  65
ATOM     65  C   UNL A   1      42.670  26.230  27.702  1.00  0.00     0.023 A 
ATOM     66  C   UNL A   1      43.004  27.068  26.614  1.00  0.00     0.012 A 
ATOM     67  C   UNL A   1      42.721  24.839  27.456  1.00  0.00     0.148 A 
ATOM     68  C   UNL A   1      43.270  26.573  25.333  1.00  0.00     0.002 A 
ATOM     69  C   UNL A   1      42.931  24.342  26.163  1.00  0.00     0.091 A 
ATOM     70  F   UNL A   1      42.624  23.984  28.485  1.00  0.00    -0.205 F 
ATOM     71  C   UNL A   1      43.201  25.210  25.099  1.00  0.00     0.022 A 
BRANCH  69  72
ATOM     72  S   UNL A   1      42.757  22.595  25.751  1.00  0.00     0.127 S 
ATOM     73  O   UNL A   1      43.032  22.587  24.310  1.00  0.00    -0.237 OA
ATOM     74  O   UNL A   1      43.793  21.968  26.568  1.00  0.00    -0.237 OA
ATOM     75  O   UNL A   1      41.381  22.247  26.087  1.00  0.00    -0.744 OA
ENDBRANCH  69  72
ENDBRANCH  51  65
BRANCH  52  76
ATOM     76  C   UNL A   1      40.206  31.731  35.315  1.00  0.00     0.023 A 
ATOM     77  C   UNL A   1      39.131  30.850  35.034  1.00  0.00     0.012 A 
ATOM     78  C   UNL A   1      40.087  32.575  36.439  1.00  0.00     0.148 A 
ATOM     79  C   UNL A   1      38.023  30.759  35.886  1.00  0.00     0.002 A 
ATOM     80  C   UNL A   1      38.991  32.458  37.298  1.00  0.00     0.091 A 
ATOM     81  F   UNL A   1      41.079  33.429  36.713  1.00  0.00    -0.205 F 
ATOM     82  C   UNL A   1      37.962  31.548  37.029  1.00  0.00     0.022 A 
BRANCH  80  83
ATOM     83  S   UNL A   1      38.975  33.294  38.895  1.00  0.00     0.127 S 
ATOM     84  O   UNL A   1      37.686  32.883  39.466  1.00  0.00    -0.237 OA
ATOM     85  O   UNL A   1      40.114  32.739  39.610  1.00  0.00    -0.237 OA
ATOM     86  O   UNL A   1      39.070  34.695  38.502  1.00  0.00    -0.744 OA
ENDBRANCH  80  83
ENDBRANCH  52  76
BRANCH  64  87
ATOM     87  C   UNL A   1      44.315  25.915  34.095  1.00  0.00     0.023 A 
ATOM     88  C   UNL A   1      43.404  24.883  34.375  1.00  0.00     0.012 A 
ATOM     89  C   UNL A   1      45.682  25.601  34.318  1.00  0.00     0.148 A 
ATOM     90  C   UNL A   1      43.813  23.575  34.654  1.00  0.00     0.002 A 
ATOM     91  C   UNL A   1      46.095  24.302  34.597  1.00  0.00     0.091 A 
ATOM     92  F   UNL A   1      46.601  26.574  34.355  1.00  0.00    -0.205 F 
ATOM     93  C   UNL A   1      45.162  23.275  34.727  1.00  0.00     0.022 A 
BRANCH  91  94
ATOM     94  S   UNL A   1      47.834  23.903  34.792  1.00  0.00     0.127 S 
ATOM     95  O   UNL A   1      48.138  24.532  36.077  1.00  0.00    -0.237 OA
ATOM     96  O   UNL A   1      47.816  22.439  34.819  1.00  0.00    -0.237 OA
ATOM     97  O   UNL A   1      48.495  24.471  33.626  1.00  0.00    -0.744 OA
ENDBRANCH  91  94
ENDBRANCH  64  87
ENDBRANCH  38  39
ENDBRANCH  31  33
ENDBRANCH  30  31
ENDBRANCH  29  30
ENDBRANCH   1  29
TORSDOF 18
ENDMDL
