MODEL 1
REMARK VINA RESULT:     -11.0      0.000      0.000
REMARK SMILES CC(C)[C@H](Sc1ccncc1)C(=O)OCCOC(=O)c1ccc(-c2c3nc(c(-c4cccc(S(=O)(=O)[O-])c4F)c4ccc([nH]4)c(-c4cccc(S(=O)(=O)[O-])c4F)c4nc(c(-c5cccc(S(=O)(=O)[O-])c5F)c5ccc2[nH]5)C=C4)C=C3)cc1
REMARK SMILES IDX 16 1 15 2 14 3 12 4 13 5 4 6 2 7 1 8 3 9 5 10 6 11 7 12
REMARK SMILES IDX 11 13 8 14 10 15 9 16 17 17 18 18 19 19 20 20 21 21 82 22
REMARK SMILES IDX 22 23 81 24 23 25 24 26 25 27 75 28 26 29 80 30 74 31 76 32
REMARK SMILES IDX 27 33 79 34 73 35 72 36 28 38 60 39 40 40 59 41 41 42 44 43
REMARK SMILES IDX 58 44 77 45 42 46 43 47 57 49 78 50 45 51 29 52 30 53 38 54
REMARK SMILES IDX 31 55 33 56 39 57 32 58 34 59 35 60 36 61 37 62 61 63 62 64
REMARK SMILES IDX 70 65 63 66 65 67 71 68 64 69 66 70 67 71 68 72 69 73 46 74
REMARK SMILES IDX 47 75 55 76 48 77 50 78 56 79 49 80 51 81 52 82 53 83 54 84
REMARK H PARENT 76 37 44 48
REMARK Flexibility Score: inf
ROOT
ATOM      1  C   UNL A   1      37.763  19.825  24.978  1.00  0.00     0.275 C 
ENDROOT
BRANCH   1   2
ATOM      2  C   UNL A   1      36.237  19.952  25.009  1.00  0.00     0.274 C 
BRANCH   2   3
ATOM      3  O   UNL A   1      35.789  21.038  25.845  1.00  0.00    -0.461 OA
BRANCH   3   4
ATOM      4  C   UNL A   1      34.444  21.250  25.873  1.00  0.00     0.319 C 
ATOM      5  O   UNL A   1      33.800  21.435  26.902  1.00  0.00    -0.251 OA
BRANCH   4   6
ATOM      6  C   UNL A   1      33.765  21.153  24.501  1.00  0.00     0.164 C 
BRANCH   6   7
ATOM      7  C   UNL A   1      33.610  22.530  23.780  1.00  0.00     0.007 C 
ATOM      8  C   UNL A   1      34.895  23.174  23.250  1.00  0.00     0.009 C 
ATOM      9  C   UNL A   1      32.571  22.533  22.648  1.00  0.00     0.009 C 
ENDBRANCH   6   7
BRANCH   6  10
ATOM     10  S   UNL A   1      32.272  20.063  24.628  1.00  0.00    -0.110 SA
BRANCH  10  11
ATOM     11  C   UNL A   1      32.900  18.391  24.539  1.00  0.00     0.011 A 
ATOM     12  C   UNL A   1      33.579  17.837  23.456  1.00  0.00     0.035 A 
ATOM     13  C   UNL A   1      32.687  17.590  25.664  1.00  0.00     0.035 A 
ATOM     14  C   UNL A   1      33.972  16.508  23.529  1.00  0.00     0.112 A 
ATOM     15  C   UNL A   1      33.119  16.276  25.644  1.00  0.00     0.112 A 
ATOM     16  N   UNL A   1      33.743  15.711  24.593  1.00  0.00    -0.265 NA
ENDBRANCH  10  11
ENDBRANCH   6  10
ENDBRANCH   4   6
ENDBRANCH   3   4
ENDBRANCH   2   3
ENDBRANCH   1   2
BRANCH   1  17
ATOM     17  O   UNL A   1      38.405  21.046  25.381  1.00  0.00    -0.458 OA
BRANCH  17  18
ATOM     18  C   UNL A   1      39.477  20.890  26.192  1.00  0.00     0.338 C 
ATOM     19  O   UNL A   1      40.099  19.863  26.403  1.00  0.00    -0.246 OA
BRANCH  18  20
ATOM     20  C   UNL A   1      39.884  22.195  26.732  1.00  0.00     0.060 A 
ATOM     21  C   UNL A   1      39.266  23.342  26.225  1.00  0.00     0.016 A 
ATOM     22  C   UNL A   1      40.931  22.296  27.648  1.00  0.00     0.016 A 
ATOM     23  C   UNL A   1      39.705  24.603  26.619  1.00  0.00     0.010 A 
ATOM     24  C   UNL A   1      41.375  23.563  28.039  1.00  0.00     0.010 A 
ATOM     25  C   UNL A   1      40.780  24.721  27.508  1.00  0.00    -0.014 A 
BRANCH  25  26
ATOM     26  C   UNL A   1      41.345  26.058  27.808  1.00  0.00     0.031 A 
ATOM     27  C   UNL A   1      42.750  26.377  27.382  1.00  0.00     0.074 A 
ATOM     28  C   UNL A   1      40.606  26.975  28.458  1.00  0.00     0.049 A 
ATOM     29  N   UNL A   1      43.454  27.457  27.597  1.00  0.00    -0.248 NA
ATOM     30  C   UNL A   1      43.458  25.339  26.614  1.00  0.00     0.031 C 
ATOM     31  C   UNL A   1      39.229  26.781  28.911  1.00  0.00     0.029 A 
ATOM     32  N   UNL A   1      40.921  28.247  28.869  1.00  0.00    -0.354 N 
ATOM     33  C   UNL A   1      44.698  27.218  27.025  1.00  0.00     0.074 A 
ATOM     34  C   UNL A   1      44.654  25.889  26.454  1.00  0.00     0.031 C 
ATOM     35  C   UNL A   1      38.823  27.887  29.559  1.00  0.00     0.029 A 
ATOM     36  C   UNL A   1      39.919  28.854  29.589  1.00  0.00     0.049 A 
ATOM     37  H   UNL A   1      41.781  28.681  28.668  1.00  0.00     0.167 HD
ATOM     38  C   UNL A   1      45.774  28.038  26.968  1.00  0.00     0.034 A 
ATOM     39  C   UNL A   1      39.898  30.046  30.216  1.00  0.00     0.034 A 
ATOM     40  C   UNL A   1      45.802  29.371  27.504  1.00  0.00     0.049 A 
ATOM     41  C   UNL A   1      41.108  30.938  30.135  1.00  0.00     0.074 A 
ATOM     42  C   UNL A   1      46.834  30.291  27.470  1.00  0.00     0.029 A 
ATOM     43  N   UNL A   1      44.748  29.976  28.171  1.00  0.00    -0.354 N 
ATOM     44  N   UNL A   1      42.242  30.737  29.507  1.00  0.00    -0.248 NA
ATOM     45  C   UNL A   1      41.027  32.236  30.822  1.00  0.00     0.031 C 
ATOM     46  C   UNL A   1      46.405  31.453  28.122  1.00  0.00     0.029 A 
ATOM     47  C   UNL A   1      45.103  31.258  28.553  1.00  0.00     0.049 A 
ATOM     48  H   UNL A   1      43.875  29.555  28.347  1.00  0.00     0.167 HD
ATOM     49  C   UNL A   1      42.994  31.890  29.696  1.00  0.00     0.074 A 
ATOM     50  C   UNL A   1      42.179  32.796  30.480  1.00  0.00     0.031 C 
ATOM     51  C   UNL A   1      44.253  32.169  29.276  1.00  0.00     0.034 A 
BRANCH  38  52
ATOM     52  C   UNL A   1      47.002  27.524  26.265  1.00  0.00     0.023 A 
ATOM     53  C   UNL A   1      47.183  27.802  24.895  1.00  0.00     0.012 A 
ATOM     54  C   UNL A   1      47.995  26.812  26.964  1.00  0.00     0.148 A 
ATOM     55  C   UNL A   1      48.322  27.356  24.225  1.00  0.00     0.002 A 
ATOM     56  C   UNL A   1      49.145  26.401  26.298  1.00  0.00     0.091 A 
ATOM     57  F   UNL A   1      47.792  26.533  28.260  1.00  0.00    -0.205 F 
ATOM     58  C   UNL A   1      49.306  26.665  24.929  1.00  0.00     0.022 A 
BRANCH  56  59
ATOM     59  S   UNL A   1      50.495  25.563  27.136  1.00  0.00     0.127 S 
ATOM     60  O   UNL A   1      51.458  25.394  26.049  1.00  0.00    -0.237 OA
ATOM     61  O   UNL A   1      50.887  26.541  28.151  1.00  0.00    -0.237 OA
ATOM     62  O   UNL A   1      49.927  24.333  27.671  1.00  0.00    -0.744 OA
ENDBRANCH  56  59
ENDBRANCH  38  52
BRANCH  39  63
ATOM     63  C   UNL A   1      38.668  30.485  30.934  1.00  0.00     0.023 A 
ATOM     64  C   UNL A   1      38.546  30.232  32.314  1.00  0.00     0.012 A 
ATOM     65  C   UNL A   1      37.636  31.176  30.269  1.00  0.00     0.148 A 
ATOM     66  C   UNL A   1      37.409  30.636  33.014  1.00  0.00     0.002 A 
ATOM     67  C   UNL A   1      36.530  31.624  30.983  1.00  0.00     0.091 A 
ATOM     68  F   UNL A   1      37.758  31.388  28.951  1.00  0.00    -0.205 F 
ATOM     69  C   UNL A   1      36.407  31.343  32.352  1.00  0.00     0.022 A 
BRANCH  67  70
ATOM     70  S   UNL A   1      35.261  32.650  30.232  1.00  0.00     0.127 S 
ATOM     71  O   UNL A   1      34.781  31.792  29.153  1.00  0.00    -0.237 OA
ATOM     72  O   UNL A   1      34.319  32.834  31.338  1.00  0.00    -0.237 OA
ATOM     73  O   UNL A   1      35.943  33.871  29.823  1.00  0.00    -0.744 OA
ENDBRANCH  67  70
ENDBRANCH  39  63
BRANCH  51  74
ATOM     74  C   UNL A   1      44.822  33.519  29.625  1.00  0.00     0.023 A 
ATOM     75  C   UNL A   1      45.657  33.650  30.752  1.00  0.00     0.012 A 
ATOM     76  C   UNL A   1      44.596  34.634  28.796  1.00  0.00     0.148 A 
ATOM     77  C   UNL A   1      46.237  34.880  31.063  1.00  0.00     0.002 A 
ATOM     78  C   UNL A   1      45.211  35.847  29.089  1.00  0.00     0.091 A 
ATOM     79  F   UNL A   1      43.779  34.496  27.741  1.00  0.00    -0.205 F 
ATOM     80  C   UNL A   1      46.024  35.973  30.226  1.00  0.00     0.022 A 
BRANCH  78  81
ATOM     81  S   UNL A   1      45.056  37.276  28.012  1.00  0.00     0.127 S 
ATOM     82  O   UNL A   1      43.606  37.449  27.949  1.00  0.00    -0.237 OA
ATOM     83  O   UNL A   1      45.762  38.316  28.764  1.00  0.00    -0.237 OA
ATOM     84  O   UNL A   1      45.704  36.898  26.762  1.00  0.00    -0.744 OA
ENDBRANCH  78  81
ENDBRANCH  51  74
ENDBRANCH  25  26
ENDBRANCH  18  20
ENDBRANCH  17  18
ENDBRANCH   1  17
TORSDOF 17
ENDMDL
MODEL 2
REMARK VINA RESULT:     -10.6      1.462      7.972
REMARK SMILES CC(C)[C@H](Sc1ccncc1)C(=O)OCCOC(=O)c1ccc(-c2c3nc(c(-c4cccc(S(=O)(=O)[O-])c4F)c4ccc([nH]4)c(-c4cccc(S(=O)(=O)[O-])c4F)c4nc(c(-c5cccc(S(=O)(=O)[O-])c5F)c5ccc2[nH]5)C=C4)C=C3)cc1
REMARK SMILES IDX 16 1 15 2 14 3 12 4 13 5 4 6 2 7 1 8 3 9 5 10 6 11 7 12
REMARK SMILES IDX 11 13 8 14 10 15 9 16 17 17 18 18 19 19 20 20 21 21 82 22
REMARK SMILES IDX 22 23 81 24 23 25 24 26 25 27 75 28 26 29 80 30 74 31 76 32
REMARK SMILES IDX 27 33 79 34 73 35 72 36 28 38 60 39 40 40 59 41 41 42 44 43
REMARK SMILES IDX 58 44 77 45 42 46 43 47 57 49 78 50 45 51 29 52 30 53 38 54
REMARK SMILES IDX 31 55 33 56 39 57 32 58 34 59 35 60 36 61 37 62 61 63 62 64
REMARK SMILES IDX 70 65 63 66 65 67 71 68 64 69 66 70 67 71 68 72 69 73 46 74
REMARK SMILES IDX 47 75 55 76 48 77 50 78 56 79 49 80 51 81 52 82 53 83 54 84
REMARK H PARENT 76 37 44 48
REMARK Flexibility Score: inf
ROOT
ATOM      1  C   UNL A   1      37.651  19.860  25.039  1.00  0.00     0.275 C 
ENDROOT
BRANCH   1   2
ATOM      2  C   UNL A   1      36.166  20.142  24.793  1.00  0.00     0.274 C 
BRANCH   2   3
ATOM      3  O   UNL A   1      35.715  21.344  25.447  1.00  0.00    -0.461 OA
BRANCH   3   4
ATOM      4  C   UNL A   1      34.386  21.397  25.742  1.00  0.00     0.319 C 
ATOM      5  O   UNL A   1      33.941  21.574  26.872  1.00  0.00    -0.251 OA
BRANCH   4   6
ATOM      6  C   UNL A   1      33.466  21.129  24.544  1.00  0.00     0.164 C 
BRANCH   6   7
ATOM      7  C   UNL A   1      33.070  22.418  23.757  1.00  0.00     0.007 C 
ATOM      8  C   UNL A   1      32.428  23.547  24.571  1.00  0.00     0.009 C 
ATOM      9  C   UNL A   1      34.209  23.019  22.920  1.00  0.00     0.009 C 
ENDBRANCH   6   7
BRANCH   6  10
ATOM     10  S   UNL A   1      32.115  19.968  25.052  1.00  0.00    -0.110 SA
BRANCH  10  11
ATOM     11  C   UNL A   1      32.778  18.328  24.787  1.00  0.00     0.011 A 
ATOM     12  C   UNL A   1      32.744  17.283  25.707  1.00  0.00     0.035 A 
ATOM     13  C   UNL A   1      33.370  18.094  23.542  1.00  0.00     0.035 A 
ATOM     14  C   UNL A   1      33.336  16.076  25.361  1.00  0.00     0.112 A 
ATOM     15  C   UNL A   1      33.931  16.855  23.289  1.00  0.00     0.112 A 
ATOM     16  N   UNL A   1      33.942  15.844  24.179  1.00  0.00    -0.265 NA
ENDBRANCH  10  11
ENDBRANCH   6  10
ENDBRANCH   4   6
ENDBRANCH   3   4
ENDBRANCH   2   3
ENDBRANCH   1   2
BRANCH   1  17
ATOM     17  O   UNL A   1      38.356  21.047  25.442  1.00  0.00    -0.458 OA
BRANCH  17  18
ATOM     18  C   UNL A   1      39.451  20.831  26.207  1.00  0.00     0.338 C 
ATOM     19  O   UNL A   1      40.034  19.774  26.380  1.00  0.00    -0.246 OA
BRANCH  18  20
ATOM     20  C   UNL A   1      39.938  22.108  26.747  1.00  0.00     0.060 A 
ATOM     21  C   UNL A   1      39.412  23.292  26.221  1.00  0.00     0.016 A 
ATOM     22  C   UNL A   1      40.972  22.143  27.682  1.00  0.00     0.016 A 
ATOM     23  C   UNL A   1      39.931  24.522  26.616  1.00  0.00     0.010 A 
ATOM     24  C   UNL A   1      41.497  23.379  28.074  1.00  0.00     0.010 A 
ATOM     25  C   UNL A   1      40.994  24.572  27.525  1.00  0.00    -0.014 A 
BRANCH  25  26
ATOM     26  C   UNL A   1      41.645  25.868  27.827  1.00  0.00     0.031 A 
ATOM     27  C   UNL A   1      40.882  26.917  28.584  1.00  0.00     0.074 A 
ATOM     28  C   UNL A   1      42.907  26.102  27.423  1.00  0.00     0.049 A 
ATOM     29  N   UNL A   1      41.240  28.134  28.897  1.00  0.00    -0.248 NA
ATOM     30  C   UNL A   1      39.534  26.547  29.048  1.00  0.00     0.031 C 
ATOM     31  C   UNL A   1      43.747  25.155  26.690  1.00  0.00     0.029 A 
ATOM     32  N   UNL A   1      43.693  27.220  27.554  1.00  0.00    -0.354 N 
ATOM     33  C   UNL A   1      40.152  28.690  29.562  1.00  0.00     0.074 A 
ATOM     34  C   UNL A   1      39.120  27.677  29.605  1.00  0.00     0.031 C 
ATOM     35  C   UNL A   1      44.925  25.741  26.415  1.00  0.00     0.029 A 
ATOM     36  C   UNL A   1      44.912  27.109  26.929  1.00  0.00     0.049 A 
ATOM     37  H   UNL A   1      43.411  28.023  28.048  1.00  0.00     0.167 HD
ATOM     38  C   UNL A   1      40.031  29.926  30.099  1.00  0.00     0.034 A 
ATOM     39  C   UNL A   1      45.896  28.016  26.773  1.00  0.00     0.034 A 
ATOM     40  C   UNL A   1      41.072  30.918  30.085  1.00  0.00     0.049 A 
ATOM     41  C   UNL A   1      45.735  29.383  27.382  1.00  0.00     0.074 A 
ATOM     42  C   UNL A   1      41.057  32.190  30.630  1.00  0.00     0.029 A 
ATOM     43  N   UNL A   1      42.316  30.748  29.499  1.00  0.00    -0.354 N 
ATOM     44  N   UNL A   1      44.740  29.859  28.092  1.00  0.00    -0.248 NA
ATOM     45  C   UNL A   1      46.846  30.330  27.198  1.00  0.00     0.031 C 
ATOM     46  C   UNL A   1      42.293  32.792  30.366  1.00  0.00     0.029 A 
ATOM     47  C   UNL A   1      43.079  31.890  29.667  1.00  0.00     0.049 A 
ATOM     48  H   UNL A   1      42.613  29.934  29.030  1.00  0.00     0.167 HD
ATOM     49  C   UNL A   1      45.116  31.145  28.463  1.00  0.00     0.074 A 
ATOM     50  C   UNL A   1      46.440  31.366  27.919  1.00  0.00     0.031 C 
ATOM     51  C   UNL A   1      44.421  32.067  29.175  1.00  0.00     0.034 A 
BRANCH  38  52
ATOM     52  C   UNL A   1      38.733  30.263  30.783  1.00  0.00     0.023 A 
ATOM     53  C   UNL A   1      38.539  29.882  32.126  1.00  0.00     0.012 A 
ATOM     54  C   UNL A   1      37.729  30.992  30.118  1.00  0.00     0.148 A 
ATOM     55  C   UNL A   1      37.355  30.200  32.789  1.00  0.00     0.002 A 
ATOM     56  C   UNL A   1      36.565  31.336  30.796  1.00  0.00     0.091 A 
ATOM     57  F   UNL A   1      37.921  31.320  28.832  1.00  0.00    -0.205 F 
ATOM     58  C   UNL A   1      36.373  30.934  32.128  1.00  0.00     0.022 A 
BRANCH  56  59
ATOM     59  S   UNL A   1      35.274  32.336  30.048  1.00  0.00     0.127 S 
ATOM     60  O   UNL A   1      34.344  32.503  31.163  1.00  0.00    -0.237 OA
ATOM     61  O   UNL A   1      35.999  33.551  29.671  1.00  0.00    -0.237 OA
ATOM     62  O   UNL A   1      34.773  31.560  28.921  1.00  0.00    -0.744 OA
ENDBRANCH  56  59
ENDBRANCH  38  52
BRANCH  39  63
ATOM     63  C   UNL A   1      47.143  27.641  26.048  1.00  0.00     0.023 A 
ATOM     64  C   UNL A   1      48.198  27.033  26.756  1.00  0.00     0.012 A 
ATOM     65  C   UNL A   1      47.280  27.854  24.662  1.00  0.00     0.148 A 
ATOM     66  C   UNL A   1      49.375  26.667  26.103  1.00  0.00     0.002 A 
ATOM     67  C   UNL A   1      48.434  27.438  24.008  1.00  0.00     0.091 A 
ATOM     68  F   UNL A   1      46.276  28.456  24.008  1.00  0.00    -0.205 F 
ATOM     69  C   UNL A   1      49.488  26.857  24.728  1.00  0.00     0.022 A 
BRANCH  67  70
ATOM     70  S   UNL A   1      48.603  27.529  22.222  1.00  0.00     0.127 S 
ATOM     71  O   UNL A   1      48.798  26.126  21.866  1.00  0.00    -0.237 OA
ATOM     72  O   UNL A   1      47.312  28.092  21.819  1.00  0.00    -0.237 OA
ATOM     73  O   UNL A   1      49.736  28.413  21.984  1.00  0.00    -0.744 OA
ENDBRANCH  67  70
ENDBRANCH  39  63
BRANCH  51  74
ATOM     74  C   UNL A   1      45.087  33.392  29.437  1.00  0.00     0.023 A 
ATOM     75  C   UNL A   1      45.864  33.561  30.599  1.00  0.00     0.012 A 
ATOM     76  C   UNL A   1      45.008  34.439  28.498  1.00  0.00     0.148 A 
ATOM     77  C   UNL A   1      46.533  34.762  30.835  1.00  0.00     0.002 A 
ATOM     78  C   UNL A   1      45.711  35.618  28.720  1.00  0.00     0.091 A 
ATOM     79  F   UNL A   1      44.244  34.269  27.409  1.00  0.00    -0.205 F 
ATOM     80  C   UNL A   1      46.465  35.784  29.892  1.00  0.00     0.022 A 
BRANCH  78  81
ATOM     81  S   UNL A   1      45.745  36.946  27.511  1.00  0.00     0.127 S 
ATOM     82  O   UNL A   1      44.329  37.292  27.404  1.00  0.00    -0.237 OA
ATOM     83  O   UNL A   1      46.572  37.957  28.175  1.00  0.00    -0.237 OA
ATOM     84  O   UNL A   1      46.349  36.372  26.315  1.00  0.00    -0.744 OA
ENDBRANCH  78  81
ENDBRANCH  51  74
ENDBRANCH  25  26
ENDBRANCH  18  20
ENDBRANCH  17  18
ENDBRANCH   1  17
TORSDOF 17
ENDMDL
MODEL 3
REMARK VINA RESULT:     -10.4      5.509      8.244
REMARK SMILES CC(C)[C@H](Sc1ccncc1)C(=O)OCCOC(=O)c1ccc(-c2c3nc(c(-c4cccc(S(=O)(=O)[O-])c4F)c4ccc([nH]4)c(-c4cccc(S(=O)(=O)[O-])c4F)c4nc(c(-c5cccc(S(=O)(=O)[O-])c5F)c5ccc2[nH]5)C=C4)C=C3)cc1
REMARK SMILES IDX 16 1 15 2 14 3 12 4 13 5 4 6 2 7 1 8 3 9 5 10 6 11 7 12
REMARK SMILES IDX 11 13 8 14 10 15 9 16 17 17 18 18 19 19 20 20 21 21 82 22
REMARK SMILES IDX 22 23 81 24 23 25 24 26 25 27 75 28 26 29 80 30 74 31 76 32
REMARK SMILES IDX 27 33 79 34 73 35 72 36 28 38 60 39 40 40 59 41 41 42 44 43
REMARK SMILES IDX 58 44 77 45 42 46 43 47 57 49 78 50 45 51 29 52 30 53 38 54
REMARK SMILES IDX 31 55 33 56 39 57 32 58 34 59 35 60 36 61 37 62 61 63 62 64
REMARK SMILES IDX 70 65 63 66 65 67 71 68 64 69 66 70 67 71 68 72 69 73 46 74
REMARK SMILES IDX 47 75 55 76 48 77 50 78 56 79 49 80 51 81 52 82 53 83 54 84
REMARK H PARENT 76 37 44 48
REMARK Flexibility Score: inf
ROOT
ATOM      1  C   UNL A   1      31.684  29.829  25.935  1.00  0.00     0.275 C 
ENDROOT
BRANCH   1   2
ATOM      2  C   UNL A   1      31.670  28.543  26.766  1.00  0.00     0.274 C 
BRANCH   2   3
ATOM      3  O   UNL A   1      32.288  27.435  26.082  1.00  0.00    -0.461 OA
BRANCH   3   4
ATOM      4  C   UNL A   1      31.521  26.318  25.946  1.00  0.00     0.319 C 
ATOM      5  O   UNL A   1      30.531  26.077  26.632  1.00  0.00    -0.251 OA
BRANCH   4   6
ATOM      6  C   UNL A   1      32.046  25.318  24.908  1.00  0.00     0.164 C 
BRANCH   6   7
ATOM      7  C   UNL A   1      33.563  25.496  24.579  1.00  0.00     0.007 C 
ATOM      8  C   UNL A   1      34.553  24.786  25.509  1.00  0.00     0.009 C 
ATOM      9  C   UNL A   1      33.936  25.151  23.129  1.00  0.00     0.009 C 
ENDBRANCH   6   7
BRANCH   6  10
ATOM     10  S   UNL A   1      30.855  25.213  23.494  1.00  0.00    -0.110 SA
BRANCH  10  11
ATOM     11  C   UNL A   1      30.372  26.901  23.157  1.00  0.00     0.011 A 
ATOM     12  C   UNL A   1      29.104  27.438  23.366  1.00  0.00     0.035 A 
ATOM     13  C   UNL A   1      31.368  27.739  22.647  1.00  0.00     0.035 A 
ATOM     14  C   UNL A   1      28.879  28.763  23.019  1.00  0.00     0.112 A 
ATOM     15  C   UNL A   1      31.048  29.048  22.334  1.00  0.00     0.112 A 
ATOM     16  N   UNL A   1      29.819  29.575  22.493  1.00  0.00    -0.265 NA
ENDBRANCH  10  11
ENDBRANCH   6  10
ENDBRANCH   4   6
ENDBRANCH   3   4
ENDBRANCH   2   3
ENDBRANCH   1   2
BRANCH   1  17
ATOM     17  O   UNL A   1      32.988  30.433  25.914  1.00  0.00    -0.458 OA
BRANCH  17  18
ATOM     18  C   UNL A   1      33.246  31.274  26.943  1.00  0.00     0.338 C 
ATOM     19  O   UNL A   1      32.493  32.102  27.426  1.00  0.00    -0.246 OA
BRANCH  18  20
ATOM     20  C   UNL A   1      34.574  30.981  27.501  1.00  0.00     0.060 A 
ATOM     21  C   UNL A   1      34.874  29.656  27.832  1.00  0.00     0.016 A 
ATOM     22  C   UNL A   1      35.471  32.008  27.794  1.00  0.00     0.016 A 
ATOM     23  C   UNL A   1      36.070  29.351  28.475  1.00  0.00     0.010 A 
ATOM     24  C   UNL A   1      36.671  31.701  28.445  1.00  0.00     0.010 A 
ATOM     25  C   UNL A   1      36.964  30.375  28.809  1.00  0.00    -0.014 A 
BRANCH  25  26
ATOM     26  C   UNL A   1      38.161  30.071  29.626  1.00  0.00     0.031 A 
ATOM     27  C   UNL A   1      39.196  29.120  29.093  1.00  0.00     0.074 A 
ATOM     28  C   UNL A   1      38.317  30.638  30.836  1.00  0.00     0.049 A 
ATOM     29  N   UNL A   1      40.281  28.672  29.667  1.00  0.00    -0.248 NA
ATOM     30  C   UNL A   1      38.978  28.604  27.731  1.00  0.00     0.031 C 
ATOM     31  C   UNL A   1      37.384  31.581  31.451  1.00  0.00     0.029 A 
ATOM     32  N   UNL A   1      39.309  30.484  31.772  1.00  0.00    -0.354 N 
ATOM     33  C   UNL A   1      40.857  27.794  28.756  1.00  0.00     0.074 A 
ATOM     34  C   UNL A   1      40.000  27.771  27.590  1.00  0.00     0.031 C 
ATOM     35  C   UNL A   1      37.836  31.905  32.676  1.00  0.00     0.029 A 
ATOM     36  C   UNL A   1      39.074  31.174  32.938  1.00  0.00     0.049 A 
ATOM     37  H   UNL A   1      40.111  29.933  31.624  1.00  0.00     0.167 HD
ATOM     38  C   UNL A   1      42.003  27.084  28.875  1.00  0.00     0.034 A 
ATOM     39  C   UNL A   1      39.770  31.196  34.092  1.00  0.00     0.034 A 
ATOM     40  C   UNL A   1      42.870  27.137  30.020  1.00  0.00     0.049 A 
ATOM     41  C   UNL A   1      41.042  30.397  34.196  1.00  0.00     0.074 A 
ATOM     42  C   UNL A   1      44.069  26.478  30.224  1.00  0.00     0.029 A 
ATOM     43  N   UNL A   1      42.633  27.895  31.156  1.00  0.00    -0.354 N 
ATOM     44  N   UNL A   1      41.623  29.649  33.289  1.00  0.00    -0.248 NA
ATOM     45  C   UNL A   1      41.772  30.470  35.471  1.00  0.00     0.031 C 
ATOM     46  C   UNL A   1      44.555  26.834  31.487  1.00  0.00     0.029 A 
ATOM     47  C   UNL A   1      43.662  27.723  32.064  1.00  0.00     0.049 A 
ATOM     48  H   UNL A   1      41.846  28.472  31.295  1.00  0.00     0.167 HD
ATOM     49  C   UNL A   1      42.799  29.187  33.871  1.00  0.00     0.074 A 
ATOM     50  C   UNL A   1      42.859  29.759  35.201  1.00  0.00     0.031 C 
ATOM     51  C   UNL A   1      43.736  28.352  33.358  1.00  0.00     0.034 A 
BRANCH  38  52
ATOM     52  C   UNL A   1      42.404  26.213  27.715  1.00  0.00     0.023 A 
ATOM     53  C   UNL A   1      43.242  26.739  26.711  1.00  0.00     0.012 A 
ATOM     54  C   UNL A   1      41.995  24.867  27.640  1.00  0.00     0.148 A 
ATOM     55  C   UNL A   1      43.646  25.947  25.637  1.00  0.00     0.002 A 
ATOM     56  C   UNL A   1      42.430  24.074  26.585  1.00  0.00     0.091 A 
ATOM     57  F   UNL A   1      41.175  24.394  28.589  1.00  0.00    -0.205 F 
ATOM     58  C   UNL A   1      43.247  24.613  25.579  1.00  0.00     0.022 A 
BRANCH  56  59
ATOM     59  S   UNL A   1      42.022  22.329  26.461  1.00  0.00     0.127 S 
ATOM     60  O   UNL A   1      40.565  22.372  26.348  1.00  0.00    -0.237 OA
ATOM     61  O   UNL A   1      42.717  21.932  25.236  1.00  0.00    -0.237 OA
ATOM     62  O   UNL A   1      42.542  21.713  27.675  1.00  0.00    -0.744 OA
ENDBRANCH  56  59
ENDBRANCH  38  52
BRANCH  39  63
ATOM     63  C   UNL A   1      39.302  32.044  35.224  1.00  0.00     0.023 A 
ATOM     64  C   UNL A   1      38.383  31.514  36.151  1.00  0.00     0.012 A 
ATOM     65  C   UNL A   1      39.782  33.356  35.407  1.00  0.00     0.148 A 
ATOM     66  C   UNL A   1      37.931  32.283  37.224  1.00  0.00     0.002 A 
ATOM     67  C   UNL A   1      39.369  34.097  36.509  1.00  0.00     0.091 A 
ATOM     68  F   UNL A   1      40.638  33.853  34.503  1.00  0.00    -0.205 F 
ATOM     69  C   UNL A   1      38.434  33.569  37.410  1.00  0.00     0.022 A 
BRANCH  67  70
ATOM     70  S   UNL A   1      40.067  35.709  36.890  1.00  0.00     0.127 S 
ATOM     71  O   UNL A   1      39.670  36.491  35.722  1.00  0.00    -0.237 OA
ATOM     72  O   UNL A   1      39.373  36.059  38.131  1.00  0.00    -0.237 OA
ATOM     73  O   UNL A   1      41.497  35.483  37.053  1.00  0.00    -0.744 OA
ENDBRANCH  67  70
ENDBRANCH  39  63
BRANCH  51  74
ATOM     74  C   UNL A   1      44.926  28.025  34.221  1.00  0.00     0.023 A 
ATOM     75  C   UNL A   1      46.058  28.862  34.188  1.00  0.00     0.012 A 
ATOM     76  C   UNL A   1      44.892  26.940  35.118  1.00  0.00     0.148 A 
ATOM     77  C   UNL A   1      47.150  28.608  35.018  1.00  0.00     0.002 A 
ATOM     78  C   UNL A   1      45.967  26.718  35.972  1.00  0.00     0.091 A 
ATOM     79  F   UNL A   1      43.815  26.141  35.119  1.00  0.00    -0.205 F 
ATOM     80  C   UNL A   1      47.099  27.545  35.917  1.00  0.00     0.022 A 
BRANCH  78  81
ATOM     81  S   UNL A   1      45.939  25.424  37.217  1.00  0.00     0.127 S 
ATOM     82  O   UNL A   1      46.265  24.238  36.426  1.00  0.00    -0.237 OA
ATOM     83  O   UNL A   1      46.995  25.849  38.139  1.00  0.00    -0.237 OA
ATOM     84  O   UNL A   1      44.599  25.456  37.788  1.00  0.00    -0.744 OA
ENDBRANCH  78  81
ENDBRANCH  51  74
ENDBRANCH  25  26
ENDBRANCH  18  20
ENDBRANCH  17  18
ENDBRANCH   1  17
TORSDOF 17
ENDMDL
