MODEL 1
REMARK VINA RESULT:     -12.5      0.000      0.000
REMARK SMILES Cc1cc(C(=O)OCCOC(=O)c2ccc(-c3c4nc(c(-c5cccc(S(=O)(=O)[O-])c5F)c5ccc([nH]5)c(-c5cccc(S(=O)(=O)[O-])c5F)c5nc(c(-c6cccc(S(=O)(=O)[O-])c6F)c6ccc3[nH]6)C=C5)C=C4)cc2)ccc1NS(=O)(=O)c1c(F)cccc1F
REMARK SMILES IDX 8 1 7 2 5 3 6 4 4 5 1 6 2 7 3 8 78 9 77 10 76 11 79 12 80 14
REMARK SMILES IDX 81 15 82 16 83 17 84 18 89 19 85 20 86 21 88 22 90 23 87 24
REMARK SMILES IDX 9 25 10 26 11 27 12 28 13 29 14 30 75 31 15 32 74 33 16 34
REMARK SMILES IDX 17 35 18 36 68 37 19 38 73 39 67 40 69 41 20 42 72 43 66 44
REMARK SMILES IDX 65 45 21 47 53 48 33 49 52 50 34 51 37 52 51 53 70 54 35 55
REMARK SMILES IDX 36 56 50 58 71 59 38 60 22 61 23 62 31 63 24 64 26 65 32 66
REMARK SMILES IDX 25 67 27 68 28 69 29 70 30 71 54 72 55 73 63 74 56 75 58 76
REMARK SMILES IDX 64 77 57 78 59 79 60 80 61 81 62 82 39 83 40 84 48 85 41 86
REMARK SMILES IDX 43 87 49 88 42 89 44 90 45 91 46 92 47 93
REMARK H PARENT 79 13 69 46 37 57
REMARK Flexibility Score: inf
ROOT
ATOM      1  C   UNL A   1      31.884  30.409  26.732  1.00  0.00     0.275 C 
ENDROOT
BRANCH   1   2
ATOM      2  O   UNL A   1      31.601  29.147  26.137  1.00  0.00    -0.458 OA
BRANCH   2   3
ATOM      3  C   UNL A   1      31.668  28.039  26.913  1.00  0.00     0.338 C 
ATOM      4  O   UNL A   1      31.124  27.869  27.970  1.00  0.00    -0.246 OA
BRANCH   3   5
ATOM      5  C   UNL A   1      32.546  27.055  26.223  1.00  0.00     0.060 A 
ATOM      6  C   UNL A   1      33.335  23.349  26.433  1.00  0.00     0.046 C 
ATOM      7  C   UNL A   1      33.221  24.742  25.882  1.00  0.00    -0.026 A 
ATOM      8  C   UNL A   1      32.513  25.714  26.613  1.00  0.00     0.021 A 
ATOM      9  C   UNL A   1      33.887  25.136  24.713  1.00  0.00     0.052 A 
ATOM     10  C   UNL A   1      34.073  26.491  24.439  1.00  0.00     0.028 A 
ATOM     11  C   UNL A   1      33.389  27.452  25.182  1.00  0.00     0.018 A 
BRANCH   9  12
ATOM     12  N   UNL A   1      34.194  24.217  23.651  1.00  0.00    -0.279 N 
ATOM     13  H   UNL A   1      35.108  23.875  23.510  1.00  0.00     0.180 HD
BRANCH  12  14
ATOM     14  S   UNL A   1      32.883  23.741  22.636  1.00  0.00     0.267 S 
ATOM     15  O   UNL A   1      33.423  23.693  21.291  1.00  0.00    -0.201 OA
ATOM     16  O   UNL A   1      32.289  22.534  23.177  1.00  0.00    -0.201 OA
BRANCH  14  17
ATOM     17  C   UNL A   1      31.697  25.037  22.725  1.00  0.00     0.158 A 
ATOM     18  C   UNL A   1      31.820  26.196  21.970  1.00  0.00     0.146 A 
ATOM     19  C   UNL A   1      30.625  24.926  23.605  1.00  0.00     0.146 A 
ATOM     20  F   UNL A   1      32.749  26.325  21.015  1.00  0.00    -0.205 F 
ATOM     21  C   UNL A   1      30.966  27.282  22.195  1.00  0.00     0.041 A 
ATOM     22  C   UNL A   1      29.798  26.019  23.871  1.00  0.00     0.041 A 
ATOM     23  F   UNL A   1      30.402  23.803  24.299  1.00  0.00    -0.205 F 
ATOM     24  C   UNL A   1      29.983  27.213  23.180  1.00  0.00     0.006 A 
ENDBRANCH  14  17
ENDBRANCH  12  14
ENDBRANCH   9  12
ENDBRANCH   3   5
ENDBRANCH   2   3
ENDBRANCH   1   2
BRANCH   1  25
ATOM     25  C   UNL A   1      33.344  30.889  26.886  1.00  0.00     0.275 C 
BRANCH  25  26
ATOM     26  O   UNL A   1      34.282  30.360  27.868  1.00  0.00    -0.458 OA
BRANCH  26  27
ATOM     27  C   UNL A   1      35.210  30.949  28.663  1.00  0.00     0.338 C 
ATOM     28  O   UNL A   1      35.015  32.017  29.226  1.00  0.00    -0.246 OA
BRANCH  27  29
ATOM     29  C   UNL A   1      36.455  30.216  28.865  1.00  0.00     0.060 A 
ATOM     30  C   UNL A   1      36.694  29.544  30.076  1.00  0.00     0.016 A 
ATOM     31  C   UNL A   1      37.319  30.114  27.786  1.00  0.00     0.016 A 
ATOM     32  C   UNL A   1      37.772  28.670  30.172  1.00  0.00     0.010 A 
ATOM     33  C   UNL A   1      38.282  29.144  27.823  1.00  0.00     0.010 A 
ATOM     34  C   UNL A   1      38.552  28.474  29.033  1.00  0.00    -0.014 A 
BRANCH  34  35
ATOM     35  C   UNL A   1      39.922  27.993  29.071  1.00  0.00     0.031 A 
ATOM     36  C   UNL A   1      40.321  26.626  28.738  1.00  0.00     0.074 A 
ATOM     37  C   UNL A   1      40.777  29.036  29.160  1.00  0.00     0.049 A 
ATOM     38  N   UNL A   1      41.485  26.149  28.998  1.00  0.00    -0.248 NA
ATOM     39  C   UNL A   1      39.430  25.659  28.114  1.00  0.00     0.031 C 
ATOM     40  C   UNL A   1      42.161  29.170  28.767  1.00  0.00     0.029 A 
ATOM     41  N   UNL A   1      40.468  30.274  29.747  1.00  0.00    -0.354 N 
ATOM     42  C   UNL A   1      41.602  24.944  28.335  1.00  0.00     0.074 A 
ATOM     43  C   UNL A   1      40.255  24.620  27.932  1.00  0.00     0.031 C 
ATOM     44  C   UNL A   1      42.654  30.280  29.352  1.00  0.00     0.029 A 
ATOM     45  C   UNL A   1      41.645  30.766  30.292  1.00  0.00     0.049 A 
ATOM     46  H   UNL A   1      39.586  30.710  29.767  1.00  0.00     0.167 HD
ATOM     47  C   UNL A   1      42.855  24.475  28.064  1.00  0.00     0.034 A 
ATOM     48  C   UNL A   1      41.765  30.884  31.649  1.00  0.00     0.034 A 
ATOM     49  C   UNL A   1      43.855  25.382  28.662  1.00  0.00     0.049 A 
ATOM     50  C   UNL A   1      42.836  29.939  32.157  1.00  0.00     0.074 A 
ATOM     51  C   UNL A   1      44.559  26.451  28.131  1.00  0.00     0.029 A 
ATOM     52  N   UNL A   1      43.968  25.484  30.045  1.00  0.00    -0.354 N 
ATOM     53  N   UNL A   1      43.315  28.940  31.467  1.00  0.00    -0.248 NA
ATOM     54  C   UNL A   1      43.439  30.044  33.479  1.00  0.00     0.031 C 
ATOM     55  C   UNL A   1      44.975  27.274  29.215  1.00  0.00     0.029 A 
ATOM     56  C   UNL A   1      44.569  26.685  30.402  1.00  0.00     0.049 A 
ATOM     57  H   UNL A   1      43.663  24.799  30.684  1.00  0.00     0.167 HD
ATOM     58  C   UNL A   1      44.195  28.229  32.227  1.00  0.00     0.074 A 
ATOM     59  C   UNL A   1      44.283  28.998  33.460  1.00  0.00     0.031 C 
ATOM     60  C   UNL A   1      44.734  27.043  31.810  1.00  0.00     0.034 A 
BRANCH  47  61
ATOM     61  C   UNL A   1      43.247  23.413  27.035  1.00  0.00     0.023 A 
ATOM     62  C   UNL A   1      44.048  23.848  25.950  1.00  0.00     0.012 A 
ATOM     63  C   UNL A   1      42.851  22.054  26.987  1.00  0.00     0.148 A 
ATOM     64  C   UNL A   1      44.373  23.027  24.862  1.00  0.00     0.002 A 
ATOM     65  C   UNL A   1      43.165  21.230  25.895  1.00  0.00     0.091 A 
ATOM     66  F   UNL A   1      42.179  21.515  28.003  1.00  0.00    -0.205 F 
ATOM     67  C   UNL A   1      43.919  21.719  24.826  1.00  0.00     0.022 A 
BRANCH  65  68
ATOM     68  S   UNL A   1      42.611  19.516  25.768  1.00  0.00     0.127 S 
ATOM     69  O   UNL A   1      41.179  19.675  25.514  1.00  0.00    -0.237 OA
ATOM     70  O   UNL A   1      43.380  19.021  24.627  1.00  0.00    -0.237 OA
ATOM     71  O   UNL A   1      42.931  18.881  27.041  1.00  0.00    -0.744 OA
ENDBRANCH  65  68
ENDBRANCH  47  61
BRANCH  48  72
ATOM     72  C   UNL A   1      40.470  31.186  32.371  1.00  0.00     0.023 A 
ATOM     73  C   UNL A   1      39.736  30.087  32.893  1.00  0.00     0.012 A 
ATOM     74  C   UNL A   1      40.151  32.471  32.848  1.00  0.00     0.148 A 
ATOM     75  C   UNL A   1      38.815  30.250  33.936  1.00  0.00     0.002 A 
ATOM     76  C   UNL A   1      39.229  32.625  33.891  1.00  0.00     0.091 A 
ATOM     77  F   UNL A   1      40.785  33.532  32.332  1.00  0.00    -0.205 F 
ATOM     78  C   UNL A   1      38.580  31.517  34.452  1.00  0.00     0.022 A 
BRANCH  76  79
ATOM     79  S   UNL A   1      38.985  34.237  34.657  1.00  0.00     0.127 S 
ATOM     80  O   UNL A   1      40.348  34.672  34.968  1.00  0.00    -0.237 OA
ATOM     81  O   UNL A   1      38.347  35.027  33.613  1.00  0.00    -0.237 OA
ATOM     82  O   UNL A   1      38.170  33.898  35.819  1.00  0.00    -0.744 OA
ENDBRANCH  76  79
ENDBRANCH  48  72
BRANCH  60  83
ATOM     83  C   UNL A   1      45.474  26.102  32.727  1.00  0.00     0.023 A 
ATOM     84  C   UNL A   1      46.880  26.110  32.822  1.00  0.00     0.012 A 
ATOM     85  C   UNL A   1      44.772  25.290  33.649  1.00  0.00     0.148 A 
ATOM     86  C   UNL A   1      47.563  25.287  33.720  1.00  0.00     0.002 A 
ATOM     87  C   UNL A   1      45.452  24.575  34.628  1.00  0.00     0.091 A 
ATOM     88  F   UNL A   1      43.435  25.196  33.579  1.00  0.00    -0.205 F 
ATOM     89  C   UNL A   1      46.847  24.535  34.640  1.00  0.00     0.022 A 
BRANCH  87  90
ATOM     90  S   UNL A   1      44.554  23.847  36.004  1.00  0.00     0.127 S 
ATOM     91  O   UNL A   1      45.633  23.284  36.812  1.00  0.00    -0.237 OA
ATOM     92  O   UNL A   1      43.889  25.007  36.598  1.00  0.00    -0.237 OA
ATOM     93  O   UNL A   1      43.644  22.892  35.385  1.00  0.00    -0.744 OA
ENDBRANCH  87  90
ENDBRANCH  60  83
ENDBRANCH  34  35
ENDBRANCH  27  29
ENDBRANCH  26  27
ENDBRANCH  25  26
ENDBRANCH   1  25
TORSDOF 17
ENDMDL
MODEL 2
REMARK VINA RESULT:     -12.2      1.935      2.803
REMARK SMILES Cc1cc(C(=O)OCCOC(=O)c2ccc(-c3c4nc(c(-c5cccc(S(=O)(=O)[O-])c5F)c5ccc([nH]5)c(-c5cccc(S(=O)(=O)[O-])c5F)c5nc(c(-c6cccc(S(=O)(=O)[O-])c6F)c6ccc3[nH]6)C=C5)C=C4)cc2)ccc1NS(=O)(=O)c1c(F)cccc1F
REMARK SMILES IDX 8 1 7 2 5 3 6 4 4 5 1 6 2 7 3 8 78 9 77 10 76 11 79 12 80 14
REMARK SMILES IDX 81 15 82 16 83 17 84 18 89 19 85 20 86 21 88 22 90 23 87 24
REMARK SMILES IDX 9 25 10 26 11 27 12 28 13 29 14 30 75 31 15 32 74 33 16 34
REMARK SMILES IDX 17 35 18 36 68 37 19 38 73 39 67 40 69 41 20 42 72 43 66 44
REMARK SMILES IDX 65 45 21 47 53 48 33 49 52 50 34 51 37 52 51 53 70 54 35 55
REMARK SMILES IDX 36 56 50 58 71 59 38 60 22 61 23 62 31 63 24 64 26 65 32 66
REMARK SMILES IDX 25 67 27 68 28 69 29 70 30 71 54 72 55 73 63 74 56 75 58 76
REMARK SMILES IDX 64 77 57 78 59 79 60 80 61 81 62 82 39 83 40 84 48 85 41 86
REMARK SMILES IDX 43 87 49 88 42 89 44 90 45 91 46 92 47 93
REMARK H PARENT 79 13 69 46 37 57
REMARK Flexibility Score: inf
ROOT
ATOM      1  C   UNL A   1      33.274  29.478  25.825  1.00  0.00     0.275 C 
ENDROOT
BRANCH   1   2
ATOM      2  O   UNL A   1      34.026  28.286  25.620  1.00  0.00    -0.458 OA
BRANCH   2   3
ATOM      3  C   UNL A   1      33.830  27.587  24.477  1.00  0.00     0.338 C 
ATOM      4  O   UNL A   1      34.190  27.900  23.375  1.00  0.00    -0.246 OA
BRANCH   3   5
ATOM      5  C   UNL A   1      33.079  26.350  24.825  1.00  0.00     0.060 A 
ATOM      6  C   UNL A   1      30.348  24.192  23.312  1.00  0.00     0.046 C 
ATOM      7  C   UNL A   1      31.509  24.610  24.169  1.00  0.00    -0.026 A 
ATOM      8  C   UNL A   1      32.125  25.853  23.933  1.00  0.00     0.021 A 
ATOM      9  C   UNL A   1      31.934  23.849  25.267  1.00  0.00     0.052 A 
ATOM     10  C   UNL A   1      32.740  24.429  26.249  1.00  0.00     0.028 A 
ATOM     11  C   UNL A   1      33.327  25.672  26.021  1.00  0.00     0.018 A 
BRANCH   9  12
ATOM     12  N   UNL A   1      31.774  22.422  25.328  1.00  0.00    -0.279 N 
ATOM     13  H   UNL A   1      31.095  22.001  25.905  1.00  0.00     0.180 HD
BRANCH  12  14
ATOM     14  S   UNL A   1      32.830  21.482  24.339  1.00  0.00     0.267 S 
ATOM     15  O   UNL A   1      32.822  20.149  24.907  1.00  0.00    -0.201 OA
ATOM     16  O   UNL A   1      32.432  21.637  22.953  1.00  0.00    -0.201 OA
BRANCH  14  17
ATOM     17  C   UNL A   1      34.436  22.173  24.539  1.00  0.00     0.158 A 
ATOM     18  C   UNL A   1      35.014  22.979  23.567  1.00  0.00     0.146 A 
ATOM     19  C   UNL A   1      35.173  21.875  25.681  1.00  0.00     0.146 A 
ATOM     20  F   UNL A   1      34.325  23.411  22.504  1.00  0.00    -0.205 F 
ATOM     21  C   UNL A   1      36.355  23.363  23.670  1.00  0.00     0.041 A 
ATOM     22  C   UNL A   1      36.526  22.212  25.772  1.00  0.00     0.041 A 
ATOM     23  F   UNL A   1      34.645  21.174  26.692  1.00  0.00    -0.205 F 
ATOM     24  C   UNL A   1      37.128  22.940  24.751  1.00  0.00     0.006 A 
ENDBRANCH  14  17
ENDBRANCH  12  14
ENDBRANCH   9  12
ENDBRANCH   3   5
ENDBRANCH   2   3
ENDBRANCH   1   2
BRANCH   1  25
ATOM     25  C   UNL A   1      33.582  30.398  27.026  1.00  0.00     0.275 C 
BRANCH  25  26
ATOM     26  O   UNL A   1      34.759  30.270  27.878  1.00  0.00    -0.458 OA
BRANCH  26  27
ATOM     27  C   UNL A   1      35.943  30.927  27.913  1.00  0.00     0.338 C 
ATOM     28  O   UNL A   1      36.030  32.141  27.784  1.00  0.00    -0.246 OA
BRANCH  27  29
ATOM     29  C   UNL A   1      37.131  30.120  28.170  1.00  0.00     0.060 A 
ATOM     30  C   UNL A   1      37.251  29.396  29.369  1.00  0.00     0.016 A 
ATOM     31  C   UNL A   1      38.059  30.004  27.147  1.00  0.00     0.016 A 
ATOM     32  C   UNL A   1      38.272  28.461  29.504  1.00  0.00     0.010 A 
ATOM     33  C   UNL A   1      38.963  28.981  27.211  1.00  0.00     0.010 A 
ATOM     34  C   UNL A   1      39.115  28.258  28.411  1.00  0.00    -0.014 A 
BRANCH  34  35
ATOM     35  C   UNL A   1      40.451  27.700  28.521  1.00  0.00     0.031 A 
ATOM     36  C   UNL A   1      40.765  26.283  28.343  1.00  0.00     0.074 A 
ATOM     37  C   UNL A   1      41.370  28.691  28.510  1.00  0.00     0.049 A 
ATOM     38  N   UNL A   1      41.895  25.765  28.671  1.00  0.00    -0.248 NA
ATOM     39  C   UNL A   1      39.820  25.311  27.814  1.00  0.00     0.031 C 
ATOM     40  C   UNL A   1      42.763  28.695  28.126  1.00  0.00     0.029 A 
ATOM     41  N   UNL A   1      41.136  30.002  28.956  1.00  0.00    -0.354 N 
ATOM     42  C   UNL A   1      41.940  24.491  28.143  1.00  0.00     0.074 A 
ATOM     43  C   UNL A   1      40.579  24.209  27.758  1.00  0.00     0.031 C 
ATOM     44  C   UNL A   1      43.321  29.829  28.595  1.00  0.00     0.029 A 
ATOM     45  C   UNL A   1      42.337  30.476  29.462  1.00  0.00     0.049 A 
ATOM     46  H   UNL A   1      40.283  30.491  28.916  1.00  0.00     0.167 HD
ATOM     47  C   UNL A   1      43.163  23.918  27.943  1.00  0.00     0.034 A 
ATOM     48  C   UNL A   1      42.454  30.733  30.800  1.00  0.00     0.034 A 
ATOM     49  C   UNL A   1      44.214  24.820  28.454  1.00  0.00     0.049 A 
ATOM     50  C   UNL A   1      43.458  29.784  31.422  1.00  0.00     0.074 A 
ATOM     51  C   UNL A   1      44.989  25.779  27.822  1.00  0.00     0.029 A 
ATOM     52  N   UNL A   1      44.322  25.064  29.820  1.00  0.00    -0.354 N 
ATOM     53  N   UNL A   1      43.879  28.688  30.851  1.00  0.00    -0.248 NA
ATOM     54  C   UNL A   1      44.056  29.994  32.734  1.00  0.00     0.031 C 
ATOM     55  C   UNL A   1      45.447  26.688  28.817  1.00  0.00     0.029 A 
ATOM     56  C   UNL A   1      44.996  26.257  30.054  1.00  0.00     0.049 A 
ATOM     57  H   UNL A   1      43.969  24.472  30.524  1.00  0.00     0.167 HD
ATOM     58  C   UNL A   1      44.705  28.011  31.696  1.00  0.00     0.074 A 
ATOM     59  C   UNL A   1      44.832  28.902  32.841  1.00  0.00     0.031 C 
ATOM     60  C   UNL A   1      45.171  26.754  31.418  1.00  0.00     0.034 A 
BRANCH  47  61
ATOM     61  C   UNL A   1      43.495  22.728  27.040  1.00  0.00     0.023 A 
ATOM     62  C   UNL A   1      44.391  22.976  25.970  1.00  0.00     0.012 A 
ATOM     63  C   UNL A   1      42.965  21.416  27.092  1.00  0.00     0.148 A 
ATOM     64  C   UNL A   1      44.684  22.026  24.983  1.00  0.00     0.002 A 
ATOM     65  C   UNL A   1      43.247  20.464  26.101  1.00  0.00     0.091 A 
ATOM     66  F   UNL A   1      42.190  21.046  28.111  1.00  0.00    -0.205 F 
ATOM     67  C   UNL A   1      44.100  20.772  25.039  1.00  0.00     0.022 A 
BRANCH  65  68
ATOM     68  S   UNL A   1      42.527  18.808  26.097  1.00  0.00     0.127 S 
ATOM     69  O   UNL A   1      41.141  19.077  25.711  1.00  0.00    -0.237 OA
ATOM     70  O   UNL A   1      43.319  18.122  25.078  1.00  0.00    -0.237 OA
ATOM     71  O   UNL A   1      42.684  18.284  27.449  1.00  0.00    -0.744 OA
ENDBRANCH  65  68
ENDBRANCH  47  61
BRANCH  48  72
ATOM     72  C   UNL A   1      41.175  31.192  31.466  1.00  0.00     0.023 A 
ATOM     73  C   UNL A   1      40.582  32.395  30.994  1.00  0.00     0.012 A 
ATOM     74  C   UNL A   1      40.380  30.336  32.251  1.00  0.00     0.148 A 
ATOM     75  C   UNL A   1      39.223  32.668  31.190  1.00  0.00     0.002 A 
ATOM     76  C   UNL A   1      39.021  30.616  32.441  1.00  0.00     0.091 A 
ATOM     77  F   UNL A   1      40.928  29.224  32.758  1.00  0.00    -0.205 F 
ATOM     78  C   UNL A   1      38.436  31.765  31.893  1.00  0.00     0.022 A 
BRANCH  76  79
ATOM     79  S   UNL A   1      37.950  29.415  33.251  1.00  0.00     0.127 S 
ATOM     80  O   UNL A   1      36.629  29.714  32.696  1.00  0.00    -0.237 OA
ATOM     81  O   UNL A   1      38.482  28.128  32.822  1.00  0.00    -0.237 OA
ATOM     82  O   UNL A   1      38.117  29.761  34.658  1.00  0.00    -0.744 OA
ENDBRANCH  76  79
ENDBRANCH  48  72
BRANCH  60  83
ATOM     83  C   UNL A   1      45.843  25.874  32.442  1.00  0.00     0.023 A 
ATOM     84  C   UNL A   1      47.231  25.932  32.674  1.00  0.00     0.012 A 
ATOM     85  C   UNL A   1      45.076  25.076  33.323  1.00  0.00     0.148 A 
ATOM     86  C   UNL A   1      47.844  25.166  33.668  1.00  0.00     0.002 A 
ATOM     87  C   UNL A   1      45.675  24.422  34.393  1.00  0.00     0.091 A 
ATOM     88  F   UNL A   1      43.756  24.937  33.126  1.00  0.00    -0.205 F 
ATOM     89  C   UNL A   1      47.062  24.428  34.544  1.00  0.00     0.022 A 
BRANCH  87  90
ATOM     90  S   UNL A   1      44.666  23.720  35.704  1.00  0.00     0.127 S 
ATOM     91  O   UNL A   1      43.809  22.793  34.969  1.00  0.00    -0.237 OA
ATOM     92  O   UNL A   1      45.663  23.077  36.562  1.00  0.00    -0.237 OA
ATOM     93  O   UNL A   1      44.006  24.866  36.316  1.00  0.00    -0.744 OA
ENDBRANCH  87  90
ENDBRANCH  60  83
ENDBRANCH  34  35
ENDBRANCH  27  29
ENDBRANCH  26  27
ENDBRANCH  25  26
ENDBRANCH   1  25
TORSDOF 17
ENDMDL
MODEL 3
REMARK VINA RESULT:     -12.2      3.973      9.548
REMARK SMILES Cc1cc(C(=O)OCCOC(=O)c2ccc(-c3c4nc(c(-c5cccc(S(=O)(=O)[O-])c5F)c5ccc([nH]5)c(-c5cccc(S(=O)(=O)[O-])c5F)c5nc(c(-c6cccc(S(=O)(=O)[O-])c6F)c6ccc3[nH]6)C=C5)C=C4)cc2)ccc1NS(=O)(=O)c1c(F)cccc1F
REMARK SMILES IDX 8 1 7 2 5 3 6 4 4 5 1 6 2 7 3 8 78 9 77 10 76 11 79 12 80 14
REMARK SMILES IDX 81 15 82 16 83 17 84 18 89 19 85 20 86 21 88 22 90 23 87 24
REMARK SMILES IDX 9 25 10 26 11 27 12 28 13 29 14 30 75 31 15 32 74 33 16 34
REMARK SMILES IDX 17 35 18 36 68 37 19 38 73 39 67 40 69 41 20 42 72 43 66 44
REMARK SMILES IDX 65 45 21 47 53 48 33 49 52 50 34 51 37 52 51 53 70 54 35 55
REMARK SMILES IDX 36 56 50 58 71 59 38 60 22 61 23 62 31 63 24 64 26 65 32 66
REMARK SMILES IDX 25 67 27 68 28 69 29 70 30 71 54 72 55 73 63 74 56 75 58 76
REMARK SMILES IDX 64 77 57 78 59 79 60 80 61 81 62 82 39 83 40 84 48 85 41 86
REMARK SMILES IDX 43 87 49 88 42 89 44 90 45 91 46 92 47 93
REMARK H PARENT 79 13 69 46 37 57
REMARK Flexibility Score: inf
ROOT
ATOM      1  C   UNL A   1      37.213  21.527  25.336  1.00  0.00     0.275 C 
ENDROOT
BRANCH   1   2
ATOM      2  O   UNL A   1      36.058  21.750  24.534  1.00  0.00    -0.458 OA
BRANCH   2   3
ATOM      3  C   UNL A   1      34.872  21.956  25.154  1.00  0.00     0.338 C 
ATOM      4  O   UNL A   1      34.274  21.171  25.839  1.00  0.00    -0.246 OA
BRANCH   3   5
ATOM      5  C   UNL A   1      34.428  23.341  24.835  1.00  0.00     0.060 A 
ATOM      6  C   UNL A   1      33.070  25.245  21.846  1.00  0.00     0.046 C 
ATOM      7  C   UNL A   1      33.389  24.888  23.270  1.00  0.00    -0.026 A 
ATOM      8  C   UNL A   1      33.951  23.630  23.554  1.00  0.00     0.021 A 
ATOM      9  C   UNL A   1      33.245  25.810  24.317  1.00  0.00     0.052 A 
ATOM     10  C   UNL A   1      33.891  25.589  25.535  1.00  0.00     0.028 A 
ATOM     11  C   UNL A   1      34.468  24.349  25.801  1.00  0.00     0.018 A 
BRANCH   9  12
ATOM     12  N   UNL A   1      32.274  26.869  24.287  1.00  0.00    -0.279 N 
ATOM     13  H   UNL A   1      31.328  26.710  24.514  1.00  0.00     0.180 HD
BRANCH  12  14
ATOM     14  S   UNL A   1      32.847  28.432  23.837  1.00  0.00     0.267 S 
ATOM     15  O   UNL A   1      34.258  28.268  23.548  1.00  0.00    -0.201 OA
ATOM     16  O   UNL A   1      31.992  28.958  22.790  1.00  0.00    -0.201 OA
BRANCH  14  17
ATOM     17  C   UNL A   1      32.675  29.449  25.262  1.00  0.00     0.158 A 
ATOM     18  C   UNL A   1      31.595  30.307  25.425  1.00  0.00     0.146 A 
ATOM     19  C   UNL A   1      33.665  29.432  26.240  1.00  0.00     0.146 A 
ATOM     20  F   UNL A   1      30.546  30.289  24.595  1.00  0.00    -0.205 F 
ATOM     21  C   UNL A   1      31.577  31.232  26.475  1.00  0.00     0.041 A 
ATOM     22  C   UNL A   1      33.681  30.382  27.264  1.00  0.00     0.041 A 
ATOM     23  F   UNL A   1      34.689  28.570  26.185  1.00  0.00    -0.205 F 
ATOM     24  C   UNL A   1      32.644  31.303  27.369  1.00  0.00     0.006 A 
ENDBRANCH  14  17
ENDBRANCH  12  14
ENDBRANCH   9  12
ENDBRANCH   3   5
ENDBRANCH   2   3
ENDBRANCH   1   2
BRANCH   1  25
ATOM     25  C   UNL A   1      38.122  22.709  25.740  1.00  0.00     0.275 C 
BRANCH  25  26
ATOM     26  O   UNL A   1      39.241  22.604  26.670  1.00  0.00    -0.458 OA
BRANCH  26  27
ATOM     27  C   UNL A   1      40.408  23.282  26.782  1.00  0.00     0.338 C 
ATOM     28  O   UNL A   1      41.484  22.806  26.446  1.00  0.00    -0.246 OA
BRANCH  27  29
ATOM     29  C   UNL A   1      40.323  24.650  27.281  1.00  0.00     0.060 A 
ATOM     30  C   UNL A   1      40.849  25.714  26.527  1.00  0.00     0.016 A 
ATOM     31  C   UNL A   1      39.608  24.862  28.449  1.00  0.00     0.016 A 
ATOM     32  C   UNL A   1      40.563  27.023  26.901  1.00  0.00     0.010 A 
ATOM     33  C   UNL A   1      39.195  26.134  28.729  1.00  0.00     0.010 A 
ATOM     34  C   UNL A   1      39.727  27.216  28.000  1.00  0.00    -0.014 A 
BRANCH  34  35
ATOM     35  C   UNL A   1      39.701  28.439  28.783  1.00  0.00     0.031 A 
ATOM     36  C   UNL A   1      38.818  29.572  28.507  1.00  0.00     0.074 A 
ATOM     37  C   UNL A   1      40.371  28.260  29.943  1.00  0.00     0.049 A 
ATOM     38  N   UNL A   1      38.964  30.727  29.050  1.00  0.00    -0.248 NA
ATOM     39  C   UNL A   1      37.712  29.516  27.563  1.00  0.00     0.031 C 
ATOM     40  C   UNL A   1      40.257  28.926  31.221  1.00  0.00     0.029 A 
ATOM     41  N   UNL A   1      41.426  27.353  30.125  1.00  0.00    -0.354 N 
ATOM     42  C   UNL A   1      37.833  31.468  28.768  1.00  0.00     0.074 A 
ATOM     43  C   UNL A   1      37.166  30.728  27.724  1.00  0.00     0.031 C 
ATOM     44  C   UNL A   1      41.348  28.616  31.950  1.00  0.00     0.029 A 
ATOM     45  C   UNL A   1      42.276  27.906  31.071  1.00  0.00     0.049 A 
ATOM     46  H   UNL A   1      41.541  26.488  29.668  1.00  0.00     0.167 HD
ATOM     47  C   UNL A   1      37.529  32.517  29.587  1.00  0.00     0.034 A 
ATOM     48  C   UNL A   1      43.534  28.298  30.704  1.00  0.00     0.034 A 
ATOM     49  C   UNL A   1      38.597  32.678  30.592  1.00  0.00     0.049 A 
ATOM     50  C   UNL A   1      43.666  29.802  30.838  1.00  0.00     0.074 A 
ATOM     51  C   UNL A   1      38.718  32.202  31.888  1.00  0.00     0.029 A 
ATOM     52  N   UNL A   1      39.869  33.084  30.202  1.00  0.00    -0.354 N 
ATOM     53  N   UNL A   1      42.653  30.617  30.951  1.00  0.00    -0.248 NA
ATOM     54  C   UNL A   1      44.945  30.498  30.848  1.00  0.00     0.031 C 
ATOM     55  C   UNL A   1      40.102  32.196  32.218  1.00  0.00     0.029 A 
ATOM     56  C   UNL A   1      40.817  32.711  31.148  1.00  0.00     0.049 A 
ATOM     57  H   UNL A   1      40.071  33.570  29.369  1.00  0.00     0.167 HD
ATOM     58  C   UNL A   1      43.092  31.907  30.964  1.00  0.00     0.074 A 
ATOM     59  C   UNL A   1      44.542  31.776  30.958  1.00  0.00     0.031 C 
ATOM     60  C   UNL A   1      42.236  32.974  30.920  1.00  0.00     0.034 A 
BRANCH  47  61
ATOM     61  C   UNL A   1      36.178  33.221  29.730  1.00  0.00     0.023 A 
ATOM     62  C   UNL A   1      35.526  33.589  28.526  1.00  0.00     0.012 A 
ATOM     63  C   UNL A   1      35.520  33.619  30.919  1.00  0.00     0.148 A 
ATOM     64  C   UNL A   1      34.354  34.356  28.496  1.00  0.00     0.002 A 
ATOM     65  C   UNL A   1      34.352  34.396  30.894  1.00  0.00     0.091 A 
ATOM     66  F   UNL A   1      35.994  33.242  32.105  1.00  0.00    -0.205 F 
ATOM     67  C   UNL A   1      33.773  34.774  29.681  1.00  0.00     0.022 A 
BRANCH  65  68
ATOM     68  S   UNL A   1      33.532  34.985  32.392  1.00  0.00     0.127 S 
ATOM     69  O   UNL A   1      32.314  35.592  31.856  1.00  0.00    -0.237 OA
ATOM     70  O   UNL A   1      33.317  33.747  33.140  1.00  0.00    -0.237 OA
ATOM     71  O   UNL A   1      34.448  35.928  33.022  1.00  0.00    -0.744 OA
ENDBRANCH  65  68
ENDBRANCH  47  61
BRANCH  48  72
ATOM     72  C   UNL A   1      44.151  27.475  29.595  1.00  0.00     0.023 A 
ATOM     73  C   UNL A   1      44.328  26.084  29.828  1.00  0.00     0.012 A 
ATOM     74  C   UNL A   1      44.222  27.929  28.264  1.00  0.00     0.148 A 
ATOM     75  C   UNL A   1      44.443  25.172  28.772  1.00  0.00     0.002 A 
ATOM     76  C   UNL A   1      44.336  27.010  27.213  1.00  0.00     0.091 A 
ATOM     77  F   UNL A   1      44.117  29.241  28.019  1.00  0.00    -0.205 F 
ATOM     78  C   UNL A   1      44.423  25.634  27.462  1.00  0.00     0.022 A 
BRANCH  76  79
ATOM     79  S   UNL A   1      44.201  27.563  25.504  1.00  0.00     0.127 S 
ATOM     80  O   UNL A   1      43.017  28.425  25.523  1.00  0.00    -0.237 OA
ATOM     81  O   UNL A   1      45.443  28.288  25.272  1.00  0.00    -0.237 OA
ATOM     82  O   UNL A   1      44.030  26.302  24.791  1.00  0.00    -0.744 OA
ENDBRANCH  76  79
ENDBRANCH  48  72
BRANCH  60  83
ATOM     83  C   UNL A   1      42.689  34.387  30.647  1.00  0.00     0.023 A 
ATOM     84  C   UNL A   1      43.162  35.227  31.675  1.00  0.00     0.012 A 
ATOM     85  C   UNL A   1      42.809  34.863  29.320  1.00  0.00     0.148 A 
ATOM     86  C   UNL A   1      43.644  36.511  31.413  1.00  0.00     0.002 A 
ATOM     87  C   UNL A   1      43.413  36.087  29.057  1.00  0.00     0.091 A 
ATOM     88  F   UNL A   1      42.331  34.136  28.299  1.00  0.00    -0.205 F 
ATOM     89  C   UNL A   1      43.791  36.934  30.100  1.00  0.00     0.022 A 
BRANCH  87  90
ATOM     90  S   UNL A   1      43.888  36.519  27.379  1.00  0.00     0.127 S 
ATOM     91  O   UNL A   1      42.594  36.748  26.741  1.00  0.00    -0.237 OA
ATOM     92  O   UNL A   1      44.692  37.726  27.576  1.00  0.00    -0.237 OA
ATOM     93  O   UNL A   1      44.649  35.370  26.904  1.00  0.00    -0.744 OA
ENDBRANCH  87  90
ENDBRANCH  60  83
ENDBRANCH  34  35
ENDBRANCH  27  29
ENDBRANCH  26  27
ENDBRANCH  25  26
ENDBRANCH   1  25
TORSDOF 17
ENDMDL
