MODEL 1
REMARK VINA RESULT:     -11.5      0.000      0.000
REMARK SMILES CCc1ccc(C[N@H+]2CC[C@@H](C(=O)OCCOC(=O)c3ccc(-c4c5nc(c(-c6cccc(S(=O)(=O)[O-])c6F)c6ccc([nH]6)c(-c6cccc(S(=O)(=O)[O-])c6F)c6nc(c(-c7cccc(S(=O)(=O)[O-])c7F)c7ccc4[nH]7)C=C6)C=C5)cc3)[C@@H]2C)cc1
REMARK SMILES IDX 15 1 14 2 12 3 13 4 11 5 8 6 9 7 83 8 10 10 84 11 7 12 6 13
REMARK SMILES IDX 3 14 4 15 86 16 5 17 85 18 2 19 1 20 16 21 17 22 18 23 19 24
REMARK SMILES IDX 20 25 21 26 82 27 22 28 81 29 23 30 24 31 25 32 75 33 26 34
REMARK SMILES IDX 80 35 74 36 76 37 27 38 79 39 73 40 72 41 28 43 60 44 40 45
REMARK SMILES IDX 59 46 41 47 44 48 58 49 77 50 42 51 43 52 57 54 78 55 45 56
REMARK SMILES IDX 29 57 30 58 38 59 31 60 33 61 39 62 32 63 34 64 35 65 36 66
REMARK SMILES IDX 37 67 61 68 62 69 70 70 63 71 65 72 71 73 64 74 66 75 67 76
REMARK SMILES IDX 68 77 69 78 46 79 47 80 55 81 48 82 50 83 56 84 49 85 51 86
REMARK SMILES IDX 52 87 53 88 54 89
REMARK H PARENT 8 9 76 42 44 53
REMARK Flexibility Score: inf
ROOT
ATOM      1  C   UNL A   1      31.748  29.509  24.516  1.00  0.00     0.274 C 
ENDROOT
BRANCH   1   2
ATOM      2  O   UNL A   1      30.435  29.348  23.936  1.00  0.00    -0.462 OA
BRANCH   2   3
ATOM      3  C   UNL A   1      30.366  28.890  22.666  1.00  0.00     0.315 C 
ATOM      4  O   UNL A   1      30.310  29.613  21.676  1.00  0.00    -0.252 OA
BRANCH   3   5
ATOM      5  C   UNL A   1      30.324  27.376  22.545  1.00  0.00     0.162 C 
ATOM      6  N   UNL A   1      31.512  25.483  23.475  1.00  0.00    -0.328 N 
ATOM      7  C   UNL A   1      30.100  25.391  23.839  1.00  0.00     0.263 C 
ATOM      8  C   UNL A   1      31.655  26.600  22.516  1.00  0.00     0.195 C 
ATOM      9  H   UNL A   1      31.787  24.611  23.023  1.00  0.00     0.348 HD
ATOM     10  C   UNL A   1      29.537  26.789  23.704  1.00  0.00     0.083 C 
ATOM     11  C   UNL A   1      31.924  25.963  21.145  1.00  0.00     0.076 C 
BRANCH   6  12
ATOM     12  C   UNL A   1      32.464  25.494  24.596  1.00  0.00     0.299 C 
BRANCH  12  13
ATOM     13  C   UNL A   1      33.786  24.790  24.375  1.00  0.00     0.006 A 
ATOM     14  C   UNL A   1      36.049  23.120  24.206  1.00  0.00    -0.048 A 
ATOM     15  C   UNL A   1      35.911  24.020  25.268  1.00  0.00     0.004 A 
ATOM     16  C   UNL A   1      35.113  23.157  23.166  1.00  0.00     0.004 A 
ATOM     17  C   UNL A   1      34.787  24.844  25.354  1.00  0.00     0.010 A 
ATOM     18  C   UNL A   1      34.001  23.999  23.241  1.00  0.00     0.010 A 
BRANCH  14  19
ATOM     19  C   UNL A   1      37.102  22.043  24.257  1.00  0.00     0.032 C 
ATOM     20  C   UNL A   1      36.775  20.897  25.196  1.00  0.00     0.009 C 
ENDBRANCH  14  19
ENDBRANCH  12  13
ENDBRANCH   6  12
ENDBRANCH   3   5
ENDBRANCH   2   3
ENDBRANCH   1   2
BRANCH   1  21
ATOM     21  C   UNL A   1      31.684  30.487  25.691  1.00  0.00     0.275 C 
BRANCH  21  22
ATOM     22  O   UNL A   1      32.841  30.317  26.525  1.00  0.00    -0.458 OA
BRANCH  22  23
ATOM     23  C   UNL A   1      33.298  31.458  27.088  1.00  0.00     0.338 C 
ATOM     24  O   UNL A   1      32.701  32.508  27.230  1.00  0.00    -0.246 OA
BRANCH  23  25
ATOM     25  C   UNL A   1      34.595  31.171  27.715  1.00  0.00     0.060 A 
ATOM     26  C   UNL A   1      34.851  29.853  28.097  1.00  0.00     0.016 A 
ATOM     27  C   UNL A   1      35.527  32.175  27.956  1.00  0.00     0.016 A 
ATOM     28  C   UNL A   1      36.017  29.526  28.766  1.00  0.00     0.010 A 
ATOM     29  C   UNL A   1      36.717  31.845  28.606  1.00  0.00     0.010 A 
ATOM     30  C   UNL A   1      36.953  30.525  29.032  1.00  0.00    -0.014 A 
BRANCH  30  31
ATOM     31  C   UNL A   1      38.151  30.190  29.827  1.00  0.00     0.031 A 
ATOM     32  C   UNL A   1      39.159  29.238  29.258  1.00  0.00     0.074 A 
ATOM     33  C   UNL A   1      38.325  30.749  31.037  1.00  0.00     0.049 A 
ATOM     34  N   UNL A   1      40.223  28.732  29.818  1.00  0.00    -0.248 NA
ATOM     35  C   UNL A   1      38.933  28.787  27.873  1.00  0.00     0.031 C 
ATOM     36  C   UNL A   1      37.416  31.716  31.660  1.00  0.00     0.029 A 
ATOM     37  N   UNL A   1      39.312  30.569  31.969  1.00  0.00    -0.354 N 
ATOM     38  C   UNL A   1      40.765  27.864  28.880  1.00  0.00     0.074 A 
ATOM     39  C   UNL A   1      39.913  27.910  27.713  1.00  0.00     0.031 C 
ATOM     40  C   UNL A   1      37.879  32.027  32.880  1.00  0.00     0.029 A 
ATOM     41  C   UNL A   1      39.083  31.246  33.143  1.00  0.00     0.049 A 
ATOM     42  H   UNL A   1      40.108  30.011  31.813  1.00  0.00     0.167 HD
ATOM     43  C   UNL A   1      41.878  27.102  28.987  1.00  0.00     0.034 A 
ATOM     44  C   UNL A   1      39.749  31.204  34.312  1.00  0.00     0.034 A 
ATOM     45  C   UNL A   1      42.724  27.091  30.150  1.00  0.00     0.049 A 
ATOM     46  C   UNL A   1      40.968  30.328  34.410  1.00  0.00     0.074 A 
ATOM     47  C   UNL A   1      43.895  26.385  30.355  1.00  0.00     0.029 A 
ATOM     48  N   UNL A   1      42.483  27.816  31.308  1.00  0.00    -0.354 N 
ATOM     49  N   UNL A   1      41.514  29.565  33.494  1.00  0.00    -0.248 NA
ATOM     50  C   UNL A   1      41.680  30.327  35.695  1.00  0.00     0.031 C 
ATOM     51  C   UNL A   1      44.342  26.654  31.653  1.00  0.00     0.029 A 
ATOM     52  C   UNL A   1      43.475  27.564  32.239  1.00  0.00     0.049 A 
ATOM     53  H   UNL A   1      41.719  28.420  31.447  1.00  0.00     0.167 HD
ATOM     54  C   UNL A   1      42.653  29.023  34.075  1.00  0.00     0.074 A 
ATOM     55  C   UNL A   1      42.728  29.562  35.419  1.00  0.00     0.031 C 
ATOM     56  C   UNL A   1      43.551  28.151  33.553  1.00  0.00     0.034 A 
BRANCH  43  57
ATOM     57  C   UNL A   1      42.234  26.217  27.823  1.00  0.00     0.023 A 
ATOM     58  C   UNL A   1      43.097  26.689  26.812  1.00  0.00     0.012 A 
ATOM     59  C   UNL A   1      41.739  24.900  27.748  1.00  0.00     0.148 A 
ATOM     60  C   UNL A   1      43.431  25.878  25.728  1.00  0.00     0.002 A 
ATOM     61  C   UNL A   1      42.115  24.081  26.690  1.00  0.00     0.091 A 
ATOM     62  F   UNL A   1      40.901  24.478  28.704  1.00  0.00    -0.205 F 
ATOM     63  C   UNL A   1      42.949  24.571  25.673  1.00  0.00     0.022 A 
BRANCH  61  64
ATOM     64  S   UNL A   1      41.612  22.361  26.571  1.00  0.00     0.127 S 
ATOM     65  O   UNL A   1      42.296  21.938  25.349  1.00  0.00    -0.237 OA
ATOM     66  O   UNL A   1      42.162  21.796  27.803  1.00  0.00    -0.237 OA
ATOM     67  O   UNL A   1      40.159  22.369  26.499  1.00  0.00    -0.744 OA
ENDBRANCH  61  64
ENDBRANCH  43  57
BRANCH  44  68
ATOM     68  C   UNL A   1      39.285  32.020  35.468  1.00  0.00     0.023 A 
ATOM     69  C   UNL A   1      38.353  31.477  36.374  1.00  0.00     0.012 A 
ATOM     70  C   UNL A   1      39.774  33.323  35.686  1.00  0.00     0.148 A 
ATOM     71  C   UNL A   1      37.894  32.228  37.456  1.00  0.00     0.002 A 
ATOM     72  C   UNL A   1      39.356  34.044  36.798  1.00  0.00     0.091 A 
ATOM     73  F   UNL A   1      40.651  33.828  34.806  1.00  0.00    -0.205 F 
ATOM     74  C   UNL A   1      38.403  33.506  37.674  1.00  0.00     0.022 A 
BRANCH  72  75
ATOM     75  S   UNL A   1      40.048  35.646  37.226  1.00  0.00     0.127 S 
ATOM     76  O   UNL A   1      39.659  36.456  36.075  1.00  0.00    -0.237 OA
ATOM     77  O   UNL A   1      39.338  35.957  38.467  1.00  0.00    -0.237 OA
ATOM     78  O   UNL A   1      41.478  35.428  37.390  1.00  0.00    -0.744 OA
ENDBRANCH  72  75
ENDBRANCH  44  68
BRANCH  56  79
ATOM     79  C   UNL A   1      44.723  27.764  34.417  1.00  0.00     0.023 A 
ATOM     80  C   UNL A   1      45.918  28.507  34.363  1.00  0.00     0.012 A 
ATOM     81  C   UNL A   1      44.608  26.701  35.334  1.00  0.00     0.148 A 
ATOM     82  C   UNL A   1      46.996  28.172  35.181  1.00  0.00     0.002 A 
ATOM     83  C   UNL A   1      45.665  26.408  36.185  1.00  0.00     0.091 A 
ATOM     84  F   UNL A   1      43.467  25.995  35.355  1.00  0.00    -0.205 F 
ATOM     85  C   UNL A   1      46.865  27.132  36.099  1.00  0.00     0.022 A 
BRANCH  83  86
ATOM     86  S   UNL A   1      45.549  25.158  37.467  1.00  0.00     0.127 S 
ATOM     87  O   UNL A   1      46.939  25.051  37.906  1.00  0.00    -0.237 OA
ATOM     88  O   UNL A   1      44.650  25.789  38.434  1.00  0.00    -0.237 OA
ATOM     89  O   UNL A   1      45.005  23.970  36.824  1.00  0.00    -0.744 OA
ENDBRANCH  83  86
ENDBRANCH  56  79
ENDBRANCH  30  31
ENDBRANCH  23  25
ENDBRANCH  22  23
ENDBRANCH  21  22
ENDBRANCH   1  21
TORSDOF 17
ENDMDL
MODEL 2
REMARK VINA RESULT:     -11.4      5.160      7.938
REMARK SMILES CCc1ccc(C[N@H+]2CC[C@@H](C(=O)OCCOC(=O)c3ccc(-c4c5nc(c(-c6cccc(S(=O)(=O)[O-])c6F)c6ccc([nH]6)c(-c6cccc(S(=O)(=O)[O-])c6F)c6nc(c(-c7cccc(S(=O)(=O)[O-])c7F)c7ccc4[nH]7)C=C6)C=C5)cc3)[C@@H]2C)cc1
REMARK SMILES IDX 15 1 14 2 12 3 13 4 11 5 8 6 9 7 83 8 10 10 84 11 7 12 6 13
REMARK SMILES IDX 3 14 4 15 86 16 5 17 85 18 2 19 1 20 16 21 17 22 18 23 19 24
REMARK SMILES IDX 20 25 21 26 82 27 22 28 81 29 23 30 24 31 25 32 75 33 26 34
REMARK SMILES IDX 80 35 74 36 76 37 27 38 79 39 73 40 72 41 28 43 60 44 40 45
REMARK SMILES IDX 59 46 41 47 44 48 58 49 77 50 42 51 43 52 57 54 78 55 45 56
REMARK SMILES IDX 29 57 30 58 38 59 31 60 33 61 39 62 32 63 34 64 35 65 36 66
REMARK SMILES IDX 37 67 61 68 62 69 70 70 63 71 65 72 71 73 64 74 66 75 67 76
REMARK SMILES IDX 68 77 69 78 46 79 47 80 55 81 48 82 50 83 56 84 49 85 51 86
REMARK SMILES IDX 52 87 53 88 54 89
REMARK H PARENT 8 9 76 42 44 53
REMARK Flexibility Score: inf
ROOT
ATOM      1  C   UNL A   1      36.211  20.786  24.979  1.00  0.00     0.274 C 
ENDROOT
BRANCH   1   2
ATOM      2  O   UNL A   1      36.316  22.221  25.108  1.00  0.00    -0.462 OA
BRANCH   2   3
ATOM      3  C   UNL A   1      35.979  22.971  24.035  1.00  0.00     0.315 C 
ATOM      4  O   UNL A   1      36.482  22.846  22.923  1.00  0.00    -0.252 OA
BRANCH   3   5
ATOM      5  C   UNL A   1      34.928  24.033  24.315  1.00  0.00     0.162 C 
ATOM      6  N   UNL A   1      32.516  24.149  24.480  1.00  0.00    -0.328 N 
ATOM      7  C   UNL A   1      33.105  24.539  25.759  1.00  0.00     0.263 C 
ATOM      8  C   UNL A   1      33.619  24.008  23.503  1.00  0.00     0.195 C 
ATOM      9  H   UNL A   1      31.886  24.890  24.174  1.00  0.00     0.348 HD
ATOM     10  C   UNL A   1      34.504  23.964  25.772  1.00  0.00     0.083 C 
ATOM     11  C   UNL A   1      33.508  25.205  22.548  1.00  0.00     0.076 C 
BRANCH   6  12
ATOM     12  C   UNL A   1      31.572  23.022  24.526  1.00  0.00     0.299 C 
BRANCH  12  13
ATOM     13  C   UNL A   1      32.152  21.638  24.322  1.00  0.00     0.006 A 
ATOM     14  C   UNL A   1      32.791  18.909  24.040  1.00  0.00    -0.048 A 
ATOM     15  C   UNL A   1      32.930  19.545  25.279  1.00  0.00     0.004 A 
ATOM     16  C   UNL A   1      32.456  19.680  22.921  1.00  0.00     0.004 A 
ATOM     17  C   UNL A   1      32.610  20.896  25.419  1.00  0.00     0.010 A 
ATOM     18  C   UNL A   1      32.158  21.038  23.058  1.00  0.00     0.010 A 
BRANCH  14  19
ATOM     19  C   UNL A   1      32.862  17.406  23.948  1.00  0.00     0.032 C 
ATOM     20  C   UNL A   1      34.028  16.886  23.127  1.00  0.00     0.009 C 
ENDBRANCH  14  19
ENDBRANCH  12  13
ENDBRANCH   6  12
ENDBRANCH   3   5
ENDBRANCH   2   3
ENDBRANCH   1   2
BRANCH   1  21
ATOM     21  C   UNL A   1      37.605  20.156  25.001  1.00  0.00     0.275 C 
BRANCH  21  22
ATOM     22  O   UNL A   1      38.595  21.180  25.182  1.00  0.00    -0.458 OA
BRANCH  22  23
ATOM     23  C   UNL A   1      39.388  21.009  26.264  1.00  0.00     0.338 C 
ATOM     24  O   UNL A   1      39.796  19.961  26.728  1.00  0.00    -0.246 OA
BRANCH  23  25
ATOM     25  C   UNL A   1      39.875  22.328  26.688  1.00  0.00     0.060 A 
ATOM     26  C   UNL A   1      39.267  23.453  26.128  1.00  0.00     0.016 A 
ATOM     27  C   UNL A   1      40.927  22.462  27.589  1.00  0.00     0.016 A 
ATOM     28  C   UNL A   1      39.729  24.723  26.421  1.00  0.00     0.010 A 
ATOM     29  C   UNL A   1      41.378  23.743  27.908  1.00  0.00     0.010 A 
ATOM     30  C   UNL A   1      40.795  24.874  27.307  1.00  0.00    -0.014 A 
BRANCH  30  31
ATOM     31  C   UNL A   1      41.344  26.224  27.543  1.00  0.00     0.031 A 
ATOM     32  C   UNL A   1      42.697  26.564  26.997  1.00  0.00     0.074 A 
ATOM     33  C   UNL A   1      40.620  27.126  28.230  1.00  0.00     0.049 A 
ATOM     34  N   UNL A   1      43.406  27.646  27.168  1.00  0.00    -0.248 NA
ATOM     35  C   UNL A   1      43.344  25.546  26.151  1.00  0.00     0.031 C 
ATOM     36  C   UNL A   1      39.277  26.898  28.769  1.00  0.00     0.029 A 
ATOM     37  N   UNL A   1      40.921  28.407  28.610  1.00  0.00    -0.354 N 
ATOM     38  C   UNL A   1      44.602  27.421  26.500  1.00  0.00     0.074 A 
ATOM     39  C   UNL A   1      44.525  26.099  25.920  1.00  0.00     0.031 C 
ATOM     40  C   UNL A   1      38.879  27.997  29.429  1.00  0.00     0.029 A 
ATOM     41  C   UNL A   1      39.956  28.980  29.403  1.00  0.00     0.049 A 
ATOM     42  H   UNL A   1      41.747  28.871  28.342  1.00  0.00     0.167 HD
ATOM     43  C   UNL A   1      45.665  28.250  26.381  1.00  0.00     0.034 A 
ATOM     44  C   UNL A   1      39.963  30.152  30.066  1.00  0.00     0.034 A 
ATOM     45  C   UNL A   1      45.710  29.571  26.947  1.00  0.00     0.049 A 
ATOM     46  C   UNL A   1      41.169  31.041  29.936  1.00  0.00     0.074 A 
ATOM     47  C   UNL A   1      46.720  30.511  26.859  1.00  0.00     0.029 A 
ATOM     48  N   UNL A   1      44.700  30.136  27.713  1.00  0.00    -0.354 N 
ATOM     49  N   UNL A   1      42.266  30.850  29.243  1.00  0.00    -0.248 NA
ATOM     50  C   UNL A   1      41.128  32.321  30.657  1.00  0.00     0.031 C 
ATOM     51  C   UNL A   1      46.337  31.630  27.606  1.00  0.00     0.029 A 
ATOM     52  C   UNL A   1      45.068  31.406  28.119  1.00  0.00     0.049 A 
ATOM     53  H   UNL A   1      43.848  29.697  27.936  1.00  0.00     0.167 HD
ATOM     54  C   UNL A   1      43.030  31.998  29.411  1.00  0.00     0.074 A 
ATOM     55  C   UNL A   1      42.259  32.887  30.258  1.00  0.00     0.031 C 
ATOM     56  C   UNL A   1      44.262  32.289  28.922  1.00  0.00     0.034 A 
BRANCH  43  57
ATOM     57  C   UNL A   1      46.862  27.746  25.620  1.00  0.00     0.023 A 
ATOM     58  C   UNL A   1      46.925  27.896  24.219  1.00  0.00     0.012 A 
ATOM     59  C   UNL A   1      47.945  27.154  26.300  1.00  0.00     0.148 A 
ATOM     60  C   UNL A   1      48.029  27.431  23.504  1.00  0.00     0.002 A 
ATOM     61  C   UNL A   1      49.062  26.737  25.586  1.00  0.00     0.091 A 
ATOM     62  F   UNL A   1      47.856  26.998  27.627  1.00  0.00    -0.205 F 
ATOM     63  C   UNL A   1      49.101  26.862  24.188  1.00  0.00     0.022 A 
BRANCH  61  64
ATOM     64  S   UNL A   1      50.525  26.065  26.383  1.00  0.00     0.127 S 
ATOM     65  O   UNL A   1      51.445  25.940  25.253  1.00  0.00    -0.237 OA
ATOM     66  O   UNL A   1      50.868  27.123  27.333  1.00  0.00    -0.237 OA
ATOM     67  O   UNL A   1      50.113  24.809  26.991  1.00  0.00    -0.744 OA
ENDBRANCH  61  64
ENDBRANCH  43  57
BRANCH  44  68
ATOM     68  C   UNL A   1      38.791  30.549  30.895  1.00  0.00     0.023 A 
ATOM     69  C   UNL A   1      38.777  30.244  32.270  1.00  0.00     0.012 A 
ATOM     70  C   UNL A   1      37.701  31.243  30.335  1.00  0.00     0.148 A 
ATOM     71  C   UNL A   1      37.684  30.594  33.064  1.00  0.00     0.002 A 
ATOM     72  C   UNL A   1      36.642  31.640  31.142  1.00  0.00     0.091 A 
ATOM     73  F   UNL A   1      37.728  31.514  29.022  1.00  0.00    -0.205 F 
ATOM     74  C   UNL A   1      36.623  31.301  32.503  1.00  0.00     0.022 A 
BRANCH  72  75
ATOM     75  S   UNL A   1      35.293  32.658  30.534  1.00  0.00     0.127 S 
ATOM     76  O   UNL A   1      34.406  32.703  31.694  1.00  0.00    -0.237 OA
ATOM     77  O   UNL A   1      35.978  33.915  30.232  1.00  0.00    -0.237 OA
ATOM     78  O   UNL A   1      34.769  31.964  29.366  1.00  0.00    -0.744 OA
ENDBRANCH  72  75
ENDBRANCH  44  68
BRANCH  56  79
ATOM     79  C   UNL A   1      44.831  33.646  29.245  1.00  0.00     0.023 A 
ATOM     80  C   UNL A   1      45.614  33.827  30.403  1.00  0.00     0.012 A 
ATOM     81  C   UNL A   1      44.643  34.724  28.359  1.00  0.00     0.148 A 
ATOM     82  C   UNL A   1      46.167  35.074  30.692  1.00  0.00     0.002 A 
ATOM     83  C   UNL A   1      45.244  35.946  28.625  1.00  0.00     0.091 A 
ATOM     84  F   UNL A   1      43.879  34.533  27.272  1.00  0.00    -0.205 F 
ATOM     85  C   UNL A   1      45.993  36.129  29.798  1.00  0.00     0.022 A 
BRANCH  83  86
ATOM     86  S   UNL A   1      45.161  37.328  27.480  1.00  0.00     0.127 S 
ATOM     87  O   UNL A   1      46.056  36.884  26.413  1.00  0.00    -0.237 OA
ATOM     88  O   UNL A   1      43.743  37.346  27.120  1.00  0.00    -0.237 OA
ATOM     89  O   UNL A   1      45.610  38.496  28.225  1.00  0.00    -0.744 OA
ENDBRANCH  83  86
ENDBRANCH  56  79
ENDBRANCH  30  31
ENDBRANCH  23  25
ENDBRANCH  22  23
ENDBRANCH  21  22
ENDBRANCH   1  21
TORSDOF 17
ENDMDL
MODEL 3
REMARK VINA RESULT:     -11.4      5.028     10.193
REMARK SMILES CCc1ccc(C[N@H+]2CC[C@@H](C(=O)OCCOC(=O)c3ccc(-c4c5nc(c(-c6cccc(S(=O)(=O)[O-])c6F)c6ccc([nH]6)c(-c6cccc(S(=O)(=O)[O-])c6F)c6nc(c(-c7cccc(S(=O)(=O)[O-])c7F)c7ccc4[nH]7)C=C6)C=C5)cc3)[C@@H]2C)cc1
REMARK SMILES IDX 15 1 14 2 12 3 13 4 11 5 8 6 9 7 83 8 10 10 84 11 7 12 6 13
REMARK SMILES IDX 3 14 4 15 86 16 5 17 85 18 2 19 1 20 16 21 17 22 18 23 19 24
REMARK SMILES IDX 20 25 21 26 82 27 22 28 81 29 23 30 24 31 25 32 75 33 26 34
REMARK SMILES IDX 80 35 74 36 76 37 27 38 79 39 73 40 72 41 28 43 60 44 40 45
REMARK SMILES IDX 59 46 41 47 44 48 58 49 77 50 42 51 43 52 57 54 78 55 45 56
REMARK SMILES IDX 29 57 30 58 38 59 31 60 33 61 39 62 32 63 34 64 35 65 36 66
REMARK SMILES IDX 37 67 61 68 62 69 70 70 63 71 65 72 71 73 64 74 66 75 67 76
REMARK SMILES IDX 68 77 69 78 46 79 47 80 55 81 48 82 50 83 56 84 49 85 51 86
REMARK SMILES IDX 52 87 53 88 54 89
REMARK H PARENT 8 9 76 42 44 53
REMARK Flexibility Score: inf
ROOT
ATOM      1  C   UNL A   1      34.968  20.559  25.010  1.00  0.00     0.274 C 
ENDROOT
BRANCH   1   2
ATOM      2  O   UNL A   1      33.798  21.094  24.351  1.00  0.00    -0.462 OA
BRANCH   2   3
ATOM      3  C   UNL A   1      32.669  21.216  25.084  1.00  0.00     0.315 C 
ATOM      4  O   UNL A   1      31.848  20.318  25.237  1.00  0.00    -0.252 OA
BRANCH   3   5
ATOM      5  C   UNL A   1      32.462  22.592  25.694  1.00  0.00     0.162 C 
ATOM      6  N   UNL A   1      31.669  24.761  24.966  1.00  0.00    -0.328 N 
ATOM      7  C   UNL A   1      30.806  24.268  26.037  1.00  0.00     0.263 C 
ATOM      8  C   UNL A   1      32.817  23.834  24.853  1.00  0.00     0.195 C 
ATOM      9  H   UNL A   1      32.006  25.688  25.223  1.00  0.00     0.348 HD
ATOM     10  C   UNL A   1      31.004  22.768  26.082  1.00  0.00     0.083 C 
ATOM     11  C   UNL A   1      34.035  24.583  25.414  1.00  0.00     0.076 C 
BRANCH   6  12
ATOM     12  C   UNL A   1      30.997  25.082  23.698  1.00  0.00     0.299 C 
BRANCH  12  13
ATOM     13  C   UNL A   1      30.193  26.364  23.658  1.00  0.00     0.006 A 
ATOM     14  C   UNL A   1      28.648  28.658  23.118  1.00  0.00    -0.048 A 
ATOM     15  C   UNL A   1      30.044  28.711  23.047  1.00  0.00     0.004 A 
ATOM     16  C   UNL A   1      28.042  27.486  23.585  1.00  0.00     0.004 A 
ATOM     17  C   UNL A   1      30.809  27.574  23.311  1.00  0.00     0.010 A 
ATOM     18  C   UNL A   1      28.810  26.355  23.871  1.00  0.00     0.010 A 
BRANCH  14  19
ATOM     19  C   UNL A   1      27.817  29.788  22.565  1.00  0.00     0.032 C 
ATOM     20  C   UNL A   1      28.507  30.597  21.483  1.00  0.00     0.009 C 
ENDBRANCH  14  19
ENDBRANCH  12  13
ENDBRANCH   6  12
ENDBRANCH   3   5
ENDBRANCH   2   3
ENDBRANCH   1   2
BRANCH   1  21
ATOM     21  C   UNL A   1      36.204  21.371  24.619  1.00  0.00     0.275 C 
BRANCH  21  22
ATOM     22  O   UNL A   1      36.877  21.825  25.804  1.00  0.00    -0.458 OA
BRANCH  22  23
ATOM     23  C   UNL A   1      38.192  21.513  25.857  1.00  0.00     0.338 C 
ATOM     24  O   UNL A   1      38.745  20.543  25.374  1.00  0.00    -0.246 OA
BRANCH  23  25
ATOM     25  C   UNL A   1      38.913  22.661  26.420  1.00  0.00     0.060 A 
ATOM     26  C   UNL A   1      38.441  23.937  26.108  1.00  0.00     0.016 A 
ATOM     27  C   UNL A   1      40.048  22.495  27.209  1.00  0.00     0.016 A 
ATOM     28  C   UNL A   1      39.119  25.064  26.538  1.00  0.00     0.010 A 
ATOM     29  C   UNL A   1      40.718  23.629  27.667  1.00  0.00     0.010 A 
ATOM     30  C   UNL A   1      40.269  24.914  27.314  1.00  0.00    -0.014 A 
BRANCH  30  31
ATOM     31  C   UNL A   1      41.040  26.116  27.690  1.00  0.00     0.031 A 
ATOM     32  C   UNL A   1      40.366  27.192  28.485  1.00  0.00     0.074 A 
ATOM     33  C   UNL A   1      42.330  26.220  27.326  1.00  0.00     0.049 A 
ATOM     34  N   UNL A   1      40.821  28.364  28.835  1.00  0.00    -0.248 NA
ATOM     35  C   UNL A   1      38.992  26.916  28.940  1.00  0.00     0.031 C 
ATOM     36  C   UNL A   1      43.083  25.206  26.582  1.00  0.00     0.029 A 
ATOM     37  N   UNL A   1      43.230  27.235  27.513  1.00  0.00    -0.354 N 
ATOM     38  C   UNL A   1      39.775  28.988  29.503  1.00  0.00     0.074 A 
ATOM     39  C   UNL A   1      38.662  28.066  29.509  1.00  0.00     0.031 C 
ATOM     40  C   UNL A   1      44.325  25.661  26.358  1.00  0.00     0.029 A 
ATOM     41  C   UNL A   1      44.437  27.012  26.895  1.00  0.00     0.049 A 
ATOM     42  H   UNL A   1      43.032  28.043  28.038  1.00  0.00     0.167 HD
ATOM     43  C   UNL A   1      39.754  30.220  30.063  1.00  0.00     0.034 A 
ATOM     44  C   UNL A   1      45.498  27.829  26.746  1.00  0.00     0.034 A 
ATOM     45  C   UNL A   1      40.882  31.111  30.065  1.00  0.00     0.049 A 
ATOM     46  C   UNL A   1      45.436  29.202  27.357  1.00  0.00     0.074 A 
ATOM     47  C   UNL A   1      40.985  32.367  30.633  1.00  0.00     0.029 A 
ATOM     48  N   UNL A   1      42.103  30.841  29.463  1.00  0.00    -0.354 N 
ATOM     49  N   UNL A   1      44.469  29.756  28.048  1.00  0.00    -0.248 NA
ATOM     50  C   UNL A   1      46.622  30.054  27.191  1.00  0.00     0.031 C 
ATOM     51  C   UNL A   1      42.256  32.872  30.340  1.00  0.00     0.029 A 
ATOM     52  C   UNL A   1      42.962  31.912  29.632  1.00  0.00     0.049 A 
ATOM     53  H   UNL A   1      42.325  30.009  28.985  1.00  0.00     0.167 HD
ATOM     54  C   UNL A   1      44.941  31.005  28.434  1.00  0.00     0.074 A 
ATOM     55  C   UNL A   1      46.289  31.116  27.913  1.00  0.00     0.031 C 
ATOM     56  C   UNL A   1      44.315  31.977  29.143  1.00  0.00     0.034 A 
BRANCH  43  57
ATOM     57  C   UNL A   1      38.471  30.672  30.708  1.00  0.00     0.023 A 
ATOM     58  C   UNL A   1      38.242  30.428  32.078  1.00  0.00     0.012 A 
ATOM     59  C   UNL A   1      37.504  31.373  29.960  1.00  0.00     0.148 A 
ATOM     60  C   UNL A   1      37.056  30.841  32.684  1.00  0.00     0.002 A 
ATOM     61  C   UNL A   1      36.346  31.824  30.583  1.00  0.00     0.091 A 
ATOM     62  F   UNL A   1      37.728  31.574  28.655  1.00  0.00    -0.205 F 
ATOM     63  C   UNL A   1      36.114  31.548  31.939  1.00  0.00     0.022 A 
BRANCH  61  64
ATOM     64  S   UNL A   1      35.110  32.811  29.731  1.00  0.00     0.127 S 
ATOM     65  O   UNL A   1      34.173  33.109  30.814  1.00  0.00    -0.237 OA
ATOM     66  O   UNL A   1      35.896  33.957  29.274  1.00  0.00    -0.237 OA
ATOM     67  O   UNL A   1      34.584  31.969  28.667  1.00  0.00    -0.744 OA
ENDBRANCH  61  64
ENDBRANCH  43  57
BRANCH  44  68
ATOM     68  C   UNL A   1      46.701  27.364  26.001  1.00  0.00     0.023 A 
ATOM     69  C   UNL A   1      46.788  27.585  24.613  1.00  0.00     0.012 A 
ATOM     70  C   UNL A   1      47.767  26.723  26.662  1.00  0.00     0.148 A 
ATOM     71  C   UNL A   1      47.899  27.147  23.892  1.00  0.00     0.002 A 
ATOM     72  C   UNL A   1      48.896  26.340  25.948  1.00  0.00     0.091 A 
ATOM     73  F   UNL A   1      47.661  26.510  27.981  1.00  0.00    -0.205 F 
ATOM     74  C   UNL A   1      48.957  26.534  24.560  1.00  0.00     0.022 A 
BRANCH  72  75
ATOM     75  S   UNL A   1      50.355  25.657  26.742  1.00  0.00     0.127 S 
ATOM     76  O   UNL A   1      50.720  26.727  27.667  1.00  0.00    -0.237 OA
ATOM     77  O   UNL A   1      49.816  24.453  27.375  1.00  0.00    -0.237 OA
ATOM     78  O   UNL A   1      51.305  25.398  25.670  1.00  0.00    -0.744 OA
ENDBRANCH  72  75
ENDBRANCH  44  68
BRANCH  56  79
ATOM     79  C   UNL A   1      45.100  33.227  29.445  1.00  0.00     0.023 A 
ATOM     80  C   UNL A   1      45.926  33.286  30.585  1.00  0.00     0.012 A 
ATOM     81  C   UNL A   1      45.069  34.317  28.554  1.00  0.00     0.148 A 
ATOM     82  C   UNL A   1      46.677  34.430  30.854  1.00  0.00     0.002 A 
ATOM     83  C   UNL A   1      45.862  35.430  28.798  1.00  0.00     0.091 A 
ATOM     84  F   UNL A   1      44.262  34.246  27.484  1.00  0.00    -0.205 F 
ATOM     85  C   UNL A   1      46.655  35.495  29.955  1.00  0.00     0.022 A 
BRANCH  83  86
ATOM     86  S   UNL A   1      45.977  36.801  27.645  1.00  0.00     0.127 S 
ATOM     87  O   UNL A   1      47.060  37.590  28.228  1.00  0.00    -0.237 OA
ATOM     88  O   UNL A   1      46.320  36.124  26.394  1.00  0.00    -0.237 OA
ATOM     89  O   UNL A   1      44.669  37.440  27.647  1.00  0.00    -0.744 OA
ENDBRANCH  83  86
ENDBRANCH  56  79
ENDBRANCH  30  31
ENDBRANCH  23  25
ENDBRANCH  22  23
ENDBRANCH  21  22
ENDBRANCH   1  21
TORSDOF 17
ENDMDL
