MODEL 1
REMARK VINA RESULT:     -12.7      0.000      0.000
REMARK SMILES Cc1ccc(S(=O)(=O)n2cc(C(=O)C(=O)NCC(=O)OCCOC(=O)c3ccc(-c4c5nc(c(-c6cccc(S(=O)(=O)[O-])c6F)c6ccc([nH]6)c(-c6cccc(S(=O)(=O)[O-])c6F)c6nc(c(-c7cccc(S(=O)(=O)[O-])c7F)c7ccc4[nH]7)C=C6)C=C5)cc3)c3ccccc32)cc1
REMARK SMILES IDX 21 1 20 2 18 3 19 4 17 5 16 6 14 7 15 8 12 10 13 11 11 12
REMARK SMILES IDX 9 13 10 14 94 15 89 16 93 17 90 18 92 19 91 20 6 21 7 22
REMARK SMILES IDX 8 23 5 24 1 25 2 26 3 27 96 28 4 29 95 30 22 31 23 32 24 33
REMARK SMILES IDX 25 34 26 35 27 36 88 37 28 38 87 39 29 40 30 41 31 42 81 43
REMARK SMILES IDX 32 44 86 45 80 46 82 47 33 48 85 49 79 50 78 51 34 53 66 54
REMARK SMILES IDX 46 55 65 56 47 57 50 58 64 59 83 60 48 61 49 62 63 64 84 65
REMARK SMILES IDX 51 66 35 67 36 68 44 69 37 70 39 71 45 72 38 73 40 74 41 75
REMARK SMILES IDX 42 76 43 77 67 78 68 79 76 80 69 81 71 82 77 83 70 84 72 85
REMARK SMILES IDX 73 86 74 87 75 88 52 89 53 90 61 91 54 92 56 93 62 94 55 95
REMARK SMILES IDX 57 96 58 97 59 98 60 99
REMARK H PARENT 16 9 82 52 50 63
REMARK Flexibility Score: inf
ROOT
ATOM      1  C   UNL A   1      32.706  30.272  25.975  1.00  0.00     0.274 C 
ENDROOT
BRANCH   1   2
ATOM      2  O   UNL A   1      32.156  29.104  25.371  1.00  0.00    -0.461 OA
BRANCH   2   3
ATOM      3  C   UNL A   1      31.432  29.229  24.238  1.00  0.00     0.325 C 
ATOM      4  O   UNL A   1      30.272  29.613  24.182  1.00  0.00    -0.250 OA
BRANCH   3   5
ATOM      5  C   UNL A   1      32.302  28.857  23.048  1.00  0.00     0.239 C 
BRANCH   5   6
ATOM      6  N   UNL A   1      31.617  27.913  22.186  1.00  0.00    -0.338 N 
ATOM      7  C   UNL A   1      32.045  26.635  21.914  1.00  0.00     0.292 C 
ATOM      8  O   UNL A   1      31.451  25.907  21.128  1.00  0.00    -0.265 OA
ATOM      9  H   UNL A   1      30.781  28.211  21.762  1.00  0.00     0.164 HD
BRANCH   7  10
ATOM     10  C   UNL A   1      33.352  26.172  22.571  1.00  0.00     0.252 C 
ATOM     11  O   UNL A   1      34.404  26.435  21.998  1.00  0.00    -0.283 OA
BRANCH  10  12
ATOM     12  C   UNL A   1      33.291  25.375  23.792  1.00  0.00     0.054 A 
ATOM     13  N   UNL A   1      33.911  24.067  25.486  1.00  0.00    -0.240 N 
ATOM     14  C   UNL A   1      34.351  24.681  24.344  1.00  0.00     0.117 A 
ATOM     15  C   UNL A   1      32.581  24.339  25.719  1.00  0.00     0.065 A 
ATOM     16  C   UNL A   1      32.161  25.150  24.651  1.00  0.00     0.012 A 
ATOM     17  C   UNL A   1      31.699  23.939  26.738  1.00  0.00     0.028 A 
ATOM     18  C   UNL A   1      30.812  25.565  24.611  1.00  0.00     0.011 A 
ATOM     19  C   UNL A   1      30.372  24.369  26.670  1.00  0.00     0.002 A 
ATOM     20  C   UNL A   1      29.933  25.169  25.622  1.00  0.00     0.001 A 
BRANCH  13  21
ATOM     21  S   UNL A   1      34.856  22.938  26.336  1.00  0.00     0.268 S 
ATOM     22  O   UNL A   1      34.334  22.897  27.687  1.00  0.00    -0.201 OA
ATOM     23  O   UNL A   1      36.239  23.298  26.070  1.00  0.00    -0.201 OA
BRANCH  21  24
ATOM     24  C   UNL A   1      34.590  21.345  25.605  1.00  0.00     0.088 A 
ATOM     25  C   UNL A   1      34.261  17.333  24.100  1.00  0.00     0.044 C 
ATOM     26  C   UNL A   1      34.365  18.747  24.587  1.00  0.00    -0.051 A 
ATOM     27  C   UNL A   1      35.611  19.385  24.622  1.00  0.00     0.005 A 
ATOM     28  C   UNL A   1      33.229  19.439  25.025  1.00  0.00     0.005 A 
ATOM     29  C   UNL A   1      35.725  20.677  25.133  1.00  0.00     0.022 A 
ATOM     30  C   UNL A   1      33.335  20.740  25.524  1.00  0.00     0.022 A 
ENDBRANCH  21  24
ENDBRANCH  13  21
ENDBRANCH  10  12
ENDBRANCH   7  10
ENDBRANCH   5   6
ENDBRANCH   3   5
ENDBRANCH   2   3
ENDBRANCH   1   2
BRANCH   1  31
ATOM     31  C   UNL A   1      33.431  30.157  27.336  1.00  0.00     0.275 C 
BRANCH  31  32
ATOM     32  O   UNL A   1      34.871  29.937  27.530  1.00  0.00    -0.458 OA
BRANCH  32  33
ATOM     33  C   UNL A   1      35.894  30.386  28.307  1.00  0.00     0.338 C 
ATOM     34  O   UNL A   1      35.765  31.354  29.021  1.00  0.00    -0.246 OA
BRANCH  33  35
ATOM     35  C   UNL A   1      37.151  29.624  28.289  1.00  0.00     0.060 A 
ATOM     36  C   UNL A   1      38.083  29.718  27.239  1.00  0.00     0.016 A 
ATOM     37  C   UNL A   1      37.423  28.865  29.399  1.00  0.00     0.016 A 
ATOM     38  C   UNL A   1      39.339  29.110  27.372  1.00  0.00     0.010 A 
ATOM     39  C   UNL A   1      38.726  28.556  29.652  1.00  0.00     0.010 A 
ATOM     40  C   UNL A   1      39.658  28.548  28.603  1.00  0.00    -0.014 A 
BRANCH  40  41
ATOM     41  C   UNL A   1      40.757  27.633  28.893  1.00  0.00     0.031 A 
ATOM     42  C   UNL A   1      40.753  26.204  28.587  1.00  0.00     0.074 A 
ATOM     43  C   UNL A   1      41.904  28.318  29.128  1.00  0.00     0.049 A 
ATOM     44  N   UNL A   1      41.593  25.380  29.112  1.00  0.00    -0.248 NA
ATOM     45  C   UNL A   1      39.830  25.579  27.646  1.00  0.00     0.031 C 
ATOM     46  C   UNL A   1      43.290  27.972  28.899  1.00  0.00     0.029 A 
ATOM     47  N   UNL A   1      41.967  29.627  29.623  1.00  0.00    -0.354 N 
ATOM     48  C   UNL A   1      41.530  24.218  28.377  1.00  0.00     0.074 A 
ATOM     49  C   UNL A   1      40.345  24.344  27.556  1.00  0.00     0.031 C 
ATOM     50  C   UNL A   1      44.064  28.924  29.462  1.00  0.00     0.029 A 
ATOM     51  C   UNL A   1      43.195  29.807  30.237  1.00  0.00     0.049 A 
ATOM     52  H   UNL A   1      41.258  30.305  29.545  1.00  0.00     0.167 HD
ATOM     53  C   UNL A   1      42.598  23.371  28.380  1.00  0.00     0.034 A 
ATOM     54  C   UNL A   1      43.240  30.076  31.575  1.00  0.00     0.034 A 
ATOM     55  C   UNL A   1      43.712  23.958  29.144  1.00  0.00     0.049 A 
ATOM     56  C   UNL A   1      43.821  28.878  32.304  1.00  0.00     0.074 A 
ATOM     57  C   UNL A   1      44.802  24.714  28.738  1.00  0.00     0.029 A 
ATOM     58  N   UNL A   1      43.609  24.139  30.522  1.00  0.00    -0.354 N 
ATOM     59  N   UNL A   1      44.081  27.734  31.735  1.00  0.00    -0.248 NA
ATOM     60  C   UNL A   1      44.124  28.865  33.729  1.00  0.00     0.031 C 
ATOM     61  C   UNL A   1      45.288  25.431  29.864  1.00  0.00     0.029 A 
ATOM     62  C   UNL A   1      44.519  25.095  30.965  1.00  0.00     0.049 A 
ATOM     63  H   UNL A   1      42.977  23.657  31.103  1.00  0.00     0.167 HD
ATOM     64  C   UNL A   1      44.437  26.812  32.671  1.00  0.00     0.074 A 
ATOM     65  C   UNL A   1      44.531  27.594  33.896  1.00  0.00     0.031 C 
ATOM     66  C   UNL A   1      44.566  25.482  32.374  1.00  0.00     0.034 A 
BRANCH  53  67
ATOM     67  C   UNL A   1      42.774  22.235  27.386  1.00  0.00     0.023 A 
ATOM     68  C   UNL A   1      42.005  21.064  27.586  1.00  0.00     0.012 A 
ATOM     69  C   UNL A   1      43.652  22.225  26.274  1.00  0.00     0.148 A 
ATOM     70  C   UNL A   1      42.152  19.920  26.797  1.00  0.00     0.002 A 
ATOM     71  C   UNL A   1      43.830  21.063  25.509  1.00  0.00     0.091 A 
ATOM     72  F   UNL A   1      44.279  23.358  25.926  1.00  0.00    -0.205 F 
ATOM     73  C   UNL A   1      43.083  19.909  25.773  1.00  0.00     0.022 A 
BRANCH  71  74
ATOM     74  S   UNL A   1      45.064  20.924  24.203  1.00  0.00     0.127 S 
ATOM     75  O   UNL A   1      44.896  19.537  23.764  1.00  0.00    -0.237 OA
ATOM     76  O   UNL A   1      44.614  21.923  23.236  1.00  0.00    -0.237 OA
ATOM     77  O   UNL A   1      46.348  21.194  24.838  1.00  0.00    -0.744 OA
ENDBRANCH  71  74
ENDBRANCH  53  67
BRANCH  54  78
ATOM     78  C   UNL A   1      42.051  30.888  32.048  1.00  0.00     0.023 A 
ATOM     79  C   UNL A   1      41.773  32.100  31.358  1.00  0.00     0.012 A 
ATOM     80  C   UNL A   1      41.004  30.290  32.772  1.00  0.00     0.148 A 
ATOM     81  C   UNL A   1      40.466  32.594  31.252  1.00  0.00     0.002 A 
ATOM     82  C   UNL A   1      39.701  30.782  32.650  1.00  0.00     0.091 A 
ATOM     83  F   UNL A   1      41.258  29.193  33.497  1.00  0.00    -0.205 F 
ATOM     84  C   UNL A   1      39.423  31.910  31.865  1.00  0.00     0.022 A 
BRANCH  82  85
ATOM     85  S   UNL A   1      38.335  29.851  33.356  1.00  0.00     0.127 S 
ATOM     86  O   UNL A   1      38.462  30.108  34.790  1.00  0.00    -0.237 OA
ATOM     87  O   UNL A   1      37.160  30.458  32.746  1.00  0.00    -0.237 OA
ATOM     88  O   UNL A   1      38.660  28.488  32.947  1.00  0.00    -0.744 OA
ENDBRANCH  82  85
ENDBRANCH  54  78
BRANCH  66  89
ATOM     89  C   UNL A   1      44.778  24.413  33.415  1.00  0.00     0.023 A 
ATOM     90  C   UNL A   1      43.722  23.613  33.890  1.00  0.00     0.012 A 
ATOM     91  C   UNL A   1      46.084  24.092  33.860  1.00  0.00     0.148 A 
ATOM     92  C   UNL A   1      43.930  22.614  34.841  1.00  0.00     0.002 A 
ATOM     93  C   UNL A   1      46.301  23.011  34.705  1.00  0.00     0.091 A 
ATOM     94  F   UNL A   1      47.126  24.848  33.482  1.00  0.00    -0.205 F 
ATOM     95  C   UNL A   1      45.223  22.298  35.235  1.00  0.00     0.022 A 
BRANCH  93  96
ATOM     96  S   UNL A   1      47.961  22.397  35.016  1.00  0.00     0.127 S 
ATOM     97  O   UNL A   1      48.006  22.376  36.476  1.00  0.00    -0.237 OA
ATOM     98  O   UNL A   1      47.927  21.076  34.387  1.00  0.00    -0.237 OA
ATOM     99  O   UNL A   1      48.850  23.346  34.360  1.00  0.00    -0.744 OA
ENDBRANCH  93  96
ENDBRANCH  66  89
ENDBRANCH  40  41
ENDBRANCH  33  35
ENDBRANCH  32  33
ENDBRANCH  31  32
ENDBRANCH   1  31
TORSDOF 19
ENDMDL
MODEL 2
REMARK VINA RESULT:     -12.4      3.769      5.569
REMARK SMILES Cc1ccc(S(=O)(=O)n2cc(C(=O)C(=O)NCC(=O)OCCOC(=O)c3ccc(-c4c5nc(c(-c6cccc(S(=O)(=O)[O-])c6F)c6ccc([nH]6)c(-c6cccc(S(=O)(=O)[O-])c6F)c6nc(c(-c7cccc(S(=O)(=O)[O-])c7F)c7ccc4[nH]7)C=C6)C=C5)cc3)c3ccccc32)cc1
REMARK SMILES IDX 21 1 20 2 18 3 19 4 17 5 16 6 14 7 15 8 12 10 13 11 11 12
REMARK SMILES IDX 9 13 10 14 94 15 89 16 93 17 90 18 92 19 91 20 6 21 7 22
REMARK SMILES IDX 8 23 5 24 1 25 2 26 3 27 96 28 4 29 95 30 22 31 23 32 24 33
REMARK SMILES IDX 25 34 26 35 27 36 88 37 28 38 87 39 29 40 30 41 31 42 81 43
REMARK SMILES IDX 32 44 86 45 80 46 82 47 33 48 85 49 79 50 78 51 34 53 66 54
REMARK SMILES IDX 46 55 65 56 47 57 50 58 64 59 83 60 48 61 49 62 63 64 84 65
REMARK SMILES IDX 51 66 35 67 36 68 44 69 37 70 39 71 45 72 38 73 40 74 41 75
REMARK SMILES IDX 42 76 43 77 67 78 68 79 76 80 69 81 71 82 77 83 70 84 72 85
REMARK SMILES IDX 73 86 74 87 75 88 52 89 53 90 61 91 54 92 56 93 62 94 55 95
REMARK SMILES IDX 57 96 58 97 59 98 60 99
REMARK H PARENT 16 9 82 52 50 63
REMARK Flexibility Score: inf
ROOT
ATOM      1  C   UNL A   1      33.019  34.690  28.730  1.00  0.00     0.274 C 
ENDROOT
BRANCH   1   2
ATOM      2  O   UNL A   1      34.240  34.586  28.002  1.00  0.00    -0.461 OA
BRANCH   2   3
ATOM      3  C   UNL A   1      34.824  33.376  27.868  1.00  0.00     0.325 C 
ATOM      4  O   UNL A   1      36.017  33.186  27.682  1.00  0.00    -0.250 OA
BRANCH   3   5
ATOM      5  C   UNL A   1      33.768  32.293  28.028  1.00  0.00     0.239 C 
BRANCH   5   6
ATOM      6  N   UNL A   1      34.386  30.987  28.143  1.00  0.00    -0.338 N 
ATOM      7  C   UNL A   1      33.991  29.861  27.461  1.00  0.00     0.292 C 
ATOM      8  O   UNL A   1      34.517  28.771  27.648  1.00  0.00    -0.265 OA
ATOM      9  H   UNL A   1      35.148  30.899  28.760  1.00  0.00     0.164 HD
BRANCH   7  10
ATOM     10  C   UNL A   1      32.799  29.996  26.503  1.00  0.00     0.252 C 
ATOM     11  O   UNL A   1      32.181  31.055  26.507  1.00  0.00    -0.283 OA
BRANCH  10  12
ATOM     12  C   UNL A   1      32.401  28.847  25.695  1.00  0.00     0.054 A 
ATOM     13  N   UNL A   1      31.338  27.003  25.039  1.00  0.00    -0.240 N 
ATOM     14  C   UNL A   1      31.438  27.921  26.049  1.00  0.00     0.117 A 
ATOM     15  C   UNL A   1      32.206  27.294  24.010  1.00  0.00     0.065 A 
ATOM     16  C   UNL A   1      32.903  28.447  24.410  1.00  0.00     0.012 A 
ATOM     17  C   UNL A   1      32.470  26.656  22.786  1.00  0.00     0.028 A 
ATOM     18  C   UNL A   1      33.896  28.965  23.550  1.00  0.00     0.011 A 
ATOM     19  C   UNL A   1      33.456  27.196  21.958  1.00  0.00     0.002 A 
ATOM     20  C   UNL A   1      34.161  28.333  22.333  1.00  0.00     0.001 A 
BRANCH  13  21
ATOM     21  S   UNL A   1      30.421  25.579  25.189  1.00  0.00     0.268 S 
ATOM     22  O   UNL A   1      29.597  25.491  24.000  1.00  0.00    -0.201 OA
ATOM     23  O   UNL A   1      29.830  25.625  26.516  1.00  0.00    -0.201 OA
BRANCH  21  24
ATOM     24  C   UNL A   1      31.542  24.206  25.172  1.00  0.00     0.088 A 
ATOM     25  C   UNL A   1      34.337  20.974  24.706  1.00  0.00     0.044 C 
ATOM     26  C   UNL A   1      33.340  22.078  24.897  1.00  0.00    -0.051 A 
ATOM     27  C   UNL A   1      32.269  22.215  24.006  1.00  0.00     0.005 A 
ATOM     28  C   UNL A   1      33.476  22.991  25.950  1.00  0.00     0.005 A 
ATOM     29  C   UNL A   1      31.376  23.276  24.139  1.00  0.00     0.022 A 
ATOM     30  C   UNL A   1      32.575  24.048  26.098  1.00  0.00     0.022 A 
ENDBRANCH  21  24
ENDBRANCH  13  21
ENDBRANCH  10  12
ENDBRANCH   7  10
ENDBRANCH   5   6
ENDBRANCH   3   5
ENDBRANCH   2   3
ENDBRANCH   1   2
BRANCH   1  31
ATOM     31  C   UNL A   1      32.906  35.711  29.886  1.00  0.00     0.275 C 
BRANCH  31  32
ATOM     32  O   UNL A   1      33.432  35.536  31.246  1.00  0.00    -0.458 OA
BRANCH  32  33
ATOM     33  C   UNL A   1      33.775  34.539  32.107  1.00  0.00     0.338 C 
ATOM     34  O   UNL A   1      33.045  34.212  33.014  1.00  0.00    -0.246 OA
BRANCH  33  35
ATOM     35  C   UNL A   1      35.043  33.836  31.868  1.00  0.00     0.060 A 
ATOM     36  C   UNL A   1      36.081  34.381  31.089  1.00  0.00     0.016 A 
ATOM     37  C   UNL A   1      35.211  32.638  32.517  1.00  0.00     0.016 A 
ATOM     38  C   UNL A   1      37.329  33.743  31.054  1.00  0.00     0.010 A 
ATOM     39  C   UNL A   1      36.486  32.207  32.731  1.00  0.00     0.010 A 
ATOM     40  C   UNL A   1      37.526  32.663  31.905  1.00  0.00    -0.014 A 
BRANCH  40  41
ATOM     41  C   UNL A   1      38.608  31.684  31.849  1.00  0.00     0.031 A 
ATOM     42  C   UNL A   1      38.581  30.459  31.052  1.00  0.00     0.074 A 
ATOM     43  C   UNL A   1      39.765  32.220  32.312  1.00  0.00     0.049 A 
ATOM     44  N   UNL A   1      39.405  29.488  31.248  1.00  0.00    -0.248 NA
ATOM     45  C   UNL A   1      37.653  30.228  29.951  1.00  0.00     0.031 C 
ATOM     46  C   UNL A   1      41.146  31.955  31.973  1.00  0.00     0.029 A 
ATOM     47  N   UNL A   1      39.847  33.264  33.241  1.00  0.00    -0.354 N 
ATOM     48  C   UNL A   1      39.326  28.666  30.146  1.00  0.00     0.074 A 
ATOM     49  C   UNL A   1      38.148  29.098  29.425  1.00  0.00     0.031 C 
ATOM     50  C   UNL A   1      41.933  32.629  32.839  1.00  0.00     0.029 A 
ATOM     51  C   UNL A   1      41.074  33.192  33.879  1.00  0.00     0.049 A 
ATOM     52  H   UNL A   1      39.150  33.938  33.412  1.00  0.00     0.167 HD
ATOM     53  C   UNL A   1      40.380  27.855  29.845  1.00  0.00     0.034 A 
ATOM     54  C   UNL A   1      41.116  32.964  35.225  1.00  0.00     0.034 A 
ATOM     55  C   UNL A   1      41.500  28.111  30.768  1.00  0.00     0.049 A 
ATOM     56  C   UNL A   1      41.673  31.574  35.477  1.00  0.00     0.074 A 
ATOM     57  C   UNL A   1      42.604  28.943  30.658  1.00  0.00     0.029 A 
ATOM     58  N   UNL A   1      41.392  27.789  32.119  1.00  0.00    -0.354 N 
ATOM     59  N   UNL A   1      41.917  30.705  34.536  1.00  0.00    -0.248 NA
ATOM     60  C   UNL A   1      41.968  31.048  36.803  1.00  0.00     0.031 C 
ATOM     61  C   UNL A   1      43.096  29.201  31.965  1.00  0.00     0.029 A 
ATOM     62  C   UNL A   1      42.316  28.508  32.874  1.00  0.00     0.049 A 
ATOM     63  H   UNL A   1      40.749  27.143  32.490  1.00  0.00     0.167 HD
ATOM     64  C   UNL A   1      42.253  29.503  35.081  1.00  0.00     0.074 A 
ATOM     65  C   UNL A   1      42.353  29.795  36.504  1.00  0.00     0.031 C 
ATOM     66  C   UNL A   1      42.361  28.366  34.329  1.00  0.00     0.034 A 
BRANCH  53  67
ATOM     67  C   UNL A   1      40.542  27.146  28.511  1.00  0.00     0.023 A 
ATOM     68  C   UNL A   1      39.607  26.136  28.187  1.00  0.00     0.012 A 
ATOM     69  C   UNL A   1      41.558  27.389  27.553  1.00  0.00     0.148 A 
ATOM     70  C   UNL A   1      39.711  25.349  27.037  1.00  0.00     0.002 A 
ATOM     71  C   UNL A   1      41.687  26.572  26.420  1.00  0.00     0.091 A 
ATOM     72  F   UNL A   1      42.370  28.444  27.714  1.00  0.00    -0.205 F 
ATOM     73  C   UNL A   1      40.767  25.550  26.164  1.00  0.00     0.022 A 
BRANCH  71  74
ATOM     74  S   UNL A   1      43.063  26.706  25.262  1.00  0.00     0.127 S 
ATOM     75  O   UNL A   1      43.085  25.375  24.652  1.00  0.00    -0.237 OA
ATOM     76  O   UNL A   1      42.619  27.774  24.368  1.00  0.00    -0.237 OA
ATOM     77  O   UNL A   1      44.237  27.008  26.072  1.00  0.00    -0.744 OA
ENDBRANCH  71  74
ENDBRANCH  53  67
BRANCH  54  78
ATOM     78  C   UNL A   1      39.939  33.574  35.958  1.00  0.00     0.023 A 
ATOM     79  C   UNL A   1      38.794  32.753  36.150  1.00  0.00     0.012 A 
ATOM     80  C   UNL A   1      40.109  34.675  36.817  1.00  0.00     0.148 A 
ATOM     81  C   UNL A   1      37.954  32.922  37.259  1.00  0.00     0.002 A 
ATOM     82  C   UNL A   1      39.274  34.828  37.928  1.00  0.00     0.091 A 
ATOM     83  F   UNL A   1      41.134  35.511  36.608  1.00  0.00    -0.205 F 
ATOM     84  C   UNL A   1      38.220  33.936  38.172  1.00  0.00     0.022 A 
BRANCH  82  85
ATOM     85  S   UNL A   1      39.668  36.074  39.164  1.00  0.00     0.127 S 
ATOM     86  O   UNL A   1      38.733  35.775  40.248  1.00  0.00    -0.237 OA
ATOM     87  O   UNL A   1      41.061  35.799  39.489  1.00  0.00    -0.237 OA
ATOM     88  O   UNL A   1      39.391  37.311  38.439  1.00  0.00    -0.744 OA
ENDBRANCH  82  85
ENDBRANCH  54  78
BRANCH  66  89
ATOM     89  C   UNL A   1      42.550  26.991  34.919  1.00  0.00     0.023 A 
ATOM     90  C   UNL A   1      41.517  26.325  35.603  1.00  0.00     0.012 A 
ATOM     91  C   UNL A   1      43.747  26.269  34.690  1.00  0.00     0.148 A 
ATOM     92  C   UNL A   1      41.694  25.045  36.132  1.00  0.00     0.002 A 
ATOM     93  C   UNL A   1      43.869  24.948  35.103  1.00  0.00     0.091 A 
ATOM     94  F   UNL A   1      44.785  26.866  34.087  1.00  0.00    -0.205 F 
ATOM     95  C   UNL A   1      42.864  24.348  35.864  1.00  0.00     0.022 A 
BRANCH  93  96
ATOM     96  S   UNL A   1      45.236  23.926  34.544  1.00  0.00     0.127 S 
ATOM     97  O   UNL A   1      44.636  22.594  34.539  1.00  0.00    -0.237 OA
ATOM     98  O   UNL A   1      45.513  24.475  33.216  1.00  0.00    -0.237 OA
ATOM     99  O   UNL A   1      46.302  24.146  35.512  1.00  0.00    -0.744 OA
ENDBRANCH  93  96
ENDBRANCH  66  89
ENDBRANCH  40  41
ENDBRANCH  33  35
ENDBRANCH  32  33
ENDBRANCH  31  32
ENDBRANCH   1  31
TORSDOF 19
ENDMDL
MODEL 3
REMARK VINA RESULT:     -12.1      4.119     10.290
REMARK SMILES Cc1ccc(S(=O)(=O)n2cc(C(=O)C(=O)NCC(=O)OCCOC(=O)c3ccc(-c4c5nc(c(-c6cccc(S(=O)(=O)[O-])c6F)c6ccc([nH]6)c(-c6cccc(S(=O)(=O)[O-])c6F)c6nc(c(-c7cccc(S(=O)(=O)[O-])c7F)c7ccc4[nH]7)C=C6)C=C5)cc3)c3ccccc32)cc1
REMARK SMILES IDX 21 1 20 2 18 3 19 4 17 5 16 6 14 7 15 8 12 10 13 11 11 12
REMARK SMILES IDX 9 13 10 14 94 15 89 16 93 17 90 18 92 19 91 20 6 21 7 22
REMARK SMILES IDX 8 23 5 24 1 25 2 26 3 27 96 28 4 29 95 30 22 31 23 32 24 33
REMARK SMILES IDX 25 34 26 35 27 36 88 37 28 38 87 39 29 40 30 41 31 42 81 43
REMARK SMILES IDX 32 44 86 45 80 46 82 47 33 48 85 49 79 50 78 51 34 53 66 54
REMARK SMILES IDX 46 55 65 56 47 57 50 58 64 59 83 60 48 61 49 62 63 64 84 65
REMARK SMILES IDX 51 66 35 67 36 68 44 69 37 70 39 71 45 72 38 73 40 74 41 75
REMARK SMILES IDX 42 76 43 77 67 78 68 79 76 80 69 81 71 82 77 83 70 84 72 85
REMARK SMILES IDX 73 86 74 87 75 88 52 89 53 90 61 91 54 92 56 93 62 94 55 95
REMARK SMILES IDX 57 96 58 97 59 98 60 99
REMARK H PARENT 16 9 82 52 50 63
REMARK Flexibility Score: inf
ROOT
ATOM      1  C   UNL A   1      42.320  24.389  27.124  1.00  0.00     0.274 C 
ENDROOT
BRANCH   1   2
ATOM      2  O   UNL A   1      41.736  23.174  27.587  1.00  0.00    -0.461 OA
BRANCH   2   3
ATOM      3  C   UNL A   1      41.123  22.361  26.701  1.00  0.00     0.325 C 
ATOM      4  O   UNL A   1      41.692  21.647  25.887  1.00  0.00    -0.250 OA
BRANCH   3   5
ATOM      5  C   UNL A   1      39.618  22.444  26.907  1.00  0.00     0.239 C 
BRANCH   5   6
ATOM      6  N   UNL A   1      38.920  21.648  25.917  1.00  0.00    -0.338 N 
ATOM      7  C   UNL A   1      37.763  22.020  25.273  1.00  0.00     0.292 C 
ATOM      8  O   UNL A   1      37.188  21.274  24.490  1.00  0.00    -0.265 OA
ATOM      9  H   UNL A   1      39.303  20.771  25.689  1.00  0.00     0.164 HD
BRANCH   7  10
ATOM     10  C   UNL A   1      37.162  23.386  25.633  1.00  0.00     0.252 C 
ATOM     11  O   UNL A   1      37.862  24.169  26.266  1.00  0.00    -0.283 OA
BRANCH  10  12
ATOM     12  C   UNL A   1      35.773  23.666  25.284  1.00  0.00     0.054 A 
ATOM     13  N   UNL A   1      33.989  24.391  24.165  1.00  0.00    -0.240 N 
ATOM     14  C   UNL A   1      35.357  24.333  24.148  1.00  0.00     0.117 A 
ATOM     15  C   UNL A   1      33.475  23.771  25.282  1.00  0.00     0.065 A 
ATOM     16  C   UNL A   1      34.586  23.320  26.016  1.00  0.00     0.012 A 
ATOM     17  C   UNL A   1      32.159  23.581  25.738  1.00  0.00     0.028 A 
ATOM     18  C   UNL A   1      34.358  22.662  27.245  1.00  0.00     0.011 A 
ATOM     19  C   UNL A   1      31.970  22.925  26.956  1.00  0.00     0.002 A 
ATOM     20  C   UNL A   1      33.052  22.472  27.700  1.00  0.00     0.001 A 
BRANCH  13  21
ATOM     21  S   UNL A   1      33.102  25.323  23.053  1.00  0.00     0.268 S 
ATOM     22  O   UNL A   1      31.840  24.639  22.855  1.00  0.00    -0.201 OA
ATOM     23  O   UNL A   1      34.005  25.583  21.944  1.00  0.00    -0.201 OA
BRANCH  21  24
ATOM     24  C   UNL A   1      32.756  26.889  23.811  1.00  0.00     0.088 A 
ATOM     25  C   UNL A   1      31.664  30.461  25.937  1.00  0.00     0.044 C 
ATOM     26  C   UNL A   1      32.047  29.237  25.159  1.00  0.00    -0.051 A 
ATOM     27  C   UNL A   1      31.055  28.361  24.701  1.00  0.00     0.005 A 
ATOM     28  C   UNL A   1      33.391  28.947  24.897  1.00  0.00     0.005 A 
ATOM     29  C   UNL A   1      31.407  27.189  24.034  1.00  0.00     0.022 A 
ATOM     30  C   UNL A   1      33.749  27.781  24.215  1.00  0.00     0.022 A 
ENDBRANCH  21  24
ENDBRANCH  13  21
ENDBRANCH  10  12
ENDBRANCH   7  10
ENDBRANCH   5   6
ENDBRANCH   3   5
ENDBRANCH   2   3
ENDBRANCH   1   2
BRANCH   1  31
ATOM     31  C   UNL A   1      41.564  25.251  26.087  1.00  0.00     0.275 C 
BRANCH  31  32
ATOM     32  O   UNL A   1      42.072  26.470  25.444  1.00  0.00    -0.458 OA
BRANCH  32  33
ATOM     33  C   UNL A   1      41.906  27.821  25.499  1.00  0.00     0.338 C 
ATOM     34  O   UNL A   1      42.357  28.545  24.642  1.00  0.00    -0.246 OA
BRANCH  33  35
ATOM     35  C   UNL A   1      41.116  28.367  26.611  1.00  0.00     0.060 A 
ATOM     36  C   UNL A   1      39.876  27.826  27.002  1.00  0.00     0.016 A 
ATOM     37  C   UNL A   1      41.686  29.393  27.322  1.00  0.00     0.016 A 
ATOM     38  C   UNL A   1      39.266  28.276  28.181  1.00  0.00     0.010 A 
ATOM     39  C   UNL A   1      41.259  29.592  28.601  1.00  0.00     0.010 A 
ATOM     40  C   UNL A   1      39.986  29.148  28.989  1.00  0.00    -0.014 A 
BRANCH  40  41
ATOM     41  C   UNL A   1      39.469  29.955  30.090  1.00  0.00     0.031 A 
ATOM     42  C   UNL A   1      38.681  31.176  29.928  1.00  0.00     0.074 A 
ATOM     43  C   UNL A   1      39.481  29.252  31.250  1.00  0.00     0.049 A 
ATOM     44  N   UNL A   1      38.497  32.014  30.889  1.00  0.00    -0.248 NA
ATOM     45  C   UNL A   1      38.009  31.549  28.688  1.00  0.00     0.031 C 
ATOM     46  C   UNL A   1      38.626  29.312  32.415  1.00  0.00     0.029 A 
ATOM     47  N   UNL A   1      40.361  28.201  31.539  1.00  0.00    -0.354 N 
ATOM     48  C   UNL A   1      37.468  32.845  30.506  1.00  0.00     0.074 A 
ATOM     49  C   UNL A   1      37.276  32.597  29.093  1.00  0.00     0.031 C 
ATOM     50  C   UNL A   1      39.158  28.524  33.373  1.00  0.00     0.029 A 
ATOM     51  C   UNL A   1      40.475  28.088  32.914  1.00  0.00     0.049 A 
ATOM     52  H   UNL A   1      40.820  27.637  30.875  1.00  0.00     0.167 HD
ATOM     53  C   UNL A   1      36.746  33.493  31.463  1.00  0.00     0.034 A 
ATOM     54  C   UNL A   1      41.689  28.298  33.503  1.00  0.00     0.034 A 
ATOM     55  C   UNL A   1      37.182  33.069  32.805  1.00  0.00     0.049 A 
ATOM     56  C   UNL A   1      41.637  29.589  34.301  1.00  0.00     0.074 A 
ATOM     57  C   UNL A   1      36.700  32.084  33.655  1.00  0.00     0.029 A 
ATOM     58  N   UNL A   1      38.453  33.395  33.273  1.00  0.00    -0.354 N 
ATOM     59  N   UNL A   1      40.631  30.419  34.281  1.00  0.00    -0.248 NA
ATOM     60  C   UNL A   1      42.721  30.058  35.155  1.00  0.00     0.031 C 
ATOM     61  C   UNL A   1      37.731  31.748  34.572  1.00  0.00     0.029 A 
ATOM     62  C   UNL A   1      38.833  32.543  34.307  1.00  0.00     0.049 A 
ATOM     63  H   UNL A   1      39.008  34.127  32.920  1.00  0.00     0.167 HD
ATOM     64  C   UNL A   1      40.944  31.555  34.965  1.00  0.00     0.074 A 
ATOM     65  C   UNL A   1      42.233  31.242  35.564  1.00  0.00     0.031 C 
ATOM     66  C   UNL A   1      40.150  32.668  34.930  1.00  0.00     0.034 A 
BRANCH  53  67
ATOM     67  C   UNL A   1      35.416  34.179  31.194  1.00  0.00     0.023 A 
ATOM     68  C   UNL A   1      34.783  33.918  29.957  1.00  0.00     0.012 A 
ATOM     69  C   UNL A   1      34.748  35.075  32.064  1.00  0.00     0.148 A 
ATOM     70  C   UNL A   1      33.610  34.564  29.557  1.00  0.00     0.002 A 
ATOM     71  C   UNL A   1      33.594  35.756  31.645  1.00  0.00     0.091 A 
ATOM     72  F   UNL A   1      35.200  35.233  33.315  1.00  0.00    -0.205 F 
ATOM     73  C   UNL A   1      33.028  35.503  30.390  1.00  0.00     0.022 A 
BRANCH  71  74
ATOM     74  S   UNL A   1      32.802  37.044  32.625  1.00  0.00     0.127 S 
ATOM     75  O   UNL A   1      33.657  37.100  33.813  1.00  0.00    -0.237 OA
ATOM     76  O   UNL A   1      32.903  38.212  31.752  1.00  0.00    -0.237 OA
ATOM     77  O   UNL A   1      31.449  36.569  32.890  1.00  0.00    -0.744 OA
ENDBRANCH  71  74
ENDBRANCH  53  67
BRANCH  54  78
ATOM     78  C   UNL A   1      42.847  27.864  32.628  1.00  0.00     0.023 A 
ATOM     79  C   UNL A   1      43.419  28.844  31.771  1.00  0.00     0.012 A 
ATOM     80  C   UNL A   1      43.632  26.746  32.963  1.00  0.00     0.148 A 
ATOM     81  C   UNL A   1      44.772  28.794  31.409  1.00  0.00     0.002 A 
ATOM     82  C   UNL A   1      44.984  26.712  32.609  1.00  0.00     0.091 A 
ATOM     83  F   UNL A   1      43.091  25.770  33.702  1.00  0.00    -0.205 F 
ATOM     84  C   UNL A   1      45.565  27.748  31.864  1.00  0.00     0.022 A 
BRANCH  82  85
ATOM     85  S   UNL A   1      46.039  25.416  33.274  1.00  0.00     0.127 S 
ATOM     86  O   UNL A   1      45.360  24.188  32.860  1.00  0.00    -0.237 OA
ATOM     87  O   UNL A   1      47.314  25.642  32.607  1.00  0.00    -0.237 OA
ATOM     88  O   UNL A   1      45.985  25.693  34.706  1.00  0.00    -0.744 OA
ENDBRANCH  82  85
ENDBRANCH  54  78
BRANCH  66  89
ATOM     89  C   UNL A   1      40.551  33.996  35.521  1.00  0.00     0.023 A 
ATOM     90  C   UNL A   1      40.059  34.440  36.762  1.00  0.00     0.012 A 
ATOM     91  C   UNL A   1      41.546  34.789  34.897  1.00  0.00     0.148 A 
ATOM     92  C   UNL A   1      40.448  35.663  37.309  1.00  0.00     0.002 A 
ATOM     93  C   UNL A   1      42.026  35.938  35.511  1.00  0.00     0.091 A 
ATOM     94  F   UNL A   1      42.018  34.443  33.690  1.00  0.00    -0.205 F 
ATOM     95  C   UNL A   1      41.448  36.404  36.694  1.00  0.00     0.022 A 
BRANCH  93  96
ATOM     96  S   UNL A   1      43.497  36.769  34.900  1.00  0.00     0.127 S 
ATOM     97  O   UNL A   1      43.028  37.317  33.629  1.00  0.00    -0.237 OA
ATOM     98  O   UNL A   1      43.746  37.768  35.940  1.00  0.00    -0.237 OA
ATOM     99  O   UNL A   1      44.517  35.732  34.815  1.00  0.00    -0.744 OA
ENDBRANCH  93  96
ENDBRANCH  66  89
ENDBRANCH  40  41
ENDBRANCH  33  35
ENDBRANCH  32  33
ENDBRANCH  31  32
ENDBRANCH   1  31
TORSDOF 19
ENDMDL
