MODEL 1
REMARK VINA RESULT:     -13.1      0.000      0.000
REMARK SMILES C[C@H](C(=O)OCCOC(=O)c1ccc(-c2c3nc(c(-c4cccc(S(=O)(=O)[O-])c4F)c4ccc([nH]4)c(-c4cccc(S(=O)(=O)[O-])c4F)c4nc(c(-c5cccc(S(=O)(=O)[O-])c5F)c5ccc2[nH]5)C=C4)C=C3)cc1)c1ccc2c3cc(Cl)ccc3n(C(=O)c3ccc(Cl)cc3)c2c1
REMARK SMILES IDX 6 1 5 2 3 3 4 4 2 5 1 6 74 7 75 8 96 9 76 10 95 11 77 12
REMARK SMILES IDX 85 13 78 14 84 15 79 16 83 17 80 18 82 19 81 20 86 21 87 22
REMARK SMILES IDX 88 23 89 24 94 25 90 26 93 27 91 28 92 29 7 30 8 31 9 32
REMARK SMILES IDX 10 33 11 34 12 35 73 36 13 37 72 38 14 39 15 40 16 41 66 42
REMARK SMILES IDX 17 43 71 44 65 45 67 46 18 47 70 48 64 49 63 50 19 52 51 53
REMARK SMILES IDX 31 54 50 55 32 56 35 57 49 58 68 59 33 60 34 61 48 63 69 64
REMARK SMILES IDX 36 65 20 66 21 67 29 68 22 69 24 70 30 71 23 72 25 73 26 74
REMARK SMILES IDX 27 75 28 76 52 77 53 78 61 79 54 80 56 81 62 82 55 83 57 84
REMARK SMILES IDX 58 85 59 86 60 87 37 88 38 89 46 90 39 91 41 92 47 93 40 94
REMARK SMILES IDX 42 95 43 96 44 97 45 98
REMARK H PARENT 67 51 35 62
REMARK Flexibility Score: inf
ROOT
ATOM      1  C   UNL A   1      31.261  29.419  24.137  1.00  0.00     0.274 C 
ENDROOT
BRANCH   1   2
ATOM      2  O   UNL A   1      30.230  28.452  23.862  1.00  0.00    -0.462 OA
BRANCH   2   3
ATOM      3  C   UNL A   1      30.609  27.324  23.201  1.00  0.00     0.313 C 
ATOM      4  O   UNL A   1      30.886  27.288  22.006  1.00  0.00    -0.252 OA
BRANCH   3   5
ATOM      5  C   UNL A   1      30.596  26.077  24.076  1.00  0.00     0.126 C 
ATOM      6  C   UNL A   1      29.693  24.973  23.527  1.00  0.00     0.025 C 
BRANCH   5   7
ATOM      7  C   UNL A   1      31.953  25.497  24.438  1.00  0.00    -0.032 A 
ATOM      8  C   UNL A   1      33.013  26.267  24.926  1.00  0.00     0.005 A 
ATOM      9  C   UNL A   1      32.147  24.132  24.210  1.00  0.00     0.032 A 
ATOM     10  C   UNL A   1      34.246  25.676  25.240  1.00  0.00     0.011 A 
ATOM     11  C   UNL A   1      33.400  23.559  24.472  1.00  0.00     0.057 A 
ATOM     12  C   UNL A   1      34.439  24.295  25.023  1.00  0.00     0.008 A 
ATOM     13  N   UNL A   1      33.830  22.251  24.271  1.00  0.00    -0.276 N 
ATOM     14  C   UNL A   1      35.522  23.391  25.231  1.00  0.00     0.009 A 
ATOM     15  C   UNL A   1      35.136  22.131  24.745  1.00  0.00     0.057 A 
ATOM     16  C   UNL A   1      36.817  23.560  25.768  1.00  0.00     0.031 A 
ATOM     17  C   UNL A   1      36.048  21.058  24.718  1.00  0.00     0.029 A 
ATOM     18  C   UNL A   1      37.698  22.480  25.784  1.00  0.00     0.041 A 
ATOM     19  C   UNL A   1      37.324  21.249  25.259  1.00  0.00     0.023 A 
ATOM     20  Cl  UNL A   1      39.277  22.682  26.442  1.00  0.00    -0.084 Cl
BRANCH  13  21
ATOM     21  C   UNL A   1      33.032  21.292  23.605  1.00  0.00     0.262 C 
ATOM     22  O   UNL A   1      32.351  21.720  22.671  1.00  0.00    -0.268 OA
BRANCH  21  23
ATOM     23  C   UNL A   1      32.846  19.857  23.958  1.00  0.00     0.040 A 
ATOM     24  C   UNL A   1      32.734  19.549  25.329  1.00  0.00     0.015 A 
ATOM     25  C   UNL A   1      32.898  18.810  23.035  1.00  0.00     0.015 A 
ATOM     26  C   UNL A   1      32.642  18.228  25.767  1.00  0.00     0.021 A 
ATOM     27  C   UNL A   1      32.775  17.484  23.474  1.00  0.00     0.021 A 
ATOM     28  C   UNL A   1      32.649  17.199  24.834  1.00  0.00     0.041 A 
ATOM     29  Cl  UNL A   1      32.522  15.568  25.363  1.00  0.00    -0.084 Cl
ENDBRANCH  21  23
ENDBRANCH  13  21
ENDBRANCH   5   7
ENDBRANCH   3   5
ENDBRANCH   2   3
ENDBRANCH   1   2
BRANCH   1  30
ATOM     30  C   UNL A   1      31.411  29.603  25.644  1.00  0.00     0.275 C 
BRANCH  30  31
ATOM     31  O   UNL A   1      32.800  29.805  25.951  1.00  0.00    -0.458 OA
BRANCH  31  32
ATOM     32  C   UNL A   1      33.096  30.866  26.731  1.00  0.00     0.338 C 
ATOM     33  O   UNL A   1      32.390  31.849  26.938  1.00  0.00    -0.246 OA
BRANCH  32  34
ATOM     34  C   UNL A   1      34.418  30.670  27.353  1.00  0.00     0.060 A 
ATOM     35  C   UNL A   1      34.869  29.384  27.645  1.00  0.00     0.016 A 
ATOM     36  C   UNL A   1      35.177  31.773  27.734  1.00  0.00     0.016 A 
ATOM     37  C   UNL A   1      36.027  29.194  28.396  1.00  0.00     0.010 A 
ATOM     38  C   UNL A   1      36.398  31.576  28.390  1.00  0.00     0.010 A 
ATOM     39  C   UNL A   1      36.821  30.287  28.760  1.00  0.00    -0.014 A 
BRANCH  39  40
ATOM     40  C   UNL A   1      38.083  30.096  29.529  1.00  0.00     0.031 A 
ATOM     41  C   UNL A   1      39.193  29.251  28.961  1.00  0.00     0.074 A 
ATOM     42  C   UNL A   1      38.225  30.642  30.755  1.00  0.00     0.049 A 
ATOM     43  N   UNL A   1      40.256  28.774  29.554  1.00  0.00    -0.248 NA
ATOM     44  C   UNL A   1      39.081  28.876  27.541  1.00  0.00     0.031 C 
ATOM     45  C   UNL A   1      37.239  31.492  31.426  1.00  0.00     0.029 A 
ATOM     46  N   UNL A   1      39.249  30.545  31.667  1.00  0.00    -0.354 N 
ATOM     47  C   UNL A   1      40.893  27.976  28.611  1.00  0.00     0.074 A 
ATOM     48  C   UNL A   1      40.105  28.046  27.398  1.00  0.00     0.031 C 
ATOM     49  C   UNL A   1      37.707  31.847  32.631  1.00  0.00     0.029 A 
ATOM     50  C   UNL A   1      38.986  31.185  32.856  1.00  0.00     0.049 A 
ATOM     51  H   UNL A   1      40.088  30.063  31.486  1.00  0.00     0.167 HD
ATOM     52  C   UNL A   1      42.032  27.255  28.740  1.00  0.00     0.034 A 
ATOM     53  C   UNL A   1      39.670  31.205  34.017  1.00  0.00     0.034 A 
ATOM     54  C   UNL A   1      42.859  27.259  29.917  1.00  0.00     0.049 A 
ATOM     55  C   UNL A   1      40.952  30.428  34.123  1.00  0.00     0.074 A 
ATOM     56  C   UNL A   1      44.053  26.593  30.133  1.00  0.00     0.029 A 
ATOM     57  N   UNL A   1      42.591  27.981  31.070  1.00  0.00    -0.354 N 
ATOM     58  N   UNL A   1      41.552  29.702  33.213  1.00  0.00    -0.248 NA
ATOM     59  C   UNL A   1      41.656  30.479  35.413  1.00  0.00     0.031 C 
ATOM     60  C   UNL A   1      44.509  26.916  31.416  1.00  0.00     0.029 A 
ATOM     61  C   UNL A   1      43.601  27.786  31.997  1.00  0.00     0.049 A 
ATOM     62  H   UNL A   1      41.800  28.549  31.209  1.00  0.00     0.167 HD
ATOM     63  C   UNL A   1      42.709  29.221  33.812  1.00  0.00     0.074 A 
ATOM     64  C   UNL A   1      42.743  29.765  35.154  1.00  0.00     0.031 C 
ATOM     65  C   UNL A   1      43.646  28.380  33.308  1.00  0.00     0.034 A 
BRANCH  52  66
ATOM     66  C   UNL A   1      42.477  26.428  27.564  1.00  0.00     0.023 A 
ATOM     67  C   UNL A   1      43.010  27.063  26.425  1.00  0.00     0.012 A 
ATOM     68  C   UNL A   1      42.427  25.020  27.611  1.00  0.00     0.148 A 
ATOM     69  C   UNL A   1      43.461  26.312  25.339  1.00  0.00     0.002 A 
ATOM     70  C   UNL A   1      42.913  24.278  26.540  1.00  0.00     0.091 A 
ATOM     71  F   UNL A   1      41.892  24.433  28.691  1.00  0.00    -0.205 F 
ATOM     72  C   UNL A   1      43.423  24.922  25.401  1.00  0.00     0.022 A 
BRANCH  70  73
ATOM     73  S   UNL A   1      42.971  22.481  26.563  1.00  0.00     0.127 S 
ATOM     74  O   UNL A   1      42.263  22.146  25.329  1.00  0.00    -0.237 OA
ATOM     75  O   UNL A   1      44.410  22.214  26.532  1.00  0.00    -0.237 OA
ATOM     76  O   UNL A   1      42.311  22.079  27.797  1.00  0.00    -0.744 OA
ENDBRANCH  70  73
ENDBRANCH  52  66
BRANCH  53  77
ATOM     77  C   UNL A   1      39.151  32.003  35.164  1.00  0.00     0.023 A 
ATOM     78  C   UNL A   1      38.232  31.416  36.054  1.00  0.00     0.012 A 
ATOM     79  C   UNL A   1      39.612  33.310  35.418  1.00  0.00     0.148 A 
ATOM     80  C   UNL A   1      37.773  32.119  37.169  1.00  0.00     0.002 A 
ATOM     81  C   UNL A   1      39.200  33.981  36.565  1.00  0.00     0.091 A 
ATOM     82  F   UNL A   1      40.465  33.867  34.547  1.00  0.00    -0.205 F 
ATOM     83  C   UNL A   1      38.269  33.394  37.434  1.00  0.00     0.022 A 
BRANCH  81  84
ATOM     84  S   UNL A   1      39.921  35.554  37.049  1.00  0.00     0.127 S 
ATOM     85  O   UNL A   1      39.216  35.840  38.294  1.00  0.00    -0.237 OA
ATOM     86  O   UNL A   1      41.336  35.212  37.208  1.00  0.00    -0.237 OA
ATOM     87  O   UNL A   1      39.652  36.456  35.937  1.00  0.00    -0.744 OA
ENDBRANCH  81  84
ENDBRANCH  53  77
BRANCH  65  88
ATOM     88  C   UNL A   1      44.795  28.007  34.203  1.00  0.00     0.023 A 
ATOM     89  C   UNL A   1      45.945  28.819  34.224  1.00  0.00     0.012 A 
ATOM     90  C   UNL A   1      44.710  26.900  35.069  1.00  0.00     0.148 A 
ATOM     91  C   UNL A   1      47.006  28.520  35.077  1.00  0.00     0.002 A 
ATOM     92  C   UNL A   1      45.756  26.629  35.943  1.00  0.00     0.091 A 
ATOM     93  F   UNL A   1      43.616  26.126  35.015  1.00  0.00    -0.205 F 
ATOM     94  C   UNL A   1      46.908  27.433  35.943  1.00  0.00     0.022 A 
BRANCH  92  95
ATOM     95  S   UNL A   1      45.674  25.297  37.145  1.00  0.00     0.127 S 
ATOM     96  O   UNL A   1      44.421  25.596  37.835  1.00  0.00    -0.237 OA
ATOM     97  O   UNL A   1      45.632  24.106  36.295  1.00  0.00    -0.237 OA
ATOM     98  O   UNL A   1      46.883  25.417  37.949  1.00  0.00    -0.744 OA
ENDBRANCH  92  95
ENDBRANCH  65  88
ENDBRANCH  39  40
ENDBRANCH  32  34
ENDBRANCH  31  32
ENDBRANCH  30  31
ENDBRANCH   1  30
TORSDOF 17
ENDMDL
MODEL 2
REMARK VINA RESULT:     -13.1      2.065      8.210
REMARK SMILES C[C@H](C(=O)OCCOC(=O)c1ccc(-c2c3nc(c(-c4cccc(S(=O)(=O)[O-])c4F)c4ccc([nH]4)c(-c4cccc(S(=O)(=O)[O-])c4F)c4nc(c(-c5cccc(S(=O)(=O)[O-])c5F)c5ccc2[nH]5)C=C4)C=C3)cc1)c1ccc2c3cc(Cl)ccc3n(C(=O)c3ccc(Cl)cc3)c2c1
REMARK SMILES IDX 6 1 5 2 3 3 4 4 2 5 1 6 74 7 75 8 96 9 76 10 95 11 77 12
REMARK SMILES IDX 85 13 78 14 84 15 79 16 83 17 80 18 82 19 81 20 86 21 87 22
REMARK SMILES IDX 88 23 89 24 94 25 90 26 93 27 91 28 92 29 7 30 8 31 9 32
REMARK SMILES IDX 10 33 11 34 12 35 73 36 13 37 72 38 14 39 15 40 16 41 66 42
REMARK SMILES IDX 17 43 71 44 65 45 67 46 18 47 70 48 64 49 63 50 19 52 51 53
REMARK SMILES IDX 31 54 50 55 32 56 35 57 49 58 68 59 33 60 34 61 48 63 69 64
REMARK SMILES IDX 36 65 20 66 21 67 29 68 22 69 24 70 30 71 23 72 25 73 26 74
REMARK SMILES IDX 27 75 28 76 52 77 53 78 61 79 54 80 56 81 62 82 55 83 57 84
REMARK SMILES IDX 58 85 59 86 60 87 37 88 38 89 46 90 39 91 41 92 47 93 40 94
REMARK SMILES IDX 42 95 43 96 44 97 45 98
REMARK H PARENT 67 51 35 62
REMARK Flexibility Score: inf
ROOT
ATOM      1  C   UNL A   1      40.871  20.512  26.714  1.00  0.00     0.274 C 
ENDROOT
BRANCH   1   2
ATOM      2  O   UNL A   1      39.824  20.412  25.729  1.00  0.00    -0.462 OA
BRANCH   2   3
ATOM      3  C   UNL A   1      38.855  21.366  25.767  1.00  0.00     0.313 C 
ATOM      4  O   UNL A   1      38.860  22.321  26.537  1.00  0.00    -0.252 OA
BRANCH   3   5
ATOM      5  C   UNL A   1      37.711  21.103  24.795  1.00  0.00     0.126 C 
ATOM      6  C   UNL A   1      37.128  19.696  24.927  1.00  0.00     0.025 C 
BRANCH   5   7
ATOM      7  C   UNL A   1      36.586  22.124  24.791  1.00  0.00    -0.032 A 
ATOM      8  C   UNL A   1      36.690  23.386  25.386  1.00  0.00     0.005 A 
ATOM      9  C   UNL A   1      35.376  21.742  24.206  1.00  0.00     0.032 A 
ATOM     10  C   UNL A   1      35.615  24.287  25.353  1.00  0.00     0.011 A 
ATOM     11  C   UNL A   1      34.288  22.626  24.228  1.00  0.00     0.057 A 
ATOM     12  C   UNL A   1      34.397  23.907  24.751  1.00  0.00     0.008 A 
ATOM     13  N   UNL A   1      32.989  22.439  23.762  1.00  0.00    -0.276 N 
ATOM     14  C   UNL A   1      33.143  24.551  24.537  1.00  0.00     0.009 A 
ATOM     15  C   UNL A   1      32.275  23.624  23.937  1.00  0.00     0.057 A 
ATOM     16  C   UNL A   1      32.671  25.847  24.839  1.00  0.00     0.031 A 
ATOM     17  C   UNL A   1      30.924  23.946  23.704  1.00  0.00     0.029 A 
ATOM     18  C   UNL A   1      31.346  26.176  24.559  1.00  0.00     0.041 A 
ATOM     19  C   UNL A   1      30.482  25.238  24.009  1.00  0.00     0.023 A 
ATOM     20  Cl  UNL A   1      30.769  27.757  24.924  1.00  0.00    -0.084 Cl
BRANCH  13  21
ATOM     21  C   UNL A   1      32.536  21.187  23.286  1.00  0.00     0.262 C 
ATOM     22  O   UNL A   1      31.865  21.221  22.252  1.00  0.00    -0.268 OA
BRANCH  21  23
ATOM     23  C   UNL A   1      32.690  19.855  23.934  1.00  0.00     0.040 A 
ATOM     24  C   UNL A   1      32.784  18.739  23.078  1.00  0.00     0.015 A 
ATOM     25  C   UNL A   1      32.625  19.643  25.313  1.00  0.00     0.015 A 
ATOM     26  C   UNL A   1      32.844  17.442  23.588  1.00  0.00     0.021 A 
ATOM     27  C   UNL A   1      32.717  18.340  25.826  1.00  0.00     0.021 A 
ATOM     28  C   UNL A   1      32.825  17.248  24.963  1.00  0.00     0.041 A 
ATOM     29  Cl  UNL A   1      32.914  15.654  25.601  1.00  0.00    -0.084 Cl
ENDBRANCH  21  23
ENDBRANCH  13  21
ENDBRANCH   5   7
ENDBRANCH   3   5
ENDBRANCH   2   3
ENDBRANCH   1   2
BRANCH   1  30
ATOM     30  C   UNL A   1      42.160  20.991  26.054  1.00  0.00     0.275 C 
BRANCH  30  31
ATOM     31  O   UNL A   1      41.906  22.242  25.394  1.00  0.00    -0.458 OA
BRANCH  31  32
ATOM     32  C   UNL A   1      42.877  23.174  25.477  1.00  0.00     0.338 C 
ATOM     33  O   UNL A   1      43.951  23.175  24.883  1.00  0.00    -0.246 OA
BRANCH  32  34
ATOM     34  C   UNL A   1      42.450  24.254  26.384  1.00  0.00     0.060 A 
ATOM     35  C   UNL A   1      42.934  25.549  26.207  1.00  0.00     0.016 A 
ATOM     36  C   UNL A   1      41.634  23.964  27.475  1.00  0.00     0.016 A 
ATOM     37  C   UNL A   1      42.687  26.534  27.159  1.00  0.00     0.010 A 
ATOM     38  C   UNL A   1      41.294  24.984  28.372  1.00  0.00     0.010 A 
ATOM     39  C   UNL A   1      41.843  26.273  28.244  1.00  0.00    -0.014 A 
BRANCH  39  40
ATOM     40  C   UNL A   1      41.538  27.328  29.251  1.00  0.00     0.031 A 
ATOM     41  C   UNL A   1      42.359  27.429  30.510  1.00  0.00     0.074 A 
ATOM     42  C   UNL A   1      40.502  28.173  29.063  1.00  0.00     0.049 A 
ATOM     43  N   UNL A   1      42.119  28.109  31.601  1.00  0.00    -0.248 NA
ATOM     44  C   UNL A   1      43.604  26.645  30.556  1.00  0.00     0.031 C 
ATOM     45  C   UNL A   1      39.630  28.198  27.888  1.00  0.00     0.029 A 
ATOM     46  N   UNL A   1      39.993  29.161  29.872  1.00  0.00    -0.354 N 
ATOM     47  C   UNL A   1      43.132  27.771  32.491  1.00  0.00     0.074 A 
ATOM     48  C   UNL A   1      44.000  26.836  31.807  1.00  0.00     0.031 C 
ATOM     49  C   UNL A   1      38.704  29.156  28.044  1.00  0.00     0.029 A 
ATOM     50  C   UNL A   1      38.862  29.757  29.363  1.00  0.00     0.049 A 
ATOM     51  H   UNL A   1      40.398  29.416  30.732  1.00  0.00     0.167 HD
ATOM     52  C   UNL A   1      43.325  28.204  33.760  1.00  0.00     0.034 A 
ATOM     53  C   UNL A   1      38.016  30.654  29.908  1.00  0.00     0.034 A 
ATOM     54  C   UNL A   1      42.511  29.199  34.405  1.00  0.00     0.049 A 
ATOM     55  C   UNL A   1      38.274  31.147  31.303  1.00  0.00     0.074 A 
ATOM     56  C   UNL A   1      42.649  29.732  35.675  1.00  0.00     0.029 A 
ATOM     57  N   UNL A   1      41.422  29.829  33.824  1.00  0.00    -0.354 N 
ATOM     58  N   UNL A   1      39.251  30.837  32.118  1.00  0.00    -0.248 NA
ATOM     59  C   UNL A   1      37.318  32.121  31.851  1.00  0.00     0.031 C 
ATOM     60  C   UNL A   1      41.643  30.688  35.859  1.00  0.00     0.029 A 
ATOM     61  C   UNL A   1      40.883  30.752  34.702  1.00  0.00     0.049 A 
ATOM     62  H   UNL A   1      41.081  29.646  32.918  1.00  0.00     0.167 HD
ATOM     63  C   UNL A   1      39.039  31.584  33.270  1.00  0.00     0.074 A 
ATOM     64  C   UNL A   1      37.857  32.388  33.034  1.00  0.00     0.031 C 
ATOM     65  C   UNL A   1      39.740  31.584  34.430  1.00  0.00     0.034 A 
BRANCH  52  66
ATOM     66  C   UNL A   1      44.486  27.630  34.528  1.00  0.00     0.023 A 
ATOM     67  C   UNL A   1      45.728  28.293  34.513  1.00  0.00     0.012 A 
ATOM     68  C   UNL A   1      44.329  26.471  35.315  1.00  0.00     0.148 A 
ATOM     69  C   UNL A   1      46.806  27.797  35.247  1.00  0.00     0.002 A 
ATOM     70  C   UNL A   1      45.397  26.005  36.073  1.00  0.00     0.091 A 
ATOM     71  F   UNL A   1      43.148  25.838  35.296  1.00  0.00    -0.205 F 
ATOM     72  C   UNL A   1      46.638  26.662  36.035  1.00  0.00     0.022 A 
BRANCH  70  73
ATOM     73  S   UNL A   1      45.250  24.590  37.174  1.00  0.00     0.127 S 
ATOM     74  O   UNL A   1      44.959  23.511  36.232  1.00  0.00    -0.237 OA
ATOM     75  O   UNL A   1      46.581  24.527  37.780  1.00  0.00    -0.237 OA
ATOM     76  O   UNL A   1      44.180  24.922  38.104  1.00  0.00    -0.744 OA
ENDBRANCH  70  73
ENDBRANCH  52  66
BRANCH  53  77
ATOM     77  C   UNL A   1      36.854  31.146  29.114  1.00  0.00     0.023 A 
ATOM     78  C   UNL A   1      36.777  32.511  28.778  1.00  0.00     0.012 A 
ATOM     79  C   UNL A   1      35.866  30.265  28.632  1.00  0.00     0.148 A 
ATOM     80  C   UNL A   1      35.731  32.990  27.987  1.00  0.00     0.002 A 
ATOM     81  C   UNL A   1      34.864  30.738  27.793  1.00  0.00     0.091 A 
ATOM     82  F   UNL A   1      35.937  28.972  28.984  1.00  0.00    -0.205 F 
ATOM     83  C   UNL A   1      34.785  32.102  27.481  1.00  0.00     0.022 A 
BRANCH  81  84
ATOM     84  S   UNL A   1      33.712  29.624  26.978  1.00  0.00     0.127 S 
ATOM     85  O   UNL A   1      34.611  28.776  26.201  1.00  0.00    -0.237 OA
ATOM     86  O   UNL A   1      33.067  28.960  28.112  1.00  0.00    -0.237 OA
ATOM     87  O   UNL A   1      32.822  30.488  26.213  1.00  0.00    -0.744 OA
ENDBRANCH  81  84
ENDBRANCH  53  77
BRANCH  65  88
ATOM     88  C   UNL A   1      39.259  32.490  35.529  1.00  0.00     0.023 A 
ATOM     89  C   UNL A   1      38.306  32.013  36.450  1.00  0.00     0.012 A 
ATOM     90  C   UNL A   1      39.796  33.781  35.692  1.00  0.00     0.148 A 
ATOM     91  C   UNL A   1      37.876  32.818  37.503  1.00  0.00     0.002 A 
ATOM     92  C   UNL A   1      39.389  34.564  36.766  1.00  0.00     0.091 A 
ATOM     93  F   UNL A   1      40.684  34.225  34.791  1.00  0.00    -0.205 F 
ATOM     94  C   UNL A   1      38.425  34.087  37.668  1.00  0.00     0.022 A 
BRANCH  92  95
ATOM     95  S   UNL A   1      40.107  36.178  37.095  1.00  0.00     0.127 S 
ATOM     96  O   UNL A   1      41.496  35.832  37.388  1.00  0.00    -0.237 OA
ATOM     97  O   UNL A   1      39.908  36.877  35.824  1.00  0.00    -0.237 OA
ATOM     98  O   UNL A   1      39.345  36.729  38.207  1.00  0.00    -0.744 OA
ENDBRANCH  92  95
ENDBRANCH  65  88
ENDBRANCH  39  40
ENDBRANCH  32  34
ENDBRANCH  31  32
ENDBRANCH  30  31
ENDBRANCH   1  30
TORSDOF 17
ENDMDL
MODEL 3
REMARK VINA RESULT:     -13.1      5.229     10.204
REMARK SMILES C[C@H](C(=O)OCCOC(=O)c1ccc(-c2c3nc(c(-c4cccc(S(=O)(=O)[O-])c4F)c4ccc([nH]4)c(-c4cccc(S(=O)(=O)[O-])c4F)c4nc(c(-c5cccc(S(=O)(=O)[O-])c5F)c5ccc2[nH]5)C=C4)C=C3)cc1)c1ccc2c3cc(Cl)ccc3n(C(=O)c3ccc(Cl)cc3)c2c1
REMARK SMILES IDX 6 1 5 2 3 3 4 4 2 5 1 6 74 7 75 8 96 9 76 10 95 11 77 12
REMARK SMILES IDX 85 13 78 14 84 15 79 16 83 17 80 18 82 19 81 20 86 21 87 22
REMARK SMILES IDX 88 23 89 24 94 25 90 26 93 27 91 28 92 29 7 30 8 31 9 32
REMARK SMILES IDX 10 33 11 34 12 35 73 36 13 37 72 38 14 39 15 40 16 41 66 42
REMARK SMILES IDX 17 43 71 44 65 45 67 46 18 47 70 48 64 49 63 50 19 52 51 53
REMARK SMILES IDX 31 54 50 55 32 56 35 57 49 58 68 59 33 60 34 61 48 63 69 64
REMARK SMILES IDX 36 65 20 66 21 67 29 68 22 69 24 70 30 71 23 72 25 73 26 74
REMARK SMILES IDX 27 75 28 76 52 77 53 78 61 79 54 80 56 81 62 82 55 83 57 84
REMARK SMILES IDX 58 85 59 86 60 87 37 88 38 89 46 90 39 91 41 92 47 93 40 94
REMARK SMILES IDX 42 95 43 96 44 97 45 98
REMARK H PARENT 67 51 35 62
REMARK Flexibility Score: inf
ROOT
ATOM      1  C   UNL A   1      34.792  20.535  25.335  1.00  0.00     0.274 C 
ENDROOT
BRANCH   1   2
ATOM      2  O   UNL A   1      33.753  20.432  24.342  1.00  0.00    -0.462 OA
BRANCH   2   3
ATOM      3  C   UNL A   1      32.729  21.324  24.434  1.00  0.00     0.313 C 
ATOM      4  O   UNL A   1      31.745  21.170  25.150  1.00  0.00    -0.252 OA
BRANCH   3   5
ATOM      5  C   UNL A   1      32.885  22.520  23.502  1.00  0.00     0.126 C 
ATOM      6  C   UNL A   1      31.740  22.645  22.497  1.00  0.00     0.025 C 
BRANCH   5   7
ATOM      7  C   UNL A   1      33.130  23.862  24.169  1.00  0.00    -0.032 A 
ATOM      8  C   UNL A   1      34.228  24.121  24.996  1.00  0.00     0.005 A 
ATOM      9  C   UNL A   1      32.168  24.858  23.978  1.00  0.00     0.032 A 
ATOM     10  C   UNL A   1      34.402  25.381  25.588  1.00  0.00     0.011 A 
ATOM     11  C   UNL A   1      32.319  26.096  24.620  1.00  0.00     0.057 A 
ATOM     12  C   UNL A   1      33.437  26.392  25.385  1.00  0.00     0.008 A 
ATOM     13  N   UNL A   1      31.469  27.198  24.618  1.00  0.00    -0.276 N 
ATOM     14  C   UNL A   1      33.302  27.745  25.811  1.00  0.00     0.009 A 
ATOM     15  C   UNL A   1      32.070  28.228  25.342  1.00  0.00     0.057 A 
ATOM     16  C   UNL A   1      34.125  28.588  26.591  1.00  0.00     0.031 A 
ATOM     17  C   UNL A   1      31.612  29.511  25.701  1.00  0.00     0.029 A 
ATOM     18  C   UNL A   1      33.688  29.875  26.901  1.00  0.00     0.041 A 
ATOM     19  C   UNL A   1      32.447  30.328  26.472  1.00  0.00     0.023 A 
ATOM     20  Cl  UNL A   1      34.690  30.906  27.849  1.00  0.00    -0.084 Cl
BRANCH  13  21
ATOM     21  C   UNL A   1      30.185  27.157  24.026  1.00  0.00     0.262 C 
ATOM     22  O   UNL A   1      29.563  26.103  24.176  1.00  0.00    -0.268 OA
BRANCH  21  23
ATOM     23  C   UNL A   1      29.543  28.190  23.167  1.00  0.00     0.040 A 
ATOM     24  C   UNL A   1      30.401  28.998  22.395  1.00  0.00     0.015 A 
ATOM     25  C   UNL A   1      28.176  28.477  23.177  1.00  0.00     0.015 A 
ATOM     26  C   UNL A   1      29.904  30.050  21.625  1.00  0.00     0.021 A 
ATOM     27  C   UNL A   1      27.673  29.515  22.379  1.00  0.00     0.021 A 
ATOM     28  C   UNL A   1      28.537  30.295  21.609  1.00  0.00     0.041 A 
ATOM     29  Cl  UNL A   1      27.913  31.579  20.651  1.00  0.00    -0.084 Cl
ENDBRANCH  21  23
ENDBRANCH  13  21
ENDBRANCH   5   7
ENDBRANCH   3   5
ENDBRANCH   2   3
ENDBRANCH   1   2
BRANCH   1  30
ATOM     30  C   UNL A   1      36.071  21.064  24.692  1.00  0.00     0.275 C 
BRANCH  30  31
ATOM     31  O   UNL A   1      36.880  21.679  25.708  1.00  0.00    -0.458 OA
BRANCH  31  32
ATOM     32  C   UNL A   1      38.172  21.295  25.764  1.00  0.00     0.338 C 
ATOM     33  O   UNL A   1      38.619  20.175  25.532  1.00  0.00    -0.246 OA
BRANCH  32  34
ATOM     34  C   UNL A   1      39.017  22.447  26.122  1.00  0.00     0.060 A 
ATOM     35  C   UNL A   1      40.182  22.257  26.865  1.00  0.00     0.016 A 
ATOM     36  C   UNL A   1      38.606  23.738  25.799  1.00  0.00     0.016 A 
ATOM     37  C   UNL A   1      40.888  23.348  27.365  1.00  0.00     0.010 A 
ATOM     38  C   UNL A   1      39.379  24.831  26.208  1.00  0.00     0.010 A 
ATOM     39  C   UNL A   1      40.511  24.651  27.025  1.00  0.00    -0.014 A 
BRANCH  39  40
ATOM     40  C   UNL A   1      41.280  25.827  27.521  1.00  0.00     0.031 A 
ATOM     41  C   UNL A   1      40.605  26.860  28.385  1.00  0.00     0.074 A 
ATOM     42  C   UNL A   1      42.572  25.996  27.169  1.00  0.00     0.049 A 
ATOM     43  N   UNL A   1      41.018  28.054  28.722  1.00  0.00    -0.248 NA
ATOM     44  C   UNL A   1      39.279  26.512  28.923  1.00  0.00     0.031 C 
ATOM     45  C   UNL A   1      43.357  25.073  26.349  1.00  0.00     0.029 A 
ATOM     46  N   UNL A   1      43.447  27.021  27.439  1.00  0.00    -0.354 N 
ATOM     47  C   UNL A   1      39.974  28.631  29.436  1.00  0.00     0.074 A 
ATOM     48  C   UNL A   1      38.912  27.648  29.499  1.00  0.00     0.031 C 
ATOM     49  C   UNL A   1      44.595  25.562  26.192  1.00  0.00     0.029 A 
ATOM     50  C   UNL A   1      44.671  26.872  26.828  1.00  0.00     0.049 A 
ATOM     51  H   UNL A   1      43.221  27.787  28.015  1.00  0.00     0.167 HD
ATOM     52  C   UNL A   1      39.908  29.863  29.995  1.00  0.00     0.034 A 
ATOM     53  C   UNL A   1      45.723  27.710  26.744  1.00  0.00     0.034 A 
ATOM     54  C   UNL A   1      40.997  30.802  30.007  1.00  0.00     0.049 A 
ATOM     55  C   UNL A   1      45.639  29.057  27.405  1.00  0.00     0.074 A 
ATOM     56  C   UNL A   1      41.042  32.061  30.581  1.00  0.00     0.029 A 
ATOM     57  N   UNL A   1      42.242  30.578  29.439  1.00  0.00    -0.354 N 
ATOM     58  N   UNL A   1      44.656  29.573  28.099  1.00  0.00    -0.248 NA
ATOM     59  C   UNL A   1      46.813  29.933  27.279  1.00  0.00     0.031 C 
ATOM     60  C   UNL A   1      42.316  32.596  30.362  1.00  0.00     0.029 A 
ATOM     61  C   UNL A   1      43.066  31.669  29.656  1.00  0.00     0.049 A 
ATOM     62  H   UNL A   1      42.502  29.762  28.953  1.00  0.00     0.167 HD
ATOM     63  C   UNL A   1      45.093  30.827  28.504  1.00  0.00     0.074 A 
ATOM     64  C   UNL A   1      46.445  30.980  28.006  1.00  0.00     0.031 C 
ATOM     65  C   UNL A   1      44.427  31.780  29.201  1.00  0.00     0.034 A 
BRANCH  52  66
ATOM     66  C   UNL A   1      38.624  30.257  30.675  1.00  0.00     0.023 A 
ATOM     67  C   UNL A   1      38.202  29.563  31.826  1.00  0.00     0.012 A 
ATOM     68  C   UNL A   1      37.869  31.354  30.213  1.00  0.00     0.148 A 
ATOM     69  C   UNL A   1      37.034  29.936  32.491  1.00  0.00     0.002 A 
ATOM     70  C   UNL A   1      36.727  31.744  30.904  1.00  0.00     0.091 A 
ATOM     71  F   UNL A   1      38.271  31.986  29.101  1.00  0.00    -0.205 F 
ATOM     72  C   UNL A   1      36.303  31.032  32.038  1.00  0.00     0.022 A 
BRANCH  70  73
ATOM     73  S   UNL A   1      35.764  33.188  30.433  1.00  0.00     0.127 S 
ATOM     74  O   UNL A   1      34.399  32.729  30.685  1.00  0.00    -0.237 OA
ATOM     75  O   UNL A   1      36.247  34.204  31.370  1.00  0.00    -0.237 OA
ATOM     76  O   UNL A   1      36.096  33.448  29.040  1.00  0.00    -0.744 OA
ENDBRANCH  70  73
ENDBRANCH  52  66
BRANCH  53  77
ATOM     77  C   UNL A   1      46.950  27.281  26.012  1.00  0.00     0.023 A 
ATOM     78  C   UNL A   1      47.857  26.407  26.639  1.00  0.00     0.012 A 
ATOM     79  C   UNL A   1      47.187  27.675  24.680  1.00  0.00     0.148 A 
ATOM     80  C   UNL A   1      48.983  25.942  25.958  1.00  0.00     0.002 A 
ATOM     81  C   UNL A   1      48.276  27.159  23.988  1.00  0.00     0.091 A 
ATOM     82  F   UNL A   1      46.329  28.531  24.105  1.00  0.00    -0.205 F 
ATOM     83  C   UNL A   1      49.184  26.304  24.628  1.00  0.00     0.022 A 
BRANCH  81  84
ATOM     84  S   UNL A   1      48.502  27.455  22.229  1.00  0.00     0.127 S 
ATOM     85  O   UNL A   1      47.286  28.187  21.887  1.00  0.00    -0.237 OA
ATOM     86  O   UNL A   1      49.729  28.254  22.204  1.00  0.00    -0.237 OA
ATOM     87  O   UNL A   1      48.645  26.132  21.634  1.00  0.00    -0.744 OA
ENDBRANCH  81  84
ENDBRANCH  53  77
BRANCH  65  88
ATOM     88  C   UNL A   1      45.152  33.068  29.480  1.00  0.00     0.023 A 
ATOM     89  C   UNL A   1      45.908  33.191  30.661  1.00  0.00     0.012 A 
ATOM     90  C   UNL A   1      45.143  34.122  28.547  1.00  0.00     0.148 A 
ATOM     91  C   UNL A   1      46.625  34.358  30.923  1.00  0.00     0.002 A 
ATOM     92  C   UNL A   1      45.889  35.268  28.798  1.00  0.00     0.091 A 
ATOM     93  F   UNL A   1      44.397  33.994  27.440  1.00  0.00    -0.205 F 
ATOM     94  C   UNL A   1      46.625  35.391  29.988  1.00  0.00     0.022 A 
BRANCH  92  95
ATOM     95  S   UNL A   1      46.006  36.609  27.608  1.00  0.00     0.127 S 
ATOM     96  O   UNL A   1      46.911  37.533  28.288  1.00  0.00    -0.237 OA
ATOM     97  O   UNL A   1      46.581  35.944  26.437  1.00  0.00    -0.237 OA
ATOM     98  O   UNL A   1      44.643  37.085  27.416  1.00  0.00    -0.744 OA
ENDBRANCH  92  95
ENDBRANCH  65  88
ENDBRANCH  39  40
ENDBRANCH  32  34
ENDBRANCH  31  32
ENDBRANCH  30  31
ENDBRANCH   1  30
TORSDOF 17
ENDMDL
