MODEL 1
REMARK VINA RESULT:     -12.1      0.000      0.000
REMARK SMILES CCn1ncc(NC(=O)[C@@H]2CCCC[C@@H]2C(=O)OCCOC(=O)c2ccc(-c3c4nc(c(-c5cccc(S(=O)(=O)[O-])c5F)c5ccc([nH]5)c(-c5cccc(S(=O)(=O)[O-])c5F)c5nc(c(-c6cccc(S(=O)(=O)[O-])c6F)c6ccc3[nH]6)C=C5)C=C4)cc2)c1C(=O)Nc1cnn(C)c1C
REMARK SMILES IDX 19 1 18 2 16 3 17 4 15 5 10 6 11 7 12 8 14 9 13 10 8 11 7 12
REMARK SMILES IDX 9 14 6 15 3 16 4 17 87 18 5 19 2 20 1 21 88 22 89 23 90 24
REMARK SMILES IDX 91 26 92 27 96 28 93 29 94 30 97 31 95 32 20 33 21 34 22 35
REMARK SMILES IDX 23 36 24 37 25 38 86 39 26 40 85 41 27 42 28 43 29 44 79 45
REMARK SMILES IDX 30 46 84 47 78 48 80 49 31 50 83 51 77 52 76 53 32 55 64 56
REMARK SMILES IDX 44 57 63 58 45 59 48 60 62 61 81 62 46 63 47 64 61 66 82 67
REMARK SMILES IDX 49 68 33 69 34 70 42 71 35 72 37 73 43 74 36 75 38 76 39 77
REMARK SMILES IDX 40 78 41 79 65 80 66 81 74 82 67 83 69 84 75 85 68 86 70 87
REMARK SMILES IDX 71 88 72 89 73 90 50 91 51 92 59 93 52 94 54 95 60 96 53 97
REMARK SMILES IDX 55 98 56 99 57 100 58 101
REMARK H PARENT 7 13 90 25 80 54 48 65
REMARK Flexibility Score: inf
ROOT
ATOM      1  C   UNL A   1      31.723  30.379  25.517  1.00  0.00     0.274 C 
ENDROOT
BRANCH   1   2
ATOM      2  O   UNL A   1      31.400  28.974  25.460  1.00  0.00    -0.462 OA
BRANCH   2   3
ATOM      3  C   UNL A   1      30.789  28.528  24.318  1.00  0.00     0.309 C 
ATOM      4  O   UNL A   1      30.015  29.202  23.650  1.00  0.00    -0.252 OA
BRANCH   3   5
ATOM      5  C   UNL A   1      31.108  27.044  24.078  1.00  0.00     0.111 C 
ATOM      6  C   UNL A   1      32.191  26.413  25.001  1.00  0.00     0.093 C 
ATOM      7  C   UNL A   1      33.463  27.267  25.003  1.00  0.00     0.014 C 
ATOM      8  C   UNL A   1      33.965  27.575  23.584  1.00  0.00     0.001 C 
ATOM      9  C   UNL A   1      31.645  26.916  22.649  1.00  0.00     0.016 C 
ATOM     10  C   UNL A   1      32.921  27.741  22.474  1.00  0.00     0.001 C 
BRANCH   6  11
ATOM     11  C   UNL A   1      31.623  25.987  26.354  1.00  0.00     0.228 C 
ATOM     12  N   UNL A   1      31.770  24.728  26.854  1.00  0.00    -0.322 N 
ATOM     13  H   UNL A   1      31.795  24.688  27.837  1.00  0.00     0.170 HD
ATOM     14  O   UNL A   1      30.969  26.784  27.029  1.00  0.00    -0.274 OA
BRANCH  12  15
ATOM     15  C   UNL A   1      31.890  23.497  26.239  1.00  0.00     0.092 A 
ATOM     16  N   UNL A   1      32.476  21.687  25.138  1.00  0.00    -0.258 N 
ATOM     17  N   UNL A   1      31.184  21.473  25.432  1.00  0.00    -0.178 NA
ATOM     18  C   UNL A   1      32.957  22.904  25.587  1.00  0.00     0.150 A 
ATOM     19  C   UNL A   1      30.813  22.598  26.042  1.00  0.00     0.162 A 
BRANCH  16  20
ATOM     20  C   UNL A   1      33.173  20.671  24.366  1.00  0.00     0.142 C 
ATOM     21  C   UNL A   1      33.044  19.276  24.950  1.00  0.00     0.029 C 
ENDBRANCH  16  20
BRANCH  18  22
ATOM     22  C   UNL A   1      34.246  23.411  25.188  1.00  0.00     0.276 C 
ATOM     23  O   UNL A   1      34.439  24.021  24.144  1.00  0.00    -0.267 OA
ATOM     24  N   UNL A   1      35.249  23.019  26.051  1.00  0.00    -0.318 N 
ATOM     25  H   UNL A   1      35.170  23.217  27.011  1.00  0.00     0.170 HD
BRANCH  24  26
ATOM     26  C   UNL A   1      36.361  22.349  25.580  1.00  0.00     0.082 A 
ATOM     27  C   UNL A   1      36.489  21.044  25.061  1.00  0.00     0.161 A 
ATOM     28  C   UNL A   1      37.653  22.798  25.757  1.00  0.00     0.059 A 
ATOM     29  N   UNL A   1      37.754  20.619  25.110  1.00  0.00    -0.179 NA
ATOM     30  N   UNL A   1      38.420  21.664  25.637  1.00  0.00    -0.271 N 
ATOM     31  C   UNL A   1      38.201  24.114  26.164  1.00  0.00     0.068 C 
ATOM     32  C   UNL A   1      39.698  21.424  26.268  1.00  0.00     0.174 C 
ENDBRANCH  24  26
ENDBRANCH  18  22
ENDBRANCH  12  15
ENDBRANCH   6  11
ENDBRANCH   3   5
ENDBRANCH   2   3
ENDBRANCH   1   2
BRANCH   1  33
ATOM     33  C   UNL A   1      31.748  30.947  26.934  1.00  0.00     0.275 C 
BRANCH  33  34
ATOM     34  O   UNL A   1      33.021  31.495  27.270  1.00  0.00    -0.458 OA
BRANCH  34  35
ATOM     35  C   UNL A   1      32.938  32.775  27.688  1.00  0.00     0.338 C 
ATOM     36  O   UNL A   1      32.076  33.588  27.390  1.00  0.00    -0.246 OA
BRANCH  35  37
ATOM     37  C   UNL A   1      34.122  33.152  28.451  1.00  0.00     0.060 A 
ATOM     38  C   UNL A   1      35.238  33.530  27.704  1.00  0.00     0.016 A 
ATOM     39  C   UNL A   1      34.223  32.750  29.781  1.00  0.00     0.016 A 
ATOM     40  C   UNL A   1      36.492  33.273  28.190  1.00  0.00     0.010 A 
ATOM     41  C   UNL A   1      35.483  32.528  30.289  1.00  0.00     0.010 A 
ATOM     42  C   UNL A   1      36.592  32.681  29.445  1.00  0.00    -0.014 A 
BRANCH  42  43
ATOM     43  C   UNL A   1      37.910  32.246  29.874  1.00  0.00     0.031 A 
ATOM     44  C   UNL A   1      38.188  30.801  29.656  1.00  0.00     0.074 A 
ATOM     45  C   UNL A   1      38.813  33.172  30.255  1.00  0.00     0.049 A 
ATOM     46  N   UNL A   1      38.809  29.968  30.429  1.00  0.00    -0.248 NA
ATOM     47  C   UNL A   1      37.599  30.179  28.453  1.00  0.00     0.031 C 
ATOM     48  C   UNL A   1      38.617  34.630  30.275  1.00  0.00     0.029 A 
ATOM     49  N   UNL A   1      40.154  33.036  30.460  1.00  0.00    -0.354 N 
ATOM     50  C   UNL A   1      38.885  28.784  29.696  1.00  0.00     0.074 A 
ATOM     51  C   UNL A   1      37.986  28.914  28.583  1.00  0.00     0.031 C 
ATOM     52  C   UNL A   1      39.815  35.228  30.133  1.00  0.00     0.029 A 
ATOM     53  C   UNL A   1      40.842  34.202  30.126  1.00  0.00     0.049 A 
ATOM     54  H   UNL A   1      40.582  32.217  30.801  1.00  0.00     0.167 HD
ATOM     55  C   UNL A   1      39.882  27.882  29.888  1.00  0.00     0.034 A 
ATOM     56  C   UNL A   1      42.127  34.297  29.714  1.00  0.00     0.034 A 
ATOM     57  C   UNL A   1      40.473  27.982  31.191  1.00  0.00     0.049 A 
ATOM     58  C   UNL A   1      42.815  33.039  30.080  1.00  0.00     0.074 A 
ATOM     59  C   UNL A   1      39.998  27.894  32.484  1.00  0.00     0.029 A 
ATOM     60  N   UNL A   1      41.726  28.532  31.284  1.00  0.00    -0.354 N 
ATOM     61  N   UNL A   1      43.063  32.673  31.306  1.00  0.00    -0.248 NA
ATOM     62  C   UNL A   1      42.892  31.981  29.084  1.00  0.00     0.031 C 
ATOM     63  C   UNL A   1      40.793  28.805  33.235  1.00  0.00     0.029 A 
ATOM     64  C   UNL A   1      41.718  29.379  32.360  1.00  0.00     0.049 A 
ATOM     65  H   UNL A   1      42.490  28.352  30.688  1.00  0.00     0.167 HD
ATOM     66  C   UNL A   1      42.891  31.295  31.299  1.00  0.00     0.074 A 
ATOM     67  C   UNL A   1      42.926  30.916  29.890  1.00  0.00     0.031 C 
ATOM     68  C   UNL A   1      42.437  30.634  32.407  1.00  0.00     0.034 A 
BRANCH  55  69
ATOM     69  C   UNL A   1      40.548  27.150  28.751  1.00  0.00     0.023 A 
ATOM     70  C   UNL A   1      40.558  25.741  28.789  1.00  0.00     0.012 A 
ATOM     71  C   UNL A   1      41.390  27.774  27.798  1.00  0.00     0.148 A 
ATOM     72  C   UNL A   1      41.387  24.994  27.946  1.00  0.00     0.002 A 
ATOM     73  C   UNL A   1      42.142  27.025  26.902  1.00  0.00     0.091 A 
ATOM     74  F   UNL A   1      41.586  29.096  27.834  1.00  0.00    -0.205 F 
ATOM     75  C   UNL A   1      42.169  25.635  26.990  1.00  0.00     0.022 A 
BRANCH  73  76
ATOM     76  S   UNL A   1      43.098  27.835  25.615  1.00  0.00     0.127 S 
ATOM     77  O   UNL A   1      43.794  26.704  25.010  1.00  0.00    -0.237 OA
ATOM     78  O   UNL A   1      42.053  28.436  24.786  1.00  0.00    -0.237 OA
ATOM     79  O   UNL A   1      43.922  28.808  26.322  1.00  0.00    -0.744 OA
ENDBRANCH  73  76
ENDBRANCH  55  69
BRANCH  56  80
ATOM     80  C   UNL A   1      42.723  35.296  28.797  1.00  0.00     0.023 A 
ATOM     81  C   UNL A   1      42.435  35.232  27.422  1.00  0.00     0.012 A 
ATOM     82  C   UNL A   1      43.415  36.432  29.280  1.00  0.00     0.148 A 
ATOM     83  C   UNL A   1      42.819  36.263  26.557  1.00  0.00     0.002 A 
ATOM     84  C   UNL A   1      43.825  37.439  28.412  1.00  0.00     0.091 A 
ATOM     85  F   UNL A   1      43.594  36.575  30.601  1.00  0.00    -0.205 F 
ATOM     86  C   UNL A   1      43.519  37.362  27.049  1.00  0.00     0.022 A 
BRANCH  84  87
ATOM     87  S   UNL A   1      44.760  38.865  28.986  1.00  0.00     0.127 S 
ATOM     88  O   UNL A   1      46.003  38.251  29.458  1.00  0.00    -0.237 OA
ATOM     89  O   UNL A   1      44.895  39.654  27.765  1.00  0.00    -0.237 OA
ATOM     90  O   UNL A   1      43.954  39.459  30.045  1.00  0.00    -0.744 OA
ENDBRANCH  84  87
ENDBRANCH  56  80
BRANCH  68  91
ATOM     91  C   UNL A   1      42.363  31.388  33.713  1.00  0.00     0.023 A 
ATOM     92  C   UNL A   1      43.481  31.497  34.566  1.00  0.00     0.012 A 
ATOM     93  C   UNL A   1      41.225  32.165  33.991  1.00  0.00     0.148 A 
ATOM     94  C   UNL A   1      43.458  32.334  35.683  1.00  0.00     0.002 A 
ATOM     95  C   UNL A   1      41.222  33.034  35.077  1.00  0.00     0.091 A 
ATOM     96  F   UNL A   1      40.169  32.065  33.168  1.00  0.00    -0.205 F 
ATOM     97  C   UNL A   1      42.334  33.115  35.931  1.00  0.00     0.022 A 
BRANCH  95  98
ATOM     98  S   UNL A   1      39.859  34.167  35.365  1.00  0.00     0.127 S 
ATOM     99  O   UNL A   1      39.827  34.932  34.121  1.00  0.00    -0.237 OA
ATOM    100  O   UNL A   1      38.723  33.260  35.554  1.00  0.00    -0.237 OA
ATOM    101  O   UNL A   1      40.217  34.918  36.562  1.00  0.00    -0.744 OA
ENDBRANCH  95  98
ENDBRANCH  68  91
ENDBRANCH  42  43
ENDBRANCH  35  37
ENDBRANCH  34  35
ENDBRANCH  33  34
ENDBRANCH   1  33
TORSDOF 19
ENDMDL
MODEL 2
REMARK VINA RESULT:     -11.7      4.619      9.791
REMARK SMILES CCn1ncc(NC(=O)[C@@H]2CCCC[C@@H]2C(=O)OCCOC(=O)c2ccc(-c3c4nc(c(-c5cccc(S(=O)(=O)[O-])c5F)c5ccc([nH]5)c(-c5cccc(S(=O)(=O)[O-])c5F)c5nc(c(-c6cccc(S(=O)(=O)[O-])c6F)c6ccc3[nH]6)C=C5)C=C4)cc2)c1C(=O)Nc1cnn(C)c1C
REMARK SMILES IDX 19 1 18 2 16 3 17 4 15 5 10 6 11 7 12 8 14 9 13 10 8 11 7 12
REMARK SMILES IDX 9 14 6 15 3 16 4 17 87 18 5 19 2 20 1 21 88 22 89 23 90 24
REMARK SMILES IDX 91 26 92 27 96 28 93 29 94 30 97 31 95 32 20 33 21 34 22 35
REMARK SMILES IDX 23 36 24 37 25 38 86 39 26 40 85 41 27 42 28 43 29 44 79 45
REMARK SMILES IDX 30 46 84 47 78 48 80 49 31 50 83 51 77 52 76 53 32 55 64 56
REMARK SMILES IDX 44 57 63 58 45 59 48 60 62 61 81 62 46 63 47 64 61 66 82 67
REMARK SMILES IDX 49 68 33 69 34 70 42 71 35 72 37 73 43 74 36 75 38 76 39 77
REMARK SMILES IDX 40 78 41 79 65 80 66 81 74 82 67 83 69 84 75 85 68 86 70 87
REMARK SMILES IDX 71 88 72 89 73 90 50 91 51 92 59 93 52 94 54 95 60 96 53 97
REMARK SMILES IDX 55 98 56 99 57 100 58 101
REMARK H PARENT 7 13 90 25 80 54 48 65
REMARK Flexibility Score: inf
ROOT
ATOM      1  C   UNL A   1      37.032  22.553  26.032  1.00  0.00     0.274 C 
ENDROOT
BRANCH   1   2
ATOM      2  O   UNL A   1      35.888  22.949  25.247  1.00  0.00    -0.462 OA
BRANCH   2   3
ATOM      3  C   UNL A   1      34.670  22.923  25.874  1.00  0.00     0.309 C 
ATOM      4  O   UNL A   1      34.434  22.261  26.876  1.00  0.00    -0.252 OA
BRANCH   3   5
ATOM      5  C   UNL A   1      33.633  23.727  25.075  1.00  0.00     0.111 C 
ATOM      6  C   UNL A   1      32.137  23.409  25.370  1.00  0.00     0.093 C 
ATOM      7  C   UNL A   1      31.876  21.903  25.272  1.00  0.00     0.014 C 
ATOM      8  C   UNL A   1      32.386  21.302  23.953  1.00  0.00     0.001 C 
ATOM      9  C   UNL A   1      33.848  23.406  23.593  1.00  0.00     0.016 C 
ATOM     10  C   UNL A   1      33.644  21.914  23.327  1.00  0.00     0.001 C 
BRANCH   6  11
ATOM     11  C   UNL A   1      31.624  24.138  26.610  1.00  0.00     0.228 C 
ATOM     12  N   UNL A   1      31.495  25.493  26.671  1.00  0.00    -0.322 N 
ATOM     13  H   UNL A   1      30.774  25.800  27.267  1.00  0.00     0.170 HD
ATOM     14  O   UNL A   1      31.339  23.503  27.627  1.00  0.00    -0.274 OA
BRANCH  12  15
ATOM     15  C   UNL A   1      32.188  26.516  26.054  1.00  0.00     0.092 A 
ATOM     16  N   UNL A   1      33.009  28.077  24.741  1.00  0.00    -0.258 N 
ATOM     17  N   UNL A   1      33.892  28.016  25.751  1.00  0.00    -0.178 NA
ATOM     18  C   UNL A   1      31.961  27.180  24.861  1.00  0.00     0.150 A 
ATOM     19  C   UNL A   1      33.428  27.026  26.511  1.00  0.00     0.162 A 
BRANCH  16  20
ATOM     20  C   UNL A   1      33.279  29.010  23.659  1.00  0.00     0.142 C 
ATOM     21  C   UNL A   1      34.093  28.404  22.531  1.00  0.00     0.029 C 
ENDBRANCH  16  20
BRANCH  18  22
ATOM     22  C   UNL A   1      31.034  26.941  23.784  1.00  0.00     0.276 C 
ATOM     23  O   UNL A   1      31.281  26.218  22.828  1.00  0.00    -0.267 OA
ATOM     24  N   UNL A   1      29.898  27.716  23.894  1.00  0.00    -0.318 N 
ATOM     25  H   UNL A   1      29.364  27.683  24.720  1.00  0.00     0.170 HD
BRANCH  24  26
ATOM     26  C   UNL A   1      29.505  28.541  22.859  1.00  0.00     0.082 A 
ATOM     27  C   UNL A   1      30.274  29.219  21.890  1.00  0.00     0.161 A 
ATOM     28  C   UNL A   1      28.228  29.045  22.728  1.00  0.00     0.059 A 
ATOM     29  N   UNL A   1      29.590  30.226  21.340  1.00  0.00    -0.179 NA
ATOM     30  N   UNL A   1      28.389  30.164  21.946  1.00  0.00    -0.271 N 
ATOM     31  C   UNL A   1      26.944  28.677  23.370  1.00  0.00     0.068 C 
ATOM     32  C   UNL A   1      27.558  31.346  21.962  1.00  0.00     0.174 C 
ENDBRANCH  24  26
ENDBRANCH  18  22
ENDBRANCH  12  15
ENDBRANCH   6  11
ENDBRANCH   3   5
ENDBRANCH   2   3
ENDBRANCH   1   2
BRANCH   1  33
ATOM     33  C   UNL A   1      37.588  21.181  25.659  1.00  0.00     0.275 C 
BRANCH  33  34
ATOM     34  O   UNL A   1      38.894  21.268  25.093  1.00  0.00    -0.458 OA
BRANCH  34  35
ATOM     35  C   UNL A   1      39.746  20.363  25.619  1.00  0.00     0.338 C 
ATOM     36  O   UNL A   1      39.603  19.149  25.641  1.00  0.00    -0.246 OA
BRANCH  35  37
ATOM     37  C   UNL A   1      40.838  21.022  26.325  1.00  0.00     0.060 A 
ATOM     38  C   UNL A   1      40.687  21.149  27.706  1.00  0.00     0.016 A 
ATOM     39  C   UNL A   1      41.728  21.813  25.601  1.00  0.00     0.016 A 
ATOM     40  C   UNL A   1      41.231  22.231  28.346  1.00  0.00     0.010 A 
ATOM     41  C   UNL A   1      42.310  22.879  26.250  1.00  0.00     0.010 A 
ATOM     42  C   UNL A   1      41.957  23.138  27.582  1.00  0.00    -0.014 A 
BRANCH  42  43
ATOM     43  C   UNL A   1      42.374  24.370  28.228  1.00  0.00     0.031 A 
ATOM     44  C   UNL A   1      41.443  25.515  28.039  1.00  0.00     0.074 A 
ATOM     45  C   UNL A   1      43.431  24.346  29.065  1.00  0.00     0.049 A 
ATOM     46  N   UNL A   1      41.722  26.761  27.822  1.00  0.00    -0.248 NA
ATOM     47  C   UNL A   1      40.001  25.205  27.981  1.00  0.00     0.031 C 
ATOM     48  C   UNL A   1      44.236  23.169  29.424  1.00  0.00     0.029 A 
ATOM     49  N   UNL A   1      43.851  25.293  29.951  1.00  0.00    -0.354 N 
ATOM     50  C   UNL A   1      40.490  27.415  27.836  1.00  0.00     0.074 A 
ATOM     51  C   UNL A   1      39.472  26.405  27.761  1.00  0.00     0.031 C 
ATOM     52  C   UNL A   1      44.772  23.369  30.643  1.00  0.00     0.029 A 
ATOM     53  C   UNL A   1      44.436  24.713  31.076  1.00  0.00     0.049 A 
ATOM     54  H   UNL A   1      43.754  26.264  29.814  1.00  0.00     0.167 HD
ATOM     55  C   UNL A   1      40.373  28.721  28.188  1.00  0.00     0.034 A 
ATOM     56  C   UNL A   1      44.495  25.238  32.322  1.00  0.00     0.034 A 
ATOM     57  C   UNL A   1      41.593  29.453  28.009  1.00  0.00     0.049 A 
ATOM     58  C   UNL A   1      44.230  26.689  32.217  1.00  0.00     0.074 A 
ATOM     59  C   UNL A   1      42.428  29.704  26.939  1.00  0.00     0.029 A 
ATOM     60  N   UNL A   1      42.299  29.804  29.131  1.00  0.00    -0.354 N 
ATOM     61  N   UNL A   1      45.036  27.538  31.643  1.00  0.00    -0.248 NA
ATOM     62  C   UNL A   1      42.866  27.157  32.412  1.00  0.00     0.031 C 
ATOM     63  C   UNL A   1      43.738  29.760  27.494  1.00  0.00     0.029 A 
ATOM     64  C   UNL A   1      43.621  29.560  28.872  1.00  0.00     0.049 A 
ATOM     65  H   UNL A   1      41.925  30.164  29.968  1.00  0.00     0.167 HD
ATOM     66  C   UNL A   1      44.194  28.450  31.019  1.00  0.00     0.074 A 
ATOM     67  C   UNL A   1      42.889  28.246  31.640  1.00  0.00     0.031 C 
ATOM     68  C   UNL A   1      44.561  29.069  29.856  1.00  0.00     0.034 A 
BRANCH  55  69
ATOM     69  C   UNL A   1      39.236  29.238  29.032  1.00  0.00     0.023 A 
ATOM     70  C   UNL A   1      39.095  28.724  30.337  1.00  0.00     0.012 A 
ATOM     71  C   UNL A   1      38.154  29.994  28.518  1.00  0.00     0.148 A 
ATOM     72  C   UNL A   1      37.925  28.923  31.078  1.00  0.00     0.002 A 
ATOM     73  C   UNL A   1      37.033  30.265  29.292  1.00  0.00     0.091 A 
ATOM     74  F   UNL A   1      38.128  30.344  27.227  1.00  0.00    -0.205 F 
ATOM     75  C   UNL A   1      36.898  29.708  30.562  1.00  0.00     0.022 A 
BRANCH  73  76
ATOM     76  S   UNL A   1      35.733  31.337  28.670  1.00  0.00     0.127 S 
ATOM     77  O   UNL A   1      34.962  31.599  29.880  1.00  0.00    -0.237 OA
ATOM     78  O   UNL A   1      36.492  32.479  28.159  1.00  0.00    -0.237 OA
ATOM     79  O   UNL A   1      35.074  30.555  27.630  1.00  0.00    -0.744 OA
ENDBRANCH  73  76
ENDBRANCH  55  69
BRANCH  56  80
ATOM     80  C   UNL A   1      44.507  24.520  33.618  1.00  0.00     0.023 A 
ATOM     81  C   UNL A   1      44.037  23.196  33.680  1.00  0.00     0.012 A 
ATOM     82  C   UNL A   1      45.158  25.049  34.757  1.00  0.00     0.148 A 
ATOM     83  C   UNL A   1      44.210  22.424  34.835  1.00  0.00     0.002 A 
ATOM     84  C   UNL A   1      45.298  24.290  35.915  1.00  0.00     0.091 A 
ATOM     85  F   UNL A   1      45.722  26.263  34.682  1.00  0.00    -0.205 F 
ATOM     86  C   UNL A   1      44.833  22.972  35.954  1.00  0.00     0.022 A 
BRANCH  84  87
ATOM     87  S   UNL A   1      46.065  24.956  37.400  1.00  0.00     0.127 S 
ATOM     88  O   UNL A   1      45.204  26.101  37.706  1.00  0.00    -0.237 OA
ATOM     89  O   UNL A   1      45.948  23.839  38.333  1.00  0.00    -0.237 OA
ATOM     90  O   UNL A   1      47.420  25.323  37.009  1.00  0.00    -0.744 OA
ENDBRANCH  84  87
ENDBRANCH  56  80
BRANCH  68  91
ATOM     91  C   UNL A   1      45.993  28.937  29.393  1.00  0.00     0.023 A 
ATOM     92  C   UNL A   1      47.004  29.796  29.871  1.00  0.00     0.012 A 
ATOM     93  C   UNL A   1      46.364  27.817  28.631  1.00  0.00     0.148 A 
ATOM     94  C   UNL A   1      48.348  29.564  29.573  1.00  0.00     0.002 A 
ATOM     95  C   UNL A   1      47.708  27.561  28.376  1.00  0.00     0.091 A 
ATOM     96  F   UNL A   1      45.397  26.996  28.189  1.00  0.00    -0.205 F 
ATOM     97  C   UNL A   1      48.702  28.438  28.838  1.00  0.00     0.022 A 
BRANCH  95  98
ATOM     98  S   UNL A   1      48.234  26.052  27.557  1.00  0.00     0.127 S 
ATOM     99  O   UNL A   1      49.687  26.125  27.681  1.00  0.00    -0.237 OA
ATOM    100  O   UNL A   1      47.603  25.008  28.370  1.00  0.00    -0.237 OA
ATOM    101  O   UNL A   1      47.709  26.138  26.199  1.00  0.00    -0.744 OA
ENDBRANCH  95  98
ENDBRANCH  68  91
ENDBRANCH  42  43
ENDBRANCH  35  37
ENDBRANCH  34  35
ENDBRANCH  33  34
ENDBRANCH   1  33
TORSDOF 19
ENDMDL
MODEL 3
REMARK VINA RESULT:     -11.6      1.284      2.660
REMARK SMILES CCn1ncc(NC(=O)[C@@H]2CCCC[C@@H]2C(=O)OCCOC(=O)c2ccc(-c3c4nc(c(-c5cccc(S(=O)(=O)[O-])c5F)c5ccc([nH]5)c(-c5cccc(S(=O)(=O)[O-])c5F)c5nc(c(-c6cccc(S(=O)(=O)[O-])c6F)c6ccc3[nH]6)C=C5)C=C4)cc2)c1C(=O)Nc1cnn(C)c1C
REMARK SMILES IDX 19 1 18 2 16 3 17 4 15 5 10 6 11 7 12 8 14 9 13 10 8 11 7 12
REMARK SMILES IDX 9 14 6 15 3 16 4 17 87 18 5 19 2 20 1 21 88 22 89 23 90 24
REMARK SMILES IDX 91 26 92 27 96 28 93 29 94 30 97 31 95 32 20 33 21 34 22 35
REMARK SMILES IDX 23 36 24 37 25 38 86 39 26 40 85 41 27 42 28 43 29 44 79 45
REMARK SMILES IDX 30 46 84 47 78 48 80 49 31 50 83 51 77 52 76 53 32 55 64 56
REMARK SMILES IDX 44 57 63 58 45 59 48 60 62 61 81 62 46 63 47 64 61 66 82 67
REMARK SMILES IDX 49 68 33 69 34 70 42 71 35 72 37 73 43 74 36 75 38 76 39 77
REMARK SMILES IDX 40 78 41 79 65 80 66 81 74 82 67 83 69 84 75 85 68 86 70 87
REMARK SMILES IDX 71 88 72 89 73 90 50 91 51 92 59 93 52 94 54 95 60 96 53 97
REMARK SMILES IDX 55 98 56 99 57 100 58 101
REMARK H PARENT 7 13 90 25 80 54 48 65
REMARK Flexibility Score: inf
ROOT
ATOM      1  C   UNL A   1      32.059  29.939  25.526  1.00  0.00     0.274 C 
ENDROOT
BRANCH   1   2
ATOM      2  O   UNL A   1      32.237  28.509  25.612  1.00  0.00    -0.462 OA
BRANCH   2   3
ATOM      3  C   UNL A   1      32.406  27.837  24.431  1.00  0.00     0.309 C 
ATOM      4  O   UNL A   1      32.346  28.367  23.329  1.00  0.00    -0.252 OA
BRANCH   3   5
ATOM      5  C   UNL A   1      32.547  26.328  24.683  1.00  0.00     0.111 C 
ATOM      6  C   UNL A   1      31.735  25.391  23.741  1.00  0.00     0.093 C 
ATOM      7  C   UNL A   1      30.264  25.817  23.694  1.00  0.00     0.014 C 
ATOM      8  C   UNL A   1      29.651  25.965  25.095  1.00  0.00     0.001 C 
ATOM      9  C   UNL A   1      32.034  26.050  26.099  1.00  0.00     0.016 C 
ATOM     10  C   UNL A   1      30.563  26.448  26.229  1.00  0.00     0.001 C 
BRANCH   6  11
ATOM     11  C   UNL A   1      32.445  25.151  22.410  1.00  0.00     0.228 C 
ATOM     12  N   UNL A   1      33.352  24.151  22.226  1.00  0.00    -0.322 N 
ATOM     13  H   UNL A   1      33.385  23.805  21.304  1.00  0.00     0.170 HD
ATOM     14  O   UNL A   1      32.234  25.899  21.453  1.00  0.00    -0.274 OA
BRANCH  12  15
ATOM     15  C   UNL A   1      34.234  23.533  23.090  1.00  0.00     0.092 A 
ATOM     16  N   UNL A   1      35.283  22.326  24.600  1.00  0.00    -0.258 N 
ATOM     17  N   UNL A   1      36.208  23.216  24.207  1.00  0.00    -0.178 NA
ATOM     18  C   UNL A   1      34.060  22.478  23.969  1.00  0.00     0.150 A 
ATOM     19  C   UNL A   1      35.552  23.986  23.341  1.00  0.00     0.162 A 
BRANCH  16  20
ATOM     20  C   UNL A   1      35.650  21.379  25.640  1.00  0.00     0.142 C 
ATOM     21  C   UNL A   1      36.231  20.086  25.098  1.00  0.00     0.029 C 
ENDBRANCH  16  20
BRANCH  18  22
ATOM     22  C   UNL A   1      32.883  21.768  24.403  1.00  0.00     0.276 C 
ATOM     23  O   UNL A   1      32.234  22.078  25.393  1.00  0.00    -0.267 OA
ATOM     24  N   UNL A   1      32.655  20.633  23.652  1.00  0.00    -0.318 N 
ATOM     25  H   UNL A   1      32.578  20.704  22.674  1.00  0.00     0.170 HD
BRANCH  24  26
ATOM     26  C   UNL A   1      32.534  19.398  24.259  1.00  0.00     0.082 A 
ATOM     27  C   UNL A   1      32.617  19.039  25.620  1.00  0.00     0.161 A 
ATOM     28  C   UNL A   1      32.531  18.206  23.567  1.00  0.00     0.059 A 
ATOM     29  N   UNL A   1      32.867  17.735  25.768  1.00  0.00    -0.179 NA
ATOM     30  N   UNL A   1      32.918  17.276  24.504  1.00  0.00    -0.271 N 
ATOM     31  C   UNL A   1      32.357  17.891  22.130  1.00  0.00     0.068 C 
ATOM     32  C   UNL A   1      33.617  16.038  24.243  1.00  0.00     0.174 C 
ENDBRANCH  24  26
ENDBRANCH  18  22
ENDBRANCH  12  15
ENDBRANCH   6  11
ENDBRANCH   3   5
ENDBRANCH   2   3
ENDBRANCH   1   2
BRANCH   1  33
ATOM     33  C   UNL A   1      32.025  30.636  26.884  1.00  0.00     0.275 C 
BRANCH  33  34
ATOM     34  O   UNL A   1      33.256  31.290  27.181  1.00  0.00    -0.458 OA
BRANCH  34  35
ATOM     35  C   UNL A   1      33.075  32.529  27.685  1.00  0.00     0.338 C 
ATOM     36  O   UNL A   1      32.147  33.288  27.448  1.00  0.00    -0.246 OA
BRANCH  35  37
ATOM     37  C   UNL A   1      34.233  32.949  28.465  1.00  0.00     0.060 A 
ATOM     38  C   UNL A   1      35.338  33.387  27.735  1.00  0.00     0.016 A 
ATOM     39  C   UNL A   1      34.339  32.535  29.791  1.00  0.00     0.016 A 
ATOM     40  C   UNL A   1      36.598  33.181  28.231  1.00  0.00     0.010 A 
ATOM     41  C   UNL A   1      35.602  32.364  30.310  1.00  0.00     0.010 A 
ATOM     42  C   UNL A   1      36.712  32.578  29.479  1.00  0.00    -0.014 A 
BRANCH  42  43
ATOM     43  C   UNL A   1      38.044  32.197  29.917  1.00  0.00     0.031 A 
ATOM     44  C   UNL A   1      38.375  30.761  29.721  1.00  0.00     0.074 A 
ATOM     45  C   UNL A   1      38.912  33.162  30.285  1.00  0.00     0.049 A 
ATOM     46  N   UNL A   1      39.023  29.962  30.507  1.00  0.00    -0.248 NA
ATOM     47  C   UNL A   1      37.811  30.099  28.527  1.00  0.00     0.031 C 
ATOM     48  C   UNL A   1      38.663  34.611  30.283  1.00  0.00     0.029 A 
ATOM     49  N   UNL A   1      40.256  33.077  30.494  1.00  0.00    -0.354 N 
ATOM     50  C   UNL A   1      39.145  28.771  29.792  1.00  0.00     0.074 A 
ATOM     51  C   UNL A   1      38.244  28.851  28.676  1.00  0.00     0.031 C 
ATOM     52  C   UNL A   1      39.838  35.250  30.133  1.00  0.00     0.029 A 
ATOM     53  C   UNL A   1      40.902  34.262  30.144  1.00  0.00     0.049 A 
ATOM     54  H   UNL A   1      40.714  32.279  30.848  1.00  0.00     0.167 HD
ATOM     55  C   UNL A   1      40.173  27.909  29.999  1.00  0.00     0.034 A 
ATOM     56  C   UNL A   1      42.184  34.397  29.732  1.00  0.00     0.034 A 
ATOM     57  C   UNL A   1      40.757  28.050  31.301  1.00  0.00     0.049 A 
ATOM     58  C   UNL A   1      42.917  33.171  30.118  1.00  0.00     0.074 A 
ATOM     59  C   UNL A   1      40.283  27.964  32.595  1.00  0.00     0.029 A 
ATOM     60  N   UNL A   1      41.989  28.646  31.388  1.00  0.00    -0.354 N 
ATOM     61  N   UNL A   1      43.175  32.833  31.350  1.00  0.00    -0.248 NA
ATOM     62  C   UNL A   1      43.033  32.101  29.139  1.00  0.00     0.031 C 
ATOM     63  C   UNL A   1      41.043  28.914  33.333  1.00  0.00     0.029 A 
ATOM     64  C   UNL A   1      41.948  29.508  32.451  1.00  0.00     0.049 A 
ATOM     65  H   UNL A   1      42.760  28.485  30.796  1.00  0.00     0.167 HD
ATOM     66  C   UNL A   1      43.053  31.449  31.363  1.00  0.00     0.074 A 
ATOM     67  C   UNL A   1      43.104  31.051  29.960  1.00  0.00     0.031 C 
ATOM     68  C   UNL A   1      42.621  30.789  32.480  1.00  0.00     0.034 A 
BRANCH  55  69
ATOM     69  C   UNL A   1      40.868  27.185  28.875  1.00  0.00     0.023 A 
ATOM     70  C   UNL A   1      41.016  25.786  28.981  1.00  0.00     0.012 A 
ATOM     71  C   UNL A   1      41.611  27.835  27.859  1.00  0.00     0.148 A 
ATOM     72  C   UNL A   1      41.884  25.078  28.144  1.00  0.00     0.002 A 
ATOM     73  C   UNL A   1      42.401  27.115  26.972  1.00  0.00     0.091 A 
ATOM     74  F   UNL A   1      41.679  29.170  27.822  1.00  0.00    -0.205 F 
ATOM     75  C   UNL A   1      42.566  25.740  27.127  1.00  0.00     0.022 A 
BRANCH  73  76
ATOM     76  S   UNL A   1      43.228  27.942  25.610  1.00  0.00     0.127 S 
ATOM     77  O   UNL A   1      44.045  28.926  26.314  1.00  0.00    -0.237 OA
ATOM     78  O   UNL A   1      43.974  26.847  24.990  1.00  0.00    -0.237 OA
ATOM     79  O   UNL A   1      42.147  28.463  24.781  1.00  0.00    -0.744 OA
ENDBRANCH  73  76
ENDBRANCH  55  69
BRANCH  56  80
ATOM     80  C   UNL A   1      42.745  35.404  28.802  1.00  0.00     0.023 A 
ATOM     81  C   UNL A   1      42.506  35.279  27.422  1.00  0.00     0.012 A 
ATOM     82  C   UNL A   1      43.347  36.596  29.267  1.00  0.00     0.148 A 
ATOM     83  C   UNL A   1      42.853  36.305  26.535  1.00  0.00     0.002 A 
ATOM     84  C   UNL A   1      43.721  37.600  28.379  1.00  0.00     0.091 A 
ATOM     85  F   UNL A   1      43.474  36.791  30.588  1.00  0.00    -0.205 F 
ATOM     86  C   UNL A   1      43.466  37.462  27.011  1.00  0.00     0.022 A 
BRANCH  84  87
ATOM     87  S   UNL A   1      44.545  39.101  28.934  1.00  0.00     0.127 S 
ATOM     88  O   UNL A   1      45.832  38.589  29.410  1.00  0.00    -0.237 OA
ATOM     89  O   UNL A   1      44.617  39.883  27.703  1.00  0.00    -0.237 OA
ATOM     90  O   UNL A   1      43.697  39.644  29.988  1.00  0.00    -0.744 OA
ENDBRANCH  84  87
ENDBRANCH  56  80
BRANCH  68  91
ATOM     91  C   UNL A   1      42.517  31.559  33.775  1.00  0.00     0.023 A 
ATOM     92  C   UNL A   1      43.630  31.724  34.626  1.00  0.00     0.012 A 
ATOM     93  C   UNL A   1      41.350  32.295  34.041  1.00  0.00     0.148 A 
ATOM     94  C   UNL A   1      43.574  32.576  35.731  1.00  0.00     0.002 A 
ATOM     95  C   UNL A   1      41.313  33.180  35.114  1.00  0.00     0.091 A 
ATOM     96  F   UNL A   1      40.299  32.143  33.220  1.00  0.00    -0.205 F 
ATOM     97  C   UNL A   1      42.420  33.316  35.967  1.00  0.00     0.022 A 
BRANCH  95  98
ATOM     98  S   UNL A   1      39.907  34.264  35.384  1.00  0.00     0.127 S 
ATOM     99  O   UNL A   1      38.861  33.320  35.770  1.00  0.00    -0.237 OA
ATOM    100  O   UNL A   1      40.375  35.133  36.468  1.00  0.00    -0.237 OA
ATOM    101  O   UNL A   1      39.697  34.960  34.120  1.00  0.00    -0.744 OA
ENDBRANCH  95  98
ENDBRANCH  68  91
ENDBRANCH  42  43
ENDBRANCH  35  37
ENDBRANCH  34  35
ENDBRANCH  33  34
ENDBRANCH   1  33
TORSDOF 19
ENDMDL
