MODEL 1
REMARK VINA RESULT:     -11.2      0.000      0.000
REMARK SMILES O=C(CN(CC(=O)OCCOC(=O)c1ccc(-c2c3nc(c(-c4cccc(S(=O)(=O)[O-])c4F)c4ccc([nH]4)c(-c4cccc(S(=O)(=O)[O-])c4F)c4nc(c(-c5cccc(S(=O)(=O)[O-])c5F)c5ccc2[nH]5)C=C4)C=C3)cc1)c1ccccc1)NCc1ccccc1
REMARK SMILES IDX 9 1 8 2 6 3 7 4 5 5 4 6 3 7 2 8 1 9 83 10 84 12 85 13 86 14
REMARK SMILES IDX 90 15 87 16 89 17 88 18 77 19 78 20 82 21 79 22 81 23 80 24
REMARK SMILES IDX 10 25 11 26 12 27 13 28 14 29 15 30 76 31 16 32 75 33 17 34
REMARK SMILES IDX 18 35 19 36 69 37 20 38 74 39 68 40 70 41 21 42 73 43 67 44
REMARK SMILES IDX 66 45 22 47 54 48 34 49 53 50 35 51 38 52 52 53 71 54 36 55
REMARK SMILES IDX 37 56 51 58 72 59 39 60 23 61 24 62 32 63 25 64 27 65 33 66
REMARK SMILES IDX 26 67 28 68 29 69 30 70 31 71 55 72 56 73 64 74 57 75 59 76
REMARK SMILES IDX 65 77 58 78 60 79 61 80 62 81 63 82 40 83 41 84 49 85 42 86
REMARK SMILES IDX 44 87 50 88 43 89 45 90 46 91 47 92 48 93
REMARK H PARENT 83 11 70 46 38 57
REMARK Flexibility Score: inf
ROOT
ATOM      1  C   UNL A   1      31.655  28.086  25.770  1.00  0.00     0.274 C 
ENDROOT
BRANCH   1   2
ATOM      2  O   UNL A   1      30.674  27.447  24.929  1.00  0.00    -0.461 OA
BRANCH   2   3
ATOM      3  C   UNL A   1      30.279  26.205  25.316  1.00  0.00     0.325 C 
ATOM      4  O   UNL A   1      30.228  25.831  26.486  1.00  0.00    -0.250 OA
BRANCH   3   5
ATOM      5  C   UNL A   1      29.823  25.293  24.182  1.00  0.00     0.239 C 
BRANCH   5   6
ATOM      6  N   UNL A   1      30.870  24.679  23.362  1.00  0.00    -0.351 N 
BRANCH   6   7
ATOM      7  C   UNL A   1      31.670  25.491  22.434  1.00  0.00     0.217 C 
BRANCH   7   8
ATOM      8  C   UNL A   1      33.150  25.629  22.837  1.00  0.00     0.239 C 
ATOM      9  O   UNL A   1      34.021  25.909  22.015  1.00  0.00    -0.273 OA
ATOM     10  N   UNL A   1      33.416  25.489  24.185  1.00  0.00    -0.350 N 
ATOM     11  H   UNL A   1      32.666  25.496  24.821  1.00  0.00     0.163 HD
BRANCH  10  12
ATOM     12  C   UNL A   1      34.762  25.332  24.692  1.00  0.00     0.151 C 
BRANCH  12  13
ATOM     13  C   UNL A   1      35.232  23.908  24.845  1.00  0.00    -0.029 A 
ATOM     14  C   UNL A   1      34.999  23.148  25.998  1.00  0.00     0.005 A 
ATOM     15  C   UNL A   1      36.021  23.350  23.824  1.00  0.00     0.005 A 
ATOM     16  C   UNL A   1      35.525  21.859  26.118  1.00  0.00     0.000 A 
ATOM     17  C   UNL A   1      36.551  22.066  23.947  1.00  0.00     0.000 A 
ATOM     18  C   UNL A   1      36.303  21.319  25.095  1.00  0.00     0.000 A 
ENDBRANCH  12  13
ENDBRANCH  10  12
ENDBRANCH   7   8
ENDBRANCH   6   7
BRANCH   6  19
ATOM     19  C   UNL A   1      31.309  23.408  23.703  1.00  0.00     0.038 A 
ATOM     20  C   UNL A   1      31.188  22.942  25.016  1.00  0.00     0.026 A 
ATOM     21  C   UNL A   1      31.921  22.563  22.767  1.00  0.00     0.026 A 
ATOM     22  C   UNL A   1      31.680  21.685  25.385  1.00  0.00     0.002 A 
ATOM     23  C   UNL A   1      32.394  21.297  23.124  1.00  0.00     0.002 A 
ATOM     24  C   UNL A   1      32.281  20.861  24.438  1.00  0.00     0.000 A 
ENDBRANCH   6  19
ENDBRANCH   5   6
ENDBRANCH   3   5
ENDBRANCH   2   3
ENDBRANCH   1   2
BRANCH   1  25
ATOM     25  C   UNL A   1      31.749  29.574  25.445  1.00  0.00     0.275 C 
BRANCH  25  26
ATOM     26  O   UNL A   1      33.067  30.059  25.758  1.00  0.00    -0.458 OA
BRANCH  26  27
ATOM     27  C   UNL A   1      33.106  31.012  26.712  1.00  0.00     0.338 C 
ATOM     28  O   UNL A   1      32.301  31.919  26.886  1.00  0.00    -0.246 OA
BRANCH  27  29
ATOM     29  C   UNL A   1      34.326  30.883  27.517  1.00  0.00     0.060 A 
ATOM     30  C   UNL A   1      35.188  31.965  27.716  1.00  0.00     0.016 A 
ATOM     31  C   UNL A   1      34.656  29.612  27.988  1.00  0.00     0.016 A 
ATOM     32  C   UNL A   1      36.423  31.758  28.333  1.00  0.00     0.010 A 
ATOM     33  C   UNL A   1      35.861  29.421  28.658  1.00  0.00     0.010 A 
ATOM     34  C   UNL A   1      36.765  30.483  28.810  1.00  0.00    -0.014 A 
BRANCH  34  35
ATOM     35  C   UNL A   1      38.040  30.232  29.522  1.00  0.00     0.031 A 
ATOM     36  C   UNL A   1      39.043  29.266  28.960  1.00  0.00     0.074 A 
ATOM     37  C   UNL A   1      38.224  30.787  30.735  1.00  0.00     0.049 A 
ATOM     38  N   UNL A   1      40.110  28.765  29.524  1.00  0.00    -0.248 NA
ATOM     39  C   UNL A   1      38.811  28.791  27.585  1.00  0.00     0.031 C 
ATOM     40  C   UNL A   1      37.298  31.718  31.381  1.00  0.00     0.029 A 
ATOM     41  N   UNL A   1      39.219  30.606  31.660  1.00  0.00    -0.354 N 
ATOM     42  C   UNL A   1      40.653  27.883  28.597  1.00  0.00     0.074 A 
ATOM     43  C   UNL A   1      39.802  27.923  27.427  1.00  0.00     0.031 C 
ATOM     44  C   UNL A   1      37.750  32.002  32.611  1.00  0.00     0.029 A 
ATOM     45  C   UNL A   1      38.969  31.238  32.855  1.00  0.00     0.049 A 
ATOM     46  H   UNL A   1      40.032  30.079  31.486  1.00  0.00     0.167 HD
ATOM     47  C   UNL A   1      41.765  27.118  28.714  1.00  0.00     0.034 A 
ATOM     48  C   UNL A   1      39.622  31.176  34.032  1.00  0.00     0.034 A 
ATOM     49  C   UNL A   1      42.617  27.112  29.873  1.00  0.00     0.049 A 
ATOM     50  C   UNL A   1      40.854  30.325  34.132  1.00  0.00     0.074 A 
ATOM     51  C   UNL A   1      43.798  26.417  30.071  1.00  0.00     0.029 A 
ATOM     52  N   UNL A   1      42.379  27.835  31.032  1.00  0.00    -0.354 N 
ATOM     53  N   UNL A   1      41.413  29.579  33.211  1.00  0.00    -0.248 NA
ATOM     54  C   UNL A   1      41.558  30.322  35.421  1.00  0.00     0.031 C 
ATOM     55  C   UNL A   1      44.270  26.716  31.355  1.00  0.00     0.029 A 
ATOM     56  C   UNL A   1      43.387  27.601  31.952  1.00  0.00     0.049 A 
ATOM     57  H   UNL A   1      41.607  28.427  31.180  1.00  0.00     0.167 HD
ATOM     58  C   UNL A   1      42.549  29.035  33.799  1.00  0.00     0.074 A 
ATOM     59  C   UNL A   1      42.607  29.555  35.150  1.00  0.00     0.031 C 
ATOM     60  C   UNL A   1      43.451  28.171  33.274  1.00  0.00     0.034 A 
BRANCH  47  61
ATOM     61  C   UNL A   1      42.155  26.256  27.542  1.00  0.00     0.023 A 
ATOM     62  C   UNL A   1      42.958  26.803  26.523  1.00  0.00     0.012 A 
ATOM     63  C   UNL A   1      41.795  24.895  27.484  1.00  0.00     0.148 A 
ATOM     64  C   UNL A   1      43.384  26.014  25.453  1.00  0.00     0.002 A 
ATOM     65  C   UNL A   1      42.247  24.107  26.430  1.00  0.00     0.091 A 
ATOM     66  F   UNL A   1      41.007  24.399  28.449  1.00  0.00    -0.205 F 
ATOM     67  C   UNL A   1      43.037  24.665  25.412  1.00  0.00     0.022 A 
BRANCH  65  68
ATOM     68  S   UNL A   1      41.903  22.346  26.330  1.00  0.00     0.127 S 
ATOM     69  O   UNL A   1      40.452  22.339  26.152  1.00  0.00    -0.237 OA
ATOM     70  O   UNL A   1      42.664  21.944  25.147  1.00  0.00    -0.237 OA
ATOM     71  O   UNL A   1      42.389  21.777  27.579  1.00  0.00    -0.744 OA
ENDBRANCH  65  68
ENDBRANCH  47  61
BRANCH  48  72
ATOM     72  C   UNL A   1      39.129  31.985  35.180  1.00  0.00     0.023 A 
ATOM     73  C   UNL A   1      38.255  31.395  36.111  1.00  0.00     0.012 A 
ATOM     74  C   UNL A   1      39.594  33.296  35.408  1.00  0.00     0.148 A 
ATOM     75  C   UNL A   1      37.845  32.097  37.245  1.00  0.00     0.002 A 
ATOM     76  C   UNL A   1      39.225  33.969  36.568  1.00  0.00     0.091 A 
ATOM     77  F   UNL A   1      40.409  33.852  34.500  1.00  0.00    -0.205 F 
ATOM     78  C   UNL A   1      38.343  33.375  37.482  1.00  0.00     0.022 A 
BRANCH  76  79
ATOM     79  S   UNL A   1      39.952  35.552  37.012  1.00  0.00     0.127 S 
ATOM     80  O   UNL A   1      39.280  35.850  38.273  1.00  0.00    -0.237 OA
ATOM     81  O   UNL A   1      41.373  35.220  37.136  1.00  0.00    -0.237 OA
ATOM     82  O   UNL A   1      39.648  36.436  35.895  1.00  0.00    -0.744 OA
ENDBRANCH  76  79
ENDBRANCH  48  72
BRANCH  60  83
ATOM     83  C   UNL A   1      44.589  27.743  34.157  1.00  0.00     0.023 A 
ATOM     84  C   UNL A   1      45.762  28.523  34.195  1.00  0.00     0.012 A 
ATOM     85  C   UNL A   1      44.470  26.622  35.000  1.00  0.00     0.148 A 
ATOM     86  C   UNL A   1      46.811  28.179  35.047  1.00  0.00     0.002 A 
ATOM     87  C   UNL A   1      45.504  26.306  35.873  1.00  0.00     0.091 A 
ATOM     88  F   UNL A   1      43.354  25.882  34.928  1.00  0.00    -0.205 F 
ATOM     89  C   UNL A   1      46.678  27.079  35.893  1.00  0.00     0.022 A 
BRANCH  87  90
ATOM     90  S   UNL A   1      45.381  24.955  37.048  1.00  0.00     0.127 S 
ATOM     91  O   UNL A   1      45.041  23.831  36.178  1.00  0.00    -0.237 OA
ATOM     92  O   UNL A   1      46.730  24.903  37.612  1.00  0.00    -0.237 OA
ATOM     93  O   UNL A   1      44.349  25.350  37.998  1.00  0.00    -0.744 OA
ENDBRANCH  87  90
ENDBRANCH  60  83
ENDBRANCH  34  35
ENDBRANCH  27  29
ENDBRANCH  26  27
ENDBRANCH  25  26
ENDBRANCH   1  25
TORSDOF 20
ENDMDL
MODEL 2
REMARK VINA RESULT:     -11.1      1.597      2.484
REMARK SMILES O=C(CN(CC(=O)OCCOC(=O)c1ccc(-c2c3nc(c(-c4cccc(S(=O)(=O)[O-])c4F)c4ccc([nH]4)c(-c4cccc(S(=O)(=O)[O-])c4F)c4nc(c(-c5cccc(S(=O)(=O)[O-])c5F)c5ccc2[nH]5)C=C4)C=C3)cc1)c1ccccc1)NCc1ccccc1
REMARK SMILES IDX 9 1 8 2 6 3 7 4 5 5 4 6 3 7 2 8 1 9 83 10 84 12 85 13 86 14
REMARK SMILES IDX 90 15 87 16 89 17 88 18 77 19 78 20 82 21 79 22 81 23 80 24
REMARK SMILES IDX 10 25 11 26 12 27 13 28 14 29 15 30 76 31 16 32 75 33 17 34
REMARK SMILES IDX 18 35 19 36 69 37 20 38 74 39 68 40 70 41 21 42 73 43 67 44
REMARK SMILES IDX 66 45 22 47 54 48 34 49 53 50 35 51 38 52 52 53 71 54 36 55
REMARK SMILES IDX 37 56 51 58 72 59 39 60 23 61 24 62 32 63 25 64 27 65 33 66
REMARK SMILES IDX 26 67 28 68 29 69 30 70 31 71 55 72 56 73 64 74 57 75 59 76
REMARK SMILES IDX 65 77 58 78 60 79 61 80 62 81 63 82 40 83 41 84 49 85 42 86
REMARK SMILES IDX 44 87 50 88 43 89 45 90 46 91 47 92 48 93
REMARK H PARENT 83 11 70 46 38 57
REMARK Flexibility Score: inf
ROOT
ATOM      1  C   UNL A   1      31.372  29.912  25.526  1.00  0.00     0.274 C 
ENDROOT
BRANCH   1   2
ATOM      2  O   UNL A   1      32.219  29.261  24.558  1.00  0.00    -0.461 OA
BRANCH   2   3
ATOM      3  C   UNL A   1      31.609  28.854  23.414  1.00  0.00     0.325 C 
ATOM      4  O   UNL A   1      30.727  29.488  22.839  1.00  0.00    -0.250 OA
BRANCH   3   5
ATOM      5  C   UNL A   1      32.145  27.552  22.827  1.00  0.00     0.239 C 
BRANCH   5   6
ATOM      6  N   UNL A   1      31.901  26.328  23.595  1.00  0.00    -0.351 N 
BRANCH   6   7
ATOM      7  C   UNL A   1      30.570  26.043  24.150  1.00  0.00     0.217 C 
BRANCH   7   8
ATOM      8  C   UNL A   1      30.596  25.212  25.447  1.00  0.00     0.239 C 
ATOM      9  O   UNL A   1      30.795  25.730  26.544  1.00  0.00    -0.273 OA
ATOM     10  N   UNL A   1      30.310  23.869  25.299  1.00  0.00    -0.350 N 
ATOM     11  H   UNL A   1      29.935  23.554  24.446  1.00  0.00     0.163 HD
BRANCH  10  12
ATOM     12  C   UNL A   1      30.543  22.911  26.357  1.00  0.00     0.151 C 
BRANCH  12  13
ATOM     13  C   UNL A   1      31.936  22.335  26.412  1.00  0.00    -0.029 A 
ATOM     14  C   UNL A   1      32.937  22.841  27.251  1.00  0.00     0.005 A 
ATOM     15  C   UNL A   1      32.272  21.309  25.512  1.00  0.00     0.005 A 
ATOM     16  C   UNL A   1      34.233  22.319  27.205  1.00  0.00     0.000 A 
ATOM     17  C   UNL A   1      33.568  20.794  25.462  1.00  0.00     0.000 A 
ATOM     18  C   UNL A   1      34.549  21.300  26.310  1.00  0.00     0.000 A 
ENDBRANCH  12  13
ENDBRANCH  10  12
ENDBRANCH   7   8
ENDBRANCH   6   7
BRANCH   6  19
ATOM     19  C   UNL A   1      32.836  25.307  23.515  1.00  0.00     0.038 A 
ATOM     20  C   UNL A   1      33.980  25.324  24.319  1.00  0.00     0.026 A 
ATOM     21  C   UNL A   1      32.695  24.248  22.607  1.00  0.00     0.026 A 
ATOM     22  C   UNL A   1      34.958  24.330  24.206  1.00  0.00     0.002 A 
ATOM     23  C   UNL A   1      33.658  23.240  22.505  1.00  0.00     0.002 A 
ATOM     24  C   UNL A   1      34.796  23.286  23.300  1.00  0.00     0.000 A 
ENDBRANCH   6  19
ENDBRANCH   5   6
ENDBRANCH   3   5
ENDBRANCH   2   3
ENDBRANCH   1   2
BRANCH   1  25
ATOM     25  C   UNL A   1      32.134  30.153  26.827  1.00  0.00     0.275 C 
BRANCH  25  26
ATOM     26  O   UNL A   1      33.437  30.687  26.537  1.00  0.00    -0.458 OA
BRANCH  26  27
ATOM     27  C   UNL A   1      33.915  31.544  27.465  1.00  0.00     0.338 C 
ATOM     28  O   UNL A   1      33.405  32.594  27.834  1.00  0.00    -0.246 OA
BRANCH  27  29
ATOM     29  C   UNL A   1      35.222  31.093  27.955  1.00  0.00     0.060 A 
ATOM     30  C   UNL A   1      35.436  29.769  28.351  1.00  0.00     0.016 A 
ATOM     31  C   UNL A   1      36.217  32.056  28.120  1.00  0.00     0.016 A 
ATOM     32  C   UNL A   1      36.634  29.423  28.978  1.00  0.00     0.010 A 
ATOM     33  C   UNL A   1      37.434  31.695  28.689  1.00  0.00     0.010 A 
ATOM     34  C   UNL A   1      37.641  30.385  29.148  1.00  0.00    -0.014 A 
BRANCH  34  35
ATOM     35  C   UNL A   1      38.950  30.046  29.756  1.00  0.00     0.031 A 
ATOM     36  C   UNL A   1      39.827  29.001  29.129  1.00  0.00     0.074 A 
ATOM     37  C   UNL A   1      39.276  30.598  30.939  1.00  0.00     0.049 A 
ATOM     38  N   UNL A   1      40.898  28.427  29.610  1.00  0.00    -0.248 NA
ATOM     39  C   UNL A   1      39.445  28.530  27.786  1.00  0.00     0.031 C 
ATOM     40  C   UNL A   1      38.479  31.603  31.645  1.00  0.00     0.029 A 
ATOM     41  N   UNL A   1      40.329  30.353  31.782  1.00  0.00    -0.354 N 
ATOM     42  C   UNL A   1      41.294  27.497  28.657  1.00  0.00     0.074 A 
ATOM     43  C   UNL A   1      40.353  27.589  27.561  1.00  0.00     0.031 C 
ATOM     44  C   UNL A   1      39.054  31.866  32.828  1.00  0.00     0.029 A 
ATOM     45  C   UNL A   1      40.228  31.014  32.982  1.00  0.00     0.049 A 
ATOM     46  H   UNL A   1      41.083  29.763  31.550  1.00  0.00     0.167 HD
ATOM     47  C   UNL A   1      42.352  26.652  28.693  1.00  0.00     0.034 A 
ATOM     48  C   UNL A   1      40.971  30.916  34.102  1.00  0.00     0.034 A 
ATOM     49  C   UNL A   1      43.296  26.594  29.777  1.00  0.00     0.049 A 
ATOM     50  C   UNL A   1      42.141  29.975  34.114  1.00  0.00     0.074 A 
ATOM     51  C   UNL A   1      44.434  25.813  29.888  1.00  0.00     0.029 A 
ATOM     52  N   UNL A   1      43.211  27.345  30.940  1.00  0.00    -0.354 N 
ATOM     53  N   UNL A   1      42.564  29.179  33.162  1.00  0.00    -0.248 NA
ATOM     54  C   UNL A   1      42.949  29.933  35.340  1.00  0.00     0.031 C 
ATOM     55  C   UNL A   1      45.034  26.090  31.123  1.00  0.00     0.029 A 
ATOM     56  C   UNL A   1      44.273  27.045  31.777  1.00  0.00     0.049 A 
ATOM     57  H   UNL A   1      42.500  27.994  31.141  1.00  0.00     0.167 HD
ATOM     58  C   UNL A   1      43.701  28.558  33.662  1.00  0.00     0.074 A 
ATOM     59  C   UNL A   1      43.911  29.086  34.995  1.00  0.00     0.031 C 
ATOM     60  C   UNL A   1      44.489  27.622  33.079  1.00  0.00     0.034 A 
BRANCH  47  61
ATOM     61  C   UNL A   1      42.577  25.750  27.508  1.00  0.00     0.023 A 
ATOM     62  C   UNL A   1      43.343  26.218  26.423  1.00  0.00     0.012 A 
ATOM     63  C   UNL A   1      42.099  24.425  27.497  1.00  0.00     0.148 A 
ATOM     64  C   UNL A   1      43.618  25.388  25.336  1.00  0.00     0.002 A 
ATOM     65  C   UNL A   1      42.401  23.592  26.423  1.00  0.00     0.091 A 
ATOM     66  F   UNL A   1      41.348  24.005  28.526  1.00  0.00    -0.205 F 
ATOM     67  C   UNL A   1      43.156  24.073  25.341  1.00  0.00     0.022 A 
BRANCH  65  68
ATOM     68  S   UNL A   1      41.902  21.867  26.374  1.00  0.00     0.127 S 
ATOM     69  O   UNL A   1      42.702  21.359  25.261  1.00  0.00    -0.237 OA
ATOM     70  O   UNL A   1      42.316  21.382  27.691  1.00  0.00    -0.237 OA
ATOM     71  O   UNL A   1      40.461  21.879  26.164  1.00  0.00    -0.744 OA
ENDBRANCH  65  68
ENDBRANCH  47  61
BRANCH  48  72
ATOM     72  C   UNL A   1      40.639  31.772  35.273  1.00  0.00     0.023 A 
ATOM     73  C   UNL A   1      41.416  32.917  35.529  1.00  0.00     0.012 A 
ATOM     74  C   UNL A   1      39.508  31.516  36.073  1.00  0.00     0.148 A 
ATOM     75  C   UNL A   1      41.078  33.788  36.565  1.00  0.00     0.002 A 
ATOM     76  C   UNL A   1      39.146  32.417  37.068  1.00  0.00     0.091 A 
ATOM     77  F   UNL A   1      38.792  30.409  35.831  1.00  0.00    -0.205 F 
ATOM     78  C   UNL A   1      39.935  33.548  37.323  1.00  0.00     0.022 A 
BRANCH  76  79
ATOM     79  S   UNL A   1      37.602  32.251  37.975  1.00  0.00     0.127 S 
ATOM     80  O   UNL A   1      36.655  32.914  37.083  1.00  0.00    -0.237 OA
ATOM     81  O   UNL A   1      37.448  30.798  38.066  1.00  0.00    -0.237 OA
ATOM     82  O   UNL A   1      37.842  32.901  39.257  1.00  0.00    -0.744 OA
ENDBRANCH  76  79
ENDBRANCH  48  72
BRANCH  60  83
ATOM     83  C   UNL A   1      45.664  27.120  33.872  1.00  0.00     0.023 A 
ATOM     84  C   UNL A   1      46.885  27.818  33.812  1.00  0.00     0.012 A 
ATOM     85  C   UNL A   1      45.537  26.009  34.727  1.00  0.00     0.148 A 
ATOM     86  C   UNL A   1      47.973  27.405  34.580  1.00  0.00     0.002 A 
ATOM     87  C   UNL A   1      46.614  25.625  35.517  1.00  0.00     0.091 A 
ATOM     88  F   UNL A   1      44.372  25.346  34.748  1.00  0.00    -0.205 F 
ATOM     89  C   UNL A   1      47.834  26.317  35.440  1.00  0.00     0.022 A 
BRANCH  87  90
ATOM     90  S   UNL A   1      46.494  24.285  36.706  1.00  0.00     0.127 S 
ATOM     91  O   UNL A   1      47.832  24.285  37.293  1.00  0.00    -0.237 OA
ATOM     92  O   UNL A   1      45.435  24.753  37.603  1.00  0.00    -0.237 OA
ATOM     93  O   UNL A   1      46.145  23.101  35.934  1.00  0.00    -0.744 OA
ENDBRANCH  87  90
ENDBRANCH  60  83
ENDBRANCH  34  35
ENDBRANCH  27  29
ENDBRANCH  26  27
ENDBRANCH  25  26
ENDBRANCH   1  25
TORSDOF 20
ENDMDL
MODEL 3
REMARK VINA RESULT:     -11.0      1.272      2.984
REMARK SMILES O=C(CN(CC(=O)OCCOC(=O)c1ccc(-c2c3nc(c(-c4cccc(S(=O)(=O)[O-])c4F)c4ccc([nH]4)c(-c4cccc(S(=O)(=O)[O-])c4F)c4nc(c(-c5cccc(S(=O)(=O)[O-])c5F)c5ccc2[nH]5)C=C4)C=C3)cc1)c1ccccc1)NCc1ccccc1
REMARK SMILES IDX 9 1 8 2 6 3 7 4 5 5 4 6 3 7 2 8 1 9 83 10 84 12 85 13 86 14
REMARK SMILES IDX 90 15 87 16 89 17 88 18 77 19 78 20 82 21 79 22 81 23 80 24
REMARK SMILES IDX 10 25 11 26 12 27 13 28 14 29 15 30 76 31 16 32 75 33 17 34
REMARK SMILES IDX 18 35 19 36 69 37 20 38 74 39 68 40 70 41 21 42 73 43 67 44
REMARK SMILES IDX 66 45 22 47 54 48 34 49 53 50 35 51 38 52 52 53 71 54 36 55
REMARK SMILES IDX 37 56 51 58 72 59 39 60 23 61 24 62 32 63 25 64 27 65 33 66
REMARK SMILES IDX 26 67 28 68 29 69 30 70 31 71 55 72 56 73 64 74 57 75 59 76
REMARK SMILES IDX 65 77 58 78 60 79 61 80 62 81 63 82 40 83 41 84 49 85 42 86
REMARK SMILES IDX 44 87 50 88 43 89 45 90 46 91 47 92 48 93
REMARK H PARENT 83 11 70 46 38 57
REMARK Flexibility Score: inf
ROOT
ATOM      1  C   UNL A   1      31.790  27.893  26.646  1.00  0.00     0.274 C 
ENDROOT
BRANCH   1   2
ATOM      2  O   UNL A   1      32.441  26.896  25.835  1.00  0.00    -0.461 OA
BRANCH   2   3
ATOM      3  C   UNL A   1      31.878  25.659  25.847  1.00  0.00     0.325 C 
ATOM      4  O   UNL A   1      31.440  25.111  26.857  1.00  0.00    -0.250 OA
BRANCH   3   5
ATOM      5  C   UNL A   1      31.755  24.994  24.481  1.00  0.00     0.239 C 
BRANCH   5   6
ATOM      6  N   UNL A   1      33.003  24.689  23.776  1.00  0.00    -0.351 N 
BRANCH   6   7
ATOM      7  C   UNL A   1      33.395  25.450  22.581  1.00  0.00     0.217 C 
BRANCH   7   8
ATOM      8  C   UNL A   1      33.164  26.968  22.700  1.00  0.00     0.239 C 
ATOM      9  O   UNL A   1      33.998  27.712  23.212  1.00  0.00    -0.273 OA
ATOM     10  N   UNL A   1      31.997  27.439  22.131  1.00  0.00    -0.350 N 
ATOM     11  H   UNL A   1      31.483  26.845  21.539  1.00  0.00     0.163 HD
BRANCH  10  12
ATOM     12  C   UNL A   1      31.506  28.777  22.376  1.00  0.00     0.151 C 
BRANCH  12  13
ATOM     13  C   UNL A   1      30.014  28.893  22.567  1.00  0.00    -0.029 A 
ATOM     14  C   UNL A   1      29.286  30.032  22.203  1.00  0.00     0.005 A 
ATOM     15  C   UNL A   1      29.341  27.849  23.225  1.00  0.00     0.005 A 
ATOM     16  C   UNL A   1      27.917  30.116  22.472  1.00  0.00     0.000 A 
ATOM     17  C   UNL A   1      27.976  27.938  23.500  1.00  0.00     0.000 A 
ATOM     18  C   UNL A   1      27.263  29.072  23.124  1.00  0.00     0.000 A 
ENDBRANCH  12  13
ENDBRANCH  10  12
ENDBRANCH   7   8
ENDBRANCH   6   7
BRANCH   6  19
ATOM     19  C   UNL A   1      33.949  23.910  24.425  1.00  0.00     0.038 A 
ATOM     20  C   UNL A   1      33.705  22.556  24.677  1.00  0.00     0.026 A 
ATOM     21  C   UNL A   1      35.158  24.449  24.886  1.00  0.00     0.026 A 
ATOM     22  C   UNL A   1      34.627  21.774  25.382  1.00  0.00     0.002 A 
ATOM     23  C   UNL A   1      36.093  23.669  25.571  1.00  0.00     0.002 A 
ATOM     24  C   UNL A   1      35.823  22.330  25.827  1.00  0.00     0.000 A 
ENDBRANCH   6  19
ENDBRANCH   5   6
ENDBRANCH   3   5
ENDBRANCH   2   3
ENDBRANCH   1   2
BRANCH   1  25
ATOM     25  C   UNL A   1      31.752  29.234  25.917  1.00  0.00     0.275 C 
BRANCH  25  26
ATOM     26  O   UNL A   1      33.054  29.843  25.950  1.00  0.00    -0.458 OA
BRANCH  26  27
ATOM     27  C   UNL A   1      33.165  30.893  26.792  1.00  0.00     0.338 C 
ATOM     28  O   UNL A   1      32.418  31.860  26.871  1.00  0.00    -0.246 OA
BRANCH  27  29
ATOM     29  C   UNL A   1      34.388  30.780  27.594  1.00  0.00     0.060 A 
ATOM     30  C   UNL A   1      35.255  31.864  27.761  1.00  0.00     0.016 A 
ATOM     31  C   UNL A   1      34.717  29.521  28.095  1.00  0.00     0.016 A 
ATOM     32  C   UNL A   1      36.492  31.668  28.378  1.00  0.00     0.010 A 
ATOM     33  C   UNL A   1      35.924  29.342  28.765  1.00  0.00     0.010 A 
ATOM     34  C   UNL A   1      36.832  30.405  28.885  1.00  0.00    -0.014 A 
BRANCH  34  35
ATOM     35  C   UNL A   1      38.109  30.168  29.598  1.00  0.00     0.031 A 
ATOM     36  C   UNL A   1      39.116  29.201  29.044  1.00  0.00     0.074 A 
ATOM     37  C   UNL A   1      38.292  30.736  30.804  1.00  0.00     0.049 A 
ATOM     38  N   UNL A   1      40.187  28.711  29.611  1.00  0.00    -0.248 NA
ATOM     39  C   UNL A   1      38.885  28.711  27.674  1.00  0.00     0.031 C 
ATOM     40  C   UNL A   1      37.362  31.668  31.443  1.00  0.00     0.029 A 
ATOM     41  N   UNL A   1      39.290  30.570  31.730  1.00  0.00    -0.354 N 
ATOM     42  C   UNL A   1      40.733  27.824  28.692  1.00  0.00     0.074 A 
ATOM     43  C   UNL A   1      39.880  27.847  27.523  1.00  0.00     0.031 C 
ATOM     44  C   UNL A   1      37.815  31.968  32.669  1.00  0.00     0.029 A 
ATOM     45  C   UNL A   1      39.038  31.213  32.919  1.00  0.00     0.049 A 
ATOM     46  H   UNL A   1      40.105  30.045  31.560  1.00  0.00     0.167 HD
ATOM     47  C   UNL A   1      41.849  27.066  28.815  1.00  0.00     0.034 A 
ATOM     48  C   UNL A   1      39.693  31.166  34.095  1.00  0.00     0.034 A 
ATOM     49  C   UNL A   1      42.704  27.076  29.972  1.00  0.00     0.049 A 
ATOM     50  C   UNL A   1      40.930  30.322  34.202  1.00  0.00     0.074 A 
ATOM     51  C   UNL A   1      43.888  26.389  30.175  1.00  0.00     0.029 A 
ATOM     52  N   UNL A   1      42.464  27.809  31.124  1.00  0.00    -0.354 N 
ATOM     53  N   UNL A   1      41.492  29.570  33.287  1.00  0.00    -0.248 NA
ATOM     54  C   UNL A   1      41.636  30.336  35.490  1.00  0.00     0.031 C 
ATOM     55  C   UNL A   1      44.361  26.704  31.455  1.00  0.00     0.029 A 
ATOM     56  C   UNL A   1      43.474  27.590  32.046  1.00  0.00     0.049 A 
ATOM     57  H   UNL A   1      41.688  28.398  31.267  1.00  0.00     0.167 HD
ATOM     58  C   UNL A   1      42.631  29.038  33.879  1.00  0.00     0.074 A 
ATOM     59  C   UNL A   1      42.689  29.572  35.225  1.00  0.00     0.031 C 
ATOM     60  C   UNL A   1      43.537  28.173  33.361  1.00  0.00     0.034 A 
BRANCH  47  61
ATOM     61  C   UNL A   1      42.242  26.194  27.651  1.00  0.00     0.023 A 
ATOM     62  C   UNL A   1      43.021  26.741  26.613  1.00  0.00     0.012 A 
ATOM     63  C   UNL A   1      41.909  24.825  27.618  1.00  0.00     0.148 A 
ATOM     64  C   UNL A   1      43.450  25.945  25.551  1.00  0.00     0.002 A 
ATOM     65  C   UNL A   1      42.364  24.030  26.571  1.00  0.00     0.091 A 
ATOM     66  F   UNL A   1      41.143  24.328  28.601  1.00  0.00    -0.205 F 
ATOM     67  C   UNL A   1      43.130  24.589  25.534  1.00  0.00     0.022 A 
BRANCH  65  68
ATOM     68  S   UNL A   1      42.054  22.262  26.501  1.00  0.00     0.127 S 
ATOM     69  O   UNL A   1      42.629  21.811  27.768  1.00  0.00    -0.237 OA
ATOM     70  O   UNL A   1      40.594  22.200  26.439  1.00  0.00    -0.237 OA
ATOM     71  O   UNL A   1      42.727  21.790  25.299  1.00  0.00    -0.744 OA
ENDBRANCH  65  68
ENDBRANCH  47  61
BRANCH  48  72
ATOM     72  C   UNL A   1      39.199  31.984  35.236  1.00  0.00     0.023 A 
ATOM     73  C   UNL A   1      38.347  31.392  36.187  1.00  0.00     0.012 A 
ATOM     74  C   UNL A   1      39.640  33.307  35.437  1.00  0.00     0.148 A 
ATOM     75  C   UNL A   1      37.937  32.104  37.314  1.00  0.00     0.002 A 
ATOM     76  C   UNL A   1      39.272  33.991  36.591  1.00  0.00     0.091 A 
ATOM     77  F   UNL A   1      40.433  33.864  34.510  1.00  0.00    -0.205 F 
ATOM     78  C   UNL A   1      38.412  33.396  37.524  1.00  0.00     0.022 A 
BRANCH  76  79
ATOM     79  S   UNL A   1      39.972  35.596  37.000  1.00  0.00     0.127 S 
ATOM     80  O   UNL A   1      39.296  35.909  38.255  1.00  0.00    -0.237 OA
ATOM     81  O   UNL A   1      41.398  35.290  37.129  1.00  0.00    -0.237 OA
ATOM     82  O   UNL A   1      39.652  36.451  35.864  1.00  0.00    -0.744 OA
ENDBRANCH  76  79
ENDBRANCH  48  72
BRANCH  60  83
ATOM     83  C   UNL A   1      44.679  27.761  34.247  1.00  0.00     0.023 A 
ATOM     84  C   UNL A   1      45.842  28.555  34.287  1.00  0.00     0.012 A 
ATOM     85  C   UNL A   1      44.573  26.638  35.089  1.00  0.00     0.148 A 
ATOM     86  C   UNL A   1      46.893  28.225  35.142  1.00  0.00     0.002 A 
ATOM     87  C   UNL A   1      45.609  26.336  35.964  1.00  0.00     0.091 A 
ATOM     88  F   UNL A   1      43.467  25.884  35.015  1.00  0.00    -0.205 F 
ATOM     89  C   UNL A   1      46.772  27.124  35.987  1.00  0.00     0.022 A 
BRANCH  87  90
ATOM     90  S   UNL A   1      45.501  24.983  37.140  1.00  0.00     0.127 S 
ATOM     91  O   UNL A   1      46.679  25.216  37.973  1.00  0.00    -0.237 OA
ATOM     92  O   UNL A   1      44.223  25.244  37.804  1.00  0.00    -0.237 OA
ATOM     93  O   UNL A   1      45.524  23.764  36.343  1.00  0.00    -0.744 OA
ENDBRANCH  87  90
ENDBRANCH  60  83
ENDBRANCH  34  35
ENDBRANCH  27  29
ENDBRANCH  26  27
ENDBRANCH  25  26
ENDBRANCH   1  25
TORSDOF 20
ENDMDL
