MODEL 1
REMARK VINA RESULT:     -11.8      0.000      0.000
REMARK SMILES Cc1ccc(NC(=O)CNC(=O)C(C)(C)C)c(C(=O)OCCOC(=O)c2ccc(-c3c4nc(c(-c5cccc(S(=O)(=O)[O-])c5F)c5ccc([nH]5)c(-c5cccc(S(=O)(=O)[O-])c5F)c5nc(c(-c6cccc(S(=O)(=O)[O-])c6F)c6ccc3[nH]6)C=C5)C=C4)cc2)c1
REMARK SMILES IDX 21 1 20 2 18 3 19 4 17 5 1 6 2 7 3 8 89 9 4 10 5 11 6 12
REMARK SMILES IDX 7 13 8 15 9 16 10 17 11 18 12 20 13 21 14 22 15 23 16 24
REMARK SMILES IDX 22 25 23 26 24 27 25 28 26 29 27 30 88 31 28 32 87 33 29 34
REMARK SMILES IDX 30 35 31 36 81 37 32 38 86 39 80 40 82 41 33 42 85 43 79 44
REMARK SMILES IDX 78 45 34 47 66 48 46 49 65 50 47 51 50 52 64 53 83 54 48 55
REMARK SMILES IDX 49 56 63 58 84 59 51 60 35 61 36 62 44 63 37 64 39 65 45 66
REMARK SMILES IDX 38 67 40 68 41 69 42 70 43 71 67 72 68 73 76 74 69 75 71 76
REMARK SMILES IDX 77 77 70 78 72 79 73 80 74 81 75 82 52 83 53 84 61 85 54 86
REMARK SMILES IDX 56 87 62 88 55 89 57 90 58 91 59 92 60 93
REMARK H PARENT 6 14 10 19 82 46 50 57
REMARK Flexibility Score: inf
ROOT
ATOM      1  C   UNL A   1      31.799  29.640  25.945  1.00  0.00     0.275 C 
ENDROOT
BRANCH   1   2
ATOM      2  O   UNL A   1      31.023  28.503  25.538  1.00  0.00    -0.458 OA
BRANCH   2   3
ATOM      3  C   UNL A   1      31.208  27.291  26.096  1.00  0.00     0.340 C 
ATOM      4  O   UNL A   1      31.124  27.016  27.280  1.00  0.00    -0.246 OA
BRANCH   3   5
ATOM      5  C   UNL A   1      31.458  26.277  25.048  1.00  0.00     0.083 A 
ATOM      6  C   UNL A   1      33.335  26.130  21.717  1.00  0.00     0.044 C 
ATOM      7  C   UNL A   1      32.362  25.854  22.822  1.00  0.00    -0.050 A 
ATOM      8  C   UNL A   1      31.448  24.816  22.691  1.00  0.00     0.005 A 
ATOM      9  C   UNL A   1      32.331  26.616  23.991  1.00  0.00     0.021 A 
ATOM     10  C   UNL A   1      30.635  24.455  23.765  1.00  0.00     0.027 A 
ATOM     11  C   UNL A   1      30.719  25.085  25.000  1.00  0.00     0.055 A 
BRANCH  11  12
ATOM     12  N   UNL A   1      30.029  24.567  26.122  1.00  0.00    -0.324 N 
ATOM     13  C   UNL A   1      30.336  23.512  26.962  1.00  0.00     0.243 C 
ATOM     14  H   UNL A   1      29.191  25.036  26.341  1.00  0.00     0.170 HD
ATOM     15  O   UNL A   1      29.444  23.098  27.716  1.00  0.00    -0.273 OA
BRANCH  13  16
ATOM     16  C   UNL A   1      31.737  22.849  26.982  1.00  0.00     0.216 C 
BRANCH  16  17
ATOM     17  N   UNL A   1      32.013  21.924  25.893  1.00  0.00    -0.347 N 
ATOM     18  C   UNL A   1      32.997  21.931  24.955  1.00  0.00     0.225 C 
ATOM     19  H   UNL A   1      31.384  21.170  25.824  1.00  0.00     0.164 HD
ATOM     20  O   UNL A   1      32.793  21.174  23.991  1.00  0.00    -0.275 OA
BRANCH  18  21
ATOM     21  C   UNL A   1      34.343  22.707  25.062  1.00  0.00     0.041 C 
ATOM     22  C   UNL A   1      34.343  24.127  25.637  1.00  0.00     0.021 C 
ATOM     23  C   UNL A   1      35.290  21.845  25.906  1.00  0.00     0.021 C 
ATOM     24  C   UNL A   1      34.922  22.821  23.629  1.00  0.00     0.021 C 
ENDBRANCH  18  21
ENDBRANCH  16  17
ENDBRANCH  13  16
ENDBRANCH  11  12
ENDBRANCH   3   5
ENDBRANCH   2   3
ENDBRANCH   1   2
BRANCH   1  25
ATOM     25  C   UNL A   1      33.328  29.560  26.139  1.00  0.00     0.275 C 
BRANCH  25  26
ATOM     26  O   UNL A   1      34.027  29.330  27.398  1.00  0.00    -0.458 OA
BRANCH  26  27
ATOM     27  C   UNL A   1      34.789  30.192  28.107  1.00  0.00     0.338 C 
ATOM     28  O   UNL A   1      34.407  31.300  28.462  1.00  0.00    -0.246 OA
BRANCH  27  29
ATOM     29  C   UNL A   1      36.178  29.773  28.267  1.00  0.00     0.060 A 
ATOM     30  C   UNL A   1      37.088  29.896  27.205  1.00  0.00     0.016 A 
ATOM     31  C   UNL A   1      36.570  29.342  29.530  1.00  0.00     0.016 A 
ATOM     32  C   UNL A   1      38.440  29.683  27.437  1.00  0.00     0.010 A 
ATOM     33  C   UNL A   1      37.908  29.219  29.782  1.00  0.00     0.010 A 
ATOM     34  C   UNL A   1      38.828  29.333  28.724  1.00  0.00    -0.014 A 
BRANCH  34  35
ATOM     35  C   UNL A   1      40.099  28.706  29.027  1.00  0.00     0.031 A 
ATOM     36  C   UNL A   1      40.352  27.278  28.837  1.00  0.00     0.074 A 
ATOM     37  C   UNL A   1      41.048  29.646  29.230  1.00  0.00     0.049 A 
ATOM     38  N   UNL A   1      41.464  26.717  29.157  1.00  0.00    -0.248 NA
ATOM     39  C   UNL A   1      39.358  26.341  28.324  1.00  0.00     0.031 C 
ATOM     40  C   UNL A   1      42.479  29.609  29.023  1.00  0.00     0.029 A 
ATOM     41  N   UNL A   1      40.816  30.904  29.810  1.00  0.00    -0.354 N 
ATOM     42  C   UNL A   1      41.456  25.451  28.613  1.00  0.00     0.074 A 
ATOM     43  C   UNL A   1      40.081  25.216  28.252  1.00  0.00     0.031 C 
ATOM     44  C   UNL A   1      43.024  30.644  29.693  1.00  0.00     0.029 A 
ATOM     45  C   UNL A   1      41.967  31.210  30.529  1.00  0.00     0.049 A 
ATOM     46  H   UNL A   1      40.006  31.456  29.726  1.00  0.00     0.167 HD
ATOM     47  C   UNL A   1      42.661  24.856  28.376  1.00  0.00     0.034 A 
ATOM     48  C   UNL A   1      41.959  31.237  31.898  1.00  0.00     0.034 A 
ATOM     49  C   UNL A   1      43.734  25.650  29.002  1.00  0.00     0.049 A 
ATOM     50  C   UNL A   1      42.928  30.214  32.448  1.00  0.00     0.074 A 
ATOM     51  C   UNL A   1      44.586  26.615  28.491  1.00  0.00     0.029 A 
ATOM     52  N   UNL A   1      43.798  25.760  30.389  1.00  0.00    -0.354 N 
ATOM     53  N   UNL A   1      43.292  29.138  31.808  1.00  0.00    -0.248 NA
ATOM     54  C   UNL A   1      43.566  30.344  33.750  1.00  0.00     0.031 C 
ATOM     55  C   UNL A   1      45.056  27.398  29.582  1.00  0.00     0.029 A 
ATOM     56  C   UNL A   1      44.531  26.879  30.755  1.00  0.00     0.049 A 
ATOM     57  H   UNL A   1      43.382  25.130  31.021  1.00  0.00     0.167 HD
ATOM     58  C   UNL A   1      44.181  28.433  32.566  1.00  0.00     0.074 A 
ATOM     59  C   UNL A   1      44.338  29.244  33.765  1.00  0.00     0.031 C 
ATOM     60  C   UNL A   1      44.700  27.235  32.161  1.00  0.00     0.034 A 
BRANCH  47  61
ATOM     61  C   UNL A   1      42.953  23.765  27.348  1.00  0.00     0.023 A 
ATOM     62  C   UNL A   1      43.709  24.154  26.214  1.00  0.00     0.012 A 
ATOM     63  C   UNL A   1      42.465  22.436  27.327  1.00  0.00     0.148 A 
ATOM     64  C   UNL A   1      43.911  23.315  25.110  1.00  0.00     0.002 A 
ATOM     65  C   UNL A   1      42.679  21.588  26.230  1.00  0.00     0.091 A 
ATOM     66  F   UNL A   1      41.761  21.960  28.352  1.00  0.00    -0.205 F 
ATOM     67  C   UNL A   1      43.388  22.033  25.113  1.00  0.00     0.022 A 
BRANCH  65  68
ATOM     68  S   UNL A   1      42.047  19.898  26.164  1.00  0.00     0.127 S 
ATOM     69  O   UNL A   1      40.605  20.114  26.056  1.00  0.00    -0.237 OA
ATOM     70  O   UNL A   1      42.677  19.376  24.952  1.00  0.00    -0.237 OA
ATOM     71  O   UNL A   1      42.476  19.247  27.396  1.00  0.00    -0.744 OA
ENDBRANCH  65  68
ENDBRANCH  47  61
BRANCH  48  72
ATOM     72  C   UNL A   1      40.620  31.528  32.522  1.00  0.00     0.023 A 
ATOM     73  C   UNL A   1      39.758  30.435  32.805  1.00  0.00     0.012 A 
ATOM     74  C   UNL A   1      40.371  32.756  33.160  1.00  0.00     0.148 A 
ATOM     75  C   UNL A   1      38.769  30.527  33.788  1.00  0.00     0.002 A 
ATOM     76  C   UNL A   1      39.396  32.834  34.152  1.00  0.00     0.091 A 
ATOM     77  F   UNL A   1      41.129  33.814  32.847  1.00  0.00    -0.205 F 
ATOM     78  C   UNL A   1      38.609  31.718  34.482  1.00  0.00     0.022 A 
BRANCH  76  79
ATOM     79  S   UNL A   1      39.264  34.257  35.236  1.00  0.00     0.127 S 
ATOM     80  O   UNL A   1      38.700  35.273  34.354  1.00  0.00    -0.237 OA
ATOM     81  O   UNL A   1      38.344  33.754  36.256  1.00  0.00    -0.237 OA
ATOM     82  O   UNL A   1      40.608  34.508  35.730  1.00  0.00    -0.744 OA
ENDBRANCH  76  79
ENDBRANCH  48  72
BRANCH  60  83
ATOM     83  C   UNL A   1      45.450  26.297  33.073  1.00  0.00     0.023 A 
ATOM     84  C   UNL A   1      46.844  26.389  33.244  1.00  0.00     0.012 A 
ATOM     85  C   UNL A   1      44.755  25.398  33.918  1.00  0.00     0.148 A 
ATOM     86  C   UNL A   1      47.532  25.574  34.145  1.00  0.00     0.002 A 
ATOM     87  C   UNL A   1      45.429  24.678  34.897  1.00  0.00     0.091 A 
ATOM     88  F   UNL A   1      43.434  25.223  33.770  1.00  0.00    -0.205 F 
ATOM     89  C   UNL A   1      46.821  24.733  34.988  1.00  0.00     0.022 A 
BRANCH  87  90
ATOM     90  S   UNL A   1      44.520  23.798  36.173  1.00  0.00     0.127 S 
ATOM     91  O   UNL A   1      43.795  24.880  36.833  1.00  0.00    -0.237 OA
ATOM     92  O   UNL A   1      43.679  22.888  35.391  1.00  0.00    -0.237 OA
ATOM     93  O   UNL A   1      45.540  23.125  36.966  1.00  0.00    -0.744 OA
ENDBRANCH  87  90
ENDBRANCH  60  83
ENDBRANCH  34  35
ENDBRANCH  27  29
ENDBRANCH  26  27
ENDBRANCH  25  26
ENDBRANCH   1  25
TORSDOF 18
ENDMDL
MODEL 2
REMARK VINA RESULT:     -11.4      4.073      9.395
REMARK SMILES Cc1ccc(NC(=O)CNC(=O)C(C)(C)C)c(C(=O)OCCOC(=O)c2ccc(-c3c4nc(c(-c5cccc(S(=O)(=O)[O-])c5F)c5ccc([nH]5)c(-c5cccc(S(=O)(=O)[O-])c5F)c5nc(c(-c6cccc(S(=O)(=O)[O-])c6F)c6ccc3[nH]6)C=C5)C=C4)cc2)c1
REMARK SMILES IDX 21 1 20 2 18 3 19 4 17 5 1 6 2 7 3 8 89 9 4 10 5 11 6 12
REMARK SMILES IDX 7 13 8 15 9 16 10 17 11 18 12 20 13 21 14 22 15 23 16 24
REMARK SMILES IDX 22 25 23 26 24 27 25 28 26 29 27 30 88 31 28 32 87 33 29 34
REMARK SMILES IDX 30 35 31 36 81 37 32 38 86 39 80 40 82 41 33 42 85 43 79 44
REMARK SMILES IDX 78 45 34 47 66 48 46 49 65 50 47 51 50 52 64 53 83 54 48 55
REMARK SMILES IDX 49 56 63 58 84 59 51 60 35 61 36 62 44 63 37 64 39 65 45 66
REMARK SMILES IDX 38 67 40 68 41 69 42 70 43 71 67 72 68 73 76 74 69 75 71 76
REMARK SMILES IDX 77 77 70 78 72 79 73 80 74 81 75 82 52 83 53 84 61 85 54 86
REMARK SMILES IDX 56 87 62 88 55 89 57 90 58 91 59 92 60 93
REMARK H PARENT 6 14 10 19 82 46 50 57
REMARK Flexibility Score: inf
ROOT
ATOM      1  C   UNL A   1      36.123  23.067  25.019  1.00  0.00     0.275 C 
ENDROOT
BRANCH   1   2
ATOM      2  O   UNL A   1      35.251  24.081  24.498  1.00  0.00    -0.458 OA
BRANCH   2   3
ATOM      3  C   UNL A   1      34.191  23.770  23.729  1.00  0.00     0.340 C 
ATOM      4  O   UNL A   1      34.222  23.274  22.616  1.00  0.00    -0.246 OA
BRANCH   3   5
ATOM      5  C   UNL A   1      32.931  24.039  24.457  1.00  0.00     0.083 A 
ATOM      6  C   UNL A   1      31.573  26.801  26.730  1.00  0.00     0.044 C 
ATOM      7  C   UNL A   1      31.801  25.474  26.074  1.00  0.00    -0.050 A 
ATOM      8  C   UNL A   1      31.008  24.388  26.424  1.00  0.00     0.005 A 
ATOM      9  C   UNL A   1      32.799  25.280  25.117  1.00  0.00     0.021 A 
ATOM     10  C   UNL A   1      31.110  23.186  25.722  1.00  0.00     0.027 A 
ATOM     11  C   UNL A   1      31.971  23.031  24.644  1.00  0.00     0.055 A 
BRANCH  11  12
ATOM     12  N   UNL A   1      31.907  21.875  23.831  1.00  0.00    -0.324 N 
ATOM     13  C   UNL A   1      32.507  20.637  23.974  1.00  0.00     0.243 C 
ATOM     14  H   UNL A   1      31.341  21.967  23.030  1.00  0.00     0.170 HD
ATOM     15  O   UNL A   1      32.498  19.877  22.996  1.00  0.00    -0.273 OA
BRANCH  13  16
ATOM     16  C   UNL A   1      33.177  20.188  25.298  1.00  0.00     0.216 C 
BRANCH  16  17
ATOM     17  N   UNL A   1      32.766  18.886  25.803  1.00  0.00    -0.347 N 
ATOM     18  C   UNL A   1      33.141  17.633  25.429  1.00  0.00     0.225 C 
ATOM     19  H   UNL A   1      32.110  18.917  26.536  1.00  0.00     0.164 HD
ATOM     20  O   UNL A   1      32.400  16.729  25.848  1.00  0.00    -0.275 OA
BRANCH  18  21
ATOM     21  C   UNL A   1      34.434  17.276  24.639  1.00  0.00     0.041 C 
ATOM     22  C   UNL A   1      35.569  18.302  24.558  1.00  0.00     0.021 C 
ATOM     23  C   UNL A   1      34.994  15.988  25.257  1.00  0.00     0.021 C 
ATOM     24  C   UNL A   1      34.013  16.980  23.178  1.00  0.00     0.021 C 
ENDBRANCH  18  21
ENDBRANCH  16  17
ENDBRANCH  13  16
ENDBRANCH  11  12
ENDBRANCH   3   5
ENDBRANCH   2   3
ENDBRANCH   1   2
BRANCH   1  25
ATOM     25  C   UNL A   1      37.593  23.363  25.386  1.00  0.00     0.275 C 
BRANCH  25  26
ATOM     26  O   UNL A   1      38.441  22.562  26.261  1.00  0.00    -0.458 OA
BRANCH  26  27
ATOM     27  C   UNL A   1      39.697  22.824  26.685  1.00  0.00     0.338 C 
ATOM     28  O   UNL A   1      40.562  21.967  26.815  1.00  0.00    -0.246 OA
BRANCH  27  29
ATOM     29  C   UNL A   1      39.898  24.193  27.153  1.00  0.00     0.060 A 
ATOM     30  C   UNL A   1      40.558  25.133  26.347  1.00  0.00     0.016 A 
ATOM     31  C   UNL A   1      39.329  24.536  28.375  1.00  0.00     0.016 A 
ATOM     32  C   UNL A   1      40.562  26.470  26.721  1.00  0.00     0.010 A 
ATOM     33  C   UNL A   1      39.254  25.862  28.700  1.00  0.00     0.010 A 
ATOM     34  C   UNL A   1      39.918  26.812  27.903  1.00  0.00    -0.014 A 
BRANCH  34  35
ATOM     35  C   UNL A   1      40.167  28.050  28.613  1.00  0.00     0.031 A 
ATOM     36  C   UNL A   1      39.278  29.210  28.536  1.00  0.00     0.074 A 
ATOM     37  C   UNL A   1      41.142  27.876  29.531  1.00  0.00     0.049 A 
ATOM     38  N   UNL A   1      39.529  30.324  29.127  1.00  0.00    -0.248 NA
ATOM     39  C   UNL A   1      38.053  29.238  27.743  1.00  0.00     0.031 C 
ATOM     40  C   UNL A   1      41.388  28.539  30.792  1.00  0.00     0.029 A 
ATOM     41  N   UNL A   1      42.239  27.011  29.378  1.00  0.00    -0.354 N 
ATOM     42  C   UNL A   1      38.385  31.089  29.064  1.00  0.00     0.074 A 
ATOM     43  C   UNL A   1      37.566  30.443  28.068  1.00  0.00     0.031 C 
ATOM     44  C   UNL A   1      42.655  28.270  31.166  1.00  0.00     0.029 A 
ATOM     45  C   UNL A   1      43.304  27.628  30.025  1.00  0.00     0.049 A 
ATOM     46  H   UNL A   1      42.251  26.145  28.910  1.00  0.00     0.167 HD
ATOM     47  C   UNL A   1      38.220  32.060  30.008  1.00  0.00     0.034 A 
ATOM     48  C   UNL A   1      44.362  28.134  29.319  1.00  0.00     0.034 A 
ATOM     49  C   UNL A   1      39.472  32.224  30.770  1.00  0.00     0.049 A 
ATOM     50  C   UNL A   1      44.482  29.624  29.551  1.00  0.00     0.074 A 
ATOM     51  C   UNL A   1      39.888  31.704  31.985  1.00  0.00     0.029 A 
ATOM     52  N   UNL A   1      40.613  32.710  30.135  1.00  0.00    -0.354 N 
ATOM     53  N   UNL A   1      43.484  30.392  29.890  1.00  0.00    -0.248 NA
ATOM     54  C   UNL A   1      45.740  30.348  29.432  1.00  0.00     0.031 C 
ATOM     55  C   UNL A   1      41.310  31.757  32.012  1.00  0.00     0.029 A 
ATOM     56  C   UNL A   1      41.752  32.352  30.841  1.00  0.00     0.049 A 
ATOM     57  H   UNL A   1      40.611  33.234  29.302  1.00  0.00     0.167 HD
ATOM     58  C   UNL A   1      43.922  31.675  30.035  1.00  0.00     0.074 A 
ATOM     59  C   UNL A   1      45.349  31.592  29.760  1.00  0.00     0.031 C 
ATOM     60  C   UNL A   1      43.079  32.705  30.347  1.00  0.00     0.034 A 
BRANCH  47  61
ATOM     61  C   UNL A   1      36.896  32.652  30.486  1.00  0.00     0.023 A 
ATOM     62  C   UNL A   1      36.469  32.276  31.784  1.00  0.00     0.012 A 
ATOM     63  C   UNL A   1      35.979  33.442  29.750  1.00  0.00     0.148 A 
ATOM     64  C   UNL A   1      35.203  32.596  32.292  1.00  0.00     0.002 A 
ATOM     65  C   UNL A   1      34.718  33.778  30.261  1.00  0.00     0.091 A 
ATOM     66  F   UNL A   1      36.288  33.869  28.528  1.00  0.00    -0.205 F 
ATOM     67  C   UNL A   1      34.322  33.342  31.527  1.00  0.00     0.022 A 
BRANCH  65  68
ATOM     68  S   UNL A   1      33.519  34.762  29.336  1.00  0.00     0.127 S 
ATOM     69  O   UNL A   1      32.413  34.871  30.287  1.00  0.00    -0.237 OA
ATOM     70  O   UNL A   1      34.249  36.009  29.107  1.00  0.00    -0.237 OA
ATOM     71  O   UNL A   1      33.212  34.010  28.126  1.00  0.00    -0.744 OA
ENDBRANCH  65  68
ENDBRANCH  47  61
BRANCH  48  72
ATOM     72  C   UNL A   1      44.609  27.482  27.984  1.00  0.00     0.023 A 
ATOM     73  C   UNL A   1      44.212  28.178  26.812  1.00  0.00     0.012 A 
ATOM     74  C   UNL A   1      45.530  26.427  27.854  1.00  0.00     0.148 A 
ATOM     75  C   UNL A   1      44.812  27.920  25.577  1.00  0.00     0.002 A 
ATOM     76  C   UNL A   1      46.138  26.189  26.624  1.00  0.00     0.091 A 
ATOM     77  F   UNL A   1      45.856  25.715  28.940  1.00  0.00    -0.205 F 
ATOM     78  C   UNL A   1      45.797  26.946  25.490  1.00  0.00     0.022 A 
BRANCH  76  79
ATOM     79  S   UNL A   1      47.557  25.104  26.467  1.00  0.00     0.127 S 
ATOM     80  O   UNL A   1      47.898  25.234  25.055  1.00  0.00    -0.237 OA
ATOM     81  O   UNL A   1      48.504  25.738  27.385  1.00  0.00    -0.237 OA
ATOM     82  O   UNL A   1      47.106  23.793  26.902  1.00  0.00    -0.744 OA
ENDBRANCH  76  79
ENDBRANCH  48  72
BRANCH  60  83
ATOM     83  C   UNL A   1      43.459  34.160  30.236  1.00  0.00     0.023 A 
ATOM     84  C   UNL A   1      43.953  34.882  31.340  1.00  0.00     0.012 A 
ATOM     85  C   UNL A   1      43.490  34.808  28.978  1.00  0.00     0.148 A 
ATOM     86  C   UNL A   1      44.379  36.206  31.224  1.00  0.00     0.002 A 
ATOM     87  C   UNL A   1      44.029  36.082  28.847  1.00  0.00     0.091 A 
ATOM     88  F   UNL A   1      42.986  34.197  27.895  1.00  0.00    -0.205 F 
ATOM     89  C   UNL A   1      44.437  36.800  29.972  1.00  0.00     0.022 A 
BRANCH  87  90
ATOM     90  S   UNL A   1      44.370  36.768  27.221  1.00  0.00     0.127 S 
ATOM     91  O   UNL A   1      43.027  36.952  26.679  1.00  0.00    -0.237 OA
ATOM     92  O   UNL A   1      45.073  38.012  27.545  1.00  0.00    -0.237 OA
ATOM     93  O   UNL A   1      45.204  35.773  26.560  1.00  0.00    -0.744 OA
ENDBRANCH  87  90
ENDBRANCH  60  83
ENDBRANCH  34  35
ENDBRANCH  27  29
ENDBRANCH  26  27
ENDBRANCH  25  26
ENDBRANCH   1  25
TORSDOF 18
ENDMDL
MODEL 3
REMARK VINA RESULT:     -11.3      3.664      6.257
REMARK SMILES Cc1ccc(NC(=O)CNC(=O)C(C)(C)C)c(C(=O)OCCOC(=O)c2ccc(-c3c4nc(c(-c5cccc(S(=O)(=O)[O-])c5F)c5ccc([nH]5)c(-c5cccc(S(=O)(=O)[O-])c5F)c5nc(c(-c6cccc(S(=O)(=O)[O-])c6F)c6ccc3[nH]6)C=C5)C=C4)cc2)c1
REMARK SMILES IDX 21 1 20 2 18 3 19 4 17 5 1 6 2 7 3 8 89 9 4 10 5 11 6 12
REMARK SMILES IDX 7 13 8 15 9 16 10 17 11 18 12 20 13 21 14 22 15 23 16 24
REMARK SMILES IDX 22 25 23 26 24 27 25 28 26 29 27 30 88 31 28 32 87 33 29 34
REMARK SMILES IDX 30 35 31 36 81 37 32 38 86 39 80 40 82 41 33 42 85 43 79 44
REMARK SMILES IDX 78 45 34 47 66 48 46 49 65 50 47 51 50 52 64 53 83 54 48 55
REMARK SMILES IDX 49 56 63 58 84 59 51 60 35 61 36 62 44 63 37 64 39 65 45 66
REMARK SMILES IDX 38 67 40 68 41 69 42 70 43 71 67 72 68 73 76 74 69 75 71 76
REMARK SMILES IDX 77 77 70 78 72 79 73 80 74 81 75 82 52 83 53 84 61 85 54 86
REMARK SMILES IDX 56 87 62 88 55 89 57 90 58 91 59 92 60 93
REMARK H PARENT 6 14 10 19 82 46 50 57
REMARK Flexibility Score: inf
ROOT
ATOM      1  C   UNL A   1      33.166  35.208  29.731  1.00  0.00     0.275 C 
ENDROOT
BRANCH   1   2
ATOM      2  O   UNL A   1      33.789  33.950  29.430  1.00  0.00    -0.458 OA
BRANCH   2   3
ATOM      3  C   UNL A   1      34.599  33.805  28.365  1.00  0.00     0.340 C 
ATOM      4  O   UNL A   1      34.641  34.522  27.381  1.00  0.00    -0.246 OA
BRANCH   3   5
ATOM      5  C   UNL A   1      35.524  32.669  28.575  1.00  0.00     0.083 A 
ATOM      6  C   UNL A   1      39.250  32.224  29.325  1.00  0.00     0.044 C 
ATOM      7  C   UNL A   1      37.849  31.983  28.853  1.00  0.00    -0.050 A 
ATOM      8  C   UNL A   1      37.514  30.759  28.288  1.00  0.00     0.005 A 
ATOM      9  C   UNL A   1      36.854  32.958  28.952  1.00  0.00     0.021 A 
ATOM     10  C   UNL A   1      36.185  30.467  27.976  1.00  0.00     0.027 A 
ATOM     11  C   UNL A   1      35.152  31.358  28.238  1.00  0.00     0.055 A 
BRANCH  11  12
ATOM     12  N   UNL A   1      33.802  30.957  28.099  1.00  0.00    -0.324 N 
ATOM     13  C   UNL A   1      33.217  30.040  27.245  1.00  0.00     0.243 C 
ATOM     14  H   UNL A   1      33.176  31.405  28.712  1.00  0.00     0.170 HD
ATOM     15  O   UNL A   1      31.982  30.054  27.144  1.00  0.00    -0.273 OA
BRANCH  13  16
ATOM     16  C   UNL A   1      34.049  29.018  26.428  1.00  0.00     0.216 C 
BRANCH  16  17
ATOM     17  N   UNL A   1      34.051  29.215  24.985  1.00  0.00    -0.347 N 
ATOM     18  C   UNL A   1      33.875  28.326  23.971  1.00  0.00     0.225 C 
ATOM     19  H   UNL A   1      34.204  30.144  24.697  1.00  0.00     0.164 HD
ATOM     20  O   UNL A   1      34.221  28.747  22.855  1.00  0.00    -0.275 OA
BRANCH  18  21
ATOM     21  C   UNL A   1      33.203  26.928  24.101  1.00  0.00     0.041 C 
ATOM     22  C   UNL A   1      33.982  25.781  24.754  1.00  0.00     0.021 C 
ATOM     23  C   UNL A   1      31.898  27.130  24.883  1.00  0.00     0.021 C 
ATOM     24  C   UNL A   1      32.852  26.453  22.669  1.00  0.00     0.021 C 
ENDBRANCH  18  21
ENDBRANCH  16  17
ENDBRANCH  13  16
ENDBRANCH  11  12
ENDBRANCH   3   5
ENDBRANCH   2   3
ENDBRANCH   1   2
BRANCH   1  25
ATOM     25  C   UNL A   1      32.817  35.621  31.177  1.00  0.00     0.275 C 
BRANCH  25  26
ATOM     26  O   UNL A   1      33.608  36.491  32.040  1.00  0.00    -0.458 OA
BRANCH  26  27
ATOM     27  C   UNL A   1      34.102  36.231  33.270  1.00  0.00     0.338 C 
ATOM     28  O   UNL A   1      33.769  36.842  34.278  1.00  0.00    -0.246 OA
BRANCH  27  29
ATOM     29  C   UNL A   1      35.207  35.277  33.283  1.00  0.00     0.060 A 
ATOM     30  C   UNL A   1      35.481  34.517  34.432  1.00  0.00     0.016 A 
ATOM     31  C   UNL A   1      35.901  35.093  32.092  1.00  0.00     0.016 A 
ATOM     32  C   UNL A   1      36.399  33.480  34.360  1.00  0.00     0.010 A 
ATOM     33  C   UNL A   1      36.738  34.017  31.994  1.00  0.00     0.010 A 
ATOM     34  C   UNL A   1      37.026  33.254  33.141  1.00  0.00    -0.014 A 
BRANCH  34  35
ATOM     35  C   UNL A   1      38.257  32.501  33.008  1.00  0.00     0.031 A 
ATOM     36  C   UNL A   1      38.311  31.146  32.458  1.00  0.00     0.074 A 
ATOM     37  C   UNL A   1      39.322  33.310  33.194  1.00  0.00     0.049 A 
ATOM     38  N   UNL A   1      39.398  30.463  32.389  1.00  0.00    -0.248 NA
ATOM     39  C   UNL A   1      37.139  30.417  31.987  1.00  0.00     0.031 C 
ATOM     40  C   UNL A   1      40.669  33.242  32.670  1.00  0.00     0.029 A 
ATOM     41  N   UNL A   1      39.351  34.406  34.073  1.00  0.00    -0.354 N 
ATOM     42  C   UNL A   1      39.144  29.365  31.597  1.00  0.00     0.074 A 
ATOM     43  C   UNL A   1      37.706  29.301  31.510  1.00  0.00     0.031 C 
ATOM     44  C   UNL A   1      41.447  34.055  33.411  1.00  0.00     0.029 A 
ATOM     45  C   UNL A   1      40.650  34.466  34.566  1.00  0.00     0.049 A 
ATOM     46  H   UNL A   1      38.604  35.008  34.295  1.00  0.00     0.167 HD
ATOM     47  C   UNL A   1      40.204  28.776  30.973  1.00  0.00     0.034 A 
ATOM     48  C   UNL A   1      40.925  34.168  35.873  1.00  0.00     0.034 A 
ATOM     49  C   UNL A   1      41.461  29.336  31.501  1.00  0.00     0.049 A 
ATOM     50  C   UNL A   1      41.871  32.990  35.954  1.00  0.00     0.074 A 
ATOM     51  C   UNL A   1      42.289  30.345  31.037  1.00  0.00     0.029 A 
ATOM     52  N   UNL A   1      41.819  29.109  32.828  1.00  0.00    -0.354 N 
ATOM     53  N   UNL A   1      41.978  32.077  35.030  1.00  0.00    -0.248 NA
ATOM     54  C   UNL A   1      42.771  32.770  37.077  1.00  0.00     0.031 C 
ATOM     55  C   UNL A   1      43.054  30.817  32.140  1.00  0.00     0.029 A 
ATOM     56  C   UNL A   1      42.727  30.066  33.257  1.00  0.00     0.049 A 
ATOM     57  H   UNL A   1      41.475  28.373  33.384  1.00  0.00     0.167 HD
ATOM     58  C   UNL A   1      42.922  31.163  35.396  1.00  0.00     0.074 A 
ATOM     59  C   UNL A   1      43.408  31.655  36.678  1.00  0.00     0.031 C 
ATOM     60  C   UNL A   1      43.216  30.068  34.633  1.00  0.00     0.034 A 
BRANCH  47  61
ATOM     61  C   UNL A   1      40.161  27.945  29.691  1.00  0.00     0.023 A 
ATOM     62  C   UNL A   1      39.375  26.767  29.730  1.00  0.00     0.012 A 
ATOM     63  C   UNL A   1      40.901  28.144  28.500  1.00  0.00     0.148 A 
ATOM     64  C   UNL A   1      39.373  25.819  28.698  1.00  0.00     0.002 A 
ATOM     65  C   UNL A   1      40.889  27.205  27.458  1.00  0.00     0.091 A 
ATOM     66  F   UNL A   1      41.656  29.230  28.349  1.00  0.00    -0.205 F 
ATOM     67  C   UNL A   1      40.137  26.033  27.563  1.00  0.00     0.022 A 
BRANCH  65  68
ATOM     68  S   UNL A   1      41.842  27.419  25.940  1.00  0.00     0.127 S 
ATOM     69  O   UNL A   1      41.406  28.740  25.488  1.00  0.00    -0.237 OA
ATOM     70  O   UNL A   1      43.220  27.366  26.425  1.00  0.00    -0.237 OA
ATOM     71  O   UNL A   1      41.468  26.319  25.058  1.00  0.00    -0.744 OA
ENDBRANCH  65  68
ENDBRANCH  47  61
BRANCH  48  72
ATOM     72  C   UNL A   1      39.781  34.378  36.829  1.00  0.00     0.023 A 
ATOM     73  C   UNL A   1      39.014  33.248  37.219  1.00  0.00     0.012 A 
ATOM     74  C   UNL A   1      39.697  35.543  37.612  1.00  0.00     0.148 A 
ATOM     75  C   UNL A   1      38.297  33.238  38.419  1.00  0.00     0.002 A 
ATOM     76  C   UNL A   1      38.997  35.518  38.815  1.00  0.00     0.091 A 
ATOM     77  F   UNL A   1      40.356  36.639  37.214  1.00  0.00    -0.205 F 
ATOM     78  C   UNL A   1      38.313  34.363  39.231  1.00  0.00     0.022 A 
BRANCH  76  79
ATOM     79  S   UNL A   1      39.136  36.843  40.016  1.00  0.00     0.127 S 
ATOM     80  O   UNL A   1      38.380  36.322  41.150  1.00  0.00    -0.237 OA
ATOM     81  O   UNL A   1      40.584  36.893  40.218  1.00  0.00    -0.237 OA
ATOM     82  O   UNL A   1      38.592  38.026  39.370  1.00  0.00    -0.744 OA
ENDBRANCH  76  79
ENDBRANCH  48  72
BRANCH  60  83
ATOM     83  C   UNL A   1      44.031  28.899  35.125  1.00  0.00     0.023 A 
ATOM     84  C   UNL A   1      45.433  28.971  35.240  1.00  0.00     0.012 A 
ATOM     85  C   UNL A   1      43.401  27.744  35.648  1.00  0.00     0.148 A 
ATOM     86  C   UNL A   1      46.184  27.919  35.768  1.00  0.00     0.002 A 
ATOM     87  C   UNL A   1      44.142  26.755  36.283  1.00  0.00     0.091 A 
ATOM     88  F   UNL A   1      42.074  27.589  35.524  1.00  0.00    -0.205 F 
ATOM     89  C   UNL A   1      45.536  26.819  36.310  1.00  0.00     0.022 A 
BRANCH  87  90
ATOM     90  S   UNL A   1      43.324  25.465  37.229  1.00  0.00     0.127 S 
ATOM     91  O   UNL A   1      42.760  24.625  36.176  1.00  0.00    -0.237 OA
ATOM     92  O   UNL A   1      44.437  24.857  37.963  1.00  0.00    -0.237 OA
ATOM     93  O   UNL A   1      42.369  26.166  38.076  1.00  0.00    -0.744 OA
ENDBRANCH  87  90
ENDBRANCH  60  83
ENDBRANCH  34  35
ENDBRANCH  27  29
ENDBRANCH  26  27
ENDBRANCH  25  26
ENDBRANCH   1  25
TORSDOF 18
ENDMDL
