MODEL 1
REMARK VINA RESULT:     -12.3      0.000      0.000
REMARK SMILES Cc1ccc(F)c(C(=O)Nc2cccc(C(=O)OCCOC(=O)c3ccc(-c4c5nc(c(-c6cccc(S(=O)(=O)[O-])c6F)c6ccc([nH]6)c(-c6cccc(S(=O)(=O)[O-])c6F)c6nc(c(-c7cccc(S(=O)(=O)[O-])c7F)c7ccc4[nH]7)C=C6)C=C5)cc3)c2)c1
REMARK SMILES IDX 20 1 19 2 18 3 16 4 17 5 15 6 11 7 12 8 87 9 13 10 14 11
REMARK SMILES IDX 10 12 8 13 9 14 7 16 1 17 2 18 3 19 88 20 4 21 5 22 6 23
REMARK SMILES IDX 21 24 22 25 23 26 24 27 25 28 86 29 26 30 85 31 27 32 28 33
REMARK SMILES IDX 29 34 79 35 30 36 84 37 78 38 80 39 31 40 83 41 77 42 76 43
REMARK SMILES IDX 32 45 64 46 44 47 63 48 45 49 48 50 62 51 81 52 46 53 47 54
REMARK SMILES IDX 61 56 82 57 49 58 33 59 34 60 42 61 35 62 37 63 43 64 36 65
REMARK SMILES IDX 38 66 39 67 40 68 41 69 65 70 66 71 74 72 67 73 69 74 75 75
REMARK SMILES IDX 68 76 70 77 71 78 72 79 73 80 50 81 51 82 59 83 52 84 54 85
REMARK SMILES IDX 60 86 53 87 55 88 56 89 57 90 58 91
REMARK H PARENT 10 15 80 44 48 55
REMARK Flexibility Score: inf
ROOT
ATOM      1  C   UNL A   1      36.306  20.676  25.026  1.00  0.00     0.275 C 
ENDROOT
BRANCH   1   2
ATOM      2  C   UNL A   1      34.980  21.425  24.894  1.00  0.00     0.275 C 
BRANCH   2   3
ATOM      3  O   UNL A   1      35.203  22.845  24.781  1.00  0.00    -0.458 OA
BRANCH   3   4
ATOM      4  C   UNL A   1      34.486  23.467  23.814  1.00  0.00     0.338 C 
ATOM      5  O   UNL A   1      34.903  23.849  22.737  1.00  0.00    -0.246 OA
BRANCH   4   6
ATOM      6  C   UNL A   1      33.073  23.642  24.226  1.00  0.00     0.062 A 
ATOM      7  C   UNL A   1      31.510  24.674  25.719  1.00  0.00     0.042 A 
ATOM      8  C   UNL A   1      30.450  24.367  24.859  1.00  0.00     0.026 A 
ATOM      9  C   UNL A   1      32.790  24.178  25.477  1.00  0.00     0.041 A 
ATOM     10  C   UNL A   1      30.721  23.785  23.628  1.00  0.00     0.003 A 
ATOM     11  C   UNL A   1      32.040  23.501  23.286  1.00  0.00     0.016 A 
BRANCH   7  12
ATOM     12  N   UNL A   1      31.270  25.647  26.694  1.00  0.00    -0.322 N 
ATOM     13  C   UNL A   1      31.493  27.014  26.651  1.00  0.00     0.258 C 
ATOM     14  O   UNL A   1      31.235  27.663  27.667  1.00  0.00    -0.269 OA
ATOM     15  H   UNL A   1      30.884  25.310  27.535  1.00  0.00     0.170 HD
BRANCH  13  16
ATOM     16  C   UNL A   1      31.930  27.740  25.416  1.00  0.00     0.076 A 
ATOM     17  C   UNL A   1      30.544  29.318  22.213  1.00  0.00     0.044 C 
ATOM     18  C   UNL A   1      31.499  28.883  23.290  1.00  0.00    -0.050 A 
ATOM     19  C   UNL A   1      32.875  28.974  23.065  1.00  0.00     0.006 A 
ATOM     20  C   UNL A   1      31.041  28.339  24.504  1.00  0.00     0.020 A 
ATOM     21  C   UNL A   1      33.770  28.492  24.016  1.00  0.00     0.040 A 
ATOM     22  C   UNL A   1      33.298  27.860  25.168  1.00  0.00     0.135 A 
ATOM     23  F   UNL A   1      34.207  27.355  26.014  1.00  0.00    -0.206 F 
ENDBRANCH  13  16
ENDBRANCH   7  12
ENDBRANCH   4   6
ENDBRANCH   3   4
ENDBRANCH   2   3
ENDBRANCH   1   2
BRANCH   1  24
ATOM     24  O   UNL A   1      37.411  21.598  25.072  1.00  0.00    -0.458 OA
BRANCH  24  25
ATOM     25  C   UNL A   1      38.502  21.162  25.741  1.00  0.00     0.338 C 
ATOM     26  O   UNL A   1      38.968  20.033  25.743  1.00  0.00    -0.246 OA
BRANCH  25  27
ATOM     27  C   UNL A   1      39.162  22.286  26.419  1.00  0.00     0.060 A 
ATOM     28  C   UNL A   1      38.719  23.570  26.130  1.00  0.00     0.016 A 
ATOM     29  C   UNL A   1      40.303  22.109  27.191  1.00  0.00     0.016 A 
ATOM     30  C   UNL A   1      39.473  24.680  26.475  1.00  0.00     0.010 A 
ATOM     31  C   UNL A   1      40.980  23.236  27.676  1.00  0.00     0.010 A 
ATOM     32  C   UNL A   1      40.594  24.536  27.294  1.00  0.00    -0.014 A 
BRANCH  32  33
ATOM     33  C   UNL A   1      41.333  25.745  27.750  1.00  0.00     0.031 A 
ATOM     34  C   UNL A   1      40.635  26.803  28.558  1.00  0.00     0.074 A 
ATOM     35  C   UNL A   1      42.632  25.904  27.420  1.00  0.00     0.049 A 
ATOM     36  N   UNL A   1      41.045  28.004  28.875  1.00  0.00    -0.248 NA
ATOM     37  C   UNL A   1      39.292  26.475  29.062  1.00  0.00     0.031 C 
ATOM     38  C   UNL A   1      43.438  24.945  26.659  1.00  0.00     0.029 A 
ATOM     39  N   UNL A   1      43.501  26.941  27.662  1.00  0.00    -0.354 N 
ATOM     40  C   UNL A   1      39.981  28.606  29.535  1.00  0.00     0.074 A 
ATOM     41  C   UNL A   1      38.912  27.631  29.587  1.00  0.00     0.031 C 
ATOM     42  C   UNL A   1      44.675  25.430  26.500  1.00  0.00     0.029 A 
ATOM     43  C   UNL A   1      44.721  26.779  27.047  1.00  0.00     0.049 A 
ATOM     44  H   UNL A   1      43.274  27.720  28.218  1.00  0.00     0.167 HD
ATOM     45  C   UNL A   1      39.903  29.858  30.047  1.00  0.00     0.034 A 
ATOM     46  C   UNL A   1      45.743  27.638  26.867  1.00  0.00     0.034 A 
ATOM     47  C   UNL A   1      40.992  30.799  30.034  1.00  0.00     0.049 A 
ATOM     48  C   UNL A   1      45.631  29.023  27.428  1.00  0.00     0.074 A 
ATOM     49  C   UNL A   1      41.038  32.069  30.580  1.00  0.00     0.029 A 
ATOM     50  N   UNL A   1      42.223  30.579  29.433  1.00  0.00    -0.354 N 
ATOM     51  N   UNL A   1      44.644  29.559  28.102  1.00  0.00    -0.248 NA
ATOM     52  C   UNL A   1      46.776  29.918  27.216  1.00  0.00     0.031 C 
ATOM     53  C   UNL A   1      42.283  32.632  30.276  1.00  0.00     0.029 A 
ATOM     54  C   UNL A   1      43.029  31.697  29.575  1.00  0.00     0.049 A 
ATOM     55  H   UNL A   1      42.486  29.749  28.974  1.00  0.00     0.167 HD
ATOM     56  C   UNL A   1      45.049  30.850  28.408  1.00  0.00     0.074 A 
ATOM     57  C   UNL A   1      46.387  31.004  27.872  1.00  0.00     0.031 C 
ATOM     58  C   UNL A   1      44.370  31.825  29.060  1.00  0.00     0.034 A 
BRANCH  45  59
ATOM     59  C   UNL A   1      38.588  30.284  30.650  1.00  0.00     0.023 A 
ATOM     60  C   UNL A   1      38.285  29.976  31.992  1.00  0.00     0.012 A 
ATOM     61  C   UNL A   1      37.656  31.011  29.883  1.00  0.00     0.148 A 
ATOM     62  C   UNL A   1      37.055  30.339  32.544  1.00  0.00     0.002 A 
ATOM     63  C   UNL A   1      36.454  31.414  30.456  1.00  0.00     0.091 A 
ATOM     64  F   UNL A   1      37.949  31.279  28.603  1.00  0.00    -0.205 F 
ATOM     65  C   UNL A   1      36.145  31.063  31.779  1.00  0.00     0.022 A 
BRANCH  63  66
ATOM     66  S   UNL A   1      35.256  32.422  29.575  1.00  0.00     0.127 S 
ATOM     67  O   UNL A   1      34.741  31.474  28.589  1.00  0.00    -0.237 OA
ATOM     68  O   UNL A   1      34.310  32.771  30.636  1.00  0.00    -0.237 OA
ATOM     69  O   UNL A   1      36.001  33.549  29.034  1.00  0.00    -0.744 OA
ENDBRANCH  63  66
ENDBRANCH  45  59
BRANCH  46  70
ATOM     70  C   UNL A   1      46.934  27.201  26.083  1.00  0.00     0.023 A 
ATOM     71  C   UNL A   1      47.029  27.521  24.717  1.00  0.00     0.012 A 
ATOM     72  C   UNL A   1      48.011  26.543  26.713  1.00  0.00     0.148 A 
ATOM     73  C   UNL A   1      48.170  27.183  23.989  1.00  0.00     0.002 A 
ATOM     74  C   UNL A   1      49.170  26.270  26.000  1.00  0.00     0.091 A 
ATOM     75  F   UNL A   1      47.892  26.237  28.014  1.00  0.00    -0.205 F 
ATOM     76  C   UNL A   1      49.246  26.573  24.633  1.00  0.00     0.022 A 
BRANCH  74  77
ATOM     77  S   UNL A   1      50.657  25.635  26.782  1.00  0.00     0.127 S 
ATOM     78  O   UNL A   1      50.159  24.423  27.429  1.00  0.00    -0.237 OA
ATOM     79  O   UNL A   1      51.526  25.406  25.628  1.00  0.00    -0.237 OA
ATOM     80  O   UNL A   1      51.113  26.686  27.681  1.00  0.00    -0.744 OA
ENDBRANCH  74  77
ENDBRANCH  46  70
BRANCH  58  81
ATOM     81  C   UNL A   1      45.070  33.144  29.252  1.00  0.00     0.023 A 
ATOM     82  C   UNL A   1      45.865  33.357  30.395  1.00  0.00     0.012 A 
ATOM     83  C   UNL A   1      44.989  34.148  28.268  1.00  0.00     0.148 A 
ATOM     84  C   UNL A   1      46.545  34.562  30.571  1.00  0.00     0.002 A 
ATOM     85  C   UNL A   1      45.711  35.325  28.423  1.00  0.00     0.091 A 
ATOM     86  F   UNL A   1      44.211  33.933  27.197  1.00  0.00    -0.205 F 
ATOM     87  C   UNL A   1      46.478  35.539  29.580  1.00  0.00     0.022 A 
BRANCH  85  88
ATOM     88  S   UNL A   1      45.762  36.599  27.159  1.00  0.00     0.127 S 
ATOM     89  O   UNL A   1      46.296  35.862  26.015  1.00  0.00    -0.237 OA
ATOM     90  O   UNL A   1      44.352  36.972  27.041  1.00  0.00    -0.237 OA
ATOM     91  O   UNL A   1      46.626  37.651  27.679  1.00  0.00    -0.744 OA
ENDBRANCH  85  88
ENDBRANCH  58  81
ENDBRANCH  32  33
ENDBRANCH  25  27
ENDBRANCH  24  25
ENDBRANCH   1  24
TORSDOF 16
ENDMDL
MODEL 2
REMARK VINA RESULT:     -12.3      1.304      1.530
REMARK SMILES Cc1ccc(F)c(C(=O)Nc2cccc(C(=O)OCCOC(=O)c3ccc(-c4c5nc(c(-c6cccc(S(=O)(=O)[O-])c6F)c6ccc([nH]6)c(-c6cccc(S(=O)(=O)[O-])c6F)c6nc(c(-c7cccc(S(=O)(=O)[O-])c7F)c7ccc4[nH]7)C=C6)C=C5)cc3)c2)c1
REMARK SMILES IDX 20 1 19 2 18 3 16 4 17 5 15 6 11 7 12 8 87 9 13 10 14 11
REMARK SMILES IDX 10 12 8 13 9 14 7 16 1 17 2 18 3 19 88 20 4 21 5 22 6 23
REMARK SMILES IDX 21 24 22 25 23 26 24 27 25 28 86 29 26 30 85 31 27 32 28 33
REMARK SMILES IDX 29 34 79 35 30 36 84 37 78 38 80 39 31 40 83 41 77 42 76 43
REMARK SMILES IDX 32 45 64 46 44 47 63 48 45 49 48 50 62 51 81 52 46 53 47 54
REMARK SMILES IDX 61 56 82 57 49 58 33 59 34 60 42 61 35 62 37 63 43 64 36 65
REMARK SMILES IDX 38 66 39 67 40 68 41 69 65 70 66 71 74 72 67 73 69 74 75 75
REMARK SMILES IDX 68 76 70 77 71 78 72 79 73 80 50 81 51 82 59 83 52 84 54 85
REMARK SMILES IDX 60 86 53 87 55 88 56 89 57 90 58 91
REMARK H PARENT 10 15 80 44 48 55
REMARK Flexibility Score: inf
ROOT
ATOM      1  C   UNL A   1      36.889  20.665  24.662  1.00  0.00     0.275 C 
ENDROOT
BRANCH   1   2
ATOM      2  C   UNL A   1      35.451  21.045  25.016  1.00  0.00     0.275 C 
BRANCH   2   3
ATOM      3  O   UNL A   1      35.303  22.478  25.089  1.00  0.00    -0.458 OA
BRANCH   3   4
ATOM      4  C   UNL A   1      34.720  23.054  24.010  1.00  0.00     0.338 C 
ATOM      5  O   UNL A   1      35.261  23.322  22.953  1.00  0.00    -0.246 OA
BRANCH   4   6
ATOM      6  C   UNL A   1      33.288  23.337  24.264  1.00  0.00     0.062 A 
ATOM      7  C   UNL A   1      31.650  24.455  25.606  1.00  0.00     0.042 A 
ATOM      8  C   UNL A   1      30.676  24.264  24.620  1.00  0.00     0.026 A 
ATOM      9  C   UNL A   1      32.904  23.859  25.494  1.00  0.00     0.041 A 
ATOM     10  C   UNL A   1      31.041  23.697  23.407  1.00  0.00     0.003 A 
ATOM     11  C   UNL A   1      32.364  23.311  23.207  1.00  0.00     0.016 A 
BRANCH   7  12
ATOM     12  N   UNL A   1      31.377  25.416  26.584  1.00  0.00    -0.322 N 
ATOM     13  C   UNL A   1      31.554  26.791  26.545  1.00  0.00     0.258 C 
ATOM     14  O   UNL A   1      31.274  27.428  27.562  1.00  0.00    -0.269 OA
ATOM     15  H   UNL A   1      31.003  25.065  27.424  1.00  0.00     0.170 HD
BRANCH  13  16
ATOM     16  C   UNL A   1      31.966  27.534  25.312  1.00  0.00     0.076 A 
ATOM     17  C   UNL A   1      30.506  29.359  22.278  1.00  0.00     0.044 C 
ATOM     18  C   UNL A   1      31.492  28.802  23.268  1.00  0.00    -0.050 A 
ATOM     19  C   UNL A   1      32.852  28.793  22.951  1.00  0.00     0.006 A 
ATOM     20  C   UNL A   1      31.072  28.242  24.488  1.00  0.00     0.020 A 
ATOM     21  C   UNL A   1      33.765  28.199  23.818  1.00  0.00     0.040 A 
ATOM     22  C   UNL A   1      33.321  27.556  24.974  1.00  0.00     0.135 A 
ATOM     23  F   UNL A   1      34.239  26.943  25.734  1.00  0.00    -0.206 F 
ENDBRANCH  13  16
ENDBRANCH   7  12
ENDBRANCH   4   6
ENDBRANCH   3   4
ENDBRANCH   2   3
ENDBRANCH   1   2
BRANCH   1  24
ATOM     24  O   UNL A   1      37.805  21.699  25.068  1.00  0.00    -0.458 OA
BRANCH  24  25
ATOM     25  C   UNL A   1      38.826  21.291  25.855  1.00  0.00     0.338 C 
ATOM     26  O   UNL A   1      39.278  20.161  25.956  1.00  0.00    -0.246 OA
BRANCH  25  27
ATOM     27  C   UNL A   1      39.434  22.444  26.532  1.00  0.00     0.060 A 
ATOM     28  C   UNL A   1      39.020  23.714  26.152  1.00  0.00     0.016 A 
ATOM     29  C   UNL A   1      40.511  22.302  27.398  1.00  0.00     0.016 A 
ATOM     30  C   UNL A   1      39.748  24.839  26.505  1.00  0.00     0.010 A 
ATOM     31  C   UNL A   1      41.152  23.451  27.884  1.00  0.00     0.010 A 
ATOM     32  C   UNL A   1      40.800  24.731  27.415  1.00  0.00    -0.014 A 
BRANCH  32  33
ATOM     33  C   UNL A   1      41.505  25.961  27.873  1.00  0.00     0.031 A 
ATOM     34  C   UNL A   1      40.770  27.012  28.655  1.00  0.00     0.074 A 
ATOM     35  C   UNL A   1      42.808  26.142  27.569  1.00  0.00     0.049 A 
ATOM     36  N   UNL A   1      41.148  28.224  28.967  1.00  0.00    -0.248 NA
ATOM     37  C   UNL A   1      39.423  26.662  29.135  1.00  0.00     0.031 C 
ATOM     38  C   UNL A   1      43.648  25.192  26.834  1.00  0.00     0.029 A 
ATOM     39  N   UNL A   1      43.650  27.199  27.817  1.00  0.00    -0.354 N 
ATOM     40  C   UNL A   1      40.059  28.811  29.599  1.00  0.00     0.074 A 
ATOM     41  C   UNL A   1      39.010  27.815  29.639  1.00  0.00     0.031 C 
ATOM     42  C   UNL A   1      44.879  25.701  26.696  1.00  0.00     0.029 A 
ATOM     43  C   UNL A   1      44.887  27.055  27.229  1.00  0.00     0.049 A 
ATOM     44  H   UNL A   1      43.396  27.979  28.360  1.00  0.00     0.167 HD
ATOM     45  C   UNL A   1      39.946  30.067  30.096  1.00  0.00     0.034 A 
ATOM     46  C   UNL A   1      45.894  27.933  27.061  1.00  0.00     0.034 A 
ATOM     47  C   UNL A   1      41.015  31.030  30.095  1.00  0.00     0.049 A 
ATOM     48  C   UNL A   1      45.743  29.321  27.605  1.00  0.00     0.074 A 
ATOM     49  C   UNL A   1      41.024  32.306  30.629  1.00  0.00     0.029 A 
ATOM     50  N   UNL A   1      42.263  30.829  29.522  1.00  0.00    -0.354 N 
ATOM     51  N   UNL A   1      44.731  29.844  28.253  1.00  0.00    -0.248 NA
ATOM     52  C   UNL A   1      46.873  30.237  27.408  1.00  0.00     0.031 C 
ATOM     53  C   UNL A   1      42.264  32.891  30.344  1.00  0.00     0.029 A 
ATOM     54  C   UNL A   1      43.043  31.964  29.669  1.00  0.00     0.049 A 
ATOM     55  H   UNL A   1      42.552  29.999  29.078  1.00  0.00     0.167 HD
ATOM     56  C   UNL A   1      45.104  31.147  28.554  1.00  0.00     0.074 A 
ATOM     57  C   UNL A   1      46.450  31.321  28.043  1.00  0.00     0.031 C 
ATOM     58  C   UNL A   1      44.391  32.114  29.180  1.00  0.00     0.034 A 
BRANCH  45  59
ATOM     59  C   UNL A   1      38.610  30.472  30.667  1.00  0.00     0.023 A 
ATOM     60  C   UNL A   1      38.287  30.175  32.007  1.00  0.00     0.012 A 
ATOM     61  C   UNL A   1      37.678  31.169  29.872  1.00  0.00     0.148 A 
ATOM     62  C   UNL A   1      37.039  30.518  32.529  1.00  0.00     0.002 A 
ATOM     63  C   UNL A   1      36.457  31.553  30.416  1.00  0.00     0.091 A 
ATOM     64  F   UNL A   1      37.991  31.426  28.594  1.00  0.00    -0.205 F 
ATOM     65  C   UNL A   1      36.129  31.213  31.737  1.00  0.00     0.022 A 
BRANCH  63  66
ATOM     66  S   UNL A   1      35.255  32.523  29.498  1.00  0.00     0.127 S 
ATOM     67  O   UNL A   1      34.224  32.750  30.510  1.00  0.00    -0.237 OA
ATOM     68  O   UNL A   1      36.030  33.713  29.140  1.00  0.00    -0.237 OA
ATOM     69  O   UNL A   1      34.854  31.700  28.367  1.00  0.00    -0.744 OA
ENDBRANCH  63  66
ENDBRANCH  45  59
BRANCH  46  70
ATOM     70  C   UNL A   1      47.110  27.512  26.307  1.00  0.00     0.023 A 
ATOM     71  C   UNL A   1      48.049  26.660  26.912  1.00  0.00     0.012 A 
ATOM     72  C   UNL A   1      47.289  27.890  24.959  1.00  0.00     0.148 A 
ATOM     73  C   UNL A   1      49.153  26.199  26.193  1.00  0.00     0.002 A 
ATOM     74  C   UNL A   1      48.352  27.375  24.231  1.00  0.00     0.091 A 
ATOM     75  F   UNL A   1      46.386  28.714  24.406  1.00  0.00    -0.205 F 
ATOM     76  C   UNL A   1      49.296  26.543  24.850  1.00  0.00     0.022 A 
BRANCH  74  77
ATOM     77  S   UNL A   1      48.525  27.634  22.461  1.00  0.00     0.127 S 
ATOM     78  O   UNL A   1      48.675  26.265  21.972  1.00  0.00    -0.237 OA
ATOM     79  O   UNL A   1      47.251  28.272  22.128  1.00  0.00    -0.237 OA
ATOM     80  O   UNL A   1      49.689  28.494  22.297  1.00  0.00    -0.744 OA
ENDBRANCH  74  77
ENDBRANCH  46  70
BRANCH  58  81
ATOM     81  C   UNL A   1      45.060  33.449  29.373  1.00  0.00     0.023 A 
ATOM     82  C   UNL A   1      45.797  33.702  30.547  1.00  0.00     0.012 A 
ATOM     83  C   UNL A   1      45.011  34.428  28.362  1.00  0.00     0.148 A 
ATOM     84  C   UNL A   1      46.449  34.922  30.725  1.00  0.00     0.002 A 
ATOM     85  C   UNL A   1      45.706  35.620  28.522  1.00  0.00     0.091 A 
ATOM     86  F   UNL A   1      44.288  34.174  27.261  1.00  0.00    -0.205 F 
ATOM     87  C   UNL A   1      46.414  35.875  29.708  1.00  0.00     0.022 A 
BRANCH  85  88
ATOM     88  S   UNL A   1      45.796  36.865  27.231  1.00  0.00     0.127 S 
ATOM     89  O   UNL A   1      46.401  36.112  26.133  1.00  0.00    -0.237 OA
ATOM     90  O   UNL A   1      44.387  37.206  27.034  1.00  0.00    -0.237 OA
ATOM     91  O   UNL A   1      46.613  37.945  27.767  1.00  0.00    -0.744 OA
ENDBRANCH  85  88
ENDBRANCH  58  81
ENDBRANCH  32  33
ENDBRANCH  25  27
ENDBRANCH  24  25
ENDBRANCH   1  24
TORSDOF 16
ENDMDL
MODEL 3
REMARK VINA RESULT:     -12.1      1.352      2.626
REMARK SMILES Cc1ccc(F)c(C(=O)Nc2cccc(C(=O)OCCOC(=O)c3ccc(-c4c5nc(c(-c6cccc(S(=O)(=O)[O-])c6F)c6ccc([nH]6)c(-c6cccc(S(=O)(=O)[O-])c6F)c6nc(c(-c7cccc(S(=O)(=O)[O-])c7F)c7ccc4[nH]7)C=C6)C=C5)cc3)c2)c1
REMARK SMILES IDX 20 1 19 2 18 3 16 4 17 5 15 6 11 7 12 8 87 9 13 10 14 11
REMARK SMILES IDX 10 12 8 13 9 14 7 16 1 17 2 18 3 19 88 20 4 21 5 22 6 23
REMARK SMILES IDX 21 24 22 25 23 26 24 27 25 28 86 29 26 30 85 31 27 32 28 33
REMARK SMILES IDX 29 34 79 35 30 36 84 37 78 38 80 39 31 40 83 41 77 42 76 43
REMARK SMILES IDX 32 45 64 46 44 47 63 48 45 49 48 50 62 51 81 52 46 53 47 54
REMARK SMILES IDX 61 56 82 57 49 58 33 59 34 60 42 61 35 62 37 63 43 64 36 65
REMARK SMILES IDX 38 66 39 67 40 68 41 69 65 70 66 71 74 72 67 73 69 74 75 75
REMARK SMILES IDX 68 76 70 77 71 78 72 79 73 80 50 81 51 82 59 83 52 84 54 85
REMARK SMILES IDX 60 86 53 87 55 88 56 89 57 90 58 91
REMARK H PARENT 10 15 80 44 48 55
REMARK Flexibility Score: inf
ROOT
ATOM      1  C   UNL A   1      36.570  21.855  24.119  1.00  0.00     0.275 C 
ENDROOT
BRANCH   1   2
ATOM      2  C   UNL A   1      36.124  23.219  23.591  1.00  0.00     0.275 C 
BRANCH   2   3
ATOM      3  O   UNL A   1      34.791  23.531  24.043  1.00  0.00    -0.458 OA
BRANCH   3   4
ATOM      4  C   UNL A   1      34.221  24.613  23.459  1.00  0.00     0.338 C 
ATOM      5  O   UNL A   1      34.327  24.945  22.293  1.00  0.00    -0.246 OA
BRANCH   4   6
ATOM      6  C   UNL A   1      33.418  25.386  24.435  1.00  0.00     0.062 A 
ATOM      7  C   UNL A   1      31.600  25.414  25.994  1.00  0.00     0.042 A 
ATOM      8  C   UNL A   1      32.080  26.595  26.569  1.00  0.00     0.026 A 
ATOM      9  C   UNL A   1      32.179  24.899  24.836  1.00  0.00     0.041 A 
ATOM     10  C   UNL A   1      33.293  27.116  26.139  1.00  0.00     0.003 A 
ATOM     11  C   UNL A   1      33.994  26.461  25.130  1.00  0.00     0.016 A 
BRANCH   7  12
ATOM     12  N   UNL A   1      30.667  24.685  26.737  1.00  0.00    -0.322 N 
ATOM     13  C   UNL A   1      30.583  23.317  26.953  1.00  0.00     0.258 C 
ATOM     14  O   UNL A   1      29.632  22.906  27.619  1.00  0.00    -0.269 OA
ATOM     15  H   UNL A   1      29.965  25.222  27.171  1.00  0.00     0.170 HD
BRANCH  13  16
ATOM     16  C   UNL A   1      31.633  22.348  26.508  1.00  0.00     0.076 A 
ATOM     17  C   UNL A   1      32.311  19.659  23.865  1.00  0.00     0.044 C 
ATOM     18  C   UNL A   1      32.505  20.607  25.017  1.00  0.00    -0.050 A 
ATOM     19  C   UNL A   1      33.622  20.463  25.843  1.00  0.00     0.006 A 
ATOM     20  C   UNL A   1      31.560  21.606  25.314  1.00  0.00     0.020 A 
ATOM     21  C   UNL A   1      33.767  21.276  26.965  1.00  0.00     0.040 A 
ATOM     22  C   UNL A   1      32.769  22.190  27.304  1.00  0.00     0.135 A 
ATOM     23  F   UNL A   1      32.932  22.895  28.433  1.00  0.00    -0.206 F 
ENDBRANCH  13  16
ENDBRANCH   7  12
ENDBRANCH   4   6
ENDBRANCH   3   4
ENDBRANCH   2   3
ENDBRANCH   1   2
BRANCH   1  24
ATOM     24  O   UNL A   1      36.953  21.943  25.503  1.00  0.00    -0.458 OA
BRANCH  24  25
ATOM     25  C   UNL A   1      38.225  21.576  25.777  1.00  0.00     0.338 C 
ATOM     26  O   UNL A   1      38.787  20.545  25.442  1.00  0.00    -0.246 OA
BRANCH  25  27
ATOM     27  C   UNL A   1      38.928  22.664  26.470  1.00  0.00     0.060 A 
ATOM     28  C   UNL A   1      38.534  23.968  26.199  1.00  0.00     0.016 A 
ATOM     29  C   UNL A   1      40.062  22.433  27.238  1.00  0.00     0.016 A 
ATOM     30  C   UNL A   1      39.330  25.044  26.559  1.00  0.00     0.010 A 
ATOM     31  C   UNL A   1      40.782  23.527  27.738  1.00  0.00     0.010 A 
ATOM     32  C   UNL A   1      40.445  24.845  27.375  1.00  0.00    -0.014 A 
BRANCH  32  33
ATOM     33  C   UNL A   1      41.230  26.019  27.846  1.00  0.00     0.031 A 
ATOM     34  C   UNL A   1      40.578  27.083  28.683  1.00  0.00     0.074 A 
ATOM     35  C   UNL A   1      42.530  26.140  27.506  1.00  0.00     0.049 A 
ATOM     36  N   UNL A   1      41.032  28.263  29.019  1.00  0.00    -0.248 NA
ATOM     37  C   UNL A   1      39.229  26.792  29.195  1.00  0.00     0.031 C 
ATOM     38  C   UNL A   1      43.295  25.170  26.716  1.00  0.00     0.029 A 
ATOM     39  N   UNL A   1      43.437  27.142  27.758  1.00  0.00    -0.354 N 
ATOM     40  C   UNL A   1      39.996  28.887  29.703  1.00  0.00     0.074 A 
ATOM     41  C   UNL A   1      38.895  27.948  29.748  1.00  0.00     0.031 C 
ATOM     42  C   UNL A   1      44.546  25.616  26.553  1.00  0.00     0.029 A 
ATOM     43  C   UNL A   1      44.645  26.950  27.127  1.00  0.00     0.049 A 
ATOM     44  H   UNL A   1      43.243  27.917  28.332  1.00  0.00     0.167 HD
ATOM     45  C   UNL A   1      39.967  30.131  30.242  1.00  0.00     0.034 A 
ATOM     46  C   UNL A   1      45.693  27.777  26.953  1.00  0.00     0.034 A 
ATOM     47  C   UNL A   1      41.087  31.034  30.235  1.00  0.00     0.049 A 
ATOM     48  C   UNL A   1      45.635  29.154  27.543  1.00  0.00     0.074 A 
ATOM     49  C   UNL A   1      41.183  32.290  30.806  1.00  0.00     0.029 A 
ATOM     50  N   UNL A   1      42.304  30.784  29.617  1.00  0.00    -0.354 N 
ATOM     51  N   UNL A   1      44.674  29.709  28.239  1.00  0.00    -0.248 NA
ATOM     52  C   UNL A   1      46.808  30.013  27.337  1.00  0.00     0.031 C 
ATOM     53  C   UNL A   1      42.443  32.816  30.500  1.00  0.00     0.029 A 
ATOM     54  C   UNL A   1      43.149  31.871  29.772  1.00  0.00     0.049 A 
ATOM     55  H   UNL A   1      42.534  29.955  29.138  1.00  0.00     0.167 HD
ATOM     56  C   UNL A   1      45.127  30.980  28.566  1.00  0.00     0.074 A 
ATOM     57  C   UNL A   1      46.464  31.098  28.018  1.00  0.00     0.031 C 
ATOM     58  C   UNL A   1      44.488  31.964  29.245  1.00  0.00     0.034 A 
BRANCH  45  59
ATOM     59  C   UNL A   1      38.674  30.589  30.867  1.00  0.00     0.023 A 
ATOM     60  C   UNL A   1      38.431  30.378  32.241  1.00  0.00     0.012 A 
ATOM     61  C   UNL A   1      37.701  31.250  30.090  1.00  0.00     0.148 A 
ATOM     62  C   UNL A   1      37.222  30.771  32.816  1.00  0.00     0.002 A 
ATOM     63  C   UNL A   1      36.520  31.684  30.683  1.00  0.00     0.091 A 
ATOM     64  F   UNL A   1      37.937  31.424  28.782  1.00  0.00    -0.205 F 
ATOM     65  C   UNL A   1      36.272  31.429  32.040  1.00  0.00     0.022 A 
BRANCH  63  66
ATOM     66  S   UNL A   1      35.275  32.613  29.783  1.00  0.00     0.127 S 
ATOM     67  O   UNL A   1      34.872  31.651  28.758  1.00  0.00    -0.237 OA
ATOM     68  O   UNL A   1      34.268  32.858  30.817  1.00  0.00    -0.237 OA
ATOM     69  O   UNL A   1      35.943  33.810  29.293  1.00  0.00    -0.744 OA
ENDBRANCH  63  66
ENDBRANCH  45  59
BRANCH  46  70
ATOM     70  C   UNL A   1      46.860  27.316  26.147  1.00  0.00     0.023 A 
ATOM     71  C   UNL A   1      46.930  27.623  24.777  1.00  0.00     0.012 A 
ATOM     72  C   UNL A   1      47.941  26.648  26.760  1.00  0.00     0.148 A 
ATOM     73  C   UNL A   1      48.051  27.262  24.027  1.00  0.00     0.002 A 
ATOM     74  C   UNL A   1      49.080  26.352  26.024  1.00  0.00     0.091 A 
ATOM     75  F   UNL A   1      47.847  26.355  28.066  1.00  0.00    -0.205 F 
ATOM     76  C   UNL A   1      49.131  26.642  24.653  1.00  0.00     0.022 A 
BRANCH  74  77
ATOM     77  S   UNL A   1      50.575  25.701  26.780  1.00  0.00     0.127 S 
ATOM     78  O   UNL A   1      50.900  26.747  27.746  1.00  0.00    -0.237 OA
ATOM     79  O   UNL A   1      50.093  24.450  27.363  1.00  0.00    -0.237 OA
ATOM     80  O   UNL A   1      51.528  25.530  25.692  1.00  0.00    -0.744 OA
ENDBRANCH  74  77
ENDBRANCH  46  70
BRANCH  58  81
ATOM     81  C   UNL A   1      45.235  33.254  29.456  1.00  0.00     0.023 A 
ATOM     82  C   UNL A   1      46.039  33.420  30.601  1.00  0.00     0.012 A 
ATOM     83  C   UNL A   1      45.189  34.275  28.488  1.00  0.00     0.148 A 
ATOM     84  C   UNL A   1      46.762  34.597  30.794  1.00  0.00     0.002 A 
ATOM     85  C   UNL A   1      45.953  35.423  28.660  1.00  0.00     0.091 A 
ATOM     86  F   UNL A   1      44.402  34.104  27.415  1.00  0.00    -0.205 F 
ATOM     87  C   UNL A   1      46.729  35.592  29.818  1.00  0.00     0.022 A 
BRANCH  85  88
ATOM     88  S   UNL A   1      46.047  36.714  27.415  1.00  0.00     0.127 S 
ATOM     89  O   UNL A   1      46.920  37.691  28.064  1.00  0.00    -0.237 OA
ATOM     90  O   UNL A   1      46.654  36.008  26.286  1.00  0.00    -0.237 OA
ATOM     91  O   UNL A   1      44.678  37.158  27.188  1.00  0.00    -0.744 OA
ENDBRANCH  85  88
ENDBRANCH  58  81
ENDBRANCH  32  33
ENDBRANCH  25  27
ENDBRANCH  24  25
ENDBRANCH   1  24
TORSDOF 16
ENDMDL
