MODEL 1
REMARK VINA RESULT:     -11.8      0.000      0.000
REMARK SMILES CC[C@H]1CC[C@](Cc2cccnc2)(C(=O)OCCOC(=O)c2ccc(-c3c4nc(c(-c5cccc(S(=O)(=O)[O-])c5F)c5ccc([nH]5)c(-c5cccc(S(=O)(=O)[O-])c5F)c5nc(c(-c6cccc(S(=O)(=O)[O-])c6F)c6ccc3[nH]6)C=C5)C=C4)cc2)C1
REMARK SMILES IDX 18 1 17 2 16 3 14 4 15 5 6 6 3 7 4 8 85 9 5 10 2 11 1 12
REMARK SMILES IDX 7 13 8 14 9 15 13 16 10 17 12 18 11 19 19 20 20 21 21 22
REMARK SMILES IDX 22 23 23 24 84 25 24 26 83 27 25 28 26 29 27 30 77 31 28 32
REMARK SMILES IDX 82 33 76 34 78 35 29 36 81 37 75 38 74 39 30 41 62 42 42 43
REMARK SMILES IDX 61 44 43 45 46 46 60 47 79 48 44 49 45 50 59 52 80 53 47 54
REMARK SMILES IDX 31 55 32 56 40 57 33 58 35 59 41 60 34 61 36 62 37 63 38 64
REMARK SMILES IDX 39 65 63 66 64 67 72 68 65 69 67 70 73 71 66 72 68 73 69 74
REMARK SMILES IDX 70 75 71 76 48 77 49 78 57 79 50 80 52 81 58 82 51 83 53 84
REMARK SMILES IDX 54 85 55 86 56 87
REMARK H PARENT 78 40 46 51
REMARK Flexibility Score: inf
ROOT
ATOM      1  C   UNL A   1      36.508  20.647  25.006  1.00  0.00     0.275 C 
ENDROOT
BRANCH   1   2
ATOM      2  C   UNL A   1      35.167  21.310  25.308  1.00  0.00     0.274 C 
BRANCH   2   3
ATOM      3  O   UNL A   1      34.696  22.075  24.179  1.00  0.00    -0.462 OA
BRANCH   3   4
ATOM      4  C   UNL A   1      33.349  22.135  23.999  1.00  0.00     0.312 C 
ATOM      5  O   UNL A   1      32.667  21.164  23.690  1.00  0.00    -0.252 OA
BRANCH   4   6
ATOM      6  C   UNL A   1      32.761  23.555  24.202  1.00  0.00     0.072 C 
ATOM      7  C   UNL A   1      33.992  25.178  25.648  1.00  0.00    -0.010 C 
ATOM      8  C   UNL A   1      33.350  24.092  26.505  1.00  0.00     0.005 C 
ATOM      9  C   UNL A   1      33.920  24.590  24.223  1.00  0.00     0.022 C 
ATOM     10  C   UNL A   1      32.197  23.583  25.646  1.00  0.00     0.019 C 
BRANCH   7  11
ATOM     11  C   UNL A   1      33.292  26.548  25.714  1.00  0.00     0.000 C 
ATOM     12  C   UNL A   1      33.703  27.529  24.627  1.00  0.00     0.004 C 
ENDBRANCH   7  11
BRANCH   6  13
ATOM     13  C   UNL A   1      31.688  23.850  23.115  1.00  0.00     0.056 C 
BRANCH  13  14
ATOM     14  C   UNL A   1      31.107  25.242  23.071  1.00  0.00    -0.029 A 
ATOM     15  C   UNL A   1      30.129  25.652  23.983  1.00  0.00     0.007 A 
ATOM     16  C   UNL A   1      31.495  26.166  22.105  1.00  0.00     0.114 A 
ATOM     17  C   UNL A   1      29.539  26.904  23.854  1.00  0.00     0.020 A 
ATOM     18  N   UNL A   1      30.951  27.396  21.961  1.00  0.00    -0.264 NA
ATOM     19  C   UNL A   1      29.972  27.728  22.830  1.00  0.00     0.111 A 
ENDBRANCH  13  14
ENDBRANCH   6  13
ENDBRANCH   4   6
ENDBRANCH   3   4
ENDBRANCH   2   3
ENDBRANCH   1   2
BRANCH   1  20
ATOM     20  O   UNL A   1      37.567  21.618  25.042  1.00  0.00    -0.458 OA
BRANCH  20  21
ATOM     21  C   UNL A   1      38.657  21.256  25.750  1.00  0.00     0.338 C 
ATOM     22  O   UNL A   1      39.166  20.144  25.813  1.00  0.00    -0.246 OA
BRANCH  21  23
ATOM     23  C   UNL A   1      39.216  22.424  26.436  1.00  0.00     0.060 A 
ATOM     24  C   UNL A   1      38.708  23.688  26.142  1.00  0.00     0.016 A 
ATOM     25  C   UNL A   1      40.345  22.285  27.239  1.00  0.00     0.016 A 
ATOM     26  C   UNL A   1      39.407  24.823  26.536  1.00  0.00     0.010 A 
ATOM     27  C   UNL A   1      40.972  23.429  27.739  1.00  0.00     0.010 A 
ATOM     28  C   UNL A   1      40.540  24.711  27.354  1.00  0.00    -0.014 A 
BRANCH  28  29
ATOM     29  C   UNL A   1      41.285  25.923  27.795  1.00  0.00     0.031 A 
ATOM     30  C   UNL A   1      40.595  26.973  28.625  1.00  0.00     0.074 A 
ATOM     31  C   UNL A   1      42.569  26.100  27.425  1.00  0.00     0.049 A 
ATOM     32  N   UNL A   1      40.983  28.189  28.907  1.00  0.00    -0.248 NA
ATOM     33  C   UNL A   1      39.285  26.617  29.198  1.00  0.00     0.031 C 
ATOM     34  C   UNL A   1      43.364  25.154  26.639  1.00  0.00     0.029 A 
ATOM     35  N   UNL A   1      43.429  27.148  27.647  1.00  0.00    -0.354 N 
ATOM     36  C   UNL A   1      39.933  28.773  29.606  1.00  0.00     0.074 A 
ATOM     37  C   UNL A   1      38.899  27.768  29.731  1.00  0.00     0.031 C 
ATOM     38  C   UNL A   1      44.595  25.653  26.459  1.00  0.00     0.029 A 
ATOM     39  C   UNL A   1      44.653  26.990  27.038  1.00  0.00     0.049 A 
ATOM     40  H   UNL A   1      43.193  27.936  28.188  1.00  0.00     0.167 HD
ATOM     41  C   UNL A   1      39.843  30.029  30.104  1.00  0.00     0.034 A 
ATOM     42  C   UNL A   1      45.692  27.838  26.914  1.00  0.00     0.034 A 
ATOM     43  C   UNL A   1      40.912  30.991  30.058  1.00  0.00     0.049 A 
ATOM     44  C   UNL A   1      45.583  29.211  27.513  1.00  0.00     0.074 A 
ATOM     45  C   UNL A   1      40.934  32.279  30.564  1.00  0.00     0.029 A 
ATOM     46  N   UNL A   1      42.159  30.759  29.497  1.00  0.00    -0.354 N 
ATOM     47  N   UNL A   1      44.590  29.739  28.186  1.00  0.00    -0.248 NA
ATOM     48  C   UNL A   1      46.738  30.103  27.341  1.00  0.00     0.031 C 
ATOM     49  C   UNL A   1      42.198  32.824  30.313  1.00  0.00     0.029 A 
ATOM     50  C   UNL A   1      42.963  31.875  29.654  1.00  0.00     0.049 A 
ATOM     51  H   UNL A   1      42.432  29.925  29.052  1.00  0.00     0.167 HD
ATOM     52  C   UNL A   1      45.003  31.019  28.531  1.00  0.00     0.074 A 
ATOM     53  C   UNL A   1      46.350  31.177  28.018  1.00  0.00     0.031 C 
ATOM     54  C   UNL A   1      44.320  31.988  29.188  1.00  0.00     0.034 A 
BRANCH  41  55
ATOM     55  C   UNL A   1      38.556  30.432  30.772  1.00  0.00     0.023 A 
ATOM     56  C   UNL A   1      38.361  30.153  32.139  1.00  0.00     0.012 A 
ATOM     57  C   UNL A   1      37.568  31.145  30.064  1.00  0.00     0.148 A 
ATOM     58  C   UNL A   1      37.192  30.556  32.785  1.00  0.00     0.002 A 
ATOM     59  C   UNL A   1      36.422  31.576  30.724  1.00  0.00     0.091 A 
ATOM     60  F   UNL A   1      37.759  31.380  28.758  1.00  0.00    -0.205 F 
ATOM     61  C   UNL A   1      36.229  31.276  32.082  1.00  0.00     0.022 A 
BRANCH  59  62
ATOM     62  S   UNL A   1      35.164  32.570  29.911  1.00  0.00     0.127 S 
ATOM     63  O   UNL A   1      34.641  31.633  28.919  1.00  0.00    -0.237 OA
ATOM     64  O   UNL A   1      34.243  32.871  31.009  1.00  0.00    -0.237 OA
ATOM     65  O   UNL A   1      35.863  33.732  29.379  1.00  0.00    -0.744 OA
ENDBRANCH  59  62
ENDBRANCH  41  55
BRANCH  42  66
ATOM     66  C   UNL A   1      46.924  27.391  26.205  1.00  0.00     0.023 A 
ATOM     67  C   UNL A   1      47.804  26.502  26.849  1.00  0.00     0.012 A 
ATOM     68  C   UNL A   1      47.187  27.775  24.875  1.00  0.00     0.148 A 
ATOM     69  C   UNL A   1      48.928  26.009  26.183  1.00  0.00     0.002 A 
ATOM     70  C   UNL A   1      48.272  27.230  24.198  1.00  0.00     0.091 A 
ATOM     71  F   UNL A   1      46.354  28.645  24.285  1.00  0.00    -0.205 F 
ATOM     72  C   UNL A   1      49.152  26.358  24.854  1.00  0.00     0.022 A 
BRANCH  70  73
ATOM     73  S   UNL A   1      48.517  27.509  22.439  1.00  0.00     0.127 S 
ATOM     74  O   UNL A   1      47.308  28.242  22.078  1.00  0.00    -0.237 OA
ATOM     75  O   UNL A   1      49.747  28.304  22.417  1.00  0.00    -0.237 OA
ATOM     76  O   UNL A   1      48.663  26.180  21.861  1.00  0.00    -0.744 OA
ENDBRANCH  70  73
ENDBRANCH  42  66
BRANCH  54  77
ATOM     77  C   UNL A   1      45.022  33.298  29.411  1.00  0.00     0.023 A 
ATOM     78  C   UNL A   1      45.767  33.489  30.591  1.00  0.00     0.012 A 
ATOM     79  C   UNL A   1      45.007  34.304  28.428  1.00  0.00     0.148 A 
ATOM     80  C   UNL A   1      46.471  34.673  30.799  1.00  0.00     0.002 A 
ATOM     81  C   UNL A   1      45.741  35.468  28.626  1.00  0.00     0.091 A 
ATOM     82  F   UNL A   1      44.270  34.111  27.323  1.00  0.00    -0.205 F 
ATOM     83  C   UNL A   1      46.468  35.657  29.812  1.00  0.00     0.022 A 
BRANCH  81  84
ATOM     84  S   UNL A   1      45.849  36.746  27.368  1.00  0.00     0.127 S 
ATOM     85  O   UNL A   1      46.728  37.723  28.009  1.00  0.00    -0.237 OA
ATOM     86  O   UNL A   1      46.452  36.032  26.242  1.00  0.00    -0.237 OA
ATOM     87  O   UNL A   1      44.480  37.184  27.134  1.00  0.00    -0.744 OA
ENDBRANCH  81  84
ENDBRANCH  54  77
ENDBRANCH  28  29
ENDBRANCH  21  23
ENDBRANCH  20  21
ENDBRANCH   1  20
TORSDOF 17
ENDMDL
MODEL 2
REMARK VINA RESULT:     -11.7      1.535      2.228
REMARK SMILES CC[C@H]1CC[C@](Cc2cccnc2)(C(=O)OCCOC(=O)c2ccc(-c3c4nc(c(-c5cccc(S(=O)(=O)[O-])c5F)c5ccc([nH]5)c(-c5cccc(S(=O)(=O)[O-])c5F)c5nc(c(-c6cccc(S(=O)(=O)[O-])c6F)c6ccc3[nH]6)C=C5)C=C4)cc2)C1
REMARK SMILES IDX 18 1 17 2 16 3 14 4 15 5 6 6 3 7 4 8 85 9 5 10 2 11 1 12
REMARK SMILES IDX 7 13 8 14 9 15 13 16 10 17 12 18 11 19 19 20 20 21 21 22
REMARK SMILES IDX 22 23 23 24 84 25 24 26 83 27 25 28 26 29 27 30 77 31 28 32
REMARK SMILES IDX 82 33 76 34 78 35 29 36 81 37 75 38 74 39 30 41 62 42 42 43
REMARK SMILES IDX 61 44 43 45 46 46 60 47 79 48 44 49 45 50 59 52 80 53 47 54
REMARK SMILES IDX 31 55 32 56 40 57 33 58 35 59 41 60 34 61 36 62 37 63 38 64
REMARK SMILES IDX 39 65 63 66 64 67 72 68 65 69 67 70 73 71 66 72 68 73 69 74
REMARK SMILES IDX 70 75 71 76 48 77 49 78 57 79 50 80 52 81 58 82 51 83 53 84
REMARK SMILES IDX 54 85 55 86 56 87
REMARK H PARENT 78 40 46 51
REMARK Flexibility Score: inf
ROOT
ATOM      1  C   UNL A   1      36.125  20.775  25.286  1.00  0.00     0.275 C 
ENDROOT
BRANCH   1   2
ATOM      2  C   UNL A   1      34.826  21.481  24.911  1.00  0.00     0.274 C 
BRANCH   2   3
ATOM      3  O   UNL A   1      34.923  22.905  25.125  1.00  0.00    -0.462 OA
BRANCH   3   4
ATOM      4  C   UNL A   1      34.763  23.700  24.033  1.00  0.00     0.312 C 
ATOM      5  O   UNL A   1      35.354  23.517  22.975  1.00  0.00    -0.252 OA
BRANCH   4   6
ATOM      6  C   UNL A   1      33.777  24.874  24.263  1.00  0.00     0.072 C 
ATOM      7  C   UNL A   1      31.415  24.639  23.484  1.00  0.00    -0.010 C 
ATOM      8  C   UNL A   1      32.347  24.812  22.290  1.00  0.00     0.005 C 
ATOM      9  C   UNL A   1      32.382  24.303  24.639  1.00  0.00     0.022 C 
ATOM     10  C   UNL A   1      33.560  25.530  22.875  1.00  0.00     0.019 C 
BRANCH   7  11
ATOM     11  C   UNL A   1      30.564  25.877  23.821  1.00  0.00     0.000 C 
ATOM     12  C   UNL A   1      29.877  25.831  25.177  1.00  0.00     0.004 C 
ENDBRANCH   7  11
BRANCH   6  13
ATOM     13  C   UNL A   1      34.351  25.855  25.324  1.00  0.00     0.056 C 
BRANCH  13  14
ATOM     14  C   UNL A   1      33.607  27.148  25.551  1.00  0.00    -0.029 A 
ATOM     15  C   UNL A   1      32.768  27.319  26.658  1.00  0.00     0.007 A 
ATOM     16  C   UNL A   1      33.698  28.212  24.658  1.00  0.00     0.114 A 
ATOM     17  C   UNL A   1      32.017  28.482  26.786  1.00  0.00     0.020 A 
ATOM     18  N   UNL A   1      32.992  29.360  24.762  1.00  0.00    -0.264 NA
ATOM     19  C   UNL A   1      32.153  29.459  25.816  1.00  0.00     0.111 A 
ENDBRANCH  13  14
ENDBRANCH   6  13
ENDBRANCH   4   6
ENDBRANCH   3   4
ENDBRANCH   2   3
ENDBRANCH   1   2
BRANCH   1  20
ATOM     20  O   UNL A   1      37.250  21.637  25.051  1.00  0.00    -0.458 OA
BRANCH  20  21
ATOM     21  C   UNL A   1      38.399  21.261  25.648  1.00  0.00     0.338 C 
ATOM     22  O   UNL A   1      38.928  20.156  25.613  1.00  0.00    -0.246 OA
BRANCH  21  23
ATOM     23  C   UNL A   1      38.996  22.404  26.345  1.00  0.00     0.060 A 
ATOM     24  C   UNL A   1      38.504  23.683  26.091  1.00  0.00     0.016 A 
ATOM     25  C   UNL A   1      40.142  22.227  27.118  1.00  0.00     0.016 A 
ATOM     26  C   UNL A   1      39.233  24.796  26.492  1.00  0.00     0.010 A 
ATOM     27  C   UNL A   1      40.801  23.349  27.626  1.00  0.00     0.010 A 
ATOM     28  C   UNL A   1      40.384  24.647  27.279  1.00  0.00    -0.014 A 
BRANCH  28  29
ATOM     29  C   UNL A   1      41.160  25.835  27.728  1.00  0.00     0.031 A 
ATOM     30  C   UNL A   1      40.500  26.896  28.568  1.00  0.00     0.074 A 
ATOM     31  C   UNL A   1      42.447  25.983  27.355  1.00  0.00     0.049 A 
ATOM     32  N   UNL A   1      40.920  28.099  28.859  1.00  0.00    -0.248 NA
ATOM     33  C   UNL A   1      39.183  26.569  29.144  1.00  0.00     0.031 C 
ATOM     34  C   UNL A   1      43.215  25.023  26.559  1.00  0.00     0.029 A 
ATOM     35  N   UNL A   1      43.335  27.007  27.583  1.00  0.00    -0.354 N 
ATOM     36  C   UNL A   1      39.887  28.703  29.567  1.00  0.00     0.074 A 
ATOM     37  C   UNL A   1      38.828  27.724  29.687  1.00  0.00     0.031 C 
ATOM     38  C   UNL A   1      44.458  25.492  26.379  1.00  0.00     0.029 A 
ATOM     39  C   UNL A   1      44.552  26.822  26.969  1.00  0.00     0.049 A 
ATOM     40  H   UNL A   1      43.121  27.795  28.131  1.00  0.00     0.167 HD
ATOM     41  C   UNL A   1      39.831  29.957  30.076  1.00  0.00     0.034 A 
ATOM     42  C   UNL A   1      45.612  27.644  26.848  1.00  0.00     0.034 A 
ATOM     43  C   UNL A   1      40.924  30.892  30.034  1.00  0.00     0.049 A 
ATOM     44  C   UNL A   1      45.541  29.014  27.458  1.00  0.00     0.074 A 
ATOM     45  C   UNL A   1      40.981  32.174  30.550  1.00  0.00     0.029 A 
ATOM     46  N   UNL A   1      42.163  30.633  29.467  1.00  0.00    -0.354 N 
ATOM     47  N   UNL A   1      44.563  29.562  28.139  1.00  0.00    -0.248 NA
ATOM     48  C   UNL A   1      46.717  29.878  27.290  1.00  0.00     0.031 C 
ATOM     49  C   UNL A   1      42.258  32.690  30.299  1.00  0.00     0.029 A 
ATOM     50  C   UNL A   1      42.996  31.727  29.630  1.00  0.00     0.049 A 
ATOM     51  H   UNL A   1      42.413  29.795  29.014  1.00  0.00     0.167 HD
ATOM     52  C   UNL A   1      45.010  30.828  28.494  1.00  0.00     0.074 A 
ATOM     53  C   UNL A   1      46.359  30.956  27.977  1.00  0.00     0.031 C 
ATOM     54  C   UNL A   1      44.354  31.809  29.161  1.00  0.00     0.034 A 
BRANCH  41  55
ATOM     55  C   UNL A   1      38.557  30.388  30.751  1.00  0.00     0.023 A 
ATOM     56  C   UNL A   1      38.369  30.124  32.122  1.00  0.00     0.012 A 
ATOM     57  C   UNL A   1      37.575  31.111  30.046  1.00  0.00     0.148 A 
ATOM     58  C   UNL A   1      37.213  30.552  32.775  1.00  0.00     0.002 A 
ATOM     59  C   UNL A   1      36.442  31.566  30.712  1.00  0.00     0.091 A 
ATOM     60  F   UNL A   1      37.758  31.331  28.736  1.00  0.00    -0.205 F 
ATOM     61  C   UNL A   1      36.257  31.282  32.074  1.00  0.00     0.022 A 
BRANCH  59  62
ATOM     62  S   UNL A   1      35.193  32.575  29.901  1.00  0.00     0.127 S 
ATOM     63  O   UNL A   1      34.695  31.660  28.875  1.00  0.00    -0.237 OA
ATOM     64  O   UNL A   1      34.250  32.841  30.988  1.00  0.00    -0.237 OA
ATOM     65  O   UNL A   1      35.895  33.754  29.413  1.00  0.00    -0.744 OA
ENDBRANCH  59  62
ENDBRANCH  41  55
BRANCH  42  66
ATOM     66  C   UNL A   1      46.830  27.172  26.132  1.00  0.00     0.023 A 
ATOM     67  C   UNL A   1      47.001  27.501  24.775  1.00  0.00     0.012 A 
ATOM     68  C   UNL A   1      47.853  26.473  26.803  1.00  0.00     0.148 A 
ATOM     69  C   UNL A   1      48.165  27.135  24.097  1.00  0.00     0.002 A 
ATOM     70  C   UNL A   1      49.036  26.169  26.140  1.00  0.00     0.091 A 
ATOM     71  F   UNL A   1      47.663  26.142  28.089  1.00  0.00    -0.205 F 
ATOM     72  C   UNL A   1      49.189  26.486  24.782  1.00  0.00     0.022 A 
BRANCH  70  73
ATOM     73  S   UNL A   1      50.452  25.485  27.010  1.00  0.00     0.127 S 
ATOM     74  O   UNL A   1      51.407  25.289  25.924  1.00  0.00    -0.237 OA
ATOM     75  O   UNL A   1      50.795  26.561  27.942  1.00  0.00    -0.237 OA
ATOM     76  O   UNL A   1      49.954  24.279  27.657  1.00  0.00    -0.744 OA
ENDBRANCH  70  73
ENDBRANCH  42  66
BRANCH  54  77
ATOM     77  C   UNL A   1      45.090  33.098  29.392  1.00  0.00     0.023 A 
ATOM     78  C   UNL A   1      45.872  33.247  30.555  1.00  0.00     0.012 A 
ATOM     79  C   UNL A   1      45.069  34.127  28.432  1.00  0.00     0.148 A 
ATOM     80  C   UNL A   1      46.607  34.412  30.768  1.00  0.00     0.002 A 
ATOM     81  C   UNL A   1      45.833  35.270  28.635  1.00  0.00     0.091 A 
ATOM     82  F   UNL A   1      44.298  33.973  27.345  1.00  0.00    -0.205 F 
ATOM     83  C   UNL A   1      46.597  35.417  29.804  1.00  0.00     0.022 A 
BRANCH  81  84
ATOM     84  S   UNL A   1      45.934  36.574  27.402  1.00  0.00     0.127 S 
ATOM     85  O   UNL A   1      46.458  35.851  26.245  1.00  0.00    -0.237 OA
ATOM     86  O   UNL A   1      44.539  36.998  27.275  1.00  0.00    -0.237 OA
ATOM     87  O   UNL A   1      46.816  37.583  27.970  1.00  0.00    -0.744 OA
ENDBRANCH  81  84
ENDBRANCH  54  77
ENDBRANCH  28  29
ENDBRANCH  21  23
ENDBRANCH  20  21
ENDBRANCH   1  20
TORSDOF 17
ENDMDL
MODEL 3
REMARK VINA RESULT:     -11.6      5.334     10.011
REMARK SMILES CC[C@H]1CC[C@](Cc2cccnc2)(C(=O)OCCOC(=O)c2ccc(-c3c4nc(c(-c5cccc(S(=O)(=O)[O-])c5F)c5ccc([nH]5)c(-c5cccc(S(=O)(=O)[O-])c5F)c5nc(c(-c6cccc(S(=O)(=O)[O-])c6F)c6ccc3[nH]6)C=C5)C=C4)cc2)C1
REMARK SMILES IDX 18 1 17 2 16 3 14 4 15 5 6 6 3 7 4 8 85 9 5 10 2 11 1 12
REMARK SMILES IDX 7 13 8 14 9 15 13 16 10 17 12 18 11 19 19 20 20 21 21 22
REMARK SMILES IDX 22 23 23 24 84 25 24 26 83 27 25 28 26 29 27 30 77 31 28 32
REMARK SMILES IDX 82 33 76 34 78 35 29 36 81 37 75 38 74 39 30 41 62 42 42 43
REMARK SMILES IDX 61 44 43 45 46 46 60 47 79 48 44 49 45 50 59 52 80 53 47 54
REMARK SMILES IDX 31 55 32 56 40 57 33 58 35 59 41 60 34 61 36 62 37 63 38 64
REMARK SMILES IDX 39 65 63 66 64 67 72 68 65 69 67 70 73 71 66 72 68 73 69 74
REMARK SMILES IDX 70 75 71 76 48 77 49 78 57 79 50 80 52 81 58 82 51 83 53 84
REMARK SMILES IDX 54 85 55 86 56 87
REMARK H PARENT 78 40 46 51
REMARK Flexibility Score: inf
ROOT
ATOM      1  C   UNL A   1      31.364  30.294  25.520  1.00  0.00     0.275 C 
ENDROOT
BRANCH   1   2
ATOM      2  C   UNL A   1      31.173  29.570  24.191  1.00  0.00     0.274 C 
BRANCH   2   3
ATOM      3  O   UNL A   1      30.743  28.208  24.395  1.00  0.00    -0.462 OA
BRANCH   3   4
ATOM      4  C   UNL A   1      30.621  27.432  23.283  1.00  0.00     0.312 C 
ATOM      5  O   UNL A   1      29.920  27.736  22.325  1.00  0.00    -0.252 OA
BRANCH   4   6
ATOM      6  C   UNL A   1      31.436  26.116  23.356  1.00  0.00     0.072 C 
ATOM      7  C   UNL A   1      33.858  26.225  23.959  1.00  0.00    -0.010 C 
ATOM      8  C   UNL A   1      33.642  26.766  22.550  1.00  0.00     0.005 C 
ATOM      9  C   UNL A   1      32.431  26.195  24.547  1.00  0.00     0.022 C 
ATOM     10  C   UNL A   1      32.344  26.103  22.099  1.00  0.00     0.019 C 
BRANCH   7  11
ATOM     11  C   UNL A   1      34.506  24.830  24.021  1.00  0.00     0.000 C 
ATOM     12  C   UNL A   1      34.594  24.226  25.414  1.00  0.00     0.004 C 
ENDBRANCH   7  11
BRANCH   6  13
ATOM     13  C   UNL A   1      30.475  24.895  23.433  1.00  0.00     0.056 C 
BRANCH  13  14
ATOM     14  C   UNL A   1      31.039  23.597  23.955  1.00  0.00    -0.029 A 
ATOM     15  C   UNL A   1      30.916  23.240  25.303  1.00  0.00     0.007 A 
ATOM     16  C   UNL A   1      31.732  22.715  23.130  1.00  0.00     0.114 A 
ATOM     17  C   UNL A   1      31.535  22.088  25.775  1.00  0.00     0.020 A 
ATOM     18  N   UNL A   1      32.333  21.581  23.556  1.00  0.00    -0.264 NA
ATOM     19  C   UNL A   1      32.235  21.305  24.874  1.00  0.00     0.111 A 
ENDBRANCH  13  14
ENDBRANCH   6  13
ENDBRANCH   4   6
ENDBRANCH   3   4
ENDBRANCH   2   3
ENDBRANCH   1   2
BRANCH   1  20
ATOM     20  O   UNL A   1      32.752  30.305  25.891  1.00  0.00    -0.458 OA
BRANCH  20  21
ATOM     21  C   UNL A   1      33.088  31.200  26.842  1.00  0.00     0.338 C 
ATOM     22  O   UNL A   1      32.395  32.106  27.288  1.00  0.00    -0.246 OA
BRANCH  21  23
ATOM     23  C   UNL A   1      34.438  30.916  27.338  1.00  0.00     0.060 A 
ATOM     24  C   UNL A   1      34.782  29.602  27.648  1.00  0.00     0.016 A 
ATOM     25  C   UNL A   1      35.299  31.966  27.650  1.00  0.00     0.016 A 
ATOM     26  C   UNL A   1      35.927  29.345  28.395  1.00  0.00     0.010 A 
ATOM     27  C   UNL A   1      36.510  31.688  28.290  1.00  0.00     0.010 A 
ATOM     28  C   UNL A   1      36.816  30.382  28.713  1.00  0.00    -0.014 A 
BRANCH  28  29
ATOM     29  C   UNL A   1      38.052  30.112  29.497  1.00  0.00     0.031 A 
ATOM     30  C   UNL A   1      39.131  29.230  28.927  1.00  0.00     0.074 A 
ATOM     31  C   UNL A   1      38.196  30.629  30.734  1.00  0.00     0.049 A 
ATOM     32  N   UNL A   1      40.158  28.687  29.528  1.00  0.00    -0.248 NA
ATOM     33  C   UNL A   1      39.034  28.897  27.494  1.00  0.00     0.031 C 
ATOM     34  C   UNL A   1      37.238  31.514  31.400  1.00  0.00     0.029 A 
ATOM     35  N   UNL A   1      39.197  30.470  31.661  1.00  0.00    -0.354 N 
ATOM     36  C   UNL A   1      40.772  27.879  28.578  1.00  0.00     0.074 A 
ATOM     37  C   UNL A   1      40.020  28.022  27.350  1.00  0.00     0.031 C 
ATOM     38  C   UNL A   1      37.702  31.834  32.615  1.00  0.00     0.029 A 
ATOM     39  C   UNL A   1      38.945  31.109  32.853  1.00  0.00     0.049 A 
ATOM     40  H   UNL A   1      40.015  29.950  31.490  1.00  0.00     0.167 HD
ATOM     41  C   UNL A   1      41.868  27.094  28.716  1.00  0.00     0.034 A 
ATOM     42  C   UNL A   1      39.607  31.081  34.025  1.00  0.00     0.034 A 
ATOM     43  C   UNL A   1      42.665  27.031  29.913  1.00  0.00     0.049 A 
ATOM     44  C   UNL A   1      40.844  30.237  34.140  1.00  0.00     0.074 A 
ATOM     45  C   UNL A   1      43.813  26.294  30.144  1.00  0.00     0.029 A 
ATOM     46  N   UNL A   1      42.412  27.753  31.069  1.00  0.00    -0.354 N 
ATOM     47  N   UNL A   1      41.420  29.493  33.227  1.00  0.00    -0.248 NA
ATOM     48  C   UNL A   1      41.525  30.231  35.442  1.00  0.00     0.031 C 
ATOM     49  C   UNL A   1      44.258  26.575  31.441  1.00  0.00     0.029 A 
ATOM     50  C   UNL A   1      43.389  27.489  32.015  1.00  0.00     0.049 A 
ATOM     51  H   UNL A   1      41.650  28.362  31.200  1.00  0.00     0.167 HD
ATOM     52  C   UNL A   1      42.539  28.942  33.837  1.00  0.00     0.074 A 
ATOM     53  C   UNL A   1      42.576  29.460  35.190  1.00  0.00     0.031 C 
ATOM     54  C   UNL A   1      43.439  28.062  33.333  1.00  0.00     0.034 A 
BRANCH  41  55
ATOM     55  C   UNL A   1      42.293  26.262  27.537  1.00  0.00     0.023 A 
ATOM     56  C   UNL A   1      43.144  26.817  26.561  1.00  0.00     0.012 A 
ATOM     57  C   UNL A   1      41.904  24.912  27.428  1.00  0.00     0.148 A 
ATOM     58  C   UNL A   1      43.582  26.048  25.483  1.00  0.00     0.002 A 
ATOM     59  C   UNL A   1      42.374  24.142  26.370  1.00  0.00     0.091 A 
ATOM     60  F   UNL A   1      41.072  24.408  28.352  1.00  0.00    -0.205 F 
ATOM     61  C   UNL A   1      43.207  24.709  25.394  1.00  0.00     0.022 A 
BRANCH  59  62
ATOM     62  S   UNL A   1      41.997  22.390  26.218  1.00  0.00     0.127 S 
ATOM     63  O   UNL A   1      42.724  22.036  25.000  1.00  0.00    -0.237 OA
ATOM     64  O   UNL A   1      42.567  21.838  27.448  1.00  0.00    -0.237 OA
ATOM     65  O   UNL A   1      40.545  22.305  26.138  1.00  0.00    -0.744 OA
ENDBRANCH  59  62
ENDBRANCH  41  55
BRANCH  42  66
ATOM     66  C   UNL A   1      39.111  31.898  35.169  1.00  0.00     0.023 A 
ATOM     67  C   UNL A   1      38.213  31.323  36.086  1.00  0.00     0.012 A 
ATOM     68  C   UNL A   1      39.585  33.205  35.398  1.00  0.00     0.148 A 
ATOM     69  C   UNL A   1      37.788  32.039  37.207  1.00  0.00     0.002 A 
ATOM     70  C   UNL A   1      39.207  33.887  36.549  1.00  0.00     0.091 A 
ATOM     71  F   UNL A   1      40.419  33.750  34.499  1.00  0.00    -0.205 F 
ATOM     72  C   UNL A   1      38.298  33.312  37.448  1.00  0.00     0.022 A 
BRANCH  70  73
ATOM     73  S   UNL A   1      39.958  35.457  36.999  1.00  0.00     0.127 S 
ATOM     74  O   UNL A   1      39.576  36.307  35.876  1.00  0.00    -0.237 OA
ATOM     75  O   UNL A   1      39.290  35.772  38.264  1.00  0.00    -0.237 OA
ATOM     76  O   UNL A   1      41.380  35.172  37.137  1.00  0.00    -0.744 OA
ENDBRANCH  70  73
ENDBRANCH  42  66
BRANCH  54  77
ATOM     77  C   UNL A   1      44.554  27.621  34.239  1.00  0.00     0.023 A 
ATOM     78  C   UNL A   1      45.743  28.375  34.288  1.00  0.00     0.012 A 
ATOM     79  C   UNL A   1      44.400  26.511  35.090  1.00  0.00     0.148 A 
ATOM     80  C   UNL A   1      46.771  28.018  35.158  1.00  0.00     0.002 A 
ATOM     81  C   UNL A   1      45.415  26.182  35.980  1.00  0.00     0.091 A 
ATOM     82  F   UNL A   1      43.269  25.792  35.008  1.00  0.00    -0.205 F 
ATOM     83  C   UNL A   1      46.603  26.930  36.011  1.00  0.00     0.022 A 
BRANCH  81  84
ATOM     84  S   UNL A   1      45.240  24.843  37.166  1.00  0.00     0.127 S 
ATOM     85  O   UNL A   1      44.009  25.216  37.859  1.00  0.00    -0.237 OA
ATOM     86  O   UNL A   1      45.120  23.669  36.301  1.00  0.00    -0.237 OA
ATOM     87  O   UNL A   1      46.453  24.871  37.971  1.00  0.00    -0.744 OA
ENDBRANCH  81  84
ENDBRANCH  54  77
ENDBRANCH  28  29
ENDBRANCH  21  23
ENDBRANCH  20  21
ENDBRANCH   1  20
TORSDOF 17
ENDMDL
