MODEL 1
REMARK VINA RESULT:     -11.0      0.000      0.000
REMARK SMILES COCC[C@H](NC(=O)c1ccc(C)cc1F)C(=O)OCCOC(=O)c1ccc(-c2c3nc(c(-c4cccc(S(=O)(=O)[O-])c4F)c4ccc([nH]4)c(-c4cccc(S(=O)(=O)[O-])c4F)c4nc(c(-c5cccc(S(=O)(=O)[O-])c5F)c5ccc2[nH]5)C=C4)C=C3)cc1
REMARK SMILES IDX 20 1 19 2 17 3 18 4 5 5 4 6 3 7 2 8 1 9 6 10 7 11 8 13 9 14
REMARK SMILES IDX 10 15 15 16 11 17 14 18 16 19 12 20 13 21 21 22 22 23 23 24
REMARK SMILES IDX 24 25 25 26 26 27 87 28 27 29 86 30 28 31 29 32 30 33 80 34
REMARK SMILES IDX 31 35 85 36 79 37 81 38 32 39 84 40 78 41 77 42 33 44 65 45
REMARK SMILES IDX 45 46 64 47 46 48 49 49 63 50 82 51 47 52 48 53 62 55 83 56
REMARK SMILES IDX 50 57 34 58 35 59 43 60 36 61 38 62 44 63 37 64 39 65 40 66
REMARK SMILES IDX 41 67 42 68 66 69 67 70 75 71 68 72 70 73 76 74 69 75 71 76
REMARK SMILES IDX 72 77 73 78 74 79 51 80 52 81 60 82 53 83 55 84 61 85 54 86
REMARK SMILES IDX 56 87 57 88 58 89 59 90
REMARK H PARENT 6 12 81 43 49 54
REMARK Flexibility Score: inf
ROOT
ATOM      1  C   UNL A   1      35.909  20.319  24.994  1.00  0.00     0.274 C 
ENDROOT
BRANCH   1   2
ATOM      2  O   UNL A   1      35.610  21.583  24.369  1.00  0.00    -0.461 OA
BRANCH   2   3
ATOM      3  C   UNL A   1      35.004  22.501  25.172  1.00  0.00     0.328 C 
ATOM      4  O   UNL A   1      35.345  22.756  26.323  1.00  0.00    -0.250 OA
BRANCH   3   5
ATOM      5  C   UNL A   1      33.787  23.173  24.513  1.00  0.00     0.194 C 
BRANCH   5   6
ATOM      6  C   UNL A   1      32.784  22.074  24.105  1.00  0.00     0.065 C 
BRANCH   6   7
ATOM      7  C   UNL A   1      32.245  21.250  25.279  1.00  0.00     0.162 C 
BRANCH   7   8
ATOM      8  O   UNL A   1      31.829  19.957  24.845  1.00  0.00    -0.385 OA
ATOM      9  C   UNL A   1      32.618  19.448  23.776  1.00  0.00     0.194 C 
ENDBRANCH   7   8
ENDBRANCH   6   7
ENDBRANCH   5   6
BRANCH   5  10
ATOM     10  N   UNL A   1      34.068  24.049  23.368  1.00  0.00    -0.338 N 
ATOM     11  C   UNL A   1      33.558  25.286  23.076  1.00  0.00     0.254 C 
ATOM     12  H   UNL A   1      34.717  23.697  22.718  1.00  0.00     0.164 HD
ATOM     13  O   UNL A   1      33.630  25.738  21.938  1.00  0.00    -0.269 OA
BRANCH  11  14
ATOM     14  C   UNL A   1      33.031  26.111  24.166  1.00  0.00     0.075 A 
ATOM     15  C   UNL A   1      33.941  26.669  25.063  1.00  0.00     0.017 A 
ATOM     16  C   UNL A   1      31.674  26.389  24.279  1.00  0.00     0.136 A 
ATOM     17  C   UNL A   1      33.472  27.471  26.103  1.00  0.00     0.004 A 
ATOM     18  C   UNL A   1      31.205  27.178  25.331  1.00  0.00     0.043 A 
ATOM     19  F   UNL A   1      30.793  25.880  23.406  1.00  0.00    -0.206 F 
ATOM     20  C   UNL A   1      32.101  27.706  26.269  1.00  0.00    -0.048 A 
ATOM     21  C   UNL A   1      31.628  28.516  27.442  1.00  0.00     0.044 C 
ENDBRANCH  11  14
ENDBRANCH   5  10
ENDBRANCH   3   5
ENDBRANCH   2   3
ENDBRANCH   1   2
BRANCH   1  22
ATOM     22  C   UNL A   1      37.394  19.993  24.884  1.00  0.00     0.275 C 
BRANCH  22  23
ATOM     23  O   UNL A   1      38.179  21.162  25.173  1.00  0.00    -0.458 OA
BRANCH  23  24
ATOM     24  C   UNL A   1      39.218  20.961  26.001  1.00  0.00     0.338 C 
ATOM     25  O   UNL A   1      39.843  19.912  26.181  1.00  0.00    -0.246 OA
BRANCH  24  26
ATOM     26  C   UNL A   1      39.593  22.208  26.666  1.00  0.00     0.060 A 
ATOM     27  C   UNL A   1      39.024  23.402  26.227  1.00  0.00     0.016 A 
ATOM     28  C   UNL A   1      40.649  22.217  27.579  1.00  0.00     0.016 A 
ATOM     29  C   UNL A   1      39.590  24.612  26.618  1.00  0.00     0.010 A 
ATOM     30  C   UNL A   1      41.165  23.437  28.026  1.00  0.00     0.010 A 
ATOM     31  C   UNL A   1      40.689  24.648  27.497  1.00  0.00    -0.014 A 
BRANCH  31  32
ATOM     32  C   UNL A   1      41.376  25.943  27.777  1.00  0.00     0.031 A 
ATOM     33  C   UNL A   1      40.686  27.033  28.565  1.00  0.00     0.074 A 
ATOM     34  C   UNL A   1      42.656  26.120  27.397  1.00  0.00     0.049 A 
ATOM     35  N   UNL A   1      41.154  28.200  28.935  1.00  0.00    -0.248 NA
ATOM     36  C   UNL A   1      39.312  26.776  29.027  1.00  0.00     0.031 C 
ATOM     37  C   UNL A   1      43.460  25.141  26.666  1.00  0.00     0.029 A 
ATOM     38  N   UNL A   1      43.509  27.182  27.578  1.00  0.00    -0.354 N 
ATOM     39  C   UNL A   1      40.138  28.812  29.661  1.00  0.00     0.074 A 
ATOM     40  C   UNL A   1      39.021  27.894  29.678  1.00  0.00     0.031 C 
ATOM     41  C   UNL A   1      44.694  25.634  26.483  1.00  0.00     0.029 A 
ATOM     42  C   UNL A   1      44.749  26.994  27.013  1.00  0.00     0.049 A 
ATOM     43  H   UNL A   1      43.257  27.999  28.066  1.00  0.00     0.167 HD
ATOM     44  C   UNL A   1      40.134  30.017  30.278  1.00  0.00     0.034 A 
ATOM     45  C   UNL A   1      45.802  27.826  26.892  1.00  0.00     0.034 A 
ATOM     46  C   UNL A   1      41.229  30.947  30.268  1.00  0.00     0.049 A 
ATOM     47  C   UNL A   1      45.718  29.211  27.466  1.00  0.00     0.074 A 
ATOM     48  C   UNL A   1      41.301  32.194  30.865  1.00  0.00     0.029 A 
ATOM     49  N   UNL A   1      42.433  30.748  29.613  1.00  0.00    -0.354 N 
ATOM     50  N   UNL A   1      44.773  29.741  28.203  1.00  0.00    -0.248 NA
ATOM     51  C   UNL A   1      46.844  30.115  27.190  1.00  0.00     0.031 C 
ATOM     52  C   UNL A   1      42.545  32.758  30.555  1.00  0.00     0.029 A 
ATOM     53  C   UNL A   1      43.246  31.857  29.772  1.00  0.00     0.049 A 
ATOM     54  H   UNL A   1      42.674  29.937  29.109  1.00  0.00     0.167 HD
ATOM     55  C   UNL A   1      45.194  31.035  28.488  1.00  0.00     0.074 A 
ATOM     56  C   UNL A   1      46.493  31.199  27.869  1.00  0.00     0.031 C 
ATOM     57  C   UNL A   1      44.550  32.006  29.180  1.00  0.00     0.034 A 
BRANCH  44  58
ATOM     58  C   UNL A   1      38.907  30.396  31.060  1.00  0.00     0.023 A 
ATOM     59  C   UNL A   1      38.861  30.116  32.440  1.00  0.00     0.012 A 
ATOM     60  C   UNL A   1      37.844  31.093  30.455  1.00  0.00     0.148 A 
ATOM     61  C   UNL A   1      37.770  30.522  33.208  1.00  0.00     0.002 A 
ATOM     62  C   UNL A   1      36.772  31.515  31.232  1.00  0.00     0.091 A 
ATOM     63  F   UNL A   1      37.895  31.316  29.135  1.00  0.00    -0.205 F 
ATOM     64  C   UNL A   1      36.733  31.231  32.607  1.00  0.00     0.022 A 
BRANCH  62  65
ATOM     65  S   UNL A   1      35.415  32.476  30.551  1.00  0.00     0.127 S 
ATOM     66  O   UNL A   1      34.393  32.317  31.583  1.00  0.00    -0.237 OA
ATOM     67  O   UNL A   1      35.992  33.818  30.464  1.00  0.00    -0.237 OA
ATOM     68  O   UNL A   1      35.109  31.868  29.263  1.00  0.00    -0.744 OA
ENDBRANCH  62  65
ENDBRANCH  44  58
BRANCH  45  69
ATOM     69  C   UNL A   1      47.027  27.359  26.186  1.00  0.00     0.023 A 
ATOM     70  C   UNL A   1      47.246  27.727  24.845  1.00  0.00     0.012 A 
ATOM     71  C   UNL A   1      48.009  26.606  26.858  1.00  0.00     0.148 A 
ATOM     72  C   UNL A   1      48.420  27.352  24.190  1.00  0.00     0.002 A 
ATOM     73  C   UNL A   1      49.207  26.300  26.224  1.00  0.00     0.091 A 
ATOM     74  F   UNL A   1      47.768  26.221  28.121  1.00  0.00    -0.205 F 
ATOM     75  C   UNL A   1      49.409  26.659  24.885  1.00  0.00     0.022 A 
BRANCH  73  76
ATOM     76  S   UNL A   1      50.574  25.576  27.135  1.00  0.00     0.127 S 
ATOM     77  O   UNL A   1      51.582  25.414  26.093  1.00  0.00    -0.237 OA
ATOM     78  O   UNL A   1      50.874  26.608  28.129  1.00  0.00    -0.237 OA
ATOM     79  O   UNL A   1      50.030  24.349  27.706  1.00  0.00    -0.744 OA
ENDBRANCH  73  76
ENDBRANCH  45  69
BRANCH  57  80
ATOM     80  C   UNL A   1      45.227  33.345  29.296  1.00  0.00     0.023 A 
ATOM     81  C   UNL A   1      46.090  33.586  30.383  1.00  0.00     0.012 A 
ATOM     82  C   UNL A   1      45.066  34.333  28.307  1.00  0.00     0.148 A 
ATOM     83  C   UNL A   1      46.764  34.802  30.497  1.00  0.00     0.002 A 
ATOM     84  C   UNL A   1      45.771  35.528  28.407  1.00  0.00     0.091 A 
ATOM     85  F   UNL A   1      44.223  34.095  27.291  1.00  0.00    -0.205 F 
ATOM     86  C   UNL A   1      46.613  35.767  29.504  1.00  0.00     0.022 A 
BRANCH  84  87
ATOM     87  S   UNL A   1      45.692  36.786  27.126  1.00  0.00     0.127 S 
ATOM     88  O   UNL A   1      46.573  37.818  27.667  1.00  0.00    -0.237 OA
ATOM     89  O   UNL A   1      46.223  36.083  25.957  1.00  0.00    -0.237 OA
ATOM     90  O   UNL A   1      44.284  37.146  27.019  1.00  0.00    -0.744 OA
ENDBRANCH  84  87
ENDBRANCH  57  80
ENDBRANCH  31  32
ENDBRANCH  24  26
ENDBRANCH  23  24
ENDBRANCH  22  23
ENDBRANCH   1  22
TORSDOF 19
ENDMDL
MODEL 2
REMARK VINA RESULT:     -10.9      1.629      7.785
REMARK SMILES COCC[C@H](NC(=O)c1ccc(C)cc1F)C(=O)OCCOC(=O)c1ccc(-c2c3nc(c(-c4cccc(S(=O)(=O)[O-])c4F)c4ccc([nH]4)c(-c4cccc(S(=O)(=O)[O-])c4F)c4nc(c(-c5cccc(S(=O)(=O)[O-])c5F)c5ccc2[nH]5)C=C4)C=C3)cc1
REMARK SMILES IDX 20 1 19 2 17 3 18 4 5 5 4 6 3 7 2 8 1 9 6 10 7 11 8 13 9 14
REMARK SMILES IDX 10 15 15 16 11 17 14 18 16 19 12 20 13 21 21 22 22 23 23 24
REMARK SMILES IDX 24 25 25 26 26 27 87 28 27 29 86 30 28 31 29 32 30 33 80 34
REMARK SMILES IDX 31 35 85 36 79 37 81 38 32 39 84 40 78 41 77 42 33 44 65 45
REMARK SMILES IDX 45 46 64 47 46 48 49 49 63 50 82 51 47 52 48 53 62 55 83 56
REMARK SMILES IDX 50 57 34 58 35 59 43 60 36 61 38 62 44 63 37 64 39 65 40 66
REMARK SMILES IDX 41 67 42 68 66 69 67 70 75 71 68 72 70 73 76 74 69 75 71 76
REMARK SMILES IDX 72 77 73 78 74 79 51 80 52 81 60 82 53 83 55 84 61 85 54 86
REMARK SMILES IDX 56 87 57 88 58 89 59 90
REMARK H PARENT 6 12 81 43 49 54
REMARK Flexibility Score: inf
ROOT
ATOM      1  C   UNL A   1      36.233  20.233  24.977  1.00  0.00     0.274 C 
ENDROOT
BRANCH   1   2
ATOM      2  O   UNL A   1      35.846  21.596  25.239  1.00  0.00    -0.461 OA
BRANCH   2   3
ATOM      3  C   UNL A   1      34.654  21.751  25.879  1.00  0.00     0.328 C 
ATOM      4  O   UNL A   1      34.432  21.407  27.035  1.00  0.00    -0.250 OA
BRANCH   3   5
ATOM      5  C   UNL A   1      33.563  22.364  24.984  1.00  0.00     0.194 C 
BRANCH   5   6
ATOM      6  C   UNL A   1      32.297  21.488  25.089  1.00  0.00     0.065 C 
BRANCH   6   7
ATOM      7  C   UNL A   1      32.414  20.130  24.391  1.00  0.00     0.162 C 
BRANCH   7   8
ATOM      8  O   UNL A   1      32.028  19.073  25.266  1.00  0.00    -0.385 OA
ATOM      9  C   UNL A   1      32.966  18.003  25.293  1.00  0.00     0.194 C 
ENDBRANCH   7   8
ENDBRANCH   6   7
ENDBRANCH   5   6
BRANCH   5  10
ATOM     10  N   UNL A   1      33.917  22.573  23.574  1.00  0.00    -0.338 N 
ATOM     11  C   UNL A   1      33.411  23.473  22.676  1.00  0.00     0.254 C 
ATOM     12  H   UNL A   1      34.622  21.981  23.226  1.00  0.00     0.164 HD
ATOM     13  O   UNL A   1      33.564  23.306  21.471  1.00  0.00    -0.269 OA
BRANCH  11  14
ATOM     14  C   UNL A   1      32.786  24.700  23.177  1.00  0.00     0.075 A 
ATOM     15  C   UNL A   1      33.606  25.802  23.415  1.00  0.00     0.017 A 
ATOM     16  C   UNL A   1      31.411  24.798  23.356  1.00  0.00     0.136 A 
ATOM     17  C   UNL A   1      33.040  26.989  23.878  1.00  0.00     0.004 A 
ATOM     18  C   UNL A   1      30.848  25.981  23.836  1.00  0.00     0.043 A 
ATOM     19  F   UNL A   1      30.610  23.752  23.104  1.00  0.00    -0.206 F 
ATOM     20  C   UNL A   1      31.665  27.082  24.126  1.00  0.00    -0.048 A 
ATOM     21  C   UNL A   1      31.100  28.353  24.693  1.00  0.00     0.044 C 
ENDBRANCH  11  14
ENDBRANCH   5  10
ENDBRANCH   3   5
ENDBRANCH   2   3
ENDBRANCH   1   2
BRANCH   1  22
ATOM     22  C   UNL A   1      37.750  20.086  24.973  1.00  0.00     0.275 C 
BRANCH  22  23
ATOM     23  O   UNL A   1      38.366  21.318  25.384  1.00  0.00    -0.458 OA
BRANCH  23  24
ATOM     24  C   UNL A   1      39.491  21.180  26.107  1.00  0.00     0.338 C 
ATOM     25  O   UNL A   1      40.246  20.205  26.142  1.00  0.00    -0.246 OA
BRANCH  24  26
ATOM     26  C   UNL A   1      39.775  22.406  26.850  1.00  0.00     0.060 A 
ATOM     27  C   UNL A   1      39.076  23.567  26.526  1.00  0.00     0.016 A 
ATOM     28  C   UNL A   1      40.866  22.453  27.720  1.00  0.00     0.016 A 
ATOM     29  C   UNL A   1      39.542  24.796  26.987  1.00  0.00     0.010 A 
ATOM     30  C   UNL A   1      41.284  23.682  28.239  1.00  0.00     0.010 A 
ATOM     31  C   UNL A   1      40.671  24.875  27.824  1.00  0.00    -0.014 A 
BRANCH  31  32
ATOM     32  C   UNL A   1      41.244  26.207  28.176  1.00  0.00     0.031 A 
ATOM     33  C   UNL A   1      42.678  26.549  27.837  1.00  0.00     0.074 A 
ATOM     34  C   UNL A   1      40.459  27.153  28.727  1.00  0.00     0.049 A 
ATOM     35  N   UNL A   1      43.321  27.675  28.031  1.00  0.00    -0.248 NA
ATOM     36  C   UNL A   1      43.487  25.517  27.168  1.00  0.00     0.031 C 
ATOM     37  C   UNL A   1      39.048  26.978  29.071  1.00  0.00     0.029 A 
ATOM     38  N   UNL A   1      40.732  28.449  29.089  1.00  0.00    -0.354 N 
ATOM     39  C   UNL A   1      44.599  27.483  27.518  1.00  0.00     0.074 A 
ATOM     40  C   UNL A   1      44.650  26.132  27.007  1.00  0.00     0.031 C 
ATOM     41  C   UNL A   1      38.572  28.128  29.570  1.00  0.00     0.029 A 
ATOM     42  C   UNL A   1      39.659  29.099  29.655  1.00  0.00     0.049 A 
ATOM     43  H   UNL A   1      41.611  28.873  28.957  1.00  0.00     0.167 HD
ATOM     44  C   UNL A   1      45.634  28.354  27.454  1.00  0.00     0.034 A 
ATOM     45  C   UNL A   1      39.561  30.320  30.217  1.00  0.00     0.034 A 
ATOM     46  C   UNL A   1      45.608  29.698  27.961  1.00  0.00     0.049 A 
ATOM     47  C   UNL A   1      40.767  31.214  30.258  1.00  0.00     0.074 A 
ATOM     48  C   UNL A   1      46.620  30.643  27.940  1.00  0.00     0.029 A 
ATOM     49  N   UNL A   1      44.528  30.284  28.598  1.00  0.00    -0.354 N 
ATOM     50  N   UNL A   1      41.943  31.035  29.709  1.00  0.00    -0.248 NA
ATOM     51  C   UNL A   1      40.633  32.477  30.998  1.00  0.00     0.031 C 
ATOM     52  C   UNL A   1      46.156  31.797  28.583  1.00  0.00     0.029 A 
ATOM     53  C   UNL A   1      44.854  31.570  28.997  1.00  0.00     0.049 A 
ATOM     54  H   UNL A   1      43.656  29.850  28.747  1.00  0.00     0.167 HD
ATOM     55  C   UNL A   1      42.686  32.166  30.027  1.00  0.00     0.074 A 
ATOM     56  C   UNL A   1      41.818  33.037  30.792  1.00  0.00     0.031 C 
ATOM     57  C   UNL A   1      43.979  32.445  29.731  1.00  0.00     0.034 A 
BRANCH  44  58
ATOM     58  C   UNL A   1      46.892  27.892  26.772  1.00  0.00     0.023 A 
ATOM     59  C   UNL A   1      47.918  27.314  27.546  1.00  0.00     0.012 A 
ATOM     60  C   UNL A   1      47.028  27.956  25.372  1.00  0.00     0.148 A 
ATOM     61  C   UNL A   1      49.064  26.807  26.935  1.00  0.00     0.002 A 
ATOM     62  C   UNL A   1      48.163  27.427  24.769  1.00  0.00     0.091 A 
ATOM     63  F   UNL A   1      46.054  28.542  24.661  1.00  0.00    -0.205 F 
ATOM     64  C   UNL A   1      49.181  26.853  25.548  1.00  0.00     0.022 A 
BRANCH  62  65
ATOM     65  S   UNL A   1      48.375  27.400  22.985  1.00  0.00     0.127 S 
ATOM     66  O   UNL A   1      47.254  28.225  22.542  1.00  0.00    -0.237 OA
ATOM     67  O   UNL A   1      49.692  28.016  22.816  1.00  0.00    -0.237 OA
ATOM     68  O   UNL A   1      48.314  25.996  22.602  1.00  0.00    -0.744 OA
ENDBRANCH  62  65
ENDBRANCH  44  58
BRANCH  45  69
ATOM     69  C   UNL A   1      38.259  30.757  30.794  1.00  0.00     0.023 A 
ATOM     70  C   UNL A   1      37.993  30.548  32.160  1.00  0.00     0.012 A 
ATOM     71  C   UNL A   1      37.310  31.440  30.008  1.00  0.00     0.148 A 
ATOM     72  C   UNL A   1      36.805  31.011  32.729  1.00  0.00     0.002 A 
ATOM     73  C   UNL A   1      36.166  31.962  30.597  1.00  0.00     0.091 A 
ATOM     74  F   UNL A   1      37.554  31.591  28.698  1.00  0.00    -0.205 F 
ATOM     75  C   UNL A   1      35.903  31.736  31.955  1.00  0.00     0.022 A 
BRANCH  73  76
ATOM     76  S   UNL A   1      35.075  33.056  29.681  1.00  0.00     0.127 S 
ATOM     77  O   UNL A   1      35.998  34.083  29.211  1.00  0.00    -0.237 OA
ATOM     78  O   UNL A   1      34.548  32.175  28.637  1.00  0.00    -0.237 OA
ATOM     79  O   UNL A   1      34.074  33.480  30.654  1.00  0.00    -0.744 OA
ENDBRANCH  73  76
ENDBRANCH  45  69
BRANCH  57  80
ATOM     80  C   UNL A   1      44.548  33.739  30.247  1.00  0.00     0.023 A 
ATOM     81  C   UNL A   1      45.248  33.743  31.469  1.00  0.00     0.012 A 
ATOM     82  C   UNL A   1      44.451  34.929  29.501  1.00  0.00     0.148 A 
ATOM     83  C   UNL A   1      45.822  34.917  31.955  1.00  0.00     0.002 A 
ATOM     84  C   UNL A   1      45.059  36.088  29.972  1.00  0.00     0.091 A 
ATOM     85  F   UNL A   1      43.762  34.912  28.351  1.00  0.00    -0.205 F 
ATOM     86  C   UNL A   1      45.737  36.086  31.201  1.00  0.00     0.022 A 
BRANCH  84  87
ATOM     87  S   UNL A   1      45.064  37.611  29.019  1.00  0.00     0.127 S 
ATOM     88  O   UNL A   1      43.642  37.949  28.988  1.00  0.00    -0.237 OA
ATOM     89  O   UNL A   1      45.883  38.500  29.844  1.00  0.00    -0.237 OA
ATOM     90  O   UNL A   1      45.662  37.267  27.736  1.00  0.00    -0.744 OA
ENDBRANCH  84  87
ENDBRANCH  57  80
ENDBRANCH  31  32
ENDBRANCH  24  26
ENDBRANCH  23  24
ENDBRANCH  22  23
ENDBRANCH   1  22
TORSDOF 19
ENDMDL
MODEL 3
REMARK VINA RESULT:     -10.8      5.204     10.141
REMARK SMILES COCC[C@H](NC(=O)c1ccc(C)cc1F)C(=O)OCCOC(=O)c1ccc(-c2c3nc(c(-c4cccc(S(=O)(=O)[O-])c4F)c4ccc([nH]4)c(-c4cccc(S(=O)(=O)[O-])c4F)c4nc(c(-c5cccc(S(=O)(=O)[O-])c5F)c5ccc2[nH]5)C=C4)C=C3)cc1
REMARK SMILES IDX 20 1 19 2 17 3 18 4 5 5 4 6 3 7 2 8 1 9 6 10 7 11 8 13 9 14
REMARK SMILES IDX 10 15 15 16 11 17 14 18 16 19 12 20 13 21 21 22 22 23 23 24
REMARK SMILES IDX 24 25 25 26 26 27 87 28 27 29 86 30 28 31 29 32 30 33 80 34
REMARK SMILES IDX 31 35 85 36 79 37 81 38 32 39 84 40 78 41 77 42 33 44 65 45
REMARK SMILES IDX 45 46 64 47 46 48 49 49 63 50 82 51 47 52 48 53 62 55 83 56
REMARK SMILES IDX 50 57 34 58 35 59 43 60 36 61 38 62 44 63 37 64 39 65 40 66
REMARK SMILES IDX 41 67 42 68 66 69 67 70 75 71 68 72 70 73 76 74 69 75 71 76
REMARK SMILES IDX 72 77 73 78 74 79 51 80 52 81 60 82 53 83 55 84 61 85 54 86
REMARK SMILES IDX 56 87 57 88 58 89 59 90
REMARK H PARENT 6 12 81 43 49 54
REMARK Flexibility Score: inf
ROOT
ATOM      1  C   UNL A   1      32.161  29.577  25.590  1.00  0.00     0.274 C 
ENDROOT
BRANCH   1   2
ATOM      2  O   UNL A   1      31.888  28.380  26.344  1.00  0.00    -0.461 OA
BRANCH   2   3
ATOM      3  C   UNL A   1      32.721  27.332  26.098  1.00  0.00     0.328 C 
ATOM      4  O   UNL A   1      33.940  27.362  26.232  1.00  0.00    -0.250 OA
BRANCH   3   5
ATOM      5  C   UNL A   1      31.988  26.087  25.569  1.00  0.00     0.194 C 
BRANCH   5   6
ATOM      6  C   UNL A   1      31.064  26.518  24.412  1.00  0.00     0.065 C 
BRANCH   6   7
ATOM      7  C   UNL A   1      29.585  26.188  24.632  1.00  0.00     0.162 C 
BRANCH   7   8
ATOM      8  O   UNL A   1      28.763  26.883  23.699  1.00  0.00    -0.385 OA
ATOM      9  C   UNL A   1      29.408  28.013  23.122  1.00  0.00     0.194 C 
ENDBRANCH   7   8
ENDBRANCH   6   7
ENDBRANCH   5   6
BRANCH   5  10
ATOM     10  N   UNL A   1      31.229  25.309  26.558  1.00  0.00    -0.338 N 
ATOM     11  C   UNL A   1      31.182  23.954  26.746  1.00  0.00     0.254 C 
ATOM     12  H   UNL A   1      30.676  25.840  27.175  1.00  0.00     0.164 HD
ATOM     13  O   UNL A   1      30.264  23.443  27.377  1.00  0.00    -0.269 OA
BRANCH  11  14
ATOM     14  C   UNL A   1      32.305  23.134  26.283  1.00  0.00     0.075 A 
ATOM     15  C   UNL A   1      33.324  22.849  27.191  1.00  0.00     0.017 A 
ATOM     16  C   UNL A   1      32.337  22.598  25.001  1.00  0.00     0.136 A 
ATOM     17  C   UNL A   1      34.399  22.059  26.785  1.00  0.00     0.004 A 
ATOM     18  C   UNL A   1      33.423  21.823  24.592  1.00  0.00     0.043 A 
ATOM     19  F   UNL A   1      31.349  22.844  24.129  1.00  0.00    -0.206 F 
ATOM     20  C   UNL A   1      34.478  21.567  25.477  1.00  0.00    -0.048 A 
ATOM     21  C   UNL A   1      35.687  20.781  25.055  1.00  0.00     0.044 C 
ENDBRANCH  11  14
ENDBRANCH   5  10
ENDBRANCH   3   5
ENDBRANCH   2   3
ENDBRANCH   1   2
BRANCH   1  22
ATOM     22  C   UNL A   1      31.996  30.820  26.458  1.00  0.00     0.275 C 
BRANCH  22  23
ATOM     23  O   UNL A   1      32.870  30.745  27.596  1.00  0.00    -0.458 OA
BRANCH  23  24
ATOM     24  C   UNL A   1      33.751  31.754  27.706  1.00  0.00     0.338 C 
ATOM     25  O   UNL A   1      33.518  32.964  27.647  1.00  0.00    -0.246 OA
BRANCH  24  26
ATOM     26  C   UNL A   1      35.092  31.237  27.977  1.00  0.00     0.060 A 
ATOM     27  C   UNL A   1      35.259  29.866  28.159  1.00  0.00     0.016 A 
ATOM     28  C   UNL A   1      36.136  32.123  28.246  1.00  0.00     0.016 A 
ATOM     29  C   UNL A   1      36.441  29.391  28.722  1.00  0.00     0.010 A 
ATOM     30  C   UNL A   1      37.348  31.633  28.743  1.00  0.00     0.010 A 
ATOM     31  C   UNL A   1      37.491  30.271  29.052  1.00  0.00    -0.014 A 
BRANCH  31  32
ATOM     32  C   UNL A   1      38.680  29.763  29.797  1.00  0.00     0.031 A 
ATOM     33  C   UNL A   1      39.572  28.697  29.202  1.00  0.00     0.074 A 
ATOM     34  C   UNL A   1      39.018  30.312  30.980  1.00  0.00     0.049 A 
ATOM     35  N   UNL A   1      40.669  28.175  29.694  1.00  0.00    -0.248 NA
ATOM     36  C   UNL A   1      39.213  28.170  27.875  1.00  0.00     0.031 C 
ATOM     37  C   UNL A   1      38.274  31.375  31.656  1.00  0.00     0.029 A 
ATOM     38  N   UNL A   1      40.075  30.060  31.820  1.00  0.00    -0.354 N 
ATOM     39  C   UNL A   1      41.122  27.263  28.747  1.00  0.00     0.074 A 
ATOM     40  C   UNL A   1      40.181  27.293  27.650  1.00  0.00     0.031 C 
ATOM     41  C   UNL A   1      38.909  31.702  32.791  1.00  0.00     0.029 A 
ATOM     42  C   UNL A   1      40.060  30.821  32.966  1.00  0.00     0.049 A 
ATOM     43  H   UNL A   1      40.775  29.397  31.621  1.00  0.00     0.167 HD
ATOM     44  C   UNL A   1      42.229  26.485  28.771  1.00  0.00     0.034 A 
ATOM     45  C   UNL A   1      40.853  30.794  34.055  1.00  0.00     0.034 A 
ATOM     46  C   UNL A   1      43.173  26.434  29.854  1.00  0.00     0.049 A 
ATOM     47  C   UNL A   1      41.994  29.819  34.115  1.00  0.00     0.074 A 
ATOM     48  C   UNL A   1      44.319  25.665  29.957  1.00  0.00     0.029 A 
ATOM     49  N   UNL A   1      43.073  27.162  31.028  1.00  0.00    -0.354 N 
ATOM     50  N   UNL A   1      42.440  29.016  33.182  1.00  0.00    -0.248 NA
ATOM     51  C   UNL A   1      42.741  29.746  35.380  1.00  0.00     0.031 C 
ATOM     52  C   UNL A   1      44.904  25.914  31.205  1.00  0.00     0.029 A 
ATOM     53  C   UNL A   1      44.123  26.843  31.872  1.00  0.00     0.049 A 
ATOM     54  H   UNL A   1      42.359  27.809  31.232  1.00  0.00     0.167 HD
ATOM     55  C   UNL A   1      43.524  28.349  33.740  1.00  0.00     0.074 A 
ATOM     56  C   UNL A   1      43.687  28.865  35.084  1.00  0.00     0.031 C 
ATOM     57  C   UNL A   1      44.299  27.380  33.196  1.00  0.00     0.034 A 
BRANCH  44  58
ATOM     58  C   UNL A   1      42.511  25.636  27.563  1.00  0.00     0.023 A 
ATOM     59  C   UNL A   1      43.252  26.185  26.497  1.00  0.00     0.012 A 
ATOM     60  C   UNL A   1      42.119  24.285  27.513  1.00  0.00     0.148 A 
ATOM     61  C   UNL A   1      43.595  25.402  25.396  1.00  0.00     0.002 A 
ATOM     62  C   UNL A   1      42.485  23.504  26.424  1.00  0.00     0.091 A 
ATOM     63  F   UNL A   1      41.386  23.795  28.523  1.00  0.00    -0.205 F 
ATOM     64  C   UNL A   1      43.222  24.060  25.365  1.00  0.00     0.022 A 
BRANCH  62  65
ATOM     65  S   UNL A   1      42.090  21.755  26.322  1.00  0.00     0.127 S 
ATOM     66  O   UNL A   1      40.686  21.792  25.920  1.00  0.00    -0.237 OA
ATOM     67  O   UNL A   1      43.010  21.284  25.286  1.00  0.00    -0.237 OA
ATOM     68  O   UNL A   1      42.351  21.214  27.649  1.00  0.00    -0.744 OA
ENDBRANCH  62  65
ENDBRANCH  44  58
BRANCH  45  69
ATOM     69  C   UNL A   1      40.577  31.726  35.184  1.00  0.00     0.023 A 
ATOM     70  C   UNL A   1      41.380  32.868  35.361  1.00  0.00     0.012 A 
ATOM     71  C   UNL A   1      39.480  31.519  36.043  1.00  0.00     0.148 A 
ATOM     72  C   UNL A   1      41.093  33.785  36.374  1.00  0.00     0.002 A 
ATOM     73  C   UNL A   1      39.157  32.473  37.001  1.00  0.00     0.091 A 
ATOM     74  F   UNL A   1      38.752  30.403  35.895  1.00  0.00    -0.205 F 
ATOM     75  C   UNL A   1      39.971  33.600  37.179  1.00  0.00     0.022 A 
BRANCH  73  76
ATOM     76  S   UNL A   1      37.623  32.366  37.928  1.00  0.00     0.127 S 
ATOM     77  O   UNL A   1      36.670  32.979  37.010  1.00  0.00    -0.237 OA
ATOM     78  O   UNL A   1      37.463  30.922  38.109  1.00  0.00    -0.237 OA
ATOM     79  O   UNL A   1      37.887  33.089  39.166  1.00  0.00    -0.744 OA
ENDBRANCH  73  76
ENDBRANCH  45  69
BRANCH  57  80
ATOM     80  C   UNL A   1      45.388  26.795  34.054  1.00  0.00     0.023 A 
ATOM     81  C   UNL A   1      46.666  27.388  34.042  1.00  0.00     0.012 A 
ATOM     82  C   UNL A   1      45.137  25.709  34.914  1.00  0.00     0.148 A 
ATOM     83  C   UNL A   1      47.684  26.894  34.856  1.00  0.00     0.002 A 
ATOM     84  C   UNL A   1      46.146  25.246  35.751  1.00  0.00     0.091 A 
ATOM     85  F   UNL A   1      43.922  25.141  34.895  1.00  0.00    -0.205 F 
ATOM     86  C   UNL A   1      47.422  25.832  35.718  1.00  0.00     0.022 A 
BRANCH  84  87
ATOM     87  S   UNL A   1      45.861  23.936  36.947  1.00  0.00     0.127 S 
ATOM     88  O   UNL A   1      47.207  23.710  37.469  1.00  0.00    -0.237 OA
ATOM     89  O   UNL A   1      44.939  24.564  37.893  1.00  0.00    -0.237 OA
ATOM     90  O   UNL A   1      45.282  22.835  36.189  1.00  0.00    -0.744 OA
ENDBRANCH  84  87
ENDBRANCH  57  80
ENDBRANCH  31  32
ENDBRANCH  24  26
ENDBRANCH  23  24
ENDBRANCH  22  23
ENDBRANCH   1  22
TORSDOF 19
ENDMDL
