MODEL 1
REMARK VINA RESULT:     -13.3      0.000      0.000
REMARK SMILES O=C(OCCOC(=O)c1nn(Cc2ccc(F)cc2)c2c1CN(C(=O)[C@H]1CC1(F)F)CC2)c1ccc(-c2c3nc(c(-c4cccc(S(=O)(=O)[O-])c4F)c4ccc([nH]4)c(-c4cccc(S(=O)(=O)[O-])c4F)c4nc(c(-c5cccc(S(=O)(=O)[O-])c5F)c5ccc2[nH]5)C=C4)C=C3)cc1
REMARK SMILES IDX 4 1 3 2 2 3 1 4 33 5 34 6 95 7 35 8 94 9 36 10 37 11 38 12
REMARK SMILES IDX 88 13 39 14 93 15 87 16 89 17 40 18 92 19 86 20 85 21 41 23
REMARK SMILES IDX 73 24 53 25 72 26 54 27 57 28 71 29 90 30 55 31 56 32 70 34
REMARK SMILES IDX 91 35 58 36 42 37 43 38 51 39 44 40 46 41 52 42 45 43 47 44
REMARK SMILES IDX 48 45 49 46 50 47 74 48 75 49 83 50 76 51 78 52 84 53 77 54
REMARK SMILES IDX 79 55 80 56 81 57 82 58 59 59 60 60 68 61 61 62 63 63 69 64
REMARK SMILES IDX 62 65 64 66 65 67 66 68 67 69 5 70 6 71 7 72 8 73 9 74 10 75
REMARK SMILES IDX 21 76 11 77 20 78 22 79 32 80 23 81 31 82 12 83 13 84 14 85
REMARK SMILES IDX 19 86 15 87 18 88 16 89 17 90 24 91 25 92 26 93 27 94 28 95
REMARK SMILES IDX 29 96 30 97
REMARK H PARENT 89 22 57 33
REMARK Flexibility Score: inf
ROOT
ATOM      1  C   UNL A   1      39.631  19.934  25.556  1.00  0.00     0.275 C 
ENDROOT
BRANCH   1   2
ATOM      2  O   UNL A   1      40.540  18.818  25.513  1.00  0.00    -0.458 OA
BRANCH   2   3
ATOM      3  C   UNL A   1      41.801  19.016  25.946  1.00  0.00     0.338 C 
ATOM      4  O   UNL A   1      42.721  18.236  25.778  1.00  0.00    -0.246 OA
BRANCH   3   5
ATOM      5  C   UNL A   1      41.938  20.343  26.582  1.00  0.00     0.060 A 
ATOM      6  C   UNL A   1      42.641  21.389  25.971  1.00  0.00     0.016 A 
ATOM      7  C   UNL A   1      41.282  20.554  27.793  1.00  0.00     0.016 A 
ATOM      8  C   UNL A   1      42.719  22.627  26.589  1.00  0.00     0.010 A 
ATOM      9  C   UNL A   1      41.308  21.812  28.379  1.00  0.00     0.010 A 
ATOM     10  C   UNL A   1      42.071  22.836  27.809  1.00  0.00    -0.014 A 
BRANCH  10  11
ATOM     11  C   UNL A   1      42.212  24.144  28.450  1.00  0.00     0.031 A 
ATOM     12  C   UNL A   1      41.140  25.156  28.194  1.00  0.00     0.074 A 
ATOM     13  C   UNL A   1      43.198  24.409  29.331  1.00  0.00     0.049 A 
ATOM     14  N   UNL A   1      41.264  26.355  27.721  1.00  0.00    -0.248 NA
ATOM     15  C   UNL A   1      39.749  24.763  28.453  1.00  0.00     0.031 C 
ATOM     16  C   UNL A   1      44.173  23.473  29.903  1.00  0.00     0.029 A 
ATOM     17  N   UNL A   1      43.439  25.560  30.020  1.00  0.00    -0.354 N 
ATOM     18  C   UNL A   1      39.998  26.937  27.807  1.00  0.00     0.074 A 
ATOM     19  C   UNL A   1      39.085  25.883  28.168  1.00  0.00     0.031 C 
ATOM     20  C   UNL A   1      44.690  24.004  31.030  1.00  0.00     0.029 A 
ATOM     21  C   UNL A   1      44.226  25.371  31.149  1.00  0.00     0.049 A 
ATOM     22  H   UNL A   1      43.091  26.439  29.744  1.00  0.00     0.167 HD
ATOM     23  C   UNL A   1      39.799  28.283  27.747  1.00  0.00     0.034 A 
ATOM     24  C   UNL A   1      44.432  26.256  32.149  1.00  0.00     0.034 A 
ATOM     25  C   UNL A   1      40.918  28.977  27.179  1.00  0.00     0.049 A 
ATOM     26  C   UNL A   1      44.145  27.604  31.616  1.00  0.00     0.074 A 
ATOM     27  C   UNL A   1      41.576  28.942  25.966  1.00  0.00     0.029 A 
ATOM     28  N   UNL A   1      41.750  29.650  28.038  1.00  0.00    -0.354 N 
ATOM     29  N   UNL A   1      44.855  28.182  30.690  1.00  0.00    -0.248 NA
ATOM     30  C   UNL A   1      42.838  28.188  31.863  1.00  0.00     0.031 C 
ATOM     31  C   UNL A   1      42.947  29.154  26.289  1.00  0.00     0.029 A 
ATOM     32  C   UNL A   1      43.033  29.341  27.671  1.00  0.00     0.049 A 
ATOM     33  H   UNL A   1      41.477  30.240  28.776  1.00  0.00     0.167 HD
ATOM     34  C   UNL A   1      43.933  28.905  29.947  1.00  0.00     0.074 A 
ATOM     35  C   UNL A   1      42.749  28.987  30.797  1.00  0.00     0.031 C 
ATOM     36  C   UNL A   1      44.113  29.116  28.609  1.00  0.00     0.034 A 
BRANCH  23  37
ATOM     37  C   UNL A   1      38.687  29.012  28.453  1.00  0.00     0.023 A 
ATOM     38  C   UNL A   1      37.800  29.802  27.690  1.00  0.00     0.012 A 
ATOM     39  C   UNL A   1      38.621  29.147  29.858  1.00  0.00     0.148 A 
ATOM     40  C   UNL A   1      36.897  30.685  28.298  1.00  0.00     0.002 A 
ATOM     41  C   UNL A   1      37.661  29.952  30.458  1.00  0.00     0.091 A 
ATOM     42  F   UNL A   1      39.569  28.592  30.624  1.00  0.00    -0.205 F 
ATOM     43  C   UNL A   1      36.813  30.746  29.684  1.00  0.00     0.022 A 
BRANCH  41  44
ATOM     44  S   UNL A   1      37.457  29.966  32.242  1.00  0.00     0.127 S 
ATOM     45  O   UNL A   1      36.306  30.846  32.405  1.00  0.00    -0.237 OA
ATOM     46  O   UNL A   1      37.208  28.554  32.532  1.00  0.00    -0.237 OA
ATOM     47  O   UNL A   1      38.731  30.456  32.760  1.00  0.00    -0.744 OA
ENDBRANCH  41  44
ENDBRANCH  23  37
BRANCH  24  48
ATOM     48  C   UNL A   1      44.608  25.991  33.591  1.00  0.00     0.023 A 
ATOM     49  C   UNL A   1      45.898  26.021  34.150  1.00  0.00     0.012 A 
ATOM     50  C   UNL A   1      43.496  25.994  34.464  1.00  0.00     0.148 A 
ATOM     51  C   UNL A   1      46.078  26.086  35.536  1.00  0.00     0.002 A 
ATOM     52  C   UNL A   1      43.680  26.059  35.840  1.00  0.00     0.091 A 
ATOM     53  F   UNL A   1      42.263  26.029  33.940  1.00  0.00    -0.205 F 
ATOM     54  C   UNL A   1      44.971  26.116  36.380  1.00  0.00     0.022 A 
BRANCH  52  55
ATOM     55  S   UNL A   1      42.296  26.155  36.985  1.00  0.00     0.127 S 
ATOM     56  O   UNL A   1      41.557  27.306  36.467  1.00  0.00    -0.237 OA
ATOM     57  O   UNL A   1      41.647  24.862  36.777  1.00  0.00    -0.237 OA
ATOM     58  O   UNL A   1      42.885  26.355  38.303  1.00  0.00    -0.744 OA
ENDBRANCH  52  55
ENDBRANCH  24  48
BRANCH  36  59
ATOM     59  C   UNL A   1      45.454  28.777  27.999  1.00  0.00     0.023 A 
ATOM     60  C   UNL A   1      46.542  29.675  28.049  1.00  0.00     0.012 A 
ATOM     61  C   UNL A   1      45.687  27.462  27.563  1.00  0.00     0.148 A 
ATOM     62  C   UNL A   1      47.824  29.279  27.658  1.00  0.00     0.002 A 
ATOM     63  C   UNL A   1      46.973  27.054  27.226  1.00  0.00     0.091 A 
ATOM     64  F   UNL A   1      44.648  26.613  27.522  1.00  0.00    -0.205 F 
ATOM     65  C   UNL A   1      48.043  27.963  27.263  1.00  0.00     0.022 A 
BRANCH  63  66
ATOM     66  S   UNL A   1      47.350  25.337  26.858  1.00  0.00     0.127 S 
ATOM     67  O   UNL A   1      48.800  25.372  26.681  1.00  0.00    -0.237 OA
ATOM     68  O   UNL A   1      46.898  24.647  28.068  1.00  0.00    -0.237 OA
ATOM     69  O   UNL A   1      46.577  25.007  25.667  1.00  0.00    -0.744 OA
ENDBRANCH  63  66
ENDBRANCH  36  59
ENDBRANCH  10  11
ENDBRANCH   3   5
ENDBRANCH   2   3
ENDBRANCH   1   2
BRANCH   1  70
ATOM     70  C   UNL A   1      38.207  19.730  25.028  1.00  0.00     0.275 C 
BRANCH  70  71
ATOM     71  O   UNL A   1      37.682  20.930  24.429  1.00  0.00    -0.457 OA
BRANCH  71  72
ATOM     72  C   UNL A   1      37.327  21.936  25.298  1.00  0.00     0.359 C 
ATOM     73  O   UNL A   1      38.045  22.369  26.190  1.00  0.00    -0.244 OA
BRANCH  72  74
ATOM     74  C   UNL A   1      35.958  22.423  25.080  1.00  0.00     0.175 A 
ATOM     75  N   UNL A   1      35.704  23.743  24.954  1.00  0.00    -0.165 NA
ATOM     76  C   UNL A   1      34.777  21.660  24.860  1.00  0.00     0.028 A 
ATOM     77  N   UNL A   1      34.384  23.813  24.648  1.00  0.00    -0.264 N 
ATOM     78  C   UNL A   1      33.779  22.593  24.689  1.00  0.00     0.046 A 
ATOM     79  C   UNL A   1      34.544  20.192  24.820  1.00  0.00     0.159 C 
ATOM     80  C   UNL A   1      32.344  22.269  24.487  1.00  0.00     0.078 C 
ATOM     81  N   UNL A   1      33.126  19.878  24.549  1.00  0.00    -0.337 N 
ATOM     82  C   UNL A   1      32.094  20.837  25.002  1.00  0.00     0.126 C 
BRANCH  77  83
ATOM     83  C   UNL A   1      33.840  25.031  24.058  1.00  0.00     0.180 C 
BRANCH  83  84
ATOM     84  C   UNL A   1      33.167  25.936  25.054  1.00  0.00    -0.026 A 
ATOM     85  C   UNL A   1      31.859  25.663  25.489  1.00  0.00     0.008 A 
ATOM     86  C   UNL A   1      33.852  27.036  25.595  1.00  0.00     0.008 A 
ATOM     87  C   UNL A   1      31.258  26.459  26.464  1.00  0.00     0.039 A 
ATOM     88  C   UNL A   1      33.249  27.828  26.572  1.00  0.00     0.039 A 
ATOM     89  C   UNL A   1      31.961  27.529  27.002  1.00  0.00     0.123 A 
ATOM     90  F   UNL A   1      31.389  28.276  27.956  1.00  0.00    -0.207 F 
ENDBRANCH  83  84
ENDBRANCH  77  83
BRANCH  81  91
ATOM     91  C   UNL A   1      32.842  18.565  24.178  1.00  0.00     0.232 C 
ATOM     92  O   UNL A   1      32.169  18.294  23.188  1.00  0.00    -0.274 OA
BRANCH  91  93
ATOM     93  C   UNL A   1      33.393  17.471  25.004  1.00  0.00     0.154 C 
ATOM     94  C   UNL A   1      32.845  16.056  24.895  1.00  0.00     0.097 C 
ATOM     95  C   UNL A   1      34.171  16.401  24.332  1.00  0.00     0.260 C 
ATOM     96  F   UNL A   1      34.332  16.331  22.966  1.00  0.00    -0.206 F 
ATOM     97  F   UNL A   1      35.291  15.839  24.898  1.00  0.00    -0.206 F 
ENDBRANCH  91  93
ENDBRANCH  81  91
ENDBRANCH  72  74
ENDBRANCH  71  72
ENDBRANCH  70  71
ENDBRANCH   1  70
TORSDOF 18
ENDMDL
MODEL 2
REMARK VINA RESULT:     -13.0      3.458      8.109
REMARK SMILES O=C(OCCOC(=O)c1nn(Cc2ccc(F)cc2)c2c1CN(C(=O)[C@H]1CC1(F)F)CC2)c1ccc(-c2c3nc(c(-c4cccc(S(=O)(=O)[O-])c4F)c4ccc([nH]4)c(-c4cccc(S(=O)(=O)[O-])c4F)c4nc(c(-c5cccc(S(=O)(=O)[O-])c5F)c5ccc2[nH]5)C=C4)C=C3)cc1
REMARK SMILES IDX 4 1 3 2 2 3 1 4 33 5 34 6 95 7 35 8 94 9 36 10 37 11 38 12
REMARK SMILES IDX 88 13 39 14 93 15 87 16 89 17 40 18 92 19 86 20 85 21 41 23
REMARK SMILES IDX 73 24 53 25 72 26 54 27 57 28 71 29 90 30 55 31 56 32 70 34
REMARK SMILES IDX 91 35 58 36 42 37 43 38 51 39 44 40 46 41 52 42 45 43 47 44
REMARK SMILES IDX 48 45 49 46 50 47 74 48 75 49 83 50 76 51 78 52 84 53 77 54
REMARK SMILES IDX 79 55 80 56 81 57 82 58 59 59 60 60 68 61 61 62 63 63 69 64
REMARK SMILES IDX 62 65 64 66 65 67 66 68 67 69 5 70 6 71 7 72 8 73 9 74 10 75
REMARK SMILES IDX 21 76 11 77 20 78 22 79 32 80 23 81 31 82 12 83 13 84 14 85
REMARK SMILES IDX 19 86 15 87 18 88 16 89 17 90 24 91 25 92 26 93 27 94 28 95
REMARK SMILES IDX 29 96 30 97
REMARK H PARENT 89 22 57 33
REMARK Flexibility Score: inf
ROOT
ATOM      1  C   UNL A   1      38.508  21.766  25.603  1.00  0.00     0.275 C 
ENDROOT
BRANCH   1   2
ATOM      2  O   UNL A   1      39.401  21.922  26.722  1.00  0.00    -0.458 OA
BRANCH   2   3
ATOM      3  C   UNL A   1      40.606  22.480  26.492  1.00  0.00     0.338 C 
ATOM      4  O   UNL A   1      41.482  21.980  25.810  1.00  0.00    -0.246 OA
BRANCH   3   5
ATOM      5  C   UNL A   1      40.695  23.819  27.114  1.00  0.00     0.060 A 
ATOM      6  C   UNL A   1      41.750  24.172  27.965  1.00  0.00     0.016 A 
ATOM      7  C   UNL A   1      39.724  24.759  26.774  1.00  0.00     0.016 A 
ATOM      8  C   UNL A   1      41.811  25.449  28.502  1.00  0.00     0.010 A 
ATOM      9  C   UNL A   1      39.822  26.055  27.263  1.00  0.00     0.010 A 
ATOM     10  C   UNL A   1      40.831  26.388  28.171  1.00  0.00    -0.014 A 
BRANCH  10  11
ATOM     11  C   UNL A   1      40.907  27.711  28.791  1.00  0.00     0.031 A 
ATOM     12  C   UNL A   1      41.937  28.661  28.267  1.00  0.00     0.074 A 
ATOM     13  C   UNL A   1      40.018  28.121  29.720  1.00  0.00     0.049 A 
ATOM     14  N   UNL A   1      42.875  29.271  28.920  1.00  0.00    -0.248 NA
ATOM     15  C   UNL A   1      41.953  28.927  26.822  1.00  0.00     0.031 C 
ATOM     16  C   UNL A   1      38.796  27.438  30.162  1.00  0.00     0.029 A 
ATOM     17  N   UNL A   1      39.947  29.321  30.362  1.00  0.00    -0.354 N 
ATOM     18  C   UNL A   1      43.473  30.145  28.012  1.00  0.00     0.074 A 
ATOM     19  C   UNL A   1      42.937  29.820  26.715  1.00  0.00     0.031 C 
ATOM     20  C   UNL A   1      37.979  28.331  30.757  1.00  0.00     0.029 A 
ATOM     21  C   UNL A   1      38.693  29.584  30.899  1.00  0.00     0.049 A 
ATOM     22  H   UNL A   1      40.709  29.940  30.438  1.00  0.00     0.167 HD
ATOM     23  C   UNL A   1      44.242  31.199  28.400  1.00  0.00     0.034 A 
ATOM     24  C   UNL A   1      38.248  30.769  31.372  1.00  0.00     0.034 A 
ATOM     25  C   UNL A   1      44.708  31.070  29.751  1.00  0.00     0.049 A 
ATOM     26  C   UNL A   1      39.431  31.582  31.721  1.00  0.00     0.074 A 
ATOM     27  C   UNL A   1      45.482  30.154  30.433  1.00  0.00     0.029 A 
ATOM     28  N   UNL A   1      44.084  31.824  30.712  1.00  0.00    -0.354 N 
ATOM     29  N   UNL A   1      40.256  31.282  32.683  1.00  0.00    -0.248 NA
ATOM     30  C   UNL A   1      39.912  32.561  30.763  1.00  0.00     0.031 C 
ATOM     31  C   UNL A   1      44.907  30.088  31.734  1.00  0.00     0.029 A 
ATOM     32  C   UNL A   1      43.844  30.993  31.774  1.00  0.00     0.049 A 
ATOM     33  H   UNL A   1      43.853  32.779  30.650  1.00  0.00     0.167 HD
ATOM     34  C   UNL A   1      41.497  31.687  32.214  1.00  0.00     0.074 A 
ATOM     35  C   UNL A   1      41.202  32.591  31.106  1.00  0.00     0.031 C 
ATOM     36  C   UNL A   1      42.639  31.031  32.577  1.00  0.00     0.034 A 
BRANCH  23  37
ATOM     37  C   UNL A   1      44.360  32.494  27.641  1.00  0.00     0.023 A 
ATOM     38  C   UNL A   1      45.404  32.639  26.702  1.00  0.00     0.012 A 
ATOM     39  C   UNL A   1      43.635  33.659  27.980  1.00  0.00     0.148 A 
ATOM     40  C   UNL A   1      45.714  33.883  26.136  1.00  0.00     0.002 A 
ATOM     41  C   UNL A   1      43.884  34.870  27.347  1.00  0.00     0.091 A 
ATOM     42  F   UNL A   1      42.781  33.632  29.012  1.00  0.00    -0.205 F 
ATOM     43  C   UNL A   1      44.940  34.997  26.443  1.00  0.00     0.022 A 
BRANCH  41  44
ATOM     44  S   UNL A   1      42.831  36.295  27.642  1.00  0.00     0.127 S 
ATOM     45  O   UNL A   1      43.372  37.266  26.699  1.00  0.00    -0.237 OA
ATOM     46  O   UNL A   1      41.507  35.771  27.308  1.00  0.00    -0.237 OA
ATOM     47  O   UNL A   1      43.002  36.598  29.060  1.00  0.00    -0.744 OA
ENDBRANCH  41  44
ENDBRANCH  23  37
BRANCH  24  48
ATOM     48  C   UNL A   1      36.886  31.336  31.299  1.00  0.00     0.023 A 
ATOM     49  C   UNL A   1      36.285  31.851  32.462  1.00  0.00     0.012 A 
ATOM     50  C   UNL A   1      36.296  31.632  30.049  1.00  0.00     0.148 A 
ATOM     51  C   UNL A   1      35.150  32.664  32.382  1.00  0.00     0.002 A 
ATOM     52  C   UNL A   1      35.169  32.441  29.975  1.00  0.00     0.091 A 
ATOM     53  F   UNL A   1      36.897  31.199  28.932  1.00  0.00    -0.205 F 
ATOM     54  C   UNL A   1      34.598  32.969  31.140  1.00  0.00     0.022 A 
BRANCH  52  55
ATOM     55  S   UNL A   1      34.436  32.919  28.403  1.00  0.00     0.127 S 
ATOM     56  O   UNL A   1      35.604  33.390  27.659  1.00  0.00    -0.237 OA
ATOM     57  O   UNL A   1      33.880  31.650  27.937  1.00  0.00    -0.237 OA
ATOM     58  O   UNL A   1      33.459  33.953  28.718  1.00  0.00    -0.744 OA
ENDBRANCH  52  55
ENDBRANCH  24  48
BRANCH  36  59
ATOM     59  C   UNL A   1      42.565  30.021  33.700  1.00  0.00     0.023 A 
ATOM     60  C   UNL A   1      42.065  28.718  33.496  1.00  0.00     0.012 A 
ATOM     61  C   UNL A   1      43.202  30.314  34.918  1.00  0.00     0.148 A 
ATOM     62  C   UNL A   1      42.180  27.737  34.484  1.00  0.00     0.002 A 
ATOM     63  C   UNL A   1      43.364  29.322  35.879  1.00  0.00     0.091 A 
ATOM     64  F   UNL A   1      43.679  31.555  35.103  1.00  0.00    -0.205 F 
ATOM     65  C   UNL A   1      42.846  28.034  35.670  1.00  0.00     0.022 A 
BRANCH  63  66
ATOM     66  S   UNL A   1      44.346  29.596  37.358  1.00  0.00     0.127 S 
ATOM     67  O   UNL A   1      43.540  30.575  38.084  1.00  0.00    -0.237 OA
ATOM     68  O   UNL A   1      44.384  28.263  37.964  1.00  0.00    -0.237 OA
ATOM     69  O   UNL A   1      45.644  30.068  36.891  1.00  0.00    -0.744 OA
ENDBRANCH  63  66
ENDBRANCH  36  59
ENDBRANCH  10  11
ENDBRANCH   3   5
ENDBRANCH   2   3
ENDBRANCH   1   2
BRANCH   1  70
ATOM     70  C   UNL A   1      37.048  22.202  25.775  1.00  0.00     0.275 C 
BRANCH  70  71
ATOM     71  O   UNL A   1      36.762  23.410  25.045  1.00  0.00    -0.457 OA
BRANCH  71  72
ATOM     72  C   UNL A   1      36.171  23.248  23.814  1.00  0.00     0.359 C 
ATOM     73  O   UNL A   1      36.765  23.298  22.746  1.00  0.00    -0.244 OA
BRANCH  72  74
ATOM     74  C   UNL A   1      34.717  23.049  23.900  1.00  0.00     0.175 A 
ATOM     75  N   UNL A   1      34.193  21.811  24.029  1.00  0.00    -0.165 NA
ATOM     76  C   UNL A   1      33.697  24.038  23.978  1.00  0.00     0.028 A 
ATOM     77  N   UNL A   1      32.863  22.015  24.197  1.00  0.00    -0.264 N 
ATOM     78  C   UNL A   1      32.521  23.327  24.065  1.00  0.00     0.046 A 
ATOM     79  C   UNL A   1      33.759  25.523  23.959  1.00  0.00     0.159 C 
ATOM     80  C   UNL A   1      31.166  23.935  24.109  1.00  0.00     0.078 C 
ATOM     81  N   UNL A   1      32.412  26.121  24.073  1.00  0.00    -0.337 N 
ATOM     82  C   UNL A   1      31.258  25.365  23.537  1.00  0.00     0.126 C 
BRANCH  77  83
ATOM     83  C   UNL A   1      32.031  20.954  24.756  1.00  0.00     0.180 C 
BRANCH  83  84
ATOM     84  C   UNL A   1      32.474  19.571  24.363  1.00  0.00    -0.026 A 
ATOM     85  C   UNL A   1      32.286  19.114  23.048  1.00  0.00     0.008 A 
ATOM     86  C   UNL A   1      33.120  18.739  25.291  1.00  0.00     0.008 A 
ATOM     87  C   UNL A   1      32.756  17.859  22.662  1.00  0.00     0.039 A 
ATOM     88  C   UNL A   1      33.593  17.485  24.901  1.00  0.00     0.039 A 
ATOM     89  C   UNL A   1      33.413  17.060  23.590  1.00  0.00     0.123 A 
ATOM     90  F   UNL A   1      33.886  15.866  23.208  1.00  0.00    -0.207 F 
ENDBRANCH  83  84
ENDBRANCH  77  83
BRANCH  81  91
ATOM     91  C   UNL A   1      32.361  27.479  24.382  1.00  0.00     0.232 C 
ATOM     92  O   UNL A   1      32.964  28.324  23.727  1.00  0.00    -0.274 OA
BRANCH  91  93
ATOM     93  C   UNL A   1      31.532  27.904  25.529  1.00  0.00     0.154 C 
ATOM     94  C   UNL A   1      31.509  27.098  26.819  1.00  0.00     0.097 C 
ATOM     95  C   UNL A   1      32.214  28.399  26.750  1.00  0.00     0.260 C 
ATOM     96  F   UNL A   1      33.583  28.402  26.899  1.00  0.00    -0.206 F 
ATOM     97  F   UNL A   1      31.727  29.450  27.491  1.00  0.00    -0.206 F 
ENDBRANCH  91  93
ENDBRANCH  81  91
ENDBRANCH  72  74
ENDBRANCH  71  72
ENDBRANCH  70  71
ENDBRANCH   1  70
TORSDOF 18
ENDMDL
MODEL 3
REMARK VINA RESULT:     -12.9      1.035      4.357
REMARK SMILES O=C(OCCOC(=O)c1nn(Cc2ccc(F)cc2)c2c1CN(C(=O)[C@H]1CC1(F)F)CC2)c1ccc(-c2c3nc(c(-c4cccc(S(=O)(=O)[O-])c4F)c4ccc([nH]4)c(-c4cccc(S(=O)(=O)[O-])c4F)c4nc(c(-c5cccc(S(=O)(=O)[O-])c5F)c5ccc2[nH]5)C=C4)C=C3)cc1
REMARK SMILES IDX 4 1 3 2 2 3 1 4 33 5 34 6 95 7 35 8 94 9 36 10 37 11 38 12
REMARK SMILES IDX 88 13 39 14 93 15 87 16 89 17 40 18 92 19 86 20 85 21 41 23
REMARK SMILES IDX 73 24 53 25 72 26 54 27 57 28 71 29 90 30 55 31 56 32 70 34
REMARK SMILES IDX 91 35 58 36 42 37 43 38 51 39 44 40 46 41 52 42 45 43 47 44
REMARK SMILES IDX 48 45 49 46 50 47 74 48 75 49 83 50 76 51 78 52 84 53 77 54
REMARK SMILES IDX 79 55 80 56 81 57 82 58 59 59 60 60 68 61 61 62 63 63 69 64
REMARK SMILES IDX 62 65 64 66 65 67 66 68 67 69 5 70 6 71 7 72 8 73 9 74 10 75
REMARK SMILES IDX 21 76 11 77 20 78 22 79 32 80 23 81 31 82 12 83 13 84 14 85
REMARK SMILES IDX 19 86 15 87 18 88 16 89 17 90 24 91 25 92 26 93 27 94 28 95
REMARK SMILES IDX 29 96 30 97
REMARK H PARENT 89 22 57 33
REMARK Flexibility Score: inf
ROOT
ATOM      1  C   UNL A   1      39.279  20.014  25.653  1.00  0.00     0.275 C 
ENDROOT
BRANCH   1   2
ATOM      2  O   UNL A   1      40.217  18.951  25.405  1.00  0.00    -0.458 OA
BRANCH   2   3
ATOM      3  C   UNL A   1      41.465  19.085  25.899  1.00  0.00     0.338 C 
ATOM      4  O   UNL A   1      42.348  18.256  25.781  1.00  0.00    -0.246 OA
BRANCH   3   5
ATOM      5  C   UNL A   1      41.641  20.408  26.534  1.00  0.00     0.060 A 
ATOM      6  C   UNL A   1      42.201  21.492  25.845  1.00  0.00     0.016 A 
ATOM      7  C   UNL A   1      41.166  20.575  27.833  1.00  0.00     0.016 A 
ATOM      8  C   UNL A   1      42.319  22.724  26.468  1.00  0.00     0.010 A 
ATOM      9  C   UNL A   1      41.228  21.825  28.433  1.00  0.00     0.010 A 
ATOM     10  C   UNL A   1      41.854  22.888  27.775  1.00  0.00    -0.014 A 
BRANCH  10  11
ATOM     11  C   UNL A   1      42.035  24.192  28.413  1.00  0.00     0.031 A 
ATOM     12  C   UNL A   1      40.995  25.236  28.156  1.00  0.00     0.074 A 
ATOM     13  C   UNL A   1      43.030  24.429  29.294  1.00  0.00     0.049 A 
ATOM     14  N   UNL A   1      41.155  26.431  27.681  1.00  0.00    -0.248 NA
ATOM     15  C   UNL A   1      39.592  24.887  28.418  1.00  0.00     0.031 C 
ATOM     16  C   UNL A   1      43.976  23.465  29.867  1.00  0.00     0.029 A 
ATOM     17  N   UNL A   1      43.307  25.574  29.980  1.00  0.00    -0.354 N 
ATOM     18  C   UNL A   1      39.908  27.051  27.767  1.00  0.00     0.074 A 
ATOM     19  C   UNL A   1      38.963  26.026  28.131  1.00  0.00     0.031 C 
ATOM     20  C   UNL A   1      44.510  23.981  30.992  1.00  0.00     0.029 A 
ATOM     21  C   UNL A   1      44.088  25.363  31.109  1.00  0.00     0.049 A 
ATOM     22  H   UNL A   1      42.985  26.462  29.703  1.00  0.00     0.167 HD
ATOM     23  C   UNL A   1      39.750  28.402  27.704  1.00  0.00     0.034 A 
ATOM     24  C   UNL A   1      44.322  26.243  32.107  1.00  0.00     0.034 A 
ATOM     25  C   UNL A   1      40.889  29.061  27.135  1.00  0.00     0.049 A 
ATOM     26  C   UNL A   1      44.076  27.598  31.572  1.00  0.00     0.074 A 
ATOM     27  C   UNL A   1      41.545  29.003  25.921  1.00  0.00     0.029 A 
ATOM     28  N   UNL A   1      41.742  29.709  27.991  1.00  0.00    -0.354 N 
ATOM     29  N   UNL A   1      44.803  28.152  30.644  1.00  0.00    -0.248 NA
ATOM     30  C   UNL A   1      42.788  28.222  31.818  1.00  0.00     0.031 C 
ATOM     31  C   UNL A   1      42.922  29.174  26.243  1.00  0.00     0.029 A 
ATOM     32  C   UNL A   1      43.015  29.361  27.624  1.00  0.00     0.049 A 
ATOM     33  H   UNL A   1      41.488  30.309  28.729  1.00  0.00     0.167 HD
ATOM     34  C   UNL A   1      43.903  28.901  29.901  1.00  0.00     0.074 A 
ATOM     35  C   UNL A   1      42.723  29.022  30.751  1.00  0.00     0.031 C 
ATOM     36  C   UNL A   1      44.088  29.104  28.562  1.00  0.00     0.034 A 
BRANCH  23  37
ATOM     37  C   UNL A   1      38.662  29.167  28.410  1.00  0.00     0.023 A 
ATOM     38  C   UNL A   1      37.804  29.989  27.648  1.00  0.00     0.012 A 
ATOM     39  C   UNL A   1      38.596  29.299  29.815  1.00  0.00     0.148 A 
ATOM     40  C   UNL A   1      36.930  30.900  28.255  1.00  0.00     0.002 A 
ATOM     41  C   UNL A   1      37.663  30.135  30.415  1.00  0.00     0.091 A 
ATOM     42  F   UNL A   1      39.523  28.709  30.582  1.00  0.00    -0.205 F 
ATOM     43  C   UNL A   1      36.844  30.960  29.642  1.00  0.00     0.022 A 
BRANCH  41  44
ATOM     44  S   UNL A   1      37.454  30.149  32.199  1.00  0.00     0.127 S 
ATOM     45  O   UNL A   1      36.285  31.006  32.357  1.00  0.00    -0.237 OA
ATOM     46  O   UNL A   1      37.233  28.733  32.493  1.00  0.00    -0.237 OA
ATOM     47  O   UNL A   1      38.717  30.666  32.719  1.00  0.00    -0.744 OA
ENDBRANCH  41  44
ENDBRANCH  23  37
BRANCH  24  48
ATOM     48  C   UNL A   1      44.491  25.976  33.550  1.00  0.00     0.023 A 
ATOM     49  C   UNL A   1      45.779  26.006  34.115  1.00  0.00     0.012 A 
ATOM     50  C   UNL A   1      43.375  25.975  34.417  1.00  0.00     0.148 A 
ATOM     51  C   UNL A   1      45.951  26.068  35.502  1.00  0.00     0.002 A 
ATOM     52  C   UNL A   1      43.552  26.037  35.794  1.00  0.00     0.091 A 
ATOM     53  F   UNL A   1      42.144  26.010  33.886  1.00  0.00    -0.205 F 
ATOM     54  C   UNL A   1      44.839  26.095  36.341  1.00  0.00     0.022 A 
BRANCH  52  55
ATOM     55  S   UNL A   1      42.162  26.130  36.932  1.00  0.00     0.127 S 
ATOM     56  O   UNL A   1      42.838  26.315  38.216  1.00  0.00    -0.237 OA
ATOM     57  O   UNL A   1      41.449  27.305  36.436  1.00  0.00    -0.237 OA
ATOM     58  O   UNL A   1      41.453  24.864  36.797  1.00  0.00    -0.744 OA
ENDBRANCH  52  55
ENDBRANCH  24  48
BRANCH  36  59
ATOM     59  C   UNL A   1      45.418  28.723  27.952  1.00  0.00     0.023 A 
ATOM     60  C   UNL A   1      46.532  29.589  27.996  1.00  0.00     0.012 A 
ATOM     61  C   UNL A   1      45.611  27.400  27.520  1.00  0.00     0.148 A 
ATOM     62  C   UNL A   1      47.801  29.153  27.605  1.00  0.00     0.002 A 
ATOM     63  C   UNL A   1      46.884  26.953  27.184  1.00  0.00     0.091 A 
ATOM     64  F   UNL A   1      44.547  26.582  27.485  1.00  0.00    -0.205 F 
ATOM     65  C   UNL A   1      47.981  27.829  27.215  1.00  0.00     0.022 A 
BRANCH  63  66
ATOM     66  S   UNL A   1      47.210  25.224  26.823  1.00  0.00     0.127 S 
ATOM     67  O   UNL A   1      46.458  25.021  25.587  1.00  0.00    -0.237 OA
ATOM     68  O   UNL A   1      48.665  25.201  26.666  1.00  0.00    -0.237 OA
ATOM     69  O   UNL A   1      46.730  24.480  27.982  1.00  0.00    -0.744 OA
ENDBRANCH  63  66
ENDBRANCH  36  59
ENDBRANCH  10  11
ENDBRANCH   3   5
ENDBRANCH   2   3
ENDBRANCH   1   2
BRANCH   1  70
ATOM     70  C   UNL A   1      37.868  19.887  25.064  1.00  0.00     0.275 C 
BRANCH  70  71
ATOM     71  O   UNL A   1      37.363  21.158  24.611  1.00  0.00    -0.457 OA
BRANCH  71  72
ATOM     72  C   UNL A   1      36.433  21.764  25.423  1.00  0.00     0.359 C 
ATOM     73  O   UNL A   1      36.670  22.217  26.534  1.00  0.00    -0.244 OA
BRANCH  72  74
ATOM     74  C   UNL A   1      35.085  21.777  24.836  1.00  0.00     0.175 A 
ATOM     75  N   UNL A   1      34.593  20.690  24.203  1.00  0.00    -0.165 NA
ATOM     76  C   UNL A   1      34.099  22.799  24.922  1.00  0.00     0.028 A 
ATOM     77  N   UNL A   1      33.310  21.016  23.905  1.00  0.00    -0.264 N 
ATOM     78  C   UNL A   1      33.017  22.307  24.226  1.00  0.00     0.046 A 
ATOM     79  C   UNL A   1      34.118  24.138  25.568  1.00  0.00     0.159 C 
ATOM     80  C   UNL A   1      31.753  23.051  23.990  1.00  0.00     0.078 C 
ATOM     81  N   UNL A   1      32.832  24.844  25.388  1.00  0.00    -0.337 N 
ATOM     82  C   UNL A   1      32.036  24.556  24.174  1.00  0.00     0.126 C 
BRANCH  77  83
ATOM     83  C   UNL A   1      32.353  19.965  23.577  1.00  0.00     0.180 C 
BRANCH  83  84
ATOM     84  C   UNL A   1      32.773  18.599  24.048  1.00  0.00    -0.026 A 
ATOM     85  C   UNL A   1      33.422  17.715  23.169  1.00  0.00     0.008 A 
ATOM     86  C   UNL A   1      32.563  18.208  25.380  1.00  0.00     0.008 A 
ATOM     87  C   UNL A   1      33.874  16.476  23.620  1.00  0.00     0.039 A 
ATOM     88  C   UNL A   1      33.020  16.969  25.829  1.00  0.00     0.039 A 
ATOM     89  C   UNL A   1      33.676  16.117  24.948  1.00  0.00     0.123 A 
ATOM     90  F   UNL A   1      34.135  14.936  25.383  1.00  0.00    -0.207 F 
ENDBRANCH  83  84
ENDBRANCH  77  83
BRANCH  81  91
ATOM     91  C   UNL A   1      32.616  25.954  26.202  1.00  0.00     0.232 C 
ATOM     92  O   UNL A   1      31.612  26.071  26.899  1.00  0.00    -0.274 OA
BRANCH  91  93
ATOM     93  C   UNL A   1      33.648  27.011  26.232  1.00  0.00     0.154 C 
ATOM     94  C   UNL A   1      33.567  28.211  25.301  1.00  0.00     0.097 C 
ATOM     95  C   UNL A   1      33.274  28.351  26.746  1.00  0.00     0.260 C 
ATOM     96  F   UNL A   1      31.990  28.684  27.117  1.00  0.00    -0.206 F 
ATOM     97  F   UNL A   1      34.124  29.107  27.518  1.00  0.00    -0.206 F 
ENDBRANCH  91  93
ENDBRANCH  81  91
ENDBRANCH  72  74
ENDBRANCH  71  72
ENDBRANCH  70  71
ENDBRANCH   1  70
TORSDOF 18
ENDMDL
