MODEL 1
REMARK VINA RESULT:     -11.8      0.000      0.000
REMARK SMILES C[C@@H](C(=O)OCCOC(=O)c1ccc(-c2c3nc(c(-c4cccc(S(=O)(=O)[O-])c4F)c4ccc([nH]4)c(-c4cccc(S(=O)(=O)[O-])c4F)c4nc(c(-c5cccc(S(=O)(=O)[O-])c5F)c5ccc2[nH]5)C=C4)C=C3)cc1)c1ccc(O[C@H]2CCCC2=O)cc1F
REMARK SMILES IDX 6 1 5 2 3 3 4 4 2 5 1 6 74 7 75 8 86 9 76 10 85 11 87 12
REMARK SMILES IDX 77 13 78 14 79 15 80 16 83 17 81 18 82 19 84 20 7 21 8 22
REMARK SMILES IDX 9 23 10 24 11 25 12 26 73 27 13 28 72 29 14 30 15 31 16 32
REMARK SMILES IDX 66 33 17 34 71 35 65 36 67 37 18 38 70 39 64 40 63 41 19 43
REMARK SMILES IDX 51 44 31 45 50 46 32 47 35 48 49 49 68 50 33 51 34 52 48 54
REMARK SMILES IDX 69 55 36 56 20 57 21 58 29 59 22 60 24 61 30 62 23 63 25 64
REMARK SMILES IDX 26 65 27 66 28 67 52 68 53 69 61 70 54 71 56 72 62 73 55 74
REMARK SMILES IDX 57 75 58 76 59 77 60 78 37 79 38 80 46 81 39 82 41 83 47 84
REMARK SMILES IDX 40 85 42 86 43 87 44 88 45 89
REMARK H PARENT 67 42 35 53
REMARK Flexibility Score: inf
ROOT
ATOM      1  C   UNL A   1      31.692  28.161  25.477  1.00  0.00     0.274 C 
ENDROOT
BRANCH   1   2
ATOM      2  O   UNL A   1      31.673  27.495  24.199  1.00  0.00    -0.462 OA
BRANCH   2   3
ATOM      3  C   UNL A   1      31.408  26.159  24.201  1.00  0.00     0.313 C 
ATOM      4  O   UNL A   1      30.288  25.684  24.052  1.00  0.00    -0.252 OA
BRANCH   3   5
ATOM      5  C   UNL A   1      32.673  25.314  24.427  1.00  0.00     0.129 C 
ATOM      6  C   UNL A   1      33.775  25.765  23.446  1.00  0.00     0.025 C 
BRANCH   5   7
ATOM      7  C   UNL A   1      32.444  23.799  24.447  1.00  0.00     0.002 A 
ATOM      8  C   UNL A   1      32.645  22.988  23.319  1.00  0.00     0.011 A 
ATOM      9  C   UNL A   1      31.966  23.147  25.597  1.00  0.00     0.130 A 
ATOM     10  C   UNL A   1      32.493  21.595  23.397  1.00  0.00     0.047 A 
ATOM     11  C   UNL A   1      31.813  21.759  25.675  1.00  0.00     0.086 A 
ATOM     12  F   UNL A   1      31.637  23.850  26.689  1.00  0.00    -0.207 F 
ATOM     13  C   UNL A   1      32.123  20.965  24.587  1.00  0.00     0.123 A 
BRANCH  13  14
ATOM     14  O   UNL A   1      32.163  19.608  24.543  1.00  0.00    -0.483 OA
BRANCH  14  15
ATOM     15  C   UNL A   1      33.242  18.879  24.004  1.00  0.00     0.239 C 
ATOM     16  C   UNL A   1      34.224  18.248  25.006  1.00  0.00     0.054 C 
ATOM     17  C   UNL A   1      33.001  17.772  22.987  1.00  0.00     0.173 C 
ATOM     18  C   UNL A   1      34.438  16.794  24.568  1.00  0.00     0.012 C 
ATOM     19  C   UNL A   1      34.045  16.698  23.102  1.00  0.00     0.080 C 
ATOM     20  O   UNL A   1      32.111  17.759  22.145  1.00  0.00    -0.296 OA
ENDBRANCH  14  15
ENDBRANCH  13  14
ENDBRANCH   5   7
ENDBRANCH   3   5
ENDBRANCH   2   3
ENDBRANCH   1   2
BRANCH   1  21
ATOM     21  C   UNL A   1      31.687  29.666  25.230  1.00  0.00     0.275 C 
BRANCH  21  22
ATOM     22  O   UNL A   1      32.981  30.167  25.607  1.00  0.00    -0.458 OA
BRANCH  22  23
ATOM     23  C   UNL A   1      33.029  30.931  26.720  1.00  0.00     0.338 C 
ATOM     24  O   UNL A   1      32.155  31.660  27.165  1.00  0.00    -0.246 OA
BRANCH  23  25
ATOM     25  C   UNL A   1      34.327  30.707  27.370  1.00  0.00     0.060 A 
ATOM     26  C   UNL A   1      34.722  29.400  27.656  1.00  0.00     0.016 A 
ATOM     27  C   UNL A   1      35.121  31.786  27.758  1.00  0.00     0.016 A 
ATOM     28  C   UNL A   1      35.904  29.173  28.360  1.00  0.00     0.010 A 
ATOM     29  C   UNL A   1      36.333  31.546  28.415  1.00  0.00     0.010 A 
ATOM     30  C   UNL A   1      36.727  30.236  28.744  1.00  0.00    -0.014 A 
BRANCH  30  31
ATOM     31  C   UNL A   1      37.948  29.977  29.556  1.00  0.00     0.031 A 
ATOM     32  C   UNL A   1      39.040  29.106  28.998  1.00  0.00     0.074 A 
ATOM     33  C   UNL A   1      38.105  30.532  30.775  1.00  0.00     0.049 A 
ATOM     34  N   UNL A   1      40.114  28.648  29.588  1.00  0.00    -0.248 NA
ATOM     35  C   UNL A   1      38.906  28.696  27.591  1.00  0.00     0.031 C 
ATOM     36  C   UNL A   1      37.158  31.440  31.422  1.00  0.00     0.029 A 
ATOM     37  N   UNL A   1      39.122  30.404  31.692  1.00  0.00    -0.354 N 
ATOM     38  C   UNL A   1      40.739  27.831  28.654  1.00  0.00     0.074 A 
ATOM     39  C   UNL A   1      39.942  27.881  27.446  1.00  0.00     0.031 C 
ATOM     40  C   UNL A   1      37.643  31.800  32.621  1.00  0.00     0.029 A 
ATOM     41  C   UNL A   1      38.902  31.098  32.860  1.00  0.00     0.049 A 
ATOM     42  H   UNL A   1      39.931  29.867  31.529  1.00  0.00     0.167 HD
ATOM     43  C   UNL A   1      41.875  27.105  28.785  1.00  0.00     0.034 A 
ATOM     44  C   UNL A   1      39.613  31.140  34.006  1.00  0.00     0.034 A 
ATOM     45  C   UNL A   1      42.708  27.101  29.956  1.00  0.00     0.049 A 
ATOM     46  C   UNL A   1      40.870  30.321  34.128  1.00  0.00     0.074 A 
ATOM     47  C   UNL A   1      43.887  26.409  30.168  1.00  0.00     0.029 A 
ATOM     48  N   UNL A   1      42.458  27.830  31.107  1.00  0.00    -0.354 N 
ATOM     49  N   UNL A   1      41.465  29.582  33.222  1.00  0.00    -0.248 NA
ATOM     50  C   UNL A   1      41.555  30.342  35.429  1.00  0.00     0.031 C 
ATOM     51  C   UNL A   1      44.352  26.719  31.451  1.00  0.00     0.029 A 
ATOM     52  C   UNL A   1      43.464  27.609  32.034  1.00  0.00     0.049 A 
ATOM     53  H   UNL A   1      41.681  28.418  31.247  1.00  0.00     0.167 HD
ATOM     54  C   UNL A   1      42.598  29.062  33.840  1.00  0.00     0.074 A 
ATOM     55  C   UNL A   1      42.626  29.598  35.185  1.00  0.00     0.031 C 
ATOM     56  C   UNL A   1      43.514  28.194  33.348  1.00  0.00     0.034 A 
BRANCH  43  57
ATOM     57  C   UNL A   1      42.294  26.256  27.617  1.00  0.00     0.023 A 
ATOM     58  C   UNL A   1      43.115  26.804  26.615  1.00  0.00     0.012 A 
ATOM     59  C   UNL A   1      41.914  24.902  27.544  1.00  0.00     0.148 A 
ATOM     60  C   UNL A   1      43.537  26.021  25.541  1.00  0.00     0.002 A 
ATOM     61  C   UNL A   1      42.365  24.119  26.489  1.00  0.00     0.091 A 
ATOM     62  F   UNL A   1      41.106  24.411  28.494  1.00  0.00    -0.205 F 
ATOM     63  C   UNL A   1      43.171  24.678  25.484  1.00  0.00     0.022 A 
BRANCH  61  64
ATOM     64  S   UNL A   1      41.996  22.365  26.371  1.00  0.00     0.127 S 
ATOM     65  O   UNL A   1      40.540  22.377  26.252  1.00  0.00    -0.237 OA
ATOM     66  O   UNL A   1      42.705  21.979  25.150  1.00  0.00    -0.237 OA
ATOM     67  O   UNL A   1      42.525  21.767  27.589  1.00  0.00    -0.744 OA
ENDBRANCH  61  64
ENDBRANCH  43  57
BRANCH  44  68
ATOM     68  C   UNL A   1      39.162  32.004  35.136  1.00  0.00     0.023 A 
ATOM     69  C   UNL A   1      38.222  31.502  36.056  1.00  0.00     0.012 A 
ATOM     70  C   UNL A   1      39.667  33.307  35.316  1.00  0.00     0.148 A 
ATOM     71  C   UNL A   1      37.779  32.286  37.122  1.00  0.00     0.002 A 
ATOM     72  C   UNL A   1      39.267  34.061  36.415  1.00  0.00     0.091 A 
ATOM     73  F   UNL A   1      40.533  33.787  34.412  1.00  0.00    -0.205 F 
ATOM     74  C   UNL A   1      38.311  33.559  37.311  1.00  0.00     0.022 A 
BRANCH  72  75
ATOM     75  S   UNL A   1      40.021  35.646  36.794  1.00  0.00     0.127 S 
ATOM     76  O   UNL A   1      41.436  35.296  36.875  1.00  0.00    -0.237 OA
ATOM     77  O   UNL A   1      39.651  36.454  35.631  1.00  0.00    -0.237 OA
ATOM     78  O   UNL A   1      39.393  36.076  38.037  1.00  0.00    -0.744 OA
ENDBRANCH  72  75
ENDBRANCH  44  68
BRANCH  56  79
ATOM     79  C   UNL A   1      44.640  27.774  34.254  1.00  0.00     0.023 A 
ATOM     80  C   UNL A   1      45.769  28.607  34.384  1.00  0.00     0.012 A 
ATOM     81  C   UNL A   1      44.548  26.607  35.035  1.00  0.00     0.148 A 
ATOM     82  C   UNL A   1      46.799  28.273  35.263  1.00  0.00     0.002 A 
ATOM     83  C   UNL A   1      45.560  26.300  35.939  1.00  0.00     0.091 A 
ATOM     84  F   UNL A   1      43.476  25.815  34.881  1.00  0.00    -0.205 F 
ATOM     85  C   UNL A   1      46.690  27.127  36.048  1.00  0.00     0.022 A 
BRANCH  83  86
ATOM     86  S   UNL A   1      45.453  24.891  37.049  1.00  0.00     0.127 S 
ATOM     87  O   UNL A   1      46.700  25.008  37.801  1.00  0.00    -0.237 OA
ATOM     88  O   UNL A   1      44.245  25.188  37.820  1.00  0.00    -0.237 OA
ATOM     89  O   UNL A   1      45.341  23.721  36.189  1.00  0.00    -0.744 OA
ENDBRANCH  83  86
ENDBRANCH  56  79
ENDBRANCH  30  31
ENDBRANCH  23  25
ENDBRANCH  22  23
ENDBRANCH  21  22
ENDBRANCH   1  21
TORSDOF 17
ENDMDL
MODEL 2
REMARK VINA RESULT:     -11.8      2.146      2.613
REMARK SMILES C[C@@H](C(=O)OCCOC(=O)c1ccc(-c2c3nc(c(-c4cccc(S(=O)(=O)[O-])c4F)c4ccc([nH]4)c(-c4cccc(S(=O)(=O)[O-])c4F)c4nc(c(-c5cccc(S(=O)(=O)[O-])c5F)c5ccc2[nH]5)C=C4)C=C3)cc1)c1ccc(O[C@H]2CCCC2=O)cc1F
REMARK SMILES IDX 6 1 5 2 3 3 4 4 2 5 1 6 74 7 75 8 86 9 76 10 85 11 87 12
REMARK SMILES IDX 77 13 78 14 79 15 80 16 83 17 81 18 82 19 84 20 7 21 8 22
REMARK SMILES IDX 9 23 10 24 11 25 12 26 73 27 13 28 72 29 14 30 15 31 16 32
REMARK SMILES IDX 66 33 17 34 71 35 65 36 67 37 18 38 70 39 64 40 63 41 19 43
REMARK SMILES IDX 51 44 31 45 50 46 32 47 35 48 49 49 68 50 33 51 34 52 48 54
REMARK SMILES IDX 69 55 36 56 20 57 21 58 29 59 22 60 24 61 30 62 23 63 25 64
REMARK SMILES IDX 26 65 27 66 28 67 52 68 53 69 61 70 54 71 56 72 62 73 55 74
REMARK SMILES IDX 57 75 58 76 59 77 60 78 37 79 38 80 46 81 39 82 41 83 47 84
REMARK SMILES IDX 40 85 42 86 43 87 44 88 45 89
REMARK H PARENT 67 42 35 53
REMARK Flexibility Score: inf
ROOT
ATOM      1  C   UNL A   1      31.634  29.565  24.513  1.00  0.00     0.274 C 
ENDROOT
BRANCH   1   2
ATOM      2  O   UNL A   1      30.361  28.945  24.242  1.00  0.00    -0.462 OA
BRANCH   2   3
ATOM      3  C   UNL A   1      30.249  28.244  23.079  1.00  0.00     0.313 C 
ATOM      4  O   UNL A   1      30.181  28.765  21.972  1.00  0.00    -0.252 OA
BRANCH   3   5
ATOM      5  C   UNL A   1      30.201  26.726  23.315  1.00  0.00     0.129 C 
ATOM      6  C   UNL A   1      28.957  26.376  24.157  1.00  0.00     0.025 C 
BRANCH   5   7
ATOM      7  C   UNL A   1      31.501  26.111  23.844  1.00  0.00     0.002 A 
ATOM      8  C   UNL A   1      31.608  25.560  25.130  1.00  0.00     0.011 A 
ATOM      9  C   UNL A   1      32.678  26.117  23.077  1.00  0.00     0.130 A 
ATOM     10  C   UNL A   1      32.796  24.943  25.553  1.00  0.00     0.047 A 
ATOM     11  C   UNL A   1      33.863  25.503  23.497  1.00  0.00     0.086 A 
ATOM     12  F   UNL A   1      32.706  26.720  21.881  1.00  0.00    -0.207 F 
ATOM     13  C   UNL A   1      33.916  24.867  24.723  1.00  0.00     0.123 A 
BRANCH  13  14
ATOM     14  O   UNL A   1      34.933  24.112  25.216  1.00  0.00    -0.483 OA
BRANCH  14  15
ATOM     15  C   UNL A   1      35.269  22.839  24.714  1.00  0.00     0.239 C 
ATOM     16  C   UNL A   1      36.557  22.739  23.879  1.00  0.00     0.054 C 
ATOM     17  C   UNL A   1      35.346  21.635  25.643  1.00  0.00     0.173 C 
ATOM     18  C   UNL A   1      37.346  21.538  24.413  1.00  0.00     0.012 C 
ATOM     19  C   UNL A   1      36.366  20.644  25.158  1.00  0.00     0.080 C 
ATOM     20  O   UNL A   1      34.646  21.451  26.632  1.00  0.00    -0.296 OA
ENDBRANCH  14  15
ENDBRANCH  13  14
ENDBRANCH   5   7
ENDBRANCH   3   5
ENDBRANCH   2   3
ENDBRANCH   1   2
BRANCH   1  21
ATOM     21  C   UNL A   1      31.441  30.575  25.639  1.00  0.00     0.275 C 
BRANCH  21  22
ATOM     22  O   UNL A   1      32.546  30.423  26.545  1.00  0.00    -0.458 OA
BRANCH  22  23
ATOM     23  C   UNL A   1      33.050  31.560  27.074  1.00  0.00     0.338 C 
ATOM     24  O   UNL A   1      32.531  32.666  27.103  1.00  0.00    -0.246 OA
BRANCH  23  25
ATOM     25  C   UNL A   1      34.351  31.243  27.679  1.00  0.00     0.060 A 
ATOM     26  C   UNL A   1      34.614  29.928  28.063  1.00  0.00     0.016 A 
ATOM     27  C   UNL A   1      35.280  32.252  27.930  1.00  0.00     0.016 A 
ATOM     28  C   UNL A   1      35.801  29.626  28.727  1.00  0.00     0.010 A 
ATOM     29  C   UNL A   1      36.494  31.930  28.547  1.00  0.00     0.010 A 
ATOM     30  C   UNL A   1      36.759  30.616  28.974  1.00  0.00    -0.014 A 
BRANCH  30  31
ATOM     31  C   UNL A   1      37.988  30.287  29.747  1.00  0.00     0.031 A 
ATOM     32  C   UNL A   1      39.043  29.411  29.128  1.00  0.00     0.074 A 
ATOM     33  C   UNL A   1      38.186  30.782  30.985  1.00  0.00     0.049 A 
ATOM     34  N   UNL A   1      40.115  28.897  29.673  1.00  0.00    -0.248 NA
ATOM     35  C   UNL A   1      38.868  29.067  27.707  1.00  0.00     0.031 C 
ATOM     36  C   UNL A   1      37.280  31.687  31.692  1.00  0.00     0.029 A 
ATOM     37  N   UNL A   1      39.219  30.585  31.873  1.00  0.00    -0.354 N 
ATOM     38  C   UNL A   1      40.697  28.105  28.690  1.00  0.00     0.074 A 
ATOM     39  C   UNL A   1      39.876  28.231  27.504  1.00  0.00     0.031 C 
ATOM     40  C   UNL A   1      37.800  31.980  32.895  1.00  0.00     0.029 A 
ATOM     41  C   UNL A   1      39.043  31.233  33.075  1.00  0.00     0.049 A 
ATOM     42  H   UNL A   1      40.007  30.034  31.669  1.00  0.00     0.167 HD
ATOM     43  C   UNL A   1      41.813  27.343  28.765  1.00  0.00     0.034 A 
ATOM     44  C   UNL A   1      39.778  31.205  34.206  1.00  0.00     0.034 A 
ATOM     45  C   UNL A   1      42.670  27.264  29.916  1.00  0.00     0.049 A 
ATOM     46  C   UNL A   1      41.013  30.345  34.263  1.00  0.00     0.074 A 
ATOM     47  C   UNL A   1      43.833  26.529  30.072  1.00  0.00     0.029 A 
ATOM     48  N   UNL A   1      42.466  27.947  31.103  1.00  0.00    -0.354 N 
ATOM     49  N   UNL A   1      41.568  29.631  33.314  1.00  0.00    -0.248 NA
ATOM     50  C   UNL A   1      41.725  30.290  35.549  1.00  0.00     0.031 C 
ATOM     51  C   UNL A   1      44.333  26.770  31.356  1.00  0.00     0.029 A 
ATOM     52  C   UNL A   1      43.483  27.657  31.996  1.00  0.00     0.049 A 
ATOM     53  H   UNL A   1      41.709  28.550  31.285  1.00  0.00     0.167 HD
ATOM     54  C   UNL A   1      42.697  29.052  33.883  1.00  0.00     0.074 A 
ATOM     55  C   UNL A   1      42.769  29.527  35.249  1.00  0.00     0.031 C 
ATOM     56  C   UNL A   1      43.577  28.181  33.333  1.00  0.00     0.034 A 
BRANCH  43  57
ATOM     57  C   UNL A   1      42.183  26.535  27.552  1.00  0.00     0.023 A 
ATOM     58  C   UNL A   1      42.869  27.148  26.488  1.00  0.00     0.012 A 
ATOM     59  C   UNL A   1      41.894  25.158  27.494  1.00  0.00     0.148 A 
ATOM     60  C   UNL A   1      43.246  26.405  25.369  1.00  0.00     0.002 A 
ATOM     61  C   UNL A   1      42.302  24.417  26.392  1.00  0.00     0.091 A 
ATOM     62  F   UNL A   1      41.213  24.603  28.507  1.00  0.00    -0.205 F 
ATOM     63  C   UNL A   1      42.972  25.040  25.327  1.00  0.00     0.022 A 
BRANCH  61  64
ATOM     64  S   UNL A   1      42.048  22.641  26.283  1.00  0.00     0.127 S 
ATOM     65  O   UNL A   1      42.673  22.333  24.998  1.00  0.00    -0.237 OA
ATOM     66  O   UNL A   1      42.780  22.149  27.451  1.00  0.00    -0.237 OA
ATOM     67  O   UNL A   1      40.607  22.444  26.348  1.00  0.00    -0.744 OA
ENDBRANCH  61  64
ENDBRANCH  43  57
BRANCH  44  68
ATOM     68  C   UNL A   1      39.376  32.030  35.382  1.00  0.00     0.023 A 
ATOM     69  C   UNL A   1      39.715  33.397  35.414  1.00  0.00     0.012 A 
ATOM     70  C   UNL A   1      38.652  31.480  36.457  1.00  0.00     0.148 A 
ATOM     71  C   UNL A   1      39.355  34.195  36.501  1.00  0.00     0.002 A 
ATOM     72  C   UNL A   1      38.244  32.294  37.508  1.00  0.00     0.091 A 
ATOM     73  F   UNL A   1      38.369  30.170  36.432  1.00  0.00    -0.205 F 
ATOM     74  C   UNL A   1      38.608  33.649  37.540  1.00  0.00     0.022 A 
BRANCH  72  75
ATOM     75  S   UNL A   1      37.158  31.686  38.804  1.00  0.00     0.127 S 
ATOM     76  O   UNL A   1      37.997  31.826  39.990  1.00  0.00    -0.237 OA
ATOM     77  O   UNL A   1      36.032  32.618  38.731  1.00  0.00    -0.237 OA
ATOM     78  O   UNL A   1      36.825  30.323  38.409  1.00  0.00    -0.744 OA
ENDBRANCH  72  75
ENDBRANCH  44  68
BRANCH  56  79
ATOM     79  C   UNL A   1      44.710  27.691  34.195  1.00  0.00     0.023 A 
ATOM     80  C   UNL A   1      45.910  28.426  34.244  1.00  0.00     0.012 A 
ATOM     81  C   UNL A   1      44.559  26.557  35.016  1.00  0.00     0.148 A 
ATOM     82  C   UNL A   1      46.952  28.028  35.081  1.00  0.00     0.002 A 
ATOM     83  C   UNL A   1      45.587  26.188  35.878  1.00  0.00     0.091 A 
ATOM     84  F   UNL A   1      43.418  25.856  34.939  1.00  0.00    -0.205 F 
ATOM     85  C   UNL A   1      46.787  26.918  35.905  1.00  0.00     0.022 A 
BRANCH  83  86
ATOM     86  S   UNL A   1      45.419  24.823  37.035  1.00  0.00     0.127 S 
ATOM     87  O   UNL A   1      46.722  24.829  37.694  1.00  0.00    -0.237 OA
ATOM     88  O   UNL A   1      44.306  25.260  37.878  1.00  0.00    -0.237 OA
ATOM     89  O   UNL A   1      45.128  23.651  36.220  1.00  0.00    -0.744 OA
ENDBRANCH  83  86
ENDBRANCH  56  79
ENDBRANCH  30  31
ENDBRANCH  23  25
ENDBRANCH  22  23
ENDBRANCH  21  22
ENDBRANCH   1  21
TORSDOF 17
ENDMDL
MODEL 3
REMARK VINA RESULT:     -11.4      1.677      2.223
REMARK SMILES C[C@@H](C(=O)OCCOC(=O)c1ccc(-c2c3nc(c(-c4cccc(S(=O)(=O)[O-])c4F)c4ccc([nH]4)c(-c4cccc(S(=O)(=O)[O-])c4F)c4nc(c(-c5cccc(S(=O)(=O)[O-])c5F)c5ccc2[nH]5)C=C4)C=C3)cc1)c1ccc(O[C@H]2CCCC2=O)cc1F
REMARK SMILES IDX 6 1 5 2 3 3 4 4 2 5 1 6 74 7 75 8 86 9 76 10 85 11 87 12
REMARK SMILES IDX 77 13 78 14 79 15 80 16 83 17 81 18 82 19 84 20 7 21 8 22
REMARK SMILES IDX 9 23 10 24 11 25 12 26 73 27 13 28 72 29 14 30 15 31 16 32
REMARK SMILES IDX 66 33 17 34 71 35 65 36 67 37 18 38 70 39 64 40 63 41 19 43
REMARK SMILES IDX 51 44 31 45 50 46 32 47 35 48 49 49 68 50 33 51 34 52 48 54
REMARK SMILES IDX 69 55 36 56 20 57 21 58 29 59 22 60 24 61 30 62 23 63 25 64
REMARK SMILES IDX 26 65 27 66 28 67 52 68 53 69 61 70 54 71 56 72 62 73 55 74
REMARK SMILES IDX 57 75 58 76 59 77 60 78 37 79 38 80 46 81 39 82 41 83 47 84
REMARK SMILES IDX 40 85 42 86 43 87 44 88 45 89
REMARK H PARENT 67 42 35 53
REMARK Flexibility Score: inf
ROOT
ATOM      1  C   UNL A   1      31.050  29.814  24.350  1.00  0.00     0.274 C 
ENDROOT
BRANCH   1   2
ATOM      2  O   UNL A   1      31.417  28.880  23.315  1.00  0.00    -0.462 OA
BRANCH   2   3
ATOM      3  C   UNL A   1      30.402  28.273  22.640  1.00  0.00     0.313 C 
ATOM      4  O   UNL A   1      29.662  28.854  21.855  1.00  0.00    -0.252 OA
BRANCH   3   5
ATOM      5  C   UNL A   1      30.281  26.780  22.985  1.00  0.00     0.129 C 
ATOM      6  C   UNL A   1      29.041  26.559  23.876  1.00  0.00     0.025 C 
BRANCH   5   7
ATOM      7  C   UNL A   1      31.559  26.135  23.531  1.00  0.00     0.002 A 
ATOM      8  C   UNL A   1      31.727  25.821  24.888  1.00  0.00     0.011 A 
ATOM      9  C   UNL A   1      32.659  25.873  22.697  1.00  0.00     0.130 A 
ATOM     10  C   UNL A   1      32.884  25.166  25.338  1.00  0.00     0.047 A 
ATOM     11  C   UNL A   1      33.813  25.221  23.144  1.00  0.00     0.086 A 
ATOM     12  F   UNL A   1      32.638  26.241  21.409  1.00  0.00    -0.207 F 
ATOM     13  C   UNL A   1      33.915  24.818  24.462  1.00  0.00     0.123 A 
BRANCH  13  14
ATOM     14  O   UNL A   1      34.896  24.061  25.018  1.00  0.00    -0.483 OA
BRANCH  14  15
ATOM     15  C   UNL A   1      35.287  22.803  24.515  1.00  0.00     0.239 C 
ATOM     16  C   UNL A   1      36.655  22.729  23.817  1.00  0.00     0.054 C 
ATOM     17  C   UNL A   1      35.268  21.570  25.409  1.00  0.00     0.173 C 
ATOM     18  C   UNL A   1      37.387  21.511  24.394  1.00  0.00     0.012 C 
ATOM     19  C   UNL A   1      36.336  20.595  25.002  1.00  0.00     0.080 C 
ATOM     20  O   UNL A   1      34.469  21.356  26.312  1.00  0.00    -0.296 OA
ENDBRANCH  14  15
ENDBRANCH  13  14
ENDBRANCH   5   7
ENDBRANCH   3   5
ENDBRANCH   2   3
ENDBRANCH   1   2
BRANCH   1  21
ATOM     21  C   UNL A   1      31.726  29.378  25.646  1.00  0.00     0.275 C 
BRANCH  21  22
ATOM     22  O   UNL A   1      32.951  30.122  25.762  1.00  0.00    -0.458 OA
BRANCH  22  23
ATOM     23  C   UNL A   1      32.983  31.083  26.710  1.00  0.00     0.338 C 
ATOM     24  O   UNL A   1      32.192  32.000  26.873  1.00  0.00    -0.246 OA
BRANCH  23  25
ATOM     25  C   UNL A   1      34.136  30.822  27.584  1.00  0.00     0.060 A 
ATOM     26  C   UNL A   1      34.951  31.889  27.960  1.00  0.00     0.016 A 
ATOM     27  C   UNL A   1      34.449  29.521  27.973  1.00  0.00     0.016 A 
ATOM     28  C   UNL A   1      36.104  31.649  28.707  1.00  0.00     0.010 A 
ATOM     29  C   UNL A   1      35.577  29.295  28.770  1.00  0.00     0.010 A 
ATOM     30  C   UNL A   1      36.431  30.354  29.127  1.00  0.00    -0.014 A 
BRANCH  30  31
ATOM     31  C   UNL A   1      37.702  30.110  29.862  1.00  0.00     0.031 A 
ATOM     32  C   UNL A   1      38.783  29.283  29.221  1.00  0.00     0.074 A 
ATOM     33  C   UNL A   1      37.914  30.640  31.084  1.00  0.00     0.049 A 
ATOM     34  N   UNL A   1      39.901  28.840  29.737  1.00  0.00    -0.248 NA
ATOM     35  C   UNL A   1      38.579  28.902  27.814  1.00  0.00     0.031 C 
ATOM     36  C   UNL A   1      36.983  31.506  31.806  1.00  0.00     0.029 A 
ATOM     37  N   UNL A   1      38.986  30.518  31.938  1.00  0.00    -0.354 N 
ATOM     38  C   UNL A   1      40.492  28.063  28.749  1.00  0.00     0.074 A 
ATOM     39  C   UNL A   1      39.626  28.119  27.590  1.00  0.00     0.031 C 
ATOM     40  C   UNL A   1      37.527  31.851  32.984  1.00  0.00     0.029 A 
ATOM     41  C   UNL A   1      38.815  31.179  33.134  1.00  0.00     0.049 A 
ATOM     42  H   UNL A   1      39.797  30.008  31.715  1.00  0.00     0.167 HD
ATOM     43  C   UNL A   1      41.652  27.366  28.797  1.00  0.00     0.034 A 
ATOM     44  C   UNL A   1      39.589  31.214  34.238  1.00  0.00     0.034 A 
ATOM     45  C   UNL A   1      42.551  27.358  29.919  1.00  0.00     0.049 A 
ATOM     46  C   UNL A   1      40.872  30.426  34.267  1.00  0.00     0.074 A 
ATOM     47  C   UNL A   1      43.758  26.693  30.046  1.00  0.00     0.029 A 
ATOM     48  N   UNL A   1      42.349  28.052  31.100  1.00  0.00    -0.354 N 
ATOM     49  N   UNL A   1      41.433  29.726  33.311  1.00  0.00    -0.248 NA
ATOM     50  C   UNL A   1      41.630  30.436  35.528  1.00  0.00     0.031 C 
ATOM     51  C   UNL A   1      44.287  26.986  31.308  1.00  0.00     0.029 A 
ATOM     52  C   UNL A   1      43.411  27.836  31.962  1.00  0.00     0.049 A 
ATOM     53  H   UNL A   1      41.566  28.615  31.298  1.00  0.00     0.167 HD
ATOM     54  C   UNL A   1      42.612  29.222  33.850  1.00  0.00     0.074 A 
ATOM     55  C   UNL A   1      42.704  29.727  35.205  1.00  0.00     0.031 C 
ATOM     56  C   UNL A   1      43.521  28.391  33.285  1.00  0.00     0.034 A 
BRANCH  43  57
ATOM     57  C   UNL A   1      42.025  26.556  27.587  1.00  0.00     0.023 A 
ATOM     58  C   UNL A   1      42.673  27.179  26.504  1.00  0.00     0.012 A 
ATOM     59  C   UNL A   1      41.778  25.171  27.549  1.00  0.00     0.148 A 
ATOM     60  C   UNL A   1      43.053  26.435  25.387  1.00  0.00     0.002 A 
ATOM     61  C   UNL A   1      42.190  24.430  26.447  1.00  0.00     0.091 A 
ATOM     62  F   UNL A   1      41.132  24.606  28.579  1.00  0.00    -0.205 F 
ATOM     63  C   UNL A   1      42.821  25.062  25.363  1.00  0.00     0.022 A 
BRANCH  61  64
ATOM     64  S   UNL A   1      41.989  22.647  26.361  1.00  0.00     0.127 S 
ATOM     65  O   UNL A   1      40.534  22.514  26.348  1.00  0.00    -0.237 OA
ATOM     66  O   UNL A   1      42.643  22.321  25.093  1.00  0.00    -0.237 OA
ATOM     67  O   UNL A   1      42.661  22.117  27.540  1.00  0.00    -0.744 OA
ENDBRANCH  61  64
ENDBRANCH  43  57
BRANCH  44  68
ATOM     68  C   UNL A   1      39.182  32.038  35.413  1.00  0.00     0.023 A 
ATOM     69  C   UNL A   1      38.325  31.482  36.382  1.00  0.00     0.012 A 
ATOM     70  C   UNL A   1      39.646  33.356  35.587  1.00  0.00     0.148 A 
ATOM     71  C   UNL A   1      37.924  32.228  37.491  1.00  0.00     0.002 A 
ATOM     72  C   UNL A   1      39.291  34.073  36.725  1.00  0.00     0.091 A 
ATOM     73  F   UNL A   1      40.430  33.887  34.637  1.00  0.00    -0.205 F 
ATOM     74  C   UNL A   1      38.418  33.517  37.671  1.00  0.00     0.022 A 
BRANCH  72  75
ATOM     75  S   UNL A   1      40.007  35.681  37.086  1.00  0.00     0.127 S 
ATOM     76  O   UNL A   1      41.425  35.359  37.208  1.00  0.00    -0.237 OA
ATOM     77  O   UNL A   1      39.650  36.455  35.896  1.00  0.00    -0.237 OA
ATOM     78  O   UNL A   1      39.341  36.126  38.303  1.00  0.00    -0.744 OA
ENDBRANCH  72  75
ENDBRANCH  44  68
BRANCH  56  79
ATOM     79  C   UNL A   1      44.708  27.982  34.115  1.00  0.00     0.023 A 
ATOM     80  C   UNL A   1      45.872  28.777  34.097  1.00  0.00     0.012 A 
ATOM     81  C   UNL A   1      44.646  26.866  34.971  1.00  0.00     0.148 A 
ATOM     82  C   UNL A   1      46.963  28.454  34.903  1.00  0.00     0.002 A 
ATOM     83  C   UNL A   1      45.723  26.573  35.802  1.00  0.00     0.091 A 
ATOM     84  F   UNL A   1      43.539  26.109  34.958  1.00  0.00    -0.205 F 
ATOM     85  C   UNL A   1      46.885  27.361  35.763  1.00  0.00     0.022 A 
BRANCH  83  86
ATOM     86  S   UNL A   1      45.667  25.236  37.001  1.00  0.00     0.127 S 
ATOM     87  O   UNL A   1      44.541  25.635  37.841  1.00  0.00    -0.237 OA
ATOM     88  O   UNL A   1      45.417  24.066  36.158  1.00  0.00    -0.237 OA
ATOM     89  O   UNL A   1      46.971  25.236  37.651  1.00  0.00    -0.744 OA
ENDBRANCH  83  86
ENDBRANCH  56  79
ENDBRANCH  30  31
ENDBRANCH  23  25
ENDBRANCH  22  23
ENDBRANCH  21  22
ENDBRANCH   1  21
TORSDOF 17
ENDMDL
