MODEL 1
REMARK VINA RESULT:     -12.4      0.000      0.000
REMARK SMILES CCCSc1nc2n(n1)[C@@H](c1ccc(C(=O)OCCOC(=O)c3ccc(-c4c5nc(c(-c6cccc(S(=O)(=O)[O-])c6F)c6ccc([nH]6)c(-c6cccc(S(=O)(=O)[O-])c6F)c6nc(c(-c7cccc(S(=O)(=O)[O-])c7F)c7ccc4[nH]7)C=C6)C=C5)cc3)cc1)C(C(=O)Nc1cccc(C)c1)=C(C)N2
REMARK SMILES IDX 18 1 17 2 15 3 16 4 14 5 11 6 12 7 87 8 13 9 86 10 10 11
REMARK SMILES IDX 5 12 6 13 9 14 7 15 8 16 101 17 99 18 88 20 100 21 4 22 3 23
REMARK SMILES IDX 2 24 1 25 89 26 90 27 91 28 92 30 93 31 98 32 94 33 96 34
REMARK SMILES IDX 95 35 97 36 19 37 20 38 21 39 22 40 23 41 24 42 85 43 25 44
REMARK SMILES IDX 84 45 26 46 27 47 28 48 78 49 29 50 83 51 77 52 79 53 30 54
REMARK SMILES IDX 82 55 76 56 75 57 31 59 63 60 43 61 62 62 44 63 47 64 61 65
REMARK SMILES IDX 80 66 45 67 46 68 60 70 81 71 48 72 32 73 33 74 41 75 34 76
REMARK SMILES IDX 36 77 42 78 35 79 37 80 38 81 39 82 40 83 64 84 65 85 73 86
REMARK SMILES IDX 66 87 68 88 74 89 67 90 69 91 70 92 71 93 72 94 49 95 50 96
REMARK SMILES IDX 58 97 51 98 53 99 59 100 52 101 54 102 55 103 56 104 57 105
REMARK H PARENT 101 19 91 29 79 58 47 69
REMARK Flexibility Score: inf
ROOT
ATOM      1  C   UNL A   1      38.302  20.894  25.793  1.00  0.00     0.275 C 
ENDROOT
BRANCH   1   2
ATOM      2  O   UNL A   1      38.453  22.166  26.441  1.00  0.00    -0.458 OA
BRANCH   2   3
ATOM      3  C   UNL A   1      37.935  23.222  25.765  1.00  0.00     0.338 C 
ATOM      4  O   UNL A   1      38.570  24.119  25.230  1.00  0.00    -0.246 OA
BRANCH   3   5
ATOM      5  C   UNL A   1      36.459  23.116  25.674  1.00  0.00     0.060 A 
ATOM      6  C   UNL A   1      33.664  22.693  25.646  1.00  0.00    -0.019 A 
ATOM      7  C   UNL A   1      34.345  22.988  26.843  1.00  0.00     0.007 A 
ATOM      8  C   UNL A   1      34.401  22.784  24.450  1.00  0.00     0.007 A 
ATOM      9  C   UNL A   1      35.726  23.183  26.859  1.00  0.00     0.016 A 
ATOM     10  C   UNL A   1      35.786  22.971  24.461  1.00  0.00     0.016 A 
BRANCH   6  11
ATOM     11  C   UNL A   1      32.240  22.052  25.628  1.00  0.00     0.179 C 
ATOM     12  C   UNL A   1      32.461  19.295  23.480  1.00  0.00     0.210 A 
ATOM     13  N   UNL A   1      32.132  20.256  22.561  1.00  0.00    -0.185 NA
ATOM     14  N   UNL A   1      32.485  19.705  24.759  1.00  0.00    -0.141 NA
ATOM     15  C   UNL A   1      31.877  21.294  23.302  1.00  0.00     0.227 A 
ATOM     16  N   UNL A   1      32.148  21.002  24.609  1.00  0.00    -0.218 N 
ATOM     17  N   UNL A   1      31.490  22.536  22.982  1.00  0.00    -0.328 N 
ATOM     18  C   UNL A   1      31.130  23.492  23.931  1.00  0.00     0.026 C 
ATOM     19  H   UNL A   1      31.458  22.787  22.030  1.00  0.00     0.169 HD
ATOM     20  C   UNL A   1      31.226  23.195  25.261  1.00  0.00     0.065 C 
ATOM     21  C   UNL A   1      30.750  24.808  23.310  1.00  0.00     0.065 C 
BRANCH  12  22
ATOM     22  S   UNL A   1      32.771  17.645  23.026  1.00  0.00    -0.084 SA
BRANCH  22  23
ATOM     23  C   UNL A   1      34.333  17.304  23.902  1.00  0.00     0.078 C 
BRANCH  23  24
ATOM     24  C   UNL A   1      34.253  16.169  24.930  1.00  0.00     0.008 C 
ATOM     25  C   UNL A   1      32.848  15.798  25.382  1.00  0.00     0.005 C 
ENDBRANCH  23  24
ENDBRANCH  22  23
ENDBRANCH  12  22
BRANCH  20  26
ATOM     26  C   UNL A   1      30.705  23.916  26.479  1.00  0.00     0.255 C 
ATOM     27  O   UNL A   1      29.782  23.431  27.137  1.00  0.00    -0.269 OA
ATOM     28  N   UNL A   1      31.214  25.094  26.937  1.00  0.00    -0.322 N 
ATOM     29  H   UNL A   1      31.152  25.215  27.913  1.00  0.00     0.170 HD
BRANCH  28  30
ATOM     30  C   UNL A   1      31.809  26.155  26.255  1.00  0.00     0.041 A 
ATOM     31  C   UNL A   1      33.192  26.106  26.061  1.00  0.00     0.026 A 
ATOM     32  C   UNL A   1      31.059  27.202  25.719  1.00  0.00     0.029 A 
ATOM     33  C   UNL A   1      33.799  27.025  25.209  1.00  0.00     0.002 A 
ATOM     34  C   UNL A   1      31.665  28.133  24.870  1.00  0.00    -0.049 A 
ATOM     35  C   UNL A   1      33.036  28.025  24.603  1.00  0.00     0.003 A 
ATOM     36  C   UNL A   1      30.835  29.175  24.181  1.00  0.00     0.044 C 
ENDBRANCH  28  30
ENDBRANCH  20  26
ENDBRANCH   6  11
ENDBRANCH   3   5
ENDBRANCH   2   3
ENDBRANCH   1   2
BRANCH   1  37
ATOM     37  C   UNL A   1      39.626  20.429  25.203  1.00  0.00     0.275 C 
BRANCH  37  38
ATOM     38  O   UNL A   1      40.239  19.425  26.011  1.00  0.00    -0.458 OA
BRANCH  38  39
ATOM     39  C   UNL A   1      41.586  19.372  25.915  1.00  0.00     0.338 C 
ATOM     40  O   UNL A   1      42.264  18.447  25.498  1.00  0.00    -0.246 OA
BRANCH  39  41
ATOM     41  C   UNL A   1      42.167  20.528  26.597  1.00  0.00     0.060 A 
ATOM     42  C   UNL A   1      41.790  20.762  27.924  1.00  0.00     0.016 A 
ATOM     43  C   UNL A   1      42.836  21.491  25.830  1.00  0.00     0.016 A 
ATOM     44  C   UNL A   1      41.969  22.028  28.442  1.00  0.00     0.010 A 
ATOM     45  C   UNL A   1      42.999  22.753  26.343  1.00  0.00     0.010 A 
ATOM     46  C   UNL A   1      42.506  23.023  27.619  1.00  0.00    -0.014 A 
BRANCH  46  47
ATOM     47  C   UNL A   1      42.639  24.362  28.157  1.00  0.00     0.031 A 
ATOM     48  C   UNL A   1      41.404  25.173  28.037  1.00  0.00     0.074 A 
ATOM     49  C   UNL A   1      43.729  24.736  28.853  1.00  0.00     0.049 A 
ATOM     50  N   UNL A   1      41.249  26.303  27.430  1.00  0.00    -0.248 NA
ATOM     51  C   UNL A   1      40.151  24.581  28.537  1.00  0.00     0.031 C 
ATOM     52  C   UNL A   1      44.843  23.889  29.290  1.00  0.00     0.029 A 
ATOM     53  N   UNL A   1      43.980  25.921  29.473  1.00  0.00    -0.354 N 
ATOM     54  C   UNL A   1      39.927  26.669  27.672  1.00  0.00     0.074 A 
ATOM     55  C   UNL A   1      39.258  25.501  28.178  1.00  0.00     0.031 C 
ATOM     56  C   UNL A   1      45.481  24.498  30.314  1.00  0.00     0.029 A 
ATOM     57  C   UNL A   1      44.897  25.813  30.514  1.00  0.00     0.049 A 
ATOM     58  H   UNL A   1      43.554  26.770  29.212  1.00  0.00     0.167 HD
ATOM     59  C   UNL A   1      39.544  27.972  27.694  1.00  0.00     0.034 A 
ATOM     60  C   UNL A   1      45.063  26.693  31.533  1.00  0.00     0.034 A 
ATOM     61  C   UNL A   1      40.494  28.822  27.028  1.00  0.00     0.049 A 
ATOM     62  C   UNL A   1      44.447  27.977  31.118  1.00  0.00     0.074 A 
ATOM     63  C   UNL A   1      41.041  28.859  25.760  1.00  0.00     0.029 A 
ATOM     64  N   UNL A   1      41.315  29.593  27.814  1.00  0.00    -0.354 N 
ATOM     65  N   UNL A   1      44.905  28.720  30.148  1.00  0.00    -0.248 NA
ATOM     66  C   UNL A   1      43.063  28.217  31.493  1.00  0.00     0.031 C 
ATOM     67  C   UNL A   1      42.404  29.224  25.963  1.00  0.00     0.029 A 
ATOM     68  C   UNL A   1      42.586  29.447  27.329  1.00  0.00     0.049 A 
ATOM     69  H   UNL A   1      41.040  30.144  28.582  1.00  0.00     0.167 HD
ATOM     70  C   UNL A   1      43.765  29.180  29.500  1.00  0.00     0.074 A 
ATOM     71  C   UNL A   1      42.668  28.927  30.432  1.00  0.00     0.031 C 
ATOM     72  C   UNL A   1      43.769  29.448  28.160  1.00  0.00     0.034 A 
BRANCH  59  73
ATOM     73  C   UNL A   1      38.498  28.524  28.631  1.00  0.00     0.023 A 
ATOM     74  C   UNL A   1      37.469  29.309  28.070  1.00  0.00     0.012 A 
ATOM     75  C   UNL A   1      38.624  28.542  30.041  1.00  0.00     0.148 A 
ATOM     76  C   UNL A   1      36.637  30.103  28.868  1.00  0.00     0.002 A 
ATOM     77  C   UNL A   1      37.739  29.260  30.834  1.00  0.00     0.091 A 
ATOM     78  F   UNL A   1      39.686  27.982  30.628  1.00  0.00    -0.205 F 
ATOM     79  C   UNL A   1      36.764  30.070  30.251  1.00  0.00     0.022 A 
BRANCH  77  80
ATOM     80  S   UNL A   1      37.825  29.193  32.627  1.00  0.00     0.127 S 
ATOM     81  O   UNL A   1      36.633  29.944  33.006  1.00  0.00    -0.237 OA
ATOM     82  O   UNL A   1      37.757  27.753  32.877  1.00  0.00    -0.237 OA
ATOM     83  O   UNL A   1      39.106  29.796  32.975  1.00  0.00    -0.744 OA
ENDBRANCH  77  80
ENDBRANCH  59  73
BRANCH  60  84
ATOM     84  C   UNL A   1      45.431  26.415  32.942  1.00  0.00     0.023 A 
ATOM     85  C   UNL A   1      46.387  27.225  33.585  1.00  0.00     0.012 A 
ATOM     86  C   UNL A   1      44.671  25.528  33.738  1.00  0.00     0.148 A 
ATOM     87  C   UNL A   1      46.566  27.167  34.974  1.00  0.00     0.002 A 
ATOM     88  C   UNL A   1      44.865  25.458  35.113  1.00  0.00     0.091 A 
ATOM     89  F   UNL A   1      43.690  24.819  33.163  1.00  0.00    -0.205 F 
ATOM     90  C   UNL A   1      45.804  26.286  35.738  1.00  0.00     0.022 A 
BRANCH  88  91
ATOM     91  S   UNL A   1      43.913  24.343  36.156  1.00  0.00     0.127 S 
ATOM     92  O   UNL A   1      42.555  24.531  35.643  1.00  0.00    -0.237 OA
ATOM     93  O   UNL A   1      44.511  23.049  35.843  1.00  0.00    -0.237 OA
ATOM     94  O   UNL A   1      44.103  24.818  37.521  1.00  0.00    -0.744 OA
ENDBRANCH  88  91
ENDBRANCH  60  84
BRANCH  72  95
ATOM     95  C   UNL A   1      45.091  29.468  27.433  1.00  0.00     0.023 A 
ATOM     96  C   UNL A   1      45.964  30.575  27.489  1.00  0.00     0.012 A 
ATOM     97  C   UNL A   1      45.546  28.274  26.849  1.00  0.00     0.148 A 
ATOM     98  C   UNL A   1      47.254  30.499  26.953  1.00  0.00     0.002 A 
ATOM     99  C   UNL A   1      46.845  28.186  26.361  1.00  0.00     0.091 A 
ATOM    100  F   UNL A   1      44.707  27.228  26.809  1.00  0.00    -0.205 F 
ATOM    101  C   UNL A   1      47.699  29.299  26.403  1.00  0.00     0.022 A 
BRANCH  99 102
ATOM    102  S   UNL A   1      47.515  26.635  25.759  1.00  0.00     0.127 S 
ATOM    103  O   UNL A   1      47.391  25.772  26.932  1.00  0.00    -0.237 OA
ATOM    104  O   UNL A   1      46.607  26.304  24.659  1.00  0.00    -0.237 OA
ATOM    105  O   UNL A   1      48.879  26.926  25.336  1.00  0.00    -0.744 OA
ENDBRANCH  99 102
ENDBRANCH  72  95
ENDBRANCH  46  47
ENDBRANCH  39  41
ENDBRANCH  38  39
ENDBRANCH  37  38
ENDBRANCH   1  37
TORSDOF 20
ENDMDL
MODEL 2
REMARK VINA RESULT:     -12.2      2.998      8.235
REMARK SMILES CCCSc1nc2n(n1)[C@@H](c1ccc(C(=O)OCCOC(=O)c3ccc(-c4c5nc(c(-c6cccc(S(=O)(=O)[O-])c6F)c6ccc([nH]6)c(-c6cccc(S(=O)(=O)[O-])c6F)c6nc(c(-c7cccc(S(=O)(=O)[O-])c7F)c7ccc4[nH]7)C=C6)C=C5)cc3)cc1)C(C(=O)Nc1cccc(C)c1)=C(C)N2
REMARK SMILES IDX 18 1 17 2 15 3 16 4 14 5 11 6 12 7 87 8 13 9 86 10 10 11
REMARK SMILES IDX 5 12 6 13 9 14 7 15 8 16 101 17 99 18 88 20 100 21 4 22 3 23
REMARK SMILES IDX 2 24 1 25 89 26 90 27 91 28 92 30 93 31 98 32 94 33 96 34
REMARK SMILES IDX 95 35 97 36 19 37 20 38 21 39 22 40 23 41 24 42 85 43 25 44
REMARK SMILES IDX 84 45 26 46 27 47 28 48 78 49 29 50 83 51 77 52 79 53 30 54
REMARK SMILES IDX 82 55 76 56 75 57 31 59 63 60 43 61 62 62 44 63 47 64 61 65
REMARK SMILES IDX 80 66 45 67 46 68 60 70 81 71 48 72 32 73 33 74 41 75 34 76
REMARK SMILES IDX 36 77 42 78 35 79 37 80 38 81 39 82 40 83 64 84 65 85 73 86
REMARK SMILES IDX 66 87 68 88 74 89 67 90 69 91 70 92 71 93 72 94 49 95 50 96
REMARK SMILES IDX 58 97 51 98 53 99 59 100 52 101 54 102 55 103 56 104 57 105
REMARK H PARENT 101 19 91 29 79 58 47 69
REMARK Flexibility Score: inf
ROOT
ATOM      1  C   UNL A   1      34.038  31.759  28.106  1.00  0.00     0.275 C 
ENDROOT
BRANCH   1   2
ATOM      2  O   UNL A   1      33.954  30.900  26.959  1.00  0.00    -0.458 OA
BRANCH   2   3
ATOM      3  C   UNL A   1      34.270  29.601  27.188  1.00  0.00     0.338 C 
ATOM      4  O   UNL A   1      34.887  29.167  28.150  1.00  0.00    -0.246 OA
BRANCH   3   5
ATOM      5  C   UNL A   1      33.689  28.725  26.143  1.00  0.00     0.060 A 
ATOM      6  C   UNL A   1      32.576  27.268  23.991  1.00  0.00    -0.019 A 
ATOM      7  C   UNL A   1      33.872  27.813  23.909  1.00  0.00     0.007 A 
ATOM      8  C   UNL A   1      31.930  27.334  25.240  1.00  0.00     0.007 A 
ATOM      9  C   UNL A   1      34.416  28.544  24.966  1.00  0.00     0.016 A 
ATOM     10  C   UNL A   1      32.467  28.071  26.299  1.00  0.00     0.016 A 
BRANCH   6  11
ATOM     11  C   UNL A   1      31.768  26.833  22.727  1.00  0.00     0.179 C 
ATOM     12  C   UNL A   1      28.666  28.439  22.978  1.00  0.00     0.210 A 
ATOM     13  N   UNL A   1      28.370  27.291  23.665  1.00  0.00    -0.185 NA
ATOM     14  N   UNL A   1      29.893  28.483  22.432  1.00  0.00    -0.141 NA
ATOM     15  C   UNL A   1      29.431  26.562  23.487  1.00  0.00     0.227 A 
ATOM     16  N   UNL A   1      30.375  27.282  22.812  1.00  0.00    -0.218 N 
ATOM     17  N   UNL A   1      29.735  25.326  23.907  1.00  0.00    -0.328 N 
ATOM     18  C   UNL A   1      30.881  24.643  23.502  1.00  0.00     0.026 C 
ATOM     19  H   UNL A   1      29.120  24.878  24.531  1.00  0.00     0.169 HD
ATOM     20  C   UNL A   1      31.786  25.263  22.687  1.00  0.00     0.065 C 
ATOM     21  C   UNL A   1      30.993  23.280  24.129  1.00  0.00     0.065 C 
BRANCH  12  22
ATOM     22  S   UNL A   1      27.513  29.725  22.778  1.00  0.00    -0.084 SA
BRANCH  22  23
ATOM     23  C   UNL A   1      28.406  31.142  23.500  1.00  0.00     0.078 C 
BRANCH  23  24
ATOM     24  C   UNL A   1      28.172  32.476  22.780  1.00  0.00     0.008 C 
ATOM     25  C   UNL A   1      29.155  33.584  23.126  1.00  0.00     0.005 C 
ENDBRANCH  23  24
ENDBRANCH  22  23
ENDBRANCH  12  22
BRANCH  20  26
ATOM     26  C   UNL A   1      32.964  24.719  21.917  1.00  0.00     0.255 C 
ATOM     27  O   UNL A   1      32.940  24.697  20.685  1.00  0.00    -0.269 OA
ATOM     28  N   UNL A   1      34.103  24.257  22.504  1.00  0.00    -0.322 N 
ATOM     29  H   UNL A   1      34.920  24.380  21.967  1.00  0.00     0.170 HD
BRANCH  28  30
ATOM     30  C   UNL A   1      34.306  23.640  23.738  1.00  0.00     0.041 A 
ATOM     31  C   UNL A   1      34.443  24.464  24.859  1.00  0.00     0.026 A 
ATOM     32  C   UNL A   1      34.308  22.253  23.879  1.00  0.00     0.029 A 
ATOM     33  C   UNL A   1      34.433  23.899  26.132  1.00  0.00     0.002 A 
ATOM     34  C   UNL A   1      34.307  21.679  25.155  1.00  0.00    -0.049 A 
ATOM     35  C   UNL A   1      34.349  22.513  26.280  1.00  0.00     0.003 A 
ATOM     36  C   UNL A   1      34.167  20.194  25.313  1.00  0.00     0.044 C 
ENDBRANCH  28  30
ENDBRANCH  20  26
ENDBRANCH   6  11
ENDBRANCH   3   5
ENDBRANCH   2   3
ENDBRANCH   1   2
BRANCH   1  37
ATOM     37  C   UNL A   1      35.229  32.701  27.988  1.00  0.00     0.275 C 
BRANCH  37  38
ATOM     38  O   UNL A   1      36.431  32.091  28.456  1.00  0.00    -0.458 OA
BRANCH  38  39
ATOM     39  C   UNL A   1      36.680  32.281  29.771  1.00  0.00     0.338 C 
ATOM     40  O   UNL A   1      36.277  33.189  30.478  1.00  0.00    -0.246 OA
BRANCH  39  41
ATOM     41  C   UNL A   1      37.710  31.340  30.211  1.00  0.00     0.060 A 
ATOM     42  C   UNL A   1      39.044  31.756  30.157  1.00  0.00     0.016 A 
ATOM     43  C   UNL A   1      37.353  29.997  30.392  1.00  0.00     0.016 A 
ATOM     44  C   UNL A   1      40.031  30.793  30.150  1.00  0.00     0.010 A 
ATOM     45  C   UNL A   1      38.337  29.040  30.372  1.00  0.00     0.010 A 
ATOM     46  C   UNL A   1      39.658  29.445  30.186  1.00  0.00    -0.014 A 
BRANCH  46  47
ATOM     47  C   UNL A   1      40.701  28.442  30.125  1.00  0.00     0.031 A 
ATOM     48  C   UNL A   1      41.418  28.253  31.409  1.00  0.00     0.074 A 
ATOM     49  C   UNL A   1      40.855  27.650  29.046  1.00  0.00     0.049 A 
ATOM     50  N   UNL A   1      42.681  28.391  31.644  1.00  0.00    -0.248 NA
ATOM     51  C   UNL A   1      40.603  28.020  32.613  1.00  0.00     0.031 C 
ATOM     52  C   UNL A   1      39.978  27.559  27.874  1.00  0.00     0.029 A 
ATOM     53  N   UNL A   1      41.733  26.629  28.856  1.00  0.00    -0.354 N 
ATOM     54  C   UNL A   1      42.844  28.036  32.981  1.00  0.00     0.074 A 
ATOM     55  C   UNL A   1      41.531  28.010  33.568  1.00  0.00     0.031 C 
ATOM     56  C   UNL A   1      40.197  26.379  27.255  1.00  0.00     0.029 A 
ATOM     57  C   UNL A   1      41.300  25.700  27.914  1.00  0.00     0.049 A 
ATOM     58  H   UNL A   1      42.589  26.553  29.337  1.00  0.00     0.167 HD
ATOM     59  C   UNL A   1      44.016  27.527  33.442  1.00  0.00     0.034 A 
ATOM     60  C   UNL A   1      41.741  24.425  27.782  1.00  0.00     0.034 A 
ATOM     61  C   UNL A   1      45.113  27.819  32.559  1.00  0.00     0.049 A 
ATOM     62  C   UNL A   1      43.045  24.328  28.483  1.00  0.00     0.074 A 
ATOM     63  C   UNL A   1      45.658  28.977  32.039  1.00  0.00     0.029 A 
ATOM     64  N   UNL A   1      45.582  26.796  31.771  1.00  0.00    -0.354 N 
ATOM     65  N   UNL A   1      44.125  24.945  28.090  1.00  0.00    -0.248 NA
ATOM     66  C   UNL A   1      43.038  23.898  29.872  1.00  0.00     0.031 C 
ATOM     67  C   UNL A   1      46.006  28.645  30.698  1.00  0.00     0.029 A 
ATOM     68  C   UNL A   1      45.711  27.294  30.503  1.00  0.00     0.049 A 
ATOM     69  H   UNL A   1      45.785  25.879  32.064  1.00  0.00     0.167 HD
ATOM     70  C   UNL A   1      44.722  25.377  29.268  1.00  0.00     0.074 A 
ATOM     71  C   UNL A   1      44.068  24.615  30.330  1.00  0.00     0.031 C 
ATOM     72  C   UNL A   1      45.474  26.518  29.306  1.00  0.00     0.034 A 
BRANCH  59  73
ATOM     73  C   UNL A   1      44.107  26.456  34.501  1.00  0.00     0.023 A 
ATOM     74  C   UNL A   1      43.450  25.233  34.250  1.00  0.00     0.012 A 
ATOM     75  C   UNL A   1      44.562  26.682  35.823  1.00  0.00     0.148 A 
ATOM     76  C   UNL A   1      43.221  24.303  35.270  1.00  0.00     0.002 A 
ATOM     77  C   UNL A   1      44.411  25.717  36.810  1.00  0.00     0.091 A 
ATOM     78  F   UNL A   1      45.016  27.886  36.181  1.00  0.00    -0.205 F 
ATOM     79  C   UNL A   1      43.711  24.539  36.548  1.00  0.00     0.022 A 
BRANCH  77  80
ATOM     80  S   UNL A   1      45.088  25.952  38.458  1.00  0.00     0.127 S 
ATOM     81  O   UNL A   1      46.468  26.323  38.158  1.00  0.00    -0.237 OA
ATOM     82  O   UNL A   1      44.252  27.037  38.973  1.00  0.00    -0.237 OA
ATOM     83  O   UNL A   1      44.896  24.679  39.140  1.00  0.00    -0.744 OA
ENDBRANCH  77  80
ENDBRANCH  59  73
BRANCH  60  84
ATOM     84  C   UNL A   1      40.977  23.222  27.370  1.00  0.00     0.023 A 
ATOM     85  C   UNL A   1      39.636  23.354  26.961  1.00  0.00     0.012 A 
ATOM     86  C   UNL A   1      41.625  21.988  27.131  1.00  0.00     0.148 A 
ATOM     87  C   UNL A   1      38.970  22.301  26.319  1.00  0.00     0.002 A 
ATOM     88  C   UNL A   1      40.955  20.939  26.512  1.00  0.00     0.091 A 
ATOM     89  F   UNL A   1      42.928  21.872  27.423  1.00  0.00    -0.205 F 
ATOM     90  C   UNL A   1      39.629  21.095  26.093  1.00  0.00     0.022 A 
BRANCH  88  91
ATOM     91  S   UNL A   1      41.750  19.357  26.190  1.00  0.00     0.127 S 
ATOM     92  O   UNL A   1      40.623  18.535  25.747  1.00  0.00    -0.237 OA
ATOM     93  O   UNL A   1      42.704  19.704  25.141  1.00  0.00    -0.237 OA
ATOM     94  O   UNL A   1      42.327  18.938  27.461  1.00  0.00    -0.744 OA
ENDBRANCH  88  91
ENDBRANCH  60  84
BRANCH  72  95
ATOM     95  C   UNL A   1      45.850  27.177  28.003  1.00  0.00     0.023 A 
ATOM     96  C   UNL A   1      45.102  28.241  27.454  1.00  0.00     0.012 A 
ATOM     97  C   UNL A   1      47.089  26.852  27.426  1.00  0.00     0.148 A 
ATOM     98  C   UNL A   1      45.569  28.948  26.342  1.00  0.00     0.002 A 
ATOM     99  C   UNL A   1      47.573  27.588  26.351  1.00  0.00     0.091 A 
ATOM    100  F   UNL A   1      47.793  25.844  27.962  1.00  0.00    -0.205 F 
ATOM    101  C   UNL A   1      46.812  28.631  25.800  1.00  0.00     0.022 A 
BRANCH  99 102
ATOM    102  S   UNL A   1      49.219  27.311  25.693  1.00  0.00     0.127 S 
ATOM    103  O   UNL A   1      49.241  28.202  24.534  1.00  0.00    -0.237 OA
ATOM    104  O   UNL A   1      50.078  27.731  26.802  1.00  0.00    -0.237 OA
ATOM    105  O   UNL A   1      49.295  25.887  25.391  1.00  0.00    -0.744 OA
ENDBRANCH  99 102
ENDBRANCH  72  95
ENDBRANCH  46  47
ENDBRANCH  39  41
ENDBRANCH  38  39
ENDBRANCH  37  38
ENDBRANCH   1  37
TORSDOF 20
ENDMDL
MODEL 3
REMARK VINA RESULT:     -12.0      1.621      1.983
REMARK SMILES CCCSc1nc2n(n1)[C@@H](c1ccc(C(=O)OCCOC(=O)c3ccc(-c4c5nc(c(-c6cccc(S(=O)(=O)[O-])c6F)c6ccc([nH]6)c(-c6cccc(S(=O)(=O)[O-])c6F)c6nc(c(-c7cccc(S(=O)(=O)[O-])c7F)c7ccc4[nH]7)C=C6)C=C5)cc3)cc1)C(C(=O)Nc1cccc(C)c1)=C(C)N2
REMARK SMILES IDX 18 1 17 2 15 3 16 4 14 5 11 6 12 7 87 8 13 9 86 10 10 11
REMARK SMILES IDX 5 12 6 13 9 14 7 15 8 16 101 17 99 18 88 20 100 21 4 22 3 23
REMARK SMILES IDX 2 24 1 25 89 26 90 27 91 28 92 30 93 31 98 32 94 33 96 34
REMARK SMILES IDX 95 35 97 36 19 37 20 38 21 39 22 40 23 41 24 42 85 43 25 44
REMARK SMILES IDX 84 45 26 46 27 47 28 48 78 49 29 50 83 51 77 52 79 53 30 54
REMARK SMILES IDX 82 55 76 56 75 57 31 59 63 60 43 61 62 62 44 63 47 64 61 65
REMARK SMILES IDX 80 66 45 67 46 68 60 70 81 71 48 72 32 73 33 74 41 75 34 76
REMARK SMILES IDX 36 77 42 78 35 79 37 80 38 81 39 82 40 83 64 84 65 85 73 86
REMARK SMILES IDX 66 87 68 88 74 89 67 90 69 91 70 92 71 93 72 94 49 95 50 96
REMARK SMILES IDX 58 97 51 98 53 99 59 100 52 101 54 102 55 103 56 104 57 105
REMARK H PARENT 101 19 91 29 79 58 47 69
REMARK Flexibility Score: inf
ROOT
ATOM      1  C   UNL A   1      39.368  21.430  26.131  1.00  0.00     0.275 C 
ENDROOT
BRANCH   1   2
ATOM      2  O   UNL A   1      38.458  22.002  25.179  1.00  0.00    -0.458 OA
BRANCH   2   3
ATOM      3  C   UNL A   1      37.862  23.156  25.573  1.00  0.00     0.338 C 
ATOM      4  O   UNL A   1      38.433  24.180  25.921  1.00  0.00    -0.246 OA
BRANCH   3   5
ATOM      5  C   UNL A   1      36.389  23.057  25.449  1.00  0.00     0.060 A 
ATOM      6  C   UNL A   1      33.590  22.664  25.382  1.00  0.00    -0.019 A 
ATOM      7  C   UNL A   1      34.241  23.071  26.563  1.00  0.00     0.007 A 
ATOM      8  C   UNL A   1      34.361  22.626  24.205  1.00  0.00     0.007 A 
ATOM      9  C   UNL A   1      35.623  23.252  26.600  1.00  0.00     0.016 A 
ATOM     10  C   UNL A   1      35.749  22.799  24.238  1.00  0.00     0.016 A 
BRANCH   6  11
ATOM     11  C   UNL A   1      32.158  22.041  25.387  1.00  0.00     0.179 C 
ATOM     12  C   UNL A   1      32.241  19.442  23.040  1.00  0.00     0.210 A 
ATOM     13  N   UNL A   1      31.882  20.471  22.209  1.00  0.00    -0.185 NA
ATOM     14  N   UNL A   1      32.331  19.760  24.342  1.00  0.00    -0.141 NA
ATOM     15  C   UNL A   1      31.676  21.455  23.033  1.00  0.00     0.227 A 
ATOM     16  N   UNL A   1      32.005  21.067  24.301  1.00  0.00    -0.218 N 
ATOM     17  N   UNL A   1      31.291  22.721  22.820  1.00  0.00    -0.328 N 
ATOM     18  C   UNL A   1      30.989  23.609  23.851  1.00  0.00     0.026 C 
ATOM     19  H   UNL A   1      31.218  23.039  21.892  1.00  0.00     0.169 HD
ATOM     20  C   UNL A   1      31.144  23.217  25.151  1.00  0.00     0.065 C 
ATOM     21  C   UNL A   1      30.598  24.970  23.344  1.00  0.00     0.065 C 
BRANCH  12  22
ATOM     22  S   UNL A   1      32.507  17.826  22.455  1.00  0.00    -0.084 SA
BRANCH  22  23
ATOM     23  C   UNL A   1      34.002  17.337  23.379  1.00  0.00     0.078 C 
BRANCH  23  24
ATOM     24  C   UNL A   1      33.758  16.301  24.483  1.00  0.00     0.008 C 
ATOM     25  C   UNL A   1      34.997  15.856  25.245  1.00  0.00     0.005 C 
ENDBRANCH  23  24
ENDBRANCH  22  23
ENDBRANCH  12  22
BRANCH  20  26
ATOM     26  C   UNL A   1      30.690  23.854  26.441  1.00  0.00     0.255 C 
ATOM     27  O   UNL A   1      29.842  23.296  27.140  1.00  0.00    -0.269 OA
ATOM     28  N   UNL A   1      31.184  25.030  26.919  1.00  0.00    -0.322 N 
ATOM     29  H   UNL A   1      31.194  25.101  27.901  1.00  0.00     0.170 HD
BRANCH  28  30
ATOM     30  C   UNL A   1      31.679  26.149  26.249  1.00  0.00     0.041 A 
ATOM     31  C   UNL A   1      30.762  26.955  25.570  1.00  0.00     0.026 A 
ATOM     32  C   UNL A   1      33.027  26.504  26.299  1.00  0.00     0.029 A 
ATOM     33  C   UNL A   1      31.170  28.189  25.070  1.00  0.00     0.002 A 
ATOM     34  C   UNL A   1      33.445  27.737  25.790  1.00  0.00    -0.049 A 
ATOM     35  C   UNL A   1      32.503  28.586  25.194  1.00  0.00     0.003 A 
ATOM     36  C   UNL A   1      34.866  28.183  25.968  1.00  0.00     0.044 C 
ENDBRANCH  28  30
ENDBRANCH  20  26
ENDBRANCH   6  11
ENDBRANCH   3   5
ENDBRANCH   2   3
ENDBRANCH   1   2
BRANCH   1  37
ATOM     37  C   UNL A   1      39.674  19.981  25.780  1.00  0.00     0.275 C 
BRANCH  37  38
ATOM     38  O   UNL A   1      40.787  19.483  26.522  1.00  0.00    -0.458 OA
BRANCH  38  39
ATOM     39  C   UNL A   1      41.994  19.816  26.013  1.00  0.00     0.338 C 
ATOM     40  O   UNL A   1      42.657  19.186  25.206  1.00  0.00    -0.246 OA
BRANCH  39  41
ATOM     41  C   UNL A   1      42.526  20.969  26.739  1.00  0.00     0.060 A 
ATOM     42  C   UNL A   1      42.193  21.102  28.091  1.00  0.00     0.016 A 
ATOM     43  C   UNL A   1      43.094  22.018  26.003  1.00  0.00     0.016 A 
ATOM     44  C   UNL A   1      42.309  22.346  28.675  1.00  0.00     0.010 A 
ATOM     45  C   UNL A   1      43.195  23.257  26.583  1.00  0.00     0.010 A 
ATOM     46  C   UNL A   1      42.742  23.421  27.891  1.00  0.00    -0.014 A 
BRANCH  46  47
ATOM     47  C   UNL A   1      42.808  24.733  28.501  1.00  0.00     0.031 A 
ATOM     48  C   UNL A   1      41.635  25.587  28.199  1.00  0.00     0.074 A 
ATOM     49  C   UNL A   1      43.764  25.046  29.397  1.00  0.00     0.049 A 
ATOM     50  N   UNL A   1      41.619  26.744  27.623  1.00  0.00    -0.248 NA
ATOM     51  C   UNL A   1      40.299  25.016  28.441  1.00  0.00     0.031 C 
ATOM     52  C   UNL A   1      44.761  24.147  29.988  1.00  0.00     0.029 A 
ATOM     53  N   UNL A   1      43.929  26.197  30.102  1.00  0.00    -0.354 N 
ATOM     54  C   UNL A   1      40.284  27.142  27.640  1.00  0.00     0.074 A 
ATOM     55  C   UNL A   1      39.507  25.977  27.969  1.00  0.00     0.031 C 
ATOM     56  C   UNL A   1      45.220  24.697  31.134  1.00  0.00     0.029 A 
ATOM     57  C   UNL A   1      44.641  26.021  31.284  1.00  0.00     0.049 A 
ATOM     58  H   UNL A   1      43.578  27.069  29.806  1.00  0.00     0.167 HD
ATOM     59  C   UNL A   1      39.935  28.455  27.650  1.00  0.00     0.034 A 
ATOM     60  C   UNL A   1      44.643  26.856  32.353  1.00  0.00     0.034 A 
ATOM     61  C   UNL A   1      41.010  29.299  27.201  1.00  0.00     0.049 A 
ATOM     62  C   UNL A   1      44.143  28.174  31.891  1.00  0.00     0.074 A 
ATOM     63  C   UNL A   1      41.777  29.366  26.054  1.00  0.00     0.029 A 
ATOM     64  N   UNL A   1      41.695  30.013  28.154  1.00  0.00    -0.354 N 
ATOM     65  N   UNL A   1      44.785  28.938  31.051  1.00  0.00    -0.248 NA
ATOM     66  C   UNL A   1      42.720  28.443  32.023  1.00  0.00     0.031 C 
ATOM     67  C   UNL A   1      43.089  29.680  26.512  1.00  0.00     0.029 A 
ATOM     68  C   UNL A   1      43.029  29.845  27.897  1.00  0.00     0.049 A 
ATOM     69  H   UNL A   1      41.301  30.543  28.883  1.00  0.00     0.167 HD
ATOM     70  C   UNL A   1      43.792  29.459  30.231  1.00  0.00     0.074 A 
ATOM     71  C   UNL A   1      42.540  29.205  30.940  1.00  0.00     0.031 C 
ATOM     72  C   UNL A   1      44.043  29.777  28.926  1.00  0.00     0.034 A 
BRANCH  59  73
ATOM     73  C   UNL A   1      38.752  29.003  28.409  1.00  0.00     0.023 A 
ATOM     74  C   UNL A   1      37.828  29.792  27.693  1.00  0.00     0.012 A 
ATOM     75  C   UNL A   1      38.649  29.013  29.820  1.00  0.00     0.148 A 
ATOM     76  C   UNL A   1      36.878  30.584  28.350  1.00  0.00     0.002 A 
ATOM     77  C   UNL A   1      37.648  29.729  30.463  1.00  0.00     0.091 A 
ATOM     78  F   UNL A   1      39.601  28.449  30.568  1.00  0.00    -0.205 F 
ATOM     79  C   UNL A   1      36.780  30.543  29.735  1.00  0.00     0.022 A 
BRANCH  77  80
ATOM     80  S   UNL A   1      37.442  29.653  32.247  1.00  0.00     0.127 S 
ATOM     81  O   UNL A   1      37.418  28.212  32.478  1.00  0.00    -0.237 OA
ATOM     82  O   UNL A   1      38.648  30.336  32.716  1.00  0.00    -0.237 OA
ATOM     83  O   UNL A   1      36.205  30.373  32.524  1.00  0.00    -0.744 OA
ENDBRANCH  77  80
ENDBRANCH  59  73
BRANCH  60  84
ATOM     84  C   UNL A   1      44.746  26.513  33.792  1.00  0.00     0.023 A 
ATOM     85  C   UNL A   1      45.995  26.586  34.438  1.00  0.00     0.012 A 
ATOM     86  C   UNL A   1      43.592  26.363  34.594  1.00  0.00     0.148 A 
ATOM     87  C   UNL A   1      46.089  26.532  35.835  1.00  0.00     0.002 A 
ATOM     88  C   UNL A   1      43.691  26.289  35.980  1.00  0.00     0.091 A 
ATOM     89  F   UNL A   1      42.386  26.390  34.009  1.00  0.00    -0.205 F 
ATOM     90  C   UNL A   1      44.938  26.385  36.606  1.00  0.00     0.022 A 
BRANCH  88  91
ATOM     91  S   UNL A   1      42.242  26.102  37.031  1.00  0.00     0.127 S 
ATOM     92  O   UNL A   1      41.783  24.757  36.679  1.00  0.00    -0.237 OA
ATOM     93  O   UNL A   1      42.819  26.221  38.367  1.00  0.00    -0.237 OA
ATOM     94  O   UNL A   1      41.326  27.165  36.636  1.00  0.00    -0.744 OA
ENDBRANCH  88  91
ENDBRANCH  60  84
BRANCH  72  95
ATOM     95  C   UNL A   1      45.474  29.783  28.447  1.00  0.00     0.023 A 
ATOM     96  C   UNL A   1      46.155  28.597  28.096  1.00  0.00     0.012 A 
ATOM     97  C   UNL A   1      46.073  31.020  28.156  1.00  0.00     0.148 A 
ATOM     98  C   UNL A   1      47.414  28.646  27.491  1.00  0.00     0.002 A 
ATOM     99  C   UNL A   1      47.303  31.065  27.511  1.00  0.00     0.091 A 
ATOM    100  F   UNL A   1      45.411  32.139  28.489  1.00  0.00    -0.205 F 
ATOM    101  C   UNL A   1      47.982  29.881  27.185  1.00  0.00     0.022 A 
BRANCH  99 102
ATOM    102  S   UNL A   1      48.022  32.620  26.977  1.00  0.00     0.127 S 
ATOM    103  O   UNL A   1      48.190  33.331  28.243  1.00  0.00    -0.237 OA
ATOM    104  O   UNL A   1      49.272  32.191  26.348  1.00  0.00    -0.237 OA
ATOM    105  O   UNL A   1      47.063  33.207  26.050  1.00  0.00    -0.744 OA
ENDBRANCH  99 102
ENDBRANCH  72  95
ENDBRANCH  46  47
ENDBRANCH  39  41
ENDBRANCH  38  39
ENDBRANCH  37  38
ENDBRANCH   1  37
TORSDOF 20
ENDMDL
