MODEL 1
REMARK VINA RESULT:     -11.3      0.000      0.000
REMARK SMILES CN(c1ccccc1)c1nc(OCC(=O)OCCOC(=O)c2ccc(-c3c4nc(c(-c5cccc(S(=O)(=O)[O-])c5F)c5ccc([nH]5)c(-c5cccc(S(=O)(=O)[O-])c5F)c5nc(c(-c6cccc(S(=O)(=O)[O-])c6F)c6ccc3[nH]6)C=C5)C=C4)cc2)cc(-c2ccncc2)n1
REMARK SMILES IDX 17 1 16 2 14 3 15 4 13 5 12 6 11 7 9 8 10 9 93 10 86 11
REMARK SMILES IDX 85 12 2 13 1 14 3 15 4 16 8 17 5 18 7 19 6 20 87 21 88 22
REMARK SMILES IDX 92 23 89 24 91 25 90 26 18 27 19 28 20 29 21 30 22 31 23 32
REMARK SMILES IDX 84 33 24 34 83 35 25 36 26 37 27 38 77 39 28 40 82 41 76 42
REMARK SMILES IDX 78 43 29 44 81 45 75 46 74 47 30 49 62 50 42 51 61 52 43 53
REMARK SMILES IDX 46 54 60 55 79 56 44 57 45 58 59 60 80 61 47 62 31 63 32 64
REMARK SMILES IDX 40 65 33 66 35 67 41 68 34 69 36 70 37 71 38 72 39 73 63 74
REMARK SMILES IDX 64 75 72 76 65 77 67 78 73 79 66 80 68 81 69 82 70 83 71 84
REMARK SMILES IDX 48 85 49 86 57 87 50 88 52 89 58 90 51 91 53 92 54 93 55 94
REMARK SMILES IDX 56 95
REMARK H PARENT 78 48 46 59
REMARK Flexibility Score: inf
ROOT
ATOM      1  C   UNL A   1      37.985  20.224  25.167  1.00  0.00     0.274 C 
ENDROOT
BRANCH   1   2
ATOM      2  O   UNL A   1      38.267  21.525  25.721  1.00  0.00    -0.460 OA
BRANCH   2   3
ATOM      3  C   UNL A   1      37.636  22.565  25.110  1.00  0.00     0.344 C 
ATOM      4  O   UNL A   1      37.718  23.737  25.466  1.00  0.00    -0.248 OA
BRANCH   3   5
ATOM      5  C   UNL A   1      36.832  22.149  23.883  1.00  0.00     0.353 C 
BRANCH   5   6
ATOM      6  O   UNL A   1      36.234  23.180  23.129  1.00  0.00    -0.466 OA
BRANCH   6   7
ATOM      7  C   UNL A   1      34.963  23.577  23.414  1.00  0.00     0.219 A 
ATOM      8  C   UNL A   1      32.898  22.752  24.012  1.00  0.00     0.233 A 
ATOM      9  N   UNL A   1      34.207  22.547  23.808  1.00  0.00    -0.177 NA
ATOM     10  N   UNL A   1      32.311  23.942  23.832  1.00  0.00    -0.212 NA
ATOM     11  C   UNL A   1      33.095  24.977  23.486  1.00  0.00     0.080 A 
ATOM     12  C   UNL A   1      34.453  24.841  23.274  1.00  0.00     0.097 A 
BRANCH   8  13
ATOM     13  N   UNL A   1      32.127  21.664  24.447  1.00  0.00    -0.314 N 
ATOM     14  C   UNL A   1      31.415  21.909  25.693  1.00  0.00     0.153 C 
BRANCH  13  15
ATOM     15  C   UNL A   1      32.386  20.328  24.095  1.00  0.00     0.043 A 
ATOM     16  C   UNL A   1      32.894  19.417  25.038  1.00  0.00     0.026 A 
ATOM     17  C   UNL A   1      32.162  19.860  22.793  1.00  0.00     0.026 A 
ATOM     18  C   UNL A   1      33.153  18.087  24.702  1.00  0.00     0.002 A 
ATOM     19  C   UNL A   1      32.431  18.532  22.448  1.00  0.00     0.002 A 
ATOM     20  C   UNL A   1      32.921  17.645  23.403  1.00  0.00     0.000 A 
ENDBRANCH  13  15
ENDBRANCH   8  13
BRANCH  11  21
ATOM     21  C   UNL A   1      32.382  26.238  23.276  1.00  0.00     0.004 A 
ATOM     22  C   UNL A   1      33.014  27.455  23.540  1.00  0.00     0.030 A 
ATOM     23  C   UNL A   1      31.077  26.277  22.774  1.00  0.00     0.030 A 
ATOM     24  C   UNL A   1      32.315  28.635  23.367  1.00  0.00     0.111 A 
ATOM     25  C   UNL A   1      30.463  27.512  22.610  1.00  0.00     0.111 A 
ATOM     26  N   UNL A   1      31.049  28.689  22.918  1.00  0.00    -0.265 NA
ENDBRANCH  11  21
ENDBRANCH   6   7
ENDBRANCH   5   6
ENDBRANCH   3   5
ENDBRANCH   2   3
ENDBRANCH   1   2
BRANCH   1  27
ATOM     27  C   UNL A   1      39.144  19.251  25.376  1.00  0.00     0.275 C 
BRANCH  27  28
ATOM     28  O   UNL A   1      39.979  19.670  26.473  1.00  0.00    -0.458 OA
BRANCH  28  29
ATOM     29  C   UNL A   1      41.266  19.876  26.122  1.00  0.00     0.338 C 
ATOM     30  O   UNL A   1      41.959  19.111  25.463  1.00  0.00    -0.246 OA
BRANCH  29  31
ATOM     31  C   UNL A   1      41.783  21.180  26.569  1.00  0.00     0.060 A 
ATOM     32  C   UNL A   1      42.150  21.399  27.899  1.00  0.00     0.016 A 
ATOM     33  C   UNL A   1      41.720  22.250  25.673  1.00  0.00     0.016 A 
ATOM     34  C   UNL A   1      42.404  22.701  28.343  1.00  0.00     0.010 A 
ATOM     35  C   UNL A   1      42.039  23.538  26.103  1.00  0.00     0.010 A 
ATOM     36  C   UNL A   1      42.370  23.780  27.444  1.00  0.00    -0.014 A 
BRANCH  36  37
ATOM     37  C   UNL A   1      42.794  25.142  27.857  1.00  0.00     0.031 A 
ATOM     38  C   UNL A   1      41.823  26.124  28.449  1.00  0.00     0.074 A 
ATOM     39  C   UNL A   1      44.054  25.527  27.578  1.00  0.00     0.049 A 
ATOM     40  N   UNL A   1      41.974  27.401  28.685  1.00  0.00    -0.248 NA
ATOM     41  C   UNL A   1      40.501  25.603  28.819  1.00  0.00     0.031 C 
ATOM     42  C   UNL A   1      45.074  24.677  26.960  1.00  0.00     0.029 A 
ATOM     43  N   UNL A   1      44.675  26.739  27.733  1.00  0.00    -0.354 N 
ATOM     44  C   UNL A   1      40.750  27.852  29.167  1.00  0.00     0.074 A 
ATOM     45  C   UNL A   1      39.869  26.703  29.212  1.00  0.00     0.031 C 
ATOM     46  C   UNL A   1      46.186  25.398  26.767  1.00  0.00     0.029 A 
ATOM     47  C   UNL A   1      45.943  26.769  27.202  1.00  0.00     0.049 A 
ATOM     48  H   UNL A   1      44.256  27.510  28.179  1.00  0.00     0.167 HD
ATOM     49  C   UNL A   1      40.401  29.105  29.548  1.00  0.00     0.034 A 
ATOM     50  C   UNL A   1      46.805  27.791  27.049  1.00  0.00     0.034 A 
ATOM     51  C   UNL A   1      41.313  30.220  29.581  1.00  0.00     0.049 A 
ATOM     52  C   UNL A   1      46.420  29.151  27.547  1.00  0.00     0.074 A 
ATOM     53  C   UNL A   1      41.085  31.504  30.045  1.00  0.00     0.029 A 
ATOM     54  N   UNL A   1      42.627  30.180  29.145  1.00  0.00    -0.354 N 
ATOM     55  N   UNL A   1      45.297  29.533  28.105  1.00  0.00    -0.248 NA
ATOM     56  C   UNL A   1      47.426  30.214  27.425  1.00  0.00     0.031 C 
ATOM     57  C   UNL A   1      42.266  32.241  29.894  1.00  0.00     0.029 A 
ATOM     58  C   UNL A   1      43.225  31.416  29.332  1.00  0.00     0.049 A 
ATOM     59  H   UNL A   1      43.070  29.392  28.757  1.00  0.00     0.167 HD
ATOM     60  C   UNL A   1      45.466  30.874  28.418  1.00  0.00     0.074 A 
ATOM     61  C   UNL A   1      46.810  31.233  28.010  1.00  0.00     0.031 C 
ATOM     62  C   UNL A   1      44.581  31.737  28.973  1.00  0.00     0.034 A 
BRANCH  49  63
ATOM     63  C   UNL A   1      38.994  29.348  30.028  1.00  0.00     0.023 A 
ATOM     64  C   UNL A   1      38.647  29.007  31.350  1.00  0.00     0.012 A 
ATOM     65  C   UNL A   1      38.058  30.025  29.221  1.00  0.00     0.148 A 
ATOM     66  C   UNL A   1      37.388  29.329  31.859  1.00  0.00     0.002 A 
ATOM     67  C   UNL A   1      36.816  30.371  29.745  1.00  0.00     0.091 A 
ATOM     68  F   UNL A   1      38.397  30.322  27.957  1.00  0.00    -0.205 F 
ATOM     69  C   UNL A   1      36.479  30.020  31.061  1.00  0.00     0.022 A 
BRANCH  67  70
ATOM     70  S   UNL A   1      35.614  31.335  28.818  1.00  0.00     0.127 S 
ATOM     71  O   UNL A   1      34.941  30.296  28.040  1.00  0.00    -0.237 OA
ATOM     72  O   UNL A   1      34.797  31.924  29.880  1.00  0.00    -0.237 OA
ATOM     73  O   UNL A   1      36.388  32.298  28.050  1.00  0.00    -0.744 OA
ENDBRANCH  67  70
ENDBRANCH  49  63
BRANCH  50  74
ATOM     74  C   UNL A   1      48.136  27.522  26.442  1.00  0.00     0.023 A 
ATOM     75  C   UNL A   1      49.167  27.009  27.248  1.00  0.00     0.012 A 
ATOM     76  C   UNL A   1      48.348  27.660  25.057  1.00  0.00     0.148 A 
ATOM     77  C   UNL A   1      50.391  26.644  26.686  1.00  0.00     0.002 A 
ATOM     78  C   UNL A   1      49.548  27.239  24.496  1.00  0.00     0.091 A 
ATOM     79  F   UNL A   1      47.362  28.166  24.301  1.00  0.00    -0.205 F 
ATOM     80  C   UNL A   1      50.577  26.742  25.309  1.00  0.00     0.022 A 
BRANCH  78  81
ATOM     81  S   UNL A   1      49.753  27.188  22.712  1.00  0.00     0.127 S 
ATOM     82  O   UNL A   1      51.125  26.711  22.574  1.00  0.00    -0.237 OA
ATOM     83  O   UNL A   1      48.726  26.232  22.295  1.00  0.00    -0.237 OA
ATOM     84  O   UNL A   1      49.491  28.557  22.280  1.00  0.00    -0.744 OA
ENDBRANCH  78  81
ENDBRANCH  50  74
BRANCH  62  85
ATOM     85  C   UNL A   1      45.041  33.152  29.181  1.00  0.00     0.023 A 
ATOM     86  C   UNL A   1      45.653  33.503  30.399  1.00  0.00     0.012 A 
ATOM     87  C   UNL A   1      44.919  34.115  28.161  1.00  0.00     0.148 A 
ATOM     88  C   UNL A   1      46.119  34.801  30.608  1.00  0.00     0.002 A 
ATOM     89  C   UNL A   1      45.413  35.398  28.366  1.00  0.00     0.091 A 
ATOM     90  F   UNL A   1      44.309  33.769  27.018  1.00  0.00    -0.205 F 
ATOM     91  C   UNL A   1      46.008  35.745  29.590  1.00  0.00     0.022 A 
BRANCH  89  92
ATOM     92  S   UNL A   1      45.359  36.636  27.066  1.00  0.00     0.127 S 
ATOM     93  O   UNL A   1      43.925  36.727  26.796  1.00  0.00    -0.237 OA
ATOM     94  O   UNL A   1      45.932  37.815  27.715  1.00  0.00    -0.237 OA
ATOM     95  O   UNL A   1      46.177  36.093  25.989  1.00  0.00    -0.744 OA
ENDBRANCH  89  92
ENDBRANCH  62  85
ENDBRANCH  36  37
ENDBRANCH  29  31
ENDBRANCH  28  29
ENDBRANCH  27  28
ENDBRANCH   1  27
TORSDOF 19
ENDMDL
MODEL 2
REMARK VINA RESULT:     -11.1      5.133      9.944
REMARK SMILES CN(c1ccccc1)c1nc(OCC(=O)OCCOC(=O)c2ccc(-c3c4nc(c(-c5cccc(S(=O)(=O)[O-])c5F)c5ccc([nH]5)c(-c5cccc(S(=O)(=O)[O-])c5F)c5nc(c(-c6cccc(S(=O)(=O)[O-])c6F)c6ccc3[nH]6)C=C5)C=C4)cc2)cc(-c2ccncc2)n1
REMARK SMILES IDX 17 1 16 2 14 3 15 4 13 5 12 6 11 7 9 8 10 9 93 10 86 11
REMARK SMILES IDX 85 12 2 13 1 14 3 15 4 16 8 17 5 18 7 19 6 20 87 21 88 22
REMARK SMILES IDX 92 23 89 24 91 25 90 26 18 27 19 28 20 29 21 30 22 31 23 32
REMARK SMILES IDX 84 33 24 34 83 35 25 36 26 37 27 38 77 39 28 40 82 41 76 42
REMARK SMILES IDX 78 43 29 44 81 45 75 46 74 47 30 49 62 50 42 51 61 52 43 53
REMARK SMILES IDX 46 54 60 55 79 56 44 57 45 58 59 60 80 61 47 62 31 63 32 64
REMARK SMILES IDX 40 65 33 66 35 67 41 68 34 69 36 70 37 71 38 72 39 73 63 74
REMARK SMILES IDX 64 75 72 76 65 77 67 78 73 79 66 80 68 81 69 82 70 83 71 84
REMARK SMILES IDX 48 85 49 86 57 87 50 88 52 89 58 90 51 91 53 92 54 93 55 94
REMARK SMILES IDX 56 95
REMARK H PARENT 78 48 46 59
REMARK Flexibility Score: inf
ROOT
ATOM      1  C   UNL A   1      31.446  28.437  25.058  1.00  0.00     0.274 C 
ENDROOT
BRANCH   1   2
ATOM      2  O   UNL A   1      32.284  27.758  24.101  1.00  0.00    -0.460 OA
BRANCH   2   3
ATOM      3  C   UNL A   1      31.632  27.231  23.029  1.00  0.00     0.344 C 
ATOM      4  O   UNL A   1      30.915  27.870  22.265  1.00  0.00    -0.248 OA
BRANCH   3   5
ATOM      5  C   UNL A   1      31.909  25.746  22.823  1.00  0.00     0.353 C 
BRANCH   5   6
ATOM      6  O   UNL A   1      33.241  25.374  22.547  1.00  0.00    -0.466 OA
BRANCH   6   7
ATOM      7  C   UNL A   1      33.809  24.341  23.227  1.00  0.00     0.219 A 
ATOM      8  C   UNL A   1      33.303  22.321  24.211  1.00  0.00     0.233 A 
ATOM      9  N   UNL A   1      32.929  23.359  23.449  1.00  0.00    -0.177 NA
ATOM     10  N   UNL A   1      34.518  22.226  24.766  1.00  0.00    -0.212 NA
ATOM     11  C   UNL A   1      35.406  23.196  24.491  1.00  0.00     0.080 A 
ATOM     12  C   UNL A   1      35.094  24.286  23.702  1.00  0.00     0.097 A 
BRANCH   8  13
ATOM     13  N   UNL A   1      32.373  21.291  24.413  1.00  0.00    -0.314 N 
ATOM     14  C   UNL A   1      31.426  21.556  25.486  1.00  0.00     0.153 C 
BRANCH  13  15
ATOM     15  C   UNL A   1      32.597  19.950  24.058  1.00  0.00     0.043 A 
ATOM     16  C   UNL A   1      33.223  19.060  24.948  1.00  0.00     0.026 A 
ATOM     17  C   UNL A   1      32.220  19.455  22.802  1.00  0.00     0.026 A 
ATOM     18  C   UNL A   1      33.449  17.725  24.609  1.00  0.00     0.002 A 
ATOM     19  C   UNL A   1      32.456  18.121  22.451  1.00  0.00     0.002 A 
ATOM     20  C   UNL A   1      33.064  17.256  23.357  1.00  0.00     0.000 A 
ENDBRANCH  13  15
ENDBRANCH   8  13
BRANCH  11  21
ATOM     21  C   UNL A   1      36.701  23.043  25.156  1.00  0.00     0.004 A 
ATOM     22  C   UNL A   1      37.211  24.077  25.945  1.00  0.00     0.030 A 
ATOM     23  C   UNL A   1      37.447  21.864  25.065  1.00  0.00     0.030 A 
ATOM     24  C   UNL A   1      38.450  23.928  26.539  1.00  0.00     0.111 A 
ATOM     25  C   UNL A   1      38.671  21.798  25.718  1.00  0.00     0.111 A 
ATOM     26  N   UNL A   1      39.196  22.815  26.433  1.00  0.00    -0.265 NA
ENDBRANCH  11  21
ENDBRANCH   6   7
ENDBRANCH   5   6
ENDBRANCH   3   5
ENDBRANCH   2   3
ENDBRANCH   1   2
BRANCH   1  27
ATOM     27  C   UNL A   1      31.916  29.867  25.317  1.00  0.00     0.275 C 
BRANCH  27  28
ATOM     28  O   UNL A   1      32.091  30.106  26.727  1.00  0.00    -0.458 OA
BRANCH  28  29
ATOM     29  C   UNL A   1      32.779  31.235  27.001  1.00  0.00     0.338 C 
ATOM     30  O   UNL A   1      32.356  32.378  26.876  1.00  0.00    -0.246 OA
BRANCH  29  31
ATOM     31  C   UNL A   1      34.124  30.974  27.540  1.00  0.00     0.060 A 
ATOM     32  C   UNL A   1      34.514  29.689  27.926  1.00  0.00     0.016 A 
ATOM     33  C   UNL A   1      34.935  32.072  27.834  1.00  0.00     0.016 A 
ATOM     34  C   UNL A   1      35.696  29.513  28.654  1.00  0.00     0.010 A 
ATOM     35  C   UNL A   1      36.146  31.885  28.501  1.00  0.00     0.010 A 
ATOM     36  C   UNL A   1      36.533  30.608  28.930  1.00  0.00    -0.014 A 
BRANCH  36  37
ATOM     37  C   UNL A   1      37.867  30.420  29.555  1.00  0.00     0.031 A 
ATOM     38  C   UNL A   1      38.911  29.535  28.935  1.00  0.00     0.074 A 
ATOM     39  C   UNL A   1      38.084  30.972  30.764  1.00  0.00     0.049 A 
ATOM     40  N   UNL A   1      40.043  29.112  29.434  1.00  0.00    -0.248 NA
ATOM     41  C   UNL A   1      38.645  29.055  27.573  1.00  0.00     0.031 C 
ATOM     42  C   UNL A   1      37.128  31.812  31.487  1.00  0.00     0.029 A 
ATOM     43  N   UNL A   1      39.154  30.871  31.615  1.00  0.00    -0.354 N 
ATOM     44  C   UNL A   1      40.592  28.263  28.479  1.00  0.00     0.074 A 
ATOM     45  C   UNL A   1      39.677  28.249  27.357  1.00  0.00     0.031 C 
ATOM     46  C   UNL A   1      37.642  32.131  32.682  1.00  0.00     0.029 A 
ATOM     47  C   UNL A   1      38.941  31.482  32.827  1.00  0.00     0.049 A 
ATOM     48  H   UNL A   1      39.991  30.408  31.381  1.00  0.00     0.167 HD
ATOM     49  C   UNL A   1      41.757  27.572  28.532  1.00  0.00     0.034 A 
ATOM     50  C   UNL A   1      39.688  31.493  33.948  1.00  0.00     0.034 A 
ATOM     51  C   UNL A   1      42.699  27.664  29.618  1.00  0.00     0.049 A 
ATOM     52  C   UNL A   1      41.006  30.781  33.952  1.00  0.00     0.074 A 
ATOM     53  C   UNL A   1      43.951  27.083  29.722  1.00  0.00     0.029 A 
ATOM     54  N   UNL A   1      42.498  28.390  30.781  1.00  0.00    -0.354 N 
ATOM     55  N   UNL A   1      41.561  30.076  32.996  1.00  0.00    -0.248 NA
ATOM     56  C   UNL A   1      41.816  30.888  35.172  1.00  0.00     0.031 C 
ATOM     57  C   UNL A   1      44.511  27.464  30.948  1.00  0.00     0.029 A 
ATOM     58  C   UNL A   1      43.604  28.277  31.607  1.00  0.00     0.049 A 
ATOM     59  H   UNL A   1      41.688  28.908  30.991  1.00  0.00     0.167 HD
ATOM     60  C   UNL A   1      42.793  29.671  33.490  1.00  0.00     0.074 A 
ATOM     61  C   UNL A   1      42.914  30.230  34.822  1.00  0.00     0.031 C 
ATOM     62  C   UNL A   1      43.730  28.888  32.904  1.00  0.00     0.034 A 
BRANCH  49  63
ATOM     63  C   UNL A   1      42.132  26.699  27.364  1.00  0.00     0.023 A 
ATOM     64  C   UNL A   1      42.544  27.299  26.158  1.00  0.00     0.012 A 
ATOM     65  C   UNL A   1      42.200  25.297  27.496  1.00  0.00     0.148 A 
ATOM     66  C   UNL A   1      43.011  26.519  25.099  1.00  0.00     0.002 A 
ATOM     67  C   UNL A   1      42.696  24.528  26.448  1.00  0.00     0.091 A 
ATOM     68  F   UNL A   1      41.783  24.741  28.643  1.00  0.00    -0.205 F 
ATOM     69  C   UNL A   1      43.098  25.137  25.248  1.00  0.00     0.022 A 
BRANCH  67  70
ATOM     70  S   UNL A   1      42.922  22.749  26.582  1.00  0.00     0.127 S 
ATOM     71  O   UNL A   1      42.394  22.288  25.298  1.00  0.00    -0.237 OA
ATOM     72  O   UNL A   1      44.373  22.626  26.722  1.00  0.00    -0.237 OA
ATOM     73  O   UNL A   1      42.167  22.343  27.758  1.00  0.00    -0.744 OA
ENDBRANCH  67  70
ENDBRANCH  49  63
BRANCH  50  74
ATOM     74  C   UNL A   1      39.203  32.262  35.125  1.00  0.00     0.023 A 
ATOM     75  C   UNL A   1      38.413  31.614  36.091  1.00  0.00     0.012 A 
ATOM     76  C   UNL A   1      39.616  33.589  35.351  1.00  0.00     0.148 A 
ATOM     77  C   UNL A   1      38.036  32.277  37.259  1.00  0.00     0.002 A 
ATOM     78  C   UNL A   1      39.286  34.223  36.543  1.00  0.00     0.091 A 
ATOM     79  F   UNL A   1      40.356  34.202  34.415  1.00  0.00    -0.205 F 
ATOM     80  C   UNL A   1      38.485  33.574  37.494  1.00  0.00     0.022 A 
BRANCH  78  81
ATOM     81  S   UNL A   1      39.994  35.823  36.952  1.00  0.00     0.127 S 
ATOM     82  O   UNL A   1      39.307  36.152  38.198  1.00  0.00    -0.237 OA
ATOM     83  O   UNL A   1      41.418  35.519  37.099  1.00  0.00    -0.237 OA
ATOM     84  O   UNL A   1      39.686  36.658  35.797  1.00  0.00    -0.744 OA
ENDBRANCH  78  81
ENDBRANCH  50  74
BRANCH  62  85
ATOM     85  C   UNL A   1      44.974  28.597  33.694  1.00  0.00     0.023 A 
ATOM     86  C   UNL A   1      46.065  29.483  33.607  1.00  0.00     0.012 A 
ATOM     87  C   UNL A   1      45.045  27.488  34.557  1.00  0.00     0.148 A 
ATOM     88  C   UNL A   1      47.220  29.256  34.354  1.00  0.00     0.002 A 
ATOM     89  C   UNL A   1      46.189  27.286  35.321  1.00  0.00     0.091 A 
ATOM     90  F   UNL A   1      44.006  26.641  34.606  1.00  0.00    -0.205 F 
ATOM     91  C   UNL A   1      47.279  28.164  35.218  1.00  0.00     0.022 A 
BRANCH  89  92
ATOM     92  S   UNL A   1      46.294  25.935  36.501  1.00  0.00     0.127 S 
ATOM     93  O   UNL A   1      45.153  26.206  37.373  1.00  0.00    -0.237 OA
ATOM     94  O   UNL A   1      46.144  24.751  35.653  1.00  0.00    -0.237 OA
ATOM     95  O   UNL A   1      47.611  26.063  37.112  1.00  0.00    -0.744 OA
ENDBRANCH  89  92
ENDBRANCH  62  85
ENDBRANCH  36  37
ENDBRANCH  29  31
ENDBRANCH  28  29
ENDBRANCH  27  28
ENDBRANCH   1  27
TORSDOF 19
ENDMDL
MODEL 3
REMARK VINA RESULT:     -11.0      1.202      3.514
REMARK SMILES CN(c1ccccc1)c1nc(OCC(=O)OCCOC(=O)c2ccc(-c3c4nc(c(-c5cccc(S(=O)(=O)[O-])c5F)c5ccc([nH]5)c(-c5cccc(S(=O)(=O)[O-])c5F)c5nc(c(-c6cccc(S(=O)(=O)[O-])c6F)c6ccc3[nH]6)C=C5)C=C4)cc2)cc(-c2ccncc2)n1
REMARK SMILES IDX 17 1 16 2 14 3 15 4 13 5 12 6 11 7 9 8 10 9 93 10 86 11
REMARK SMILES IDX 85 12 2 13 1 14 3 15 4 16 8 17 5 18 7 19 6 20 87 21 88 22
REMARK SMILES IDX 92 23 89 24 91 25 90 26 18 27 19 28 20 29 21 30 22 31 23 32
REMARK SMILES IDX 84 33 24 34 83 35 25 36 26 37 27 38 77 39 28 40 82 41 76 42
REMARK SMILES IDX 78 43 29 44 81 45 75 46 74 47 30 49 62 50 42 51 61 52 43 53
REMARK SMILES IDX 46 54 60 55 79 56 44 57 45 58 59 60 80 61 47 62 31 63 32 64
REMARK SMILES IDX 40 65 33 66 35 67 41 68 34 69 36 70 37 71 38 72 39 73 63 74
REMARK SMILES IDX 64 75 72 76 65 77 67 78 73 79 66 80 68 81 69 82 70 83 71 84
REMARK SMILES IDX 48 85 49 86 57 87 50 88 52 89 58 90 51 91 53 92 54 93 55 94
REMARK SMILES IDX 56 95
REMARK H PARENT 78 48 46 59
REMARK Flexibility Score: inf
ROOT
ATOM      1  C   UNL A   1      38.510  20.686  25.358  1.00  0.00     0.274 C 
ENDROOT
BRANCH   1   2
ATOM      2  O   UNL A   1      38.290  21.821  26.219  1.00  0.00    -0.460 OA
BRANCH   2   3
ATOM      3  C   UNL A   1      37.865  22.952  25.591  1.00  0.00     0.344 C 
ATOM      4  O   UNL A   1      38.156  24.093  25.936  1.00  0.00    -0.248 OA
BRANCH   3   5
ATOM      5  C   UNL A   1      37.008  22.675  24.360  1.00  0.00     0.353 C 
BRANCH   5   6
ATOM      6  O   UNL A   1      35.708  23.221  24.349  1.00  0.00    -0.466 OA
BRANCH   6   7
ATOM      7  C   UNL A   1      34.633  22.408  24.544  1.00  0.00     0.219 A 
ATOM      8  C   UNL A   1      32.477  22.415  25.354  1.00  0.00     0.233 A 
ATOM      9  N   UNL A   1      33.578  23.093  24.999  1.00  0.00    -0.177 NA
ATOM     10  N   UNL A   1      32.387  21.082  25.277  1.00  0.00    -0.212 NA
ATOM     11  C   UNL A   1      33.436  20.414  24.769  1.00  0.00     0.080 A 
ATOM     12  C   UNL A   1      34.596  21.049  24.371  1.00  0.00     0.097 A 
BRANCH   8  13
ATOM     13  N   UNL A   1      31.374  23.155  25.807  1.00  0.00    -0.314 N 
ATOM     14  C   UNL A   1      30.278  22.333  26.298  1.00  0.00     0.153 C 
BRANCH  13  15
ATOM     15  C   UNL A   1      31.071  24.457  25.374  1.00  0.00     0.043 A 
ATOM     16  C   UNL A   1      30.486  24.683  24.115  1.00  0.00     0.026 A 
ATOM     17  C   UNL A   1      31.351  25.575  26.171  1.00  0.00     0.026 A 
ATOM     18  C   UNL A   1      30.177  25.971  23.675  1.00  0.00     0.002 A 
ATOM     19  C   UNL A   1      31.054  26.868  25.730  1.00  0.00     0.002 A 
ATOM     20  C   UNL A   1      30.462  27.065  24.485  1.00  0.00     0.000 A 
ENDBRANCH  13  15
ENDBRANCH   8  13
BRANCH  11  21
ATOM     21  C   UNL A   1      33.279  18.959  24.746  1.00  0.00     0.004 A 
ATOM     22  C   UNL A   1      33.727  18.222  23.647  1.00  0.00     0.030 A 
ATOM     23  C   UNL A   1      32.723  18.256  25.819  1.00  0.00     0.030 A 
ATOM     24  C   UNL A   1      33.542  16.853  23.627  1.00  0.00     0.111 A 
ATOM     25  C   UNL A   1      32.599  16.876  25.719  1.00  0.00     0.111 A 
ATOM     26  N   UNL A   1      32.977  16.165  24.636  1.00  0.00    -0.265 NA
ENDBRANCH  11  21
ENDBRANCH   6   7
ENDBRANCH   5   6
ENDBRANCH   3   5
ENDBRANCH   2   3
ENDBRANCH   1   2
BRANCH   1  27
ATOM     27  C   UNL A   1      39.319  19.591  26.052  1.00  0.00     0.275 C 
BRANCH  27  28
ATOM     28  O   UNL A   1      40.520  19.291  25.315  1.00  0.00    -0.458 OA
BRANCH  28  29
ATOM     29  C   UNL A   1      41.648  19.428  26.044  1.00  0.00     0.338 C 
ATOM     30  O   UNL A   1      42.414  18.522  26.352  1.00  0.00    -0.246 OA
BRANCH  29  31
ATOM     31  C   UNL A   1      41.930  20.824  26.415  1.00  0.00     0.060 A 
ATOM     32  C   UNL A   1      42.056  21.821  25.444  1.00  0.00     0.016 A 
ATOM     33  C   UNL A   1      42.256  21.095  27.746  1.00  0.00     0.016 A 
ATOM     34  C   UNL A   1      42.559  23.077  25.802  1.00  0.00     0.010 A 
ATOM     35  C   UNL A   1      42.694  22.368  28.111  1.00  0.00     0.010 A 
ATOM     36  C   UNL A   1      42.863  23.367  27.142  1.00  0.00    -0.014 A 
BRANCH  36  37
ATOM     37  C   UNL A   1      43.243  24.739  27.568  1.00  0.00     0.031 A 
ATOM     38  C   UNL A   1      42.242  25.679  28.180  1.00  0.00     0.074 A 
ATOM     39  C   UNL A   1      44.485  25.171  27.284  1.00  0.00     0.049 A 
ATOM     40  N   UNL A   1      42.350  26.958  28.430  1.00  0.00    -0.248 NA
ATOM     41  C   UNL A   1      40.942  25.107  28.554  1.00  0.00     0.031 C 
ATOM     42  C   UNL A   1      45.529  24.365  26.649  1.00  0.00     0.029 A 
ATOM     43  N   UNL A   1      45.065  26.403  27.448  1.00  0.00    -0.354 N 
ATOM     44  C   UNL A   1      41.115  27.359  28.927  1.00  0.00     0.074 A 
ATOM     45  C   UNL A   1      40.276  26.179  28.965  1.00  0.00     0.031 C 
ATOM     46  C   UNL A   1      46.613  25.127  26.454  1.00  0.00     0.029 A 
ATOM     47  C   UNL A   1      46.326  26.483  26.908  1.00  0.00     0.049 A 
ATOM     48  H   UNL A   1      44.622  27.153  27.907  1.00  0.00     0.167 HD
ATOM     49  C   UNL A   1      40.725  28.595  29.325  1.00  0.00     0.034 A 
ATOM     50  C   UNL A   1      47.151  27.537  26.760  1.00  0.00     0.034 A 
ATOM     51  C   UNL A   1      41.597  29.741  29.364  1.00  0.00     0.049 A 
ATOM     52  C   UNL A   1      46.722  28.877  27.277  1.00  0.00     0.074 A 
ATOM     53  C   UNL A   1      41.328  31.011  29.844  1.00  0.00     0.029 A 
ATOM     54  N   UNL A   1      42.908  29.753  28.917  1.00  0.00    -0.354 N 
ATOM     55  N   UNL A   1      45.590  29.212  27.848  1.00  0.00    -0.248 NA
ATOM     56  C   UNL A   1      47.688  29.977  27.159  1.00  0.00     0.031 C 
ATOM     57  C   UNL A   1      42.481  31.790  29.693  1.00  0.00     0.029 A 
ATOM     58  C   UNL A   1      43.464  31.006  29.114  1.00  0.00     0.049 A 
ATOM     59  H   UNL A   1      43.376  28.985  28.517  1.00  0.00     0.167 HD
ATOM     60  C   UNL A   1      45.714  30.555  28.176  1.00  0.00     0.074 A 
ATOM     61  C   UNL A   1      47.042  30.966  27.762  1.00  0.00     0.031 C 
ATOM     62  C   UNL A   1      44.805  31.380  28.748  1.00  0.00     0.034 A 
BRANCH  49  63
ATOM     63  C   UNL A   1      39.315  28.782  29.819  1.00  0.00     0.023 A 
ATOM     64  C   UNL A   1      39.003  28.467  31.156  1.00  0.00     0.012 A 
ATOM     65  C   UNL A   1      38.334  29.385  29.006  1.00  0.00     0.148 A 
ATOM     66  C   UNL A   1      37.737  28.742  31.675  1.00  0.00     0.002 A 
ATOM     67  C   UNL A   1      37.084  29.685  29.538  1.00  0.00     0.091 A 
ATOM     68  F   UNL A   1      38.640  29.658  27.729  1.00  0.00    -0.205 F 
ATOM     69  C   UNL A   1      36.783  29.360  30.870  1.00  0.00     0.022 A 
BRANCH  67  70
ATOM     70  S   UNL A   1      35.821  30.557  28.600  1.00  0.00     0.127 S 
ATOM     71  O   UNL A   1      36.632  31.305  27.640  1.00  0.00    -0.237 OA
ATOM     72  O   UNL A   1      35.048  29.460  28.018  1.00  0.00    -0.237 OA
ATOM     73  O   UNL A   1      35.091  31.358  29.572  1.00  0.00    -0.744 OA
ENDBRANCH  67  70
ENDBRANCH  49  63
BRANCH  50  74
ATOM     74  C   UNL A   1      48.485  27.322  26.139  1.00  0.00     0.023 A 
ATOM     75  C   UNL A   1      49.525  26.781  26.916  1.00  0.00     0.012 A 
ATOM     76  C   UNL A   1      48.694  27.539  24.764  1.00  0.00     0.148 A 
ATOM     77  C   UNL A   1      50.753  26.467  26.334  1.00  0.00     0.002 A 
ATOM     78  C   UNL A   1      49.900  27.169  24.181  1.00  0.00     0.091 A 
ATOM     79  F   UNL A   1      47.700  28.071  24.037  1.00  0.00    -0.205 F 
ATOM     80  C   UNL A   1      50.937  26.644  24.965  1.00  0.00     0.022 A 
BRANCH  78  81
ATOM     81  S   UNL A   1      50.104  27.219  22.396  1.00  0.00     0.127 S 
ATOM     82  O   UNL A   1      49.028  26.344  21.940  1.00  0.00    -0.237 OA
ATOM     83  O   UNL A   1      49.913  28.637  22.088  1.00  0.00    -0.237 OA
ATOM     84  O   UNL A   1      51.466  26.748  22.176  1.00  0.00    -0.744 OA
ENDBRANCH  78  81
ENDBRANCH  50  74
BRANCH  62  85
ATOM     85  C   UNL A   1      45.216  32.807  28.969  1.00  0.00     0.023 A 
ATOM     86  C   UNL A   1      45.851  33.160  30.175  1.00  0.00     0.012 A 
ATOM     87  C   UNL A   1      45.026  33.782  27.972  1.00  0.00     0.148 A 
ATOM     88  C   UNL A   1      46.272  34.471  30.394  1.00  0.00     0.002 A 
ATOM     89  C   UNL A   1      45.477  35.080  28.186  1.00  0.00     0.091 A 
ATOM     90  F   UNL A   1      44.395  33.434  26.841  1.00  0.00    -0.205 F 
ATOM     91  C   UNL A   1      46.094  35.428  29.398  1.00  0.00     0.022 A 
BRANCH  89  92
ATOM     92  S   UNL A   1      45.335  36.338  26.911  1.00  0.00     0.127 S 
ATOM     93  O   UNL A   1      43.886  36.458  26.766  1.00  0.00    -0.237 OA
ATOM     94  O   UNL A   1      45.984  37.497  27.525  1.00  0.00    -0.237 OA
ATOM     95  O   UNL A   1      46.050  35.797  25.762  1.00  0.00    -0.744 OA
ENDBRANCH  89  92
ENDBRANCH  62  85
ENDBRANCH  36  37
ENDBRANCH  29  31
ENDBRANCH  28  29
ENDBRANCH  27  28
ENDBRANCH   1  27
TORSDOF 19
ENDMDL
