MODEL 1
REMARK VINA RESULT:     -11.6      0.000      0.000
REMARK SMILES CCOc1cc(C[NH+]2CCC3(CC2)[C@H](C(=O)OCCOC(=O)c2ccc(-c4c5nc(c(-c6cccc(S(=O)(=O)[O-])c6F)c6ccc([nH]6)c(-c6cccc(S(=O)(=O)[O-])c6F)c6nc(c(-c7cccc(S(=O)(=O)[O-])c7F)c7ccc4[nH]7)C=C6)C=C5)cc2)CC(=O)N3C)ccc1OC
REMARK SMILES IDX 18 1 17 2 15 3 16 4 14 5 8 6 9 7 13 8 10 10 12 11 11 12
REMARK SMILES IDX 89 13 86 14 87 15 90 16 88 17 7 18 6 19 4 20 5 21 93 22
REMARK SMILES IDX 92 23 91 24 3 25 2 26 1 27 94 28 95 29 19 30 20 31 21 32
REMARK SMILES IDX 22 33 23 34 24 35 85 36 25 37 84 38 26 39 27 40 28 41 78 42
REMARK SMILES IDX 29 43 83 44 77 45 79 46 30 47 82 48 76 49 75 50 31 52 63 53
REMARK SMILES IDX 43 54 62 55 44 56 47 57 61 58 80 59 45 60 46 61 60 63 81 64
REMARK SMILES IDX 48 65 32 66 33 67 41 68 34 69 36 70 42 71 35 72 37 73 38 74
REMARK SMILES IDX 39 75 40 76 64 77 65 78 73 79 66 80 68 81 74 82 67 83 69 84
REMARK SMILES IDX 70 85 71 86 72 87 49 88 50 89 58 90 51 91 53 92 59 93 52 94
REMARK SMILES IDX 54 95 55 96 56 97 57 98
REMARK H PARENT 8 9 79 51 47 62
REMARK Flexibility Score: inf
ROOT
ATOM      1  C   UNL A   1      35.911  21.548  26.380  1.00  0.00     0.274 C 
ENDROOT
BRANCH   1   2
ATOM      2  O   UNL A   1      34.913  22.545  26.045  1.00  0.00    -0.462 OA
BRANCH   2   3
ATOM      3  C   UNL A   1      33.777  22.501  26.812  1.00  0.00     0.311 C 
ATOM      4  O   UNL A   1      33.796  22.630  28.032  1.00  0.00    -0.252 OA
BRANCH   3   5
ATOM      5  C   UNL A   1      32.480  22.434  25.984  1.00  0.00     0.134 C 
ATOM      6  N   UNL A   1      31.150  25.866  23.653  1.00  0.00    -0.331 N 
ATOM      7  C   UNL A   1      32.591  25.714  23.815  1.00  0.00     0.265 C 
ATOM      8  C   UNL A   1      30.479  24.604  23.390  1.00  0.00     0.265 C 
ATOM      9  H   UNL A   1      31.086  26.403  22.788  1.00  0.00     0.348 HD
ATOM     10  C   UNL A   1      33.073  24.579  24.728  1.00  0.00     0.091 C 
ATOM     11  C   UNL A   1      30.818  23.450  24.340  1.00  0.00     0.091 C 
ATOM     12  C   UNL A   1      32.325  23.236  24.655  1.00  0.00     0.067 C 
ATOM     13  N   UNL A   1      32.848  22.255  23.690  1.00  0.00    -0.339 N 
ATOM     14  C   UNL A   1      32.202  20.985  25.572  1.00  0.00     0.118 C 
ATOM     15  C   UNL A   1      32.711  20.941  24.159  1.00  0.00     0.223 C 
ATOM     16  C   UNL A   1      32.881  22.473  22.261  1.00  0.00     0.147 C 
ATOM     17  O   UNL A   1      32.848  19.922  23.501  1.00  0.00    -0.275 OA
BRANCH   6  18
ATOM     18  C   UNL A   1      30.425  26.845  24.493  1.00  0.00     0.299 C 
BRANCH  18  19
ATOM     19  C   UNL A   1      30.901  28.274  24.354  1.00  0.00     0.010 A 
ATOM     20  C   UNL A   1      30.156  30.563  23.983  1.00  0.00     0.161 A 
ATOM     21  C   UNL A   1      30.196  29.217  23.579  1.00  0.00     0.060 A 
ATOM     22  C   UNL A   1      30.864  30.933  25.116  1.00  0.00     0.160 A 
ATOM     23  C   UNL A   1      31.806  30.039  25.638  1.00  0.00     0.051 A 
ATOM     24  C   UNL A   1      31.858  28.716  25.250  1.00  0.00     0.013 A 
BRANCH  20  25
ATOM     25  O   UNL A   1      29.136  31.348  23.519  1.00  0.00    -0.490 OA
BRANCH  25  26
ATOM     26  C   UNL A   1      29.091  31.470  22.096  1.00  0.00     0.226 C 
ATOM     27  C   UNL A   1      27.870  32.301  21.733  1.00  0.00     0.049 C 
ENDBRANCH  25  26
ENDBRANCH  20  25
BRANCH  22  28
ATOM     28  O   UNL A   1      30.675  32.014  25.931  1.00  0.00    -0.493 OA
ATOM     29  C   UNL A   1      31.638  32.431  26.883  1.00  0.00     0.278 C 
ENDBRANCH  22  28
ENDBRANCH  18  19
ENDBRANCH   6  18
ENDBRANCH   3   5
ENDBRANCH   2   3
ENDBRANCH   1   2
BRANCH   1  30
ATOM     30  C   UNL A   1      36.724  21.067  25.159  1.00  0.00     0.275 C 
BRANCH  30  31
ATOM     31  O   UNL A   1      38.011  21.693  24.967  1.00  0.00    -0.458 OA
BRANCH  31  32
ATOM     32  C   UNL A   1      38.936  21.538  25.948  1.00  0.00     0.338 C 
ATOM     33  O   UNL A   1      39.198  20.489  26.515  1.00  0.00    -0.246 OA
BRANCH  32  34
ATOM     34  C   UNL A   1      39.370  22.883  26.421  1.00  0.00     0.060 A 
ATOM     35  C   UNL A   1      40.498  22.882  27.220  1.00  0.00     0.016 A 
ATOM     36  C   UNL A   1      38.664  24.082  26.269  1.00  0.00     0.016 A 
ATOM     37  C   UNL A   1      40.802  23.997  28.000  1.00  0.00     0.010 A 
ATOM     38  C   UNL A   1      39.141  25.275  26.879  1.00  0.00     0.010 A 
ATOM     39  C   UNL A   1      40.242  25.255  27.752  1.00  0.00    -0.014 A 
BRANCH  39  40
ATOM     40  C   UNL A   1      40.946  26.473  28.306  1.00  0.00     0.031 A 
ATOM     41  C   UNL A   1      40.256  27.543  29.123  1.00  0.00     0.074 A 
ATOM     42  C   UNL A   1      42.278  26.620  28.083  1.00  0.00     0.049 A 
ATOM     43  N   UNL A   1      40.689  28.742  29.434  1.00  0.00    -0.248 NA
ATOM     44  C   UNL A   1      38.929  27.233  29.674  1.00  0.00     0.031 C 
ATOM     45  C   UNL A   1      43.132  25.667  27.364  1.00  0.00     0.029 A 
ATOM     46  N   UNL A   1      43.165  27.614  28.440  1.00  0.00    -0.354 N 
ATOM     47  C   UNL A   1      39.661  29.365  30.135  1.00  0.00     0.074 A 
ATOM     48  C   UNL A   1      38.599  28.384  30.255  1.00  0.00     0.031 C 
ATOM     49  C   UNL A   1      44.407  26.046  27.436  1.00  0.00     0.029 A 
ATOM     50  C   UNL A   1      44.444  27.391  27.972  1.00  0.00     0.049 A 
ATOM     51  H   UNL A   1      42.912  28.401  28.975  1.00  0.00     0.167 HD
ATOM     52  C   UNL A   1      39.606  30.637  30.612  1.00  0.00     0.034 A 
ATOM     53  C   UNL A   1      45.516  28.194  27.841  1.00  0.00     0.034 A 
ATOM     54  C   UNL A   1      40.689  31.590  30.528  1.00  0.00     0.049 A 
ATOM     55  C   UNL A   1      45.397  29.619  28.266  1.00  0.00     0.074 A 
ATOM     56  C   UNL A   1      40.715  32.909  30.955  1.00  0.00     0.029 A 
ATOM     57  N   UNL A   1      41.940  31.332  29.985  1.00  0.00    -0.354 N 
ATOM     58  N   UNL A   1      44.393  30.215  28.855  1.00  0.00    -0.248 NA
ATOM     59  C   UNL A   1      46.549  30.487  27.993  1.00  0.00     0.031 C 
ATOM     60  C   UNL A   1      41.966  33.454  30.641  1.00  0.00     0.029 A 
ATOM     61  C   UNL A   1      42.737  32.467  30.052  1.00  0.00     0.049 A 
ATOM     62  H   UNL A   1      42.222  30.469  29.605  1.00  0.00     0.167 HD
ATOM     63  C   UNL A   1      44.793  31.528  29.040  1.00  0.00     0.074 A 
ATOM     64  C   UNL A   1      46.144  31.633  28.523  1.00  0.00     0.031 C 
ATOM     65  C   UNL A   1      44.093  32.557  29.575  1.00  0.00     0.034 A 
BRANCH  52  66
ATOM     66  C   UNL A   1      38.311  31.109  31.236  1.00  0.00     0.023 A 
ATOM     67  C   UNL A   1      38.097  30.990  32.623  1.00  0.00     0.012 A 
ATOM     68  C   UNL A   1      37.330  31.743  30.443  1.00  0.00     0.148 A 
ATOM     69  C   UNL A   1      36.916  31.461  33.203  1.00  0.00     0.002 A 
ATOM     70  C   UNL A   1      36.173  32.242  31.034  1.00  0.00     0.091 A 
ATOM     71  F   UNL A   1      37.543  31.844  29.123  1.00  0.00    -0.205 F 
ATOM     72  C   UNL A   1      35.959  32.092  32.411  1.00  0.00     0.022 A 
BRANCH  70  73
ATOM     73  S   UNL A   1      34.918  33.131  30.102  1.00  0.00     0.127 S 
ATOM     74  O   UNL A   1      34.394  32.078  29.235  1.00  0.00    -0.237 OA
ATOM     75  O   UNL A   1      33.999  33.568  31.154  1.00  0.00    -0.237 OA
ATOM     76  O   UNL A   1      35.617  34.214  29.423  1.00  0.00    -0.744 OA
ENDBRANCH  70  73
ENDBRANCH  52  66
BRANCH  53  77
ATOM     77  C   UNL A   1      46.754  27.671  27.188  1.00  0.00     0.023 A 
ATOM     78  C   UNL A   1      47.627  26.842  27.914  1.00  0.00     0.012 A 
ATOM     79  C   UNL A   1      47.019  27.920  25.824  1.00  0.00     0.148 A 
ATOM     80  C   UNL A   1      48.738  26.268  27.293  1.00  0.00     0.002 A 
ATOM     81  C   UNL A   1      48.076  27.278  25.192  1.00  0.00     0.091 A 
ATOM     82  F   UNL A   1      46.193  28.737  25.154  1.00  0.00    -0.205 F 
ATOM     83  C   UNL A   1      48.949  26.466  25.929  1.00  0.00     0.022 A 
BRANCH  81  84
ATOM     84  S   UNL A   1      48.297  27.329  23.410  1.00  0.00     0.127 S 
ATOM     85  O   UNL A   1      49.596  27.984  23.288  1.00  0.00    -0.237 OA
ATOM     86  O   UNL A   1      48.288  25.906  23.063  1.00  0.00    -0.237 OA
ATOM     87  O   UNL A   1      47.157  28.075  22.894  1.00  0.00    -0.744 OA
ENDBRANCH  81  84
ENDBRANCH  53  77
BRANCH  65  88
ATOM     88  C   UNL A   1      44.802  33.880  29.675  1.00  0.00     0.023 A 
ATOM     89  C   UNL A   1      45.667  34.137  30.756  1.00  0.00     0.012 A 
ATOM     90  C   UNL A   1      44.623  34.860  28.680  1.00  0.00     0.148 A 
ATOM     91  C   UNL A   1      46.319  35.365  30.863  1.00  0.00     0.002 A 
ATOM     92  C   UNL A   1      45.313  36.061  28.767  1.00  0.00     0.091 A 
ATOM     93  F   UNL A   1      43.770  34.605  27.678  1.00  0.00    -0.205 F 
ATOM     94  C   UNL A   1      46.151  36.322  29.865  1.00  0.00     0.022 A 
BRANCH  92  95
ATOM     95  S   UNL A   1      45.226  37.314  27.484  1.00  0.00     0.127 S 
ATOM     96  O   UNL A   1      45.485  38.537  28.243  1.00  0.00    -0.237 OA
ATOM     97  O   UNL A   1      46.309  36.912  26.586  1.00  0.00    -0.237 OA
ATOM     98  O   UNL A   1      43.892  37.208  26.909  1.00  0.00    -0.744 OA
ENDBRANCH  92  95
ENDBRANCH  65  88
ENDBRANCH  39  40
ENDBRANCH  32  34
ENDBRANCH  31  32
ENDBRANCH  30  31
ENDBRANCH   1  30
TORSDOF 19
ENDMDL
MODEL 2
REMARK VINA RESULT:     -11.4      2.812      7.891
REMARK SMILES CCOc1cc(C[NH+]2CCC3(CC2)[C@H](C(=O)OCCOC(=O)c2ccc(-c4c5nc(c(-c6cccc(S(=O)(=O)[O-])c6F)c6ccc([nH]6)c(-c6cccc(S(=O)(=O)[O-])c6F)c6nc(c(-c7cccc(S(=O)(=O)[O-])c7F)c7ccc4[nH]7)C=C6)C=C5)cc2)CC(=O)N3C)ccc1OC
REMARK SMILES IDX 18 1 17 2 15 3 16 4 14 5 8 6 9 7 13 8 10 10 12 11 11 12
REMARK SMILES IDX 89 13 86 14 87 15 90 16 88 17 7 18 6 19 4 20 5 21 93 22
REMARK SMILES IDX 92 23 91 24 3 25 2 26 1 27 94 28 95 29 19 30 20 31 21 32
REMARK SMILES IDX 22 33 23 34 24 35 85 36 25 37 84 38 26 39 27 40 28 41 78 42
REMARK SMILES IDX 29 43 83 44 77 45 79 46 30 47 82 48 76 49 75 50 31 52 63 53
REMARK SMILES IDX 43 54 62 55 44 56 47 57 61 58 80 59 45 60 46 61 60 63 81 64
REMARK SMILES IDX 48 65 32 66 33 67 41 68 34 69 36 70 42 71 35 72 37 73 38 74
REMARK SMILES IDX 39 75 40 76 64 77 65 78 73 79 66 80 68 81 74 82 67 83 69 84
REMARK SMILES IDX 70 85 71 86 72 87 49 88 50 89 58 90 51 91 53 92 59 93 52 94
REMARK SMILES IDX 54 95 55 96 56 97 57 98
REMARK H PARENT 8 9 79 51 47 62
REMARK Flexibility Score: inf
ROOT
ATOM      1  C   UNL A   1      37.418  21.309  24.926  1.00  0.00     0.274 C 
ENDROOT
BRANCH   1   2
ATOM      2  O   UNL A   1      36.201  21.026  25.661  1.00  0.00    -0.462 OA
BRANCH   2   3
ATOM      3  C   UNL A   1      35.430  20.024  25.129  1.00  0.00     0.311 C 
ATOM      4  O   UNL A   1      35.910  19.009  24.634  1.00  0.00    -0.252 OA
BRANCH   3   5
ATOM      5  C   UNL A   1      33.920  20.226  25.358  1.00  0.00     0.134 C 
ATOM      6  N   UNL A   1      32.076  24.123  24.725  1.00  0.00    -0.331 N 
ATOM      7  C   UNL A   1      33.228  23.809  23.888  1.00  0.00     0.265 C 
ATOM      8  C   UNL A   1      31.173  22.996  24.881  1.00  0.00     0.265 C 
ATOM      9  H   UNL A   1      31.576  24.807  24.157  1.00  0.00     0.348 HD
ATOM     10  C   UNL A   1      33.960  22.492  24.175  1.00  0.00     0.091 C 
ATOM     11  C   UNL A   1      31.817  21.667  25.290  1.00  0.00     0.091 C 
ATOM     12  C   UNL A   1      33.105  21.259  24.519  1.00  0.00     0.067 C 
ATOM     13  N   UNL A   1      32.697  20.416  23.382  1.00  0.00    -0.339 N 
ATOM     14  C   UNL A   1      33.180  18.905  25.130  1.00  0.00     0.118 C 
ATOM     15  C   UNL A   1      32.650  19.059  23.733  1.00  0.00     0.223 C 
ATOM     16  C   UNL A   1      31.850  20.877  22.305  1.00  0.00     0.147 C 
ATOM     17  O   UNL A   1      32.143  18.163  23.077  1.00  0.00    -0.275 OA
BRANCH   6  18
ATOM     18  C   UNL A   1      32.253  25.004  25.901  1.00  0.00     0.299 C 
BRANCH  18  19
ATOM     19  C   UNL A   1      31.444  26.281  25.862  1.00  0.00     0.010 A 
ATOM     20  C   UNL A   1      31.597  28.707  26.019  1.00  0.00     0.161 A 
ATOM     21  C   UNL A   1      31.848  27.435  26.563  1.00  0.00     0.060 A 
ATOM     22  C   UNL A   1      30.904  28.786  24.820  1.00  0.00     0.160 A 
ATOM     23  C   UNL A   1      30.241  27.645  24.354  1.00  0.00     0.051 A 
ATOM     24  C   UNL A   1      30.476  26.391  24.880  1.00  0.00     0.013 A 
BRANCH  20  25
ATOM     25  O   UNL A   1      32.365  29.756  26.443  1.00  0.00    -0.490 OA
BRANCH  25  26
ATOM     26  C   UNL A   1      33.614  29.373  27.022  1.00  0.00     0.226 C 
ATOM     27  C   UNL A   1      34.349  30.638  27.437  1.00  0.00     0.049 C 
ENDBRANCH  25  26
ENDBRANCH  20  25
BRANCH  22  28
ATOM     28  O   UNL A   1      30.890  29.800  23.903  1.00  0.00    -0.493 OA
ATOM     29  C   UNL A   1      29.871  29.932  22.927  1.00  0.00     0.278 C 
ENDBRANCH  22  28
ENDBRANCH  18  19
ENDBRANCH   6  18
ENDBRANCH   3   5
ENDBRANCH   2   3
ENDBRANCH   1   2
BRANCH   1  30
ATOM     30  C   UNL A   1      37.889  22.773  25.071  1.00  0.00     0.275 C 
BRANCH  30  31
ATOM     31  O   UNL A   1      38.270  23.188  26.401  1.00  0.00    -0.458 OA
BRANCH  31  32
ATOM     32  C   UNL A   1      39.594  23.193  26.701  1.00  0.00     0.338 C 
ATOM     33  O   UNL A   1      40.280  22.201  26.893  1.00  0.00    -0.246 OA
BRANCH  32  34
ATOM     34  C   UNL A   1      40.007  24.583  27.042  1.00  0.00     0.060 A 
ATOM     35  C   UNL A   1      39.839  24.931  28.369  1.00  0.00     0.016 A 
ATOM     36  C   UNL A   1      40.380  25.582  26.135  1.00  0.00     0.016 A 
ATOM     37  C   UNL A   1      39.852  26.273  28.746  1.00  0.00     0.010 A 
ATOM     38  C   UNL A   1      40.635  26.904  26.593  1.00  0.00     0.010 A 
ATOM     39  C   UNL A   1      40.389  27.272  27.927  1.00  0.00    -0.014 A 
BRANCH  39  40
ATOM     40  C   UNL A   1      40.791  28.581  28.567  1.00  0.00     0.031 A 
ATOM     41  C   UNL A   1      42.225  28.974  28.846  1.00  0.00     0.074 A 
ATOM     42  C   UNL A   1      39.824  29.474  28.901  1.00  0.00     0.049 A 
ATOM     43  N   UNL A   1      42.676  29.942  29.608  1.00  0.00    -0.248 NA
ATOM     44  C   UNL A   1      43.286  28.205  28.181  1.00  0.00     0.031 C 
ATOM     45  C   UNL A   1      38.386  29.302  28.662  1.00  0.00     0.029 A 
ATOM     46  N   UNL A   1      39.886  30.714  29.502  1.00  0.00    -0.354 N 
ATOM     47  C   UNL A   1      44.065  29.847  29.591  1.00  0.00     0.074 A 
ATOM     48  C   UNL A   1      44.385  28.756  28.690  1.00  0.00     0.031 C 
ATOM     49  C   UNL A   1      37.728  30.414  28.988  1.00  0.00     0.029 A 
ATOM     50  C   UNL A   1      38.644  31.282  29.699  1.00  0.00     0.049 A 
ATOM     51  H   UNL A   1      40.729  31.149  29.764  1.00  0.00     0.167 HD
ATOM     52  C   UNL A   1      44.976  30.586  30.277  1.00  0.00     0.034 A 
ATOM     53  C   UNL A   1      38.223  32.304  30.469  1.00  0.00     0.034 A 
ATOM     54  C   UNL A   1      44.645  31.702  31.135  1.00  0.00     0.049 A 
ATOM     55  C   UNL A   1      39.225  33.028  31.302  1.00  0.00     0.074 A 
ATOM     56  C   UNL A   1      45.498  32.491  31.894  1.00  0.00     0.029 A 
ATOM     57  N   UNL A   1      43.366  32.194  31.350  1.00  0.00    -0.354 N 
ATOM     58  N   UNL A   1      40.524  32.875  31.336  1.00  0.00    -0.248 NA
ATOM     59  C   UNL A   1      38.705  34.052  32.217  1.00  0.00     0.031 C 
ATOM     60  C   UNL A   1      44.730  33.434  32.589  1.00  0.00     0.029 A 
ATOM     61  C   UNL A   1      43.403  33.261  32.236  1.00  0.00     0.049 A 
ATOM     62  H   UNL A   1      42.548  31.836  30.934  1.00  0.00     0.167 HD
ATOM     63  C   UNL A   1      40.984  33.795  32.265  1.00  0.00     0.074 A 
ATOM     64  C   UNL A   1      39.826  34.519  32.750  1.00  0.00     0.031 C 
ATOM     65  C   UNL A   1      42.254  34.005  32.687  1.00  0.00     0.034 A 
BRANCH  52  66
ATOM     66  C   UNL A   1      46.433  30.195  30.175  1.00  0.00     0.023 A 
ATOM     67  C   UNL A   1      46.980  29.229  31.042  1.00  0.00     0.012 A 
ATOM     68  C   UNL A   1      47.245  30.742  29.158  1.00  0.00     0.148 A 
ATOM     69  C   UNL A   1      48.318  28.841  30.921  1.00  0.00     0.002 A 
ATOM     70  C   UNL A   1      48.566  30.323  29.020  1.00  0.00     0.091 A 
ATOM     71  F   UNL A   1      46.714  31.665  28.344  1.00  0.00    -0.205 F 
ATOM     72  C   UNL A   1      49.107  29.382  29.908  1.00  0.00     0.022 A 
BRANCH  70  73
ATOM     73  S   UNL A   1      49.635  30.915  27.701  1.00  0.00     0.127 S 
ATOM     74  O   UNL A   1      49.623  32.357  27.937  1.00  0.00    -0.237 OA
ATOM     75  O   UNL A   1      50.906  30.258  28.011  1.00  0.00    -0.237 OA
ATOM     76  O   UNL A   1      49.016  30.477  26.458  1.00  0.00    -0.744 OA
ENDBRANCH  70  73
ENDBRANCH  52  66
BRANCH  53  77
ATOM     77  C   UNL A   1      36.765  32.617  30.546  1.00  0.00     0.023 A 
ATOM     78  C   UNL A   1      36.052  32.331  31.724  1.00  0.00     0.012 A 
ATOM     79  C   UNL A   1      36.105  33.282  29.489  1.00  0.00     0.148 A 
ATOM     80  C   UNL A   1      34.712  32.703  31.848  1.00  0.00     0.002 A 
ATOM     81  C   UNL A   1      34.800  33.724  29.652  1.00  0.00     0.091 A 
ATOM     82  F   UNL A   1      36.791  33.520  28.361  1.00  0.00    -0.205 F 
ATOM     83  C   UNL A   1      34.093  33.419  30.824  1.00  0.00     0.022 A 
BRANCH  81  84
ATOM     84  S   UNL A   1      34.003  34.812  28.465  1.00  0.00     0.127 S 
ATOM     85  O   UNL A   1      34.152  36.115  29.107  1.00  0.00    -0.237 OA
ATOM     86  O   UNL A   1      34.826  34.614  27.272  1.00  0.00    -0.237 OA
ATOM     87  O   UNL A   1      32.638  34.319  28.336  1.00  0.00    -0.744 OA
ENDBRANCH  81  84
ENDBRANCH  53  77
BRANCH  65  88
ATOM     88  C   UNL A   1      42.461  35.103  33.694  1.00  0.00     0.023 A 
ATOM     89  C   UNL A   1      42.199  34.868  35.058  1.00  0.00     0.012 A 
ATOM     90  C   UNL A   1      42.936  36.363  33.285  1.00  0.00     0.148 A 
ATOM     91  C   UNL A   1      42.377  35.883  35.997  1.00  0.00     0.002 A 
ATOM     92  C   UNL A   1      43.158  37.354  34.232  1.00  0.00     0.091 A 
ATOM     93  F   UNL A   1      43.148  36.573  31.978  1.00  0.00    -0.205 F 
ATOM     94  C   UNL A   1      42.865  37.121  35.586  1.00  0.00     0.022 A 
BRANCH  92  95
ATOM     95  S   UNL A   1      43.868  38.947  33.807  1.00  0.00     0.127 S 
ATOM     96  O   UNL A   1      44.070  39.546  35.125  1.00  0.00    -0.237 OA
ATOM     97  O   UNL A   1      45.098  38.562  33.115  1.00  0.00    -0.237 OA
ATOM     98  O   UNL A   1      42.884  39.613  32.964  1.00  0.00    -0.744 OA
ENDBRANCH  92  95
ENDBRANCH  65  88
ENDBRANCH  39  40
ENDBRANCH  32  34
ENDBRANCH  31  32
ENDBRANCH  30  31
ENDBRANCH   1  30
TORSDOF 19
ENDMDL
MODEL 3
REMARK VINA RESULT:     -11.3      2.251      2.935
REMARK SMILES CCOc1cc(C[NH+]2CCC3(CC2)[C@H](C(=O)OCCOC(=O)c2ccc(-c4c5nc(c(-c6cccc(S(=O)(=O)[O-])c6F)c6ccc([nH]6)c(-c6cccc(S(=O)(=O)[O-])c6F)c6nc(c(-c7cccc(S(=O)(=O)[O-])c7F)c7ccc4[nH]7)C=C6)C=C5)cc2)CC(=O)N3C)ccc1OC
REMARK SMILES IDX 18 1 17 2 15 3 16 4 14 5 8 6 9 7 13 8 10 10 12 11 11 12
REMARK SMILES IDX 89 13 86 14 87 15 90 16 88 17 7 18 6 19 4 20 5 21 93 22
REMARK SMILES IDX 92 23 91 24 3 25 2 26 1 27 94 28 95 29 19 30 20 31 21 32
REMARK SMILES IDX 22 33 23 34 24 35 85 36 25 37 84 38 26 39 27 40 28 41 78 42
REMARK SMILES IDX 29 43 83 44 77 45 79 46 30 47 82 48 76 49 75 50 31 52 63 53
REMARK SMILES IDX 43 54 62 55 44 56 47 57 61 58 80 59 45 60 46 61 60 63 81 64
REMARK SMILES IDX 48 65 32 66 33 67 41 68 34 69 36 70 42 71 35 72 37 73 38 74
REMARK SMILES IDX 39 75 40 76 64 77 65 78 73 79 66 80 68 81 74 82 67 83 69 84
REMARK SMILES IDX 70 85 71 86 72 87 49 88 50 89 58 90 51 91 53 92 59 93 52 94
REMARK SMILES IDX 54 95 55 96 56 97 57 98
REMARK H PARENT 8 9 79 51 47 62
REMARK Flexibility Score: inf
ROOT
ATOM      1  C   UNL A   1      37.548  22.341  24.871  1.00  0.00     0.274 C 
ENDROOT
BRANCH   1   2
ATOM      2  O   UNL A   1      36.272  22.401  25.555  1.00  0.00    -0.462 OA
BRANCH   2   3
ATOM      3  C   UNL A   1      35.387  21.413  25.206  1.00  0.00     0.311 C 
ATOM      4  O   UNL A   1      35.731  20.251  25.015  1.00  0.00    -0.252 OA
BRANCH   3   5
ATOM      5  C   UNL A   1      33.916  21.870  25.234  1.00  0.00     0.134 C 
ATOM      6  N   UNL A   1      32.433  24.773  22.343  1.00  0.00    -0.331 N 
ATOM      7  C   UNL A   1      33.509  23.900  21.889  1.00  0.00     0.265 C 
ATOM      8  C   UNL A   1      31.432  24.069  23.126  1.00  0.00     0.265 C 
ATOM      9  H   UNL A   1      31.977  25.026  21.467  1.00  0.00     0.348 HD
ATOM     10  C   UNL A   1      34.122  22.951  22.927  1.00  0.00     0.091 C 
ATOM     11  C   UNL A   1      31.963  23.192  24.266  1.00  0.00     0.091 C 
ATOM     12  C   UNL A   1      33.167  22.270  23.925  1.00  0.00     0.067 C 
ATOM     13  N   UNL A   1      32.628  20.963  23.516  1.00  0.00    -0.339 N 
ATOM     14  C   UNL A   1      33.041  20.763  25.831  1.00  0.00     0.118 C 
ATOM     15  C   UNL A   1      32.465  20.103  24.611  1.00  0.00     0.223 C 
ATOM     16  C   UNL A   1      31.781  20.770  22.360  1.00  0.00     0.147 C 
ATOM     17  O   UNL A   1      31.843  19.052  24.616  1.00  0.00    -0.275 OA
BRANCH   6  18
ATOM     18  C   UNL A   1      32.749  26.159  22.755  1.00  0.00     0.299 C 
BRANCH  18  19
ATOM     19  C   UNL A   1      31.577  26.938  23.307  1.00  0.00     0.010 A 
ATOM     20  C   UNL A   1      30.954  28.715  24.852  1.00  0.00     0.161 A 
ATOM     21  C   UNL A   1      31.598  27.490  24.604  1.00  0.00     0.060 A 
ATOM     22  C   UNL A   1      30.264  29.320  23.812  1.00  0.00     0.160 A 
ATOM     23  C   UNL A   1      29.993  28.570  22.663  1.00  0.00     0.051 A 
ATOM     24  C   UNL A   1      30.618  27.366  22.406  1.00  0.00     0.013 A 
BRANCH  20  25
ATOM     25  O   UNL A   1      31.352  29.448  25.936  1.00  0.00    -0.490 OA
BRANCH  25  26
ATOM     26  C   UNL A   1      32.654  30.022  25.809  1.00  0.00     0.226 C 
ATOM     27  C   UNL A   1      33.617  29.197  26.648  1.00  0.00     0.049 C 
ENDBRANCH  25  26
ENDBRANCH  20  25
BRANCH  22  28
ATOM     28  O   UNL A   1      29.923  30.635  23.661  1.00  0.00    -0.493 OA
ATOM     29  C   UNL A   1      28.583  31.061  23.483  1.00  0.00     0.278 C 
ENDBRANCH  22  28
ENDBRANCH  18  19
ENDBRANCH   6  18
ENDBRANCH   3   5
ENDBRANCH   2   3
ENDBRANCH   1   2
BRANCH   1  30
ATOM     30  C   UNL A   1      38.571  21.420  25.571  1.00  0.00     0.275 C 
BRANCH  30  31
ATOM     31  O   UNL A   1      39.914  21.940  25.692  1.00  0.00    -0.458 OA
BRANCH  31  32
ATOM     32  C   UNL A   1      40.429  22.061  26.941  1.00  0.00     0.338 C 
ATOM     33  O   UNL A   1      40.533  21.156  27.755  1.00  0.00    -0.246 OA
BRANCH  32  34
ATOM     34  C   UNL A   1      40.578  23.507  27.266  1.00  0.00     0.060 A 
ATOM     35  C   UNL A   1      41.448  23.784  28.304  1.00  0.00     0.016 A 
ATOM     36  C   UNL A   1      39.814  24.556  26.741  1.00  0.00     0.016 A 
ATOM     37  C   UNL A   1      41.415  25.030  28.929  1.00  0.00     0.010 A 
ATOM     38  C   UNL A   1      39.985  25.880  27.233  1.00  0.00     0.010 A 
ATOM     39  C   UNL A   1      40.812  26.145  28.338  1.00  0.00    -0.014 A 
BRANCH  39  40
ATOM     40  C   UNL A   1      41.211  27.518  28.828  1.00  0.00     0.031 A 
ATOM     41  C   UNL A   1      40.229  28.538  29.361  1.00  0.00     0.074 A 
ATOM     42  C   UNL A   1      42.524  27.865  28.813  1.00  0.00     0.049 A 
ATOM     43  N   UNL A   1      40.414  29.820  29.571  1.00  0.00    -0.248 NA
ATOM     44  C   UNL A   1      38.884  28.070  29.720  1.00  0.00     0.031 C 
ATOM     45  C   UNL A   1      43.630  26.998  28.387  1.00  0.00     0.029 A 
ATOM     46  N   UNL A   1      43.172  29.028  29.172  1.00  0.00    -0.354 N 
ATOM     47  C   UNL A   1      39.192  30.333  29.997  1.00  0.00     0.074 A 
ATOM     48  C   UNL A   1      38.284  29.204  30.072  1.00  0.00     0.031 C 
ATOM     49  C   UNL A   1      44.799  27.594  28.618  1.00  0.00     0.029 A 
ATOM     50  C   UNL A   1      44.535  28.976  28.960  1.00  0.00     0.049 A 
ATOM     51  H   UNL A   1      42.710  29.815  29.542  1.00  0.00     0.167 HD
ATOM     52  C   UNL A   1      38.861  31.621  30.276  1.00  0.00     0.034 A 
ATOM     53  C   UNL A   1      45.482  29.931  28.902  1.00  0.00     0.034 A 
ATOM     54  C   UNL A   1      39.789  32.729  30.243  1.00  0.00     0.049 A 
ATOM     55  C   UNL A   1      45.076  31.352  29.098  1.00  0.00     0.074 A 
ATOM     56  C   UNL A   1      39.538  34.073  30.482  1.00  0.00     0.029 A 
ATOM     57  N   UNL A   1      41.143  32.630  29.959  1.00  0.00    -0.354 N 
ATOM     58  N   UNL A   1      43.902  31.829  29.422  1.00  0.00    -0.248 NA
ATOM     59  C   UNL A   1      46.117  32.368  28.904  1.00  0.00     0.031 C 
ATOM     60  C   UNL A   1      40.732  34.785  30.309  1.00  0.00     0.029 A 
ATOM     61  C   UNL A   1      41.736  33.884  30.001  1.00  0.00     0.049 A 
ATOM     62  H   UNL A   1      41.615  31.791  29.756  1.00  0.00     0.167 HD
ATOM     63  C   UNL A   1      44.062  33.204  29.487  1.00  0.00     0.074 A 
ATOM     64  C   UNL A   1      45.455  33.480  29.195  1.00  0.00     0.031 C 
ATOM     65  C   UNL A   1      43.130  34.151  29.749  1.00  0.00     0.034 A 
BRANCH  52  66
ATOM     66  C   UNL A   1      37.417  31.931  30.603  1.00  0.00     0.023 A 
ATOM     67  C   UNL A   1      36.915  31.728  31.903  1.00  0.00     0.012 A 
ATOM     68  C   UNL A   1      36.574  32.499  29.624  1.00  0.00     0.148 A 
ATOM     69  C   UNL A   1      35.591  32.050  32.213  1.00  0.00     0.002 A 
ATOM     70  C   UNL A   1      35.268  32.853  29.950  1.00  0.00     0.091 A 
ATOM     71  F   UNL A   1      37.062  32.682  28.389  1.00  0.00    -0.205 F 
ATOM     72  C   UNL A   1      34.771  32.618  31.240  1.00  0.00     0.022 A 
BRANCH  70  73
ATOM     73  S   UNL A   1      34.162  33.654  28.779  1.00  0.00     0.127 S 
ATOM     74  O   UNL A   1      33.680  32.513  28.003  1.00  0.00    -0.237 OA
ATOM     75  O   UNL A   1      33.161  34.258  29.659  1.00  0.00    -0.237 OA
ATOM     76  O   UNL A   1      34.980  34.611  28.048  1.00  0.00    -0.744 OA
ENDBRANCH  70  73
ENDBRANCH  52  66
BRANCH  53  77
ATOM     77  C   UNL A   1      46.884  29.558  28.544  1.00  0.00     0.023 A 
ATOM     78  C   UNL A   1      47.293  29.595  27.199  1.00  0.00     0.012 A 
ATOM     79  C   UNL A   1      47.835  29.256  29.543  1.00  0.00     0.148 A 
ATOM     80  C   UNL A   1      48.622  29.342  26.857  1.00  0.00     0.002 A 
ATOM     81  C   UNL A   1      49.170  29.089  29.204  1.00  0.00     0.091 A 
ATOM     82  F   UNL A   1      47.422  29.195  30.817  1.00  0.00    -0.205 F 
ATOM     83  C   UNL A   1      49.565  29.113  27.859  1.00  0.00     0.022 A 
BRANCH  81  84
ATOM     84  S   UNL A   1      50.466  28.983  30.444  1.00  0.00     0.127 S 
ATOM     85  O   UNL A   1      51.607  28.542  29.648  1.00  0.00    -0.237 OA
ATOM     86  O   UNL A   1      50.543  30.365  30.921  1.00  0.00    -0.237 OA
ATOM     87  O   UNL A   1      49.980  28.036  31.439  1.00  0.00    -0.744 OA
ENDBRANCH  81  84
ENDBRANCH  53  77
BRANCH  65  88
ATOM     88  C   UNL A   1      43.604  35.578  29.782  1.00  0.00     0.023 A 
ATOM     89  C   UNL A   1      43.919  36.189  31.012  1.00  0.00     0.012 A 
ATOM     90  C   UNL A   1      43.755  36.305  28.586  1.00  0.00     0.148 A 
ATOM     91  C   UNL A   1      44.348  37.516  31.052  1.00  0.00     0.002 A 
ATOM     92  C   UNL A   1      44.230  37.610  28.630  1.00  0.00     0.091 A 
ATOM     93  F   UNL A   1      43.419  35.714  27.431  1.00  0.00    -0.205 F 
ATOM     94  C   UNL A   1      44.513  38.221  29.863  1.00  0.00     0.022 A 
BRANCH  92  95
ATOM     95  S   UNL A   1      44.557  38.563  27.145  1.00  0.00     0.127 S 
ATOM     96  O   UNL A   1      45.547  37.728  26.465  1.00  0.00    -0.237 OA
ATOM     97  O   UNL A   1      43.243  38.596  26.503  1.00  0.00    -0.237 OA
ATOM     98  O   UNL A   1      45.041  39.859  27.598  1.00  0.00    -0.744 OA
ENDBRANCH  92  95
ENDBRANCH  65  88
ENDBRANCH  39  40
ENDBRANCH  32  34
ENDBRANCH  31  32
ENDBRANCH  30  31
ENDBRANCH   1  30
TORSDOF 19
ENDMDL
