MODEL 1
REMARK VINA RESULT:     -12.4      0.000      0.000
REMARK SMILES C[C@@H]1OCC[C@@H]1c1nnc(-c2cccc(C(=O)OCCOC(=O)c3ccc(-c4c5nc(c(-c6cccc(S(=O)(=O)[O-])c6F)c6ccc([nH]6)c(-c6cccc(S(=O)(=O)[O-])c6F)c6nc(c(-c7cccc(S(=O)(=O)[O-])c7F)c7ccc4[nH]7)C=C6)C=C5)cc3)c2)o1
REMARK SMILES IDX 20 1 19 2 18 3 16 4 17 5 15 6 11 7 12 8 87 9 13 10 14 11
REMARK SMILES IDX 10 12 7 13 8 14 88 15 9 16 6 17 1 18 2 19 3 20 4 21 5 22
REMARK SMILES IDX 21 23 22 24 23 25 24 26 25 27 86 28 26 29 85 30 27 31 28 32
REMARK SMILES IDX 29 33 79 34 30 35 84 36 78 37 80 38 31 39 83 40 77 41 76 42
REMARK SMILES IDX 32 44 64 45 44 46 63 47 45 48 48 49 62 50 81 51 46 52 47 53
REMARK SMILES IDX 61 55 82 56 49 57 33 58 34 59 42 60 35 61 37 62 43 63 36 64
REMARK SMILES IDX 38 65 39 66 40 67 41 68 65 69 66 70 74 71 67 72 69 73 75 74
REMARK SMILES IDX 68 75 70 76 71 77 72 78 73 79 50 80 51 81 59 82 52 83 54 84
REMARK SMILES IDX 60 85 53 86 55 87 56 88 57 89 58 90
REMARK H PARENT 80 43 48 54
REMARK Flexibility Score: inf
ROOT
ATOM      1  C   UNL A   1      37.768  19.791  24.787  1.00  0.00     0.275 C 
ENDROOT
BRANCH   1   2
ATOM      2  C   UNL A   1      36.253  19.734  24.979  1.00  0.00     0.275 C 
BRANCH   2   3
ATOM      3  O   UNL A   1      35.761  20.968  25.543  1.00  0.00    -0.458 OA
BRANCH   3   4
ATOM      4  C   UNL A   1      34.438  21.003  25.839  1.00  0.00     0.338 C 
ATOM      5  O   UNL A   1      33.940  20.949  26.952  1.00  0.00    -0.246 OA
BRANCH   4   6
ATOM      6  C   UNL A   1      33.636  21.224  24.609  1.00  0.00     0.060 A 
ATOM      7  C   UNL A   1      32.700  22.653  22.888  1.00  0.00     0.040 A 
ATOM      8  C   UNL A   1      31.980  21.566  22.379  1.00  0.00     0.014 A 
ATOM      9  C   UNL A   1      33.504  22.487  24.027  1.00  0.00     0.029 A 
ATOM     10  C   UNL A   1      32.135  20.300  22.940  1.00  0.00     0.002 A 
ATOM     11  C   UNL A   1      32.994  20.124  24.024  1.00  0.00     0.016 A 
BRANCH   7  12
ATOM     12  C   UNL A   1      32.709  23.909  22.174  1.00  0.00     0.247 A 
ATOM     13  C   UNL A   1      32.267  25.975  21.971  1.00  0.00     0.222 A 
ATOM     14  N   UNL A   1      33.022  25.654  20.941  1.00  0.00    -0.112 NA
ATOM     15  O   UNL A   1      32.039  24.921  22.804  1.00  0.00    -0.420 OA
ATOM     16  N   UNL A   1      33.324  24.309  21.083  1.00  0.00    -0.108 NA
BRANCH  13  17
ATOM     17  C   UNL A   1      31.752  27.295  22.383  1.00  0.00     0.109 C 
ATOM     18  C   UNL A   1      33.760  27.710  24.005  1.00  0.00     0.039 C 
ATOM     19  C   UNL A   1      32.740  28.276  23.019  1.00  0.00     0.127 C 
ATOM     20  O   UNL A   1      31.922  29.208  23.767  1.00  0.00    -0.378 OA
ATOM     21  C   UNL A   1      30.605  28.658  23.909  1.00  0.00     0.161 C 
ATOM     22  C   UNL A   1      30.663  27.226  23.430  1.00  0.00     0.044 C 
ENDBRANCH  13  17
ENDBRANCH   7  12
ENDBRANCH   4   6
ENDBRANCH   3   4
ENDBRANCH   2   3
ENDBRANCH   1   2
BRANCH   1  23
ATOM     23  O   UNL A   1      38.303  20.964  25.426  1.00  0.00    -0.458 OA
BRANCH  23  24
ATOM     24  C   UNL A   1      39.432  20.774  26.147  1.00  0.00     0.338 C 
ATOM     25  O   UNL A   1      40.100  19.758  26.229  1.00  0.00    -0.246 OA
BRANCH  24  26
ATOM     26  C   UNL A   1      39.834  22.046  26.765  1.00  0.00     0.060 A 
ATOM     27  C   UNL A   1      39.218  23.207  26.307  1.00  0.00     0.016 A 
ATOM     28  C   UNL A   1      40.892  22.120  27.666  1.00  0.00     0.016 A 
ATOM     29  C   UNL A   1      39.686  24.458  26.698  1.00  0.00     0.010 A 
ATOM     30  C   UNL A   1      41.335  23.379  28.098  1.00  0.00     0.010 A 
ATOM     31  C   UNL A   1      40.763  24.561  27.587  1.00  0.00    -0.014 A 
BRANCH  31  32
ATOM     32  C   UNL A   1      41.342  25.902  27.887  1.00  0.00     0.031 A 
ATOM     33  C   UNL A   1      42.720  26.256  27.388  1.00  0.00     0.074 A 
ATOM     34  C   UNL A   1      40.627  26.821  28.566  1.00  0.00     0.049 A 
ATOM     35  N   UNL A   1      43.422  27.341  27.596  1.00  0.00    -0.248 NA
ATOM     36  C   UNL A   1      43.403  25.255  26.551  1.00  0.00     0.031 C 
ATOM     37  C   UNL A   1      39.278  26.621  29.096  1.00  0.00     0.029 A 
ATOM     38  N   UNL A   1      40.938  28.110  28.927  1.00  0.00    -0.354 N 
ATOM     39  C   UNL A   1      44.648  27.125  26.978  1.00  0.00     0.074 A 
ATOM     40  C   UNL A   1      44.595  25.809  26.382  1.00  0.00     0.031 C 
ATOM     41  C   UNL A   1      38.870  27.750  29.698  1.00  0.00     0.029 A 
ATOM     42  C   UNL A   1      39.944  28.738  29.641  1.00  0.00     0.049 A 
ATOM     43  H   UNL A   1      41.791  28.543  28.696  1.00  0.00     0.167 HD
ATOM     44  C   UNL A   1      45.719  27.953  26.897  1.00  0.00     0.034 A 
ATOM     45  C   UNL A   1      39.905  29.964  30.201  1.00  0.00     0.034 A 
ATOM     46  C   UNL A   1      45.751  29.293  27.418  1.00  0.00     0.049 A 
ATOM     47  C   UNL A   1      41.090  30.880  30.057  1.00  0.00     0.074 A 
ATOM     48  C   UNL A   1      46.781  30.216  27.356  1.00  0.00     0.029 A 
ATOM     49  N   UNL A   1      44.701  29.911  28.078  1.00  0.00    -0.354 N 
ATOM     50  N   UNL A   1      42.217  30.677  29.419  1.00  0.00    -0.248 NA
ATOM     51  C   UNL A   1      40.990  32.203  30.691  1.00  0.00     0.031 C 
ATOM     52  C   UNL A   1      46.352  31.394  27.979  1.00  0.00     0.029 A 
ATOM     53  C   UNL A   1      45.052  31.207  28.419  1.00  0.00     0.049 A 
ATOM     54  H   UNL A   1      43.833  29.491  28.277  1.00  0.00     0.167 HD
ATOM     55  C   UNL A   1      42.948  31.854  29.551  1.00  0.00     0.074 A 
ATOM     56  C   UNL A   1      42.123  32.775  30.304  1.00  0.00     0.031 C 
ATOM     57  C   UNL A   1      44.199  32.137  29.111  1.00  0.00     0.034 A 
BRANCH  44  58
ATOM     58  C   UNL A   1      46.943  27.441  26.185  1.00  0.00     0.023 A 
ATOM     59  C   UNL A   1      47.113  27.706  24.810  1.00  0.00     0.012 A 
ATOM     60  C   UNL A   1      47.947  26.743  26.884  1.00  0.00     0.148 A 
ATOM     61  C   UNL A   1      48.250  27.258  24.137  1.00  0.00     0.002 A 
ATOM     62  C   UNL A   1      49.096  26.336  26.215  1.00  0.00     0.091 A 
ATOM     63  F   UNL A   1      47.756  26.479  28.185  1.00  0.00    -0.205 F 
ATOM     64  C   UNL A   1      49.244  26.583  24.841  1.00  0.00     0.022 A 
BRANCH  62  65
ATOM     65  S   UNL A   1      50.462  25.528  27.056  1.00  0.00     0.127 S 
ATOM     66  O   UNL A   1      50.831  26.530  28.054  1.00  0.00    -0.237 OA
ATOM     67  O   UNL A   1      49.826  24.328  27.603  1.00  0.00    -0.237 OA
ATOM     68  O   UNL A   1      51.462  25.265  26.030  1.00  0.00    -0.744 OA
ENDBRANCH  62  65
ENDBRANCH  44  58
BRANCH  45  69
ATOM     69  C   UNL A   1      38.676  30.416  30.916  1.00  0.00     0.023 A 
ATOM     70  C   UNL A   1      38.559  30.191  32.301  1.00  0.00     0.012 A 
ATOM     71  C   UNL A   1      37.640  31.089  30.240  1.00  0.00     0.148 A 
ATOM     72  C   UNL A   1      37.422  30.606  32.996  1.00  0.00     0.002 A 
ATOM     73  C   UNL A   1      36.538  31.553  30.949  1.00  0.00     0.091 A 
ATOM     74  F   UNL A   1      37.755  31.270  28.917  1.00  0.00    -0.205 F 
ATOM     75  C   UNL A   1      36.418  31.299  32.324  1.00  0.00     0.022 A 
BRANCH  73  76
ATOM     76  S   UNL A   1      35.275  32.574  30.182  1.00  0.00     0.127 S 
ATOM     77  O   UNL A   1      34.816  31.719  29.092  1.00  0.00    -0.237 OA
ATOM     78  O   UNL A   1      34.316  32.749  31.274  1.00  0.00    -0.237 OA
ATOM     79  O   UNL A   1      35.958  33.801  29.788  1.00  0.00    -0.744 OA
ENDBRANCH  73  76
ENDBRANCH  45  69
BRANCH  57  80
ATOM     80  C   UNL A   1      44.746  33.510  29.402  1.00  0.00     0.023 A 
ATOM     81  C   UNL A   1      45.386  33.758  30.632  1.00  0.00     0.012 A 
ATOM     82  C   UNL A   1      44.677  34.535  28.440  1.00  0.00     0.148 A 
ATOM     83  C   UNL A   1      45.920  35.015  30.913  1.00  0.00     0.002 A 
ATOM     84  C   UNL A   1      45.249  35.774  28.710  1.00  0.00     0.091 A 
ATOM     85  F   UNL A   1      44.044  34.290  27.283  1.00  0.00    -0.205 F 
ATOM     86  C   UNL A   1      45.862  36.019  29.949  1.00  0.00     0.022 A 
BRANCH  84  87
ATOM     87  S   UNL A   1      45.289  37.085  27.483  1.00  0.00     0.127 S 
ATOM     88  O   UNL A   1      43.867  37.362  27.292  1.00  0.00    -0.237 OA
ATOM     89  O   UNL A   1      46.028  38.145  28.171  1.00  0.00    -0.237 OA
ATOM     90  O   UNL A   1      45.986  36.523  26.333  1.00  0.00    -0.744 OA
ENDBRANCH  84  87
ENDBRANCH  57  80
ENDBRANCH  31  32
ENDBRANCH  24  26
ENDBRANCH  23  24
ENDBRANCH   1  23
TORSDOF 16
ENDMDL
MODEL 2
REMARK VINA RESULT:     -12.3      1.891      2.257
REMARK SMILES C[C@@H]1OCC[C@@H]1c1nnc(-c2cccc(C(=O)OCCOC(=O)c3ccc(-c4c5nc(c(-c6cccc(S(=O)(=O)[O-])c6F)c6ccc([nH]6)c(-c6cccc(S(=O)(=O)[O-])c6F)c6nc(c(-c7cccc(S(=O)(=O)[O-])c7F)c7ccc4[nH]7)C=C6)C=C5)cc3)c2)o1
REMARK SMILES IDX 20 1 19 2 18 3 16 4 17 5 15 6 11 7 12 8 87 9 13 10 14 11
REMARK SMILES IDX 10 12 7 13 8 14 88 15 9 16 6 17 1 18 2 19 3 20 4 21 5 22
REMARK SMILES IDX 21 23 22 24 23 25 24 26 25 27 86 28 26 29 85 30 27 31 28 32
REMARK SMILES IDX 29 33 79 34 30 35 84 36 78 37 80 38 31 39 83 40 77 41 76 42
REMARK SMILES IDX 32 44 64 45 44 46 63 47 45 48 48 49 62 50 81 51 46 52 47 53
REMARK SMILES IDX 61 55 82 56 49 57 33 58 34 59 42 60 35 61 37 62 43 63 36 64
REMARK SMILES IDX 38 65 39 66 40 67 41 68 65 69 66 70 74 71 67 72 69 73 75 74
REMARK SMILES IDX 68 75 70 76 71 77 72 78 73 79 50 80 51 81 59 82 52 83 54 84
REMARK SMILES IDX 60 85 53 86 55 87 56 88 57 89 58 90
REMARK H PARENT 80 43 48 54
REMARK Flexibility Score: inf
ROOT
ATOM      1  C   UNL A   1      36.872  20.207  25.011  1.00  0.00     0.275 C 
ENDROOT
BRANCH   1   2
ATOM      2  C   UNL A   1      35.434  20.661  25.263  1.00  0.00     0.275 C 
BRANCH   2   3
ATOM      3  O   UNL A   1      34.493  19.717  24.711  1.00  0.00    -0.458 OA
BRANCH   3   4
ATOM      4  C   UNL A   1      33.208  19.844  25.125  1.00  0.00     0.338 C 
ATOM      5  O   UNL A   1      32.625  19.124  25.919  1.00  0.00    -0.246 OA
BRANCH   4   6
ATOM      6  C   UNL A   1      32.598  21.071  24.552  1.00  0.00     0.060 A 
ATOM      7  C   UNL A   1      31.510  23.227  24.771  1.00  0.00     0.040 A 
ATOM      8  C   UNL A   1      31.325  23.273  23.384  1.00  0.00     0.014 A 
ATOM      9  C   UNL A   1      32.118  22.107  25.358  1.00  0.00     0.029 A 
ATOM     10  C   UNL A   1      31.830  22.255  22.577  1.00  0.00     0.002 A 
ATOM     11  C   UNL A   1      32.501  21.181  23.158  1.00  0.00     0.016 A 
BRANCH   7  12
ATOM     12  C   UNL A   1      31.185  24.380  25.579  1.00  0.00     0.247 A 
ATOM     13  C   UNL A   1      31.577  26.311  26.368  1.00  0.00     0.222 A 
ATOM     14  N   UNL A   1      30.349  26.004  26.729  1.00  0.00    -0.112 NA
ATOM     15  O   UNL A   1      32.165  25.333  25.623  1.00  0.00    -0.420 OA
ATOM     16  N   UNL A   1      30.087  24.752  26.199  1.00  0.00    -0.108 NA
BRANCH  13  17
ATOM     17  C   UNL A   1      32.328  27.567  26.561  1.00  0.00     0.109 C 
ATOM     18  C   UNL A   1      31.387  28.612  24.357  1.00  0.00     0.039 C 
ATOM     19  C   UNL A   1      31.847  28.805  25.801  1.00  0.00     0.127 C 
ATOM     20  O   UNL A   1      32.994  29.688  25.750  1.00  0.00    -0.378 OA
ATOM     21  C   UNL A   1      34.170  28.942  26.093  1.00  0.00     0.161 C 
ATOM     22  C   UNL A   1      33.778  27.482  26.137  1.00  0.00     0.044 C 
ENDBRANCH  13  17
ENDBRANCH   7  12
ENDBRANCH   4   6
ENDBRANCH   3   4
ENDBRANCH   2   3
ENDBRANCH   1   2
BRANCH   1  23
ATOM     23  O   UNL A   1      37.775  21.316  25.172  1.00  0.00    -0.458 OA
BRANCH  23  24
ATOM     24  C   UNL A   1      38.924  21.043  25.833  1.00  0.00     0.338 C 
ATOM     25  O   UNL A   1      39.555  20.000  25.827  1.00  0.00    -0.246 OA
BRANCH  24  26
ATOM     26  C   UNL A   1      39.397  22.260  26.508  1.00  0.00     0.060 A 
ATOM     27  C   UNL A   1      38.819  23.469  26.135  1.00  0.00     0.016 A 
ATOM     28  C   UNL A   1      40.483  22.239  27.379  1.00  0.00     0.016 A 
ATOM     29  C   UNL A   1      39.351  24.676  26.580  1.00  0.00     0.010 A 
ATOM     30  C   UNL A   1      40.992  23.452  27.866  1.00  0.00     0.010 A 
ATOM     31  C   UNL A   1      40.457  24.683  27.439  1.00  0.00    -0.014 A 
BRANCH  31  32
ATOM     32  C   UNL A   1      41.101  25.980  27.795  1.00  0.00     0.031 A 
ATOM     33  C   UNL A   1      42.499  26.282  27.319  1.00  0.00     0.074 A 
ATOM     34  C   UNL A   1      40.429  26.908  28.506  1.00  0.00     0.049 A 
ATOM     35  N   UNL A   1      43.254  27.321  27.574  1.00  0.00    -0.248 NA
ATOM     36  C   UNL A   1      43.136  25.281  26.447  1.00  0.00     0.031 C 
ATOM     37  C   UNL A   1      39.067  26.757  29.020  1.00  0.00     0.029 A 
ATOM     38  N   UNL A   1      40.802  28.164  28.919  1.00  0.00    -0.354 N 
ATOM     39  C   UNL A   1      44.473  27.067  26.955  1.00  0.00     0.074 A 
ATOM     40  C   UNL A   1      44.356  25.779  26.307  1.00  0.00     0.031 C 
ATOM     41  C   UNL A   1      38.712  27.881  29.663  1.00  0.00     0.029 A 
ATOM     42  C   UNL A   1      39.836  28.814  29.651  1.00  0.00     0.049 A 
ATOM     43  H   UNL A   1      41.678  28.562  28.710  1.00  0.00     0.167 HD
ATOM     44  C   UNL A   1      45.585  27.841  26.913  1.00  0.00     0.034 A 
ATOM     45  C   UNL A   1      39.855  30.018  30.259  1.00  0.00     0.034 A 
ATOM     46  C   UNL A   1      45.681  29.156  27.486  1.00  0.00     0.049 A 
ATOM     47  C   UNL A   1      41.087  30.876  30.158  1.00  0.00     0.074 A 
ATOM     48  C   UNL A   1      46.757  30.027  27.467  1.00  0.00     0.029 A 
ATOM     49  N   UNL A   1      44.659  29.801  28.164  1.00  0.00    -0.354 N 
ATOM     50  N   UNL A   1      42.207  30.641  29.518  1.00  0.00    -0.248 NA
ATOM     51  C   UNL A   1      41.049  32.178  30.842  1.00  0.00     0.031 C 
ATOM     52  C   UNL A   1      46.384  31.200  28.133  1.00  0.00     0.029 A 
ATOM     53  C   UNL A   1      45.073  31.063  28.557  1.00  0.00     0.049 A 
ATOM     54  H   UNL A   1      43.769  29.419  28.341  1.00  0.00     0.167 HD
ATOM     55  C   UNL A   1      42.995  31.773  29.701  1.00  0.00     0.074 A 
ATOM     56  C   UNL A   1      42.213  32.705  30.485  1.00  0.00     0.031 C 
ATOM     57  C   UNL A   1      44.263  32.008  29.281  1.00  0.00     0.034 A 
BRANCH  44  58
ATOM     58  C   UNL A   1      46.787  27.295  26.188  1.00  0.00     0.023 A 
ATOM     59  C   UNL A   1      47.611  26.342  26.820  1.00  0.00     0.012 A 
ATOM     60  C   UNL A   1      47.072  27.688  24.866  1.00  0.00     0.148 A 
ATOM     61  C   UNL A   1      48.717  25.810  26.158  1.00  0.00     0.002 A 
ATOM     62  C   UNL A   1      48.153  27.123  24.197  1.00  0.00     0.091 A 
ATOM     63  F   UNL A   1      46.292  28.614  24.290  1.00  0.00    -0.205 F 
ATOM     64  C   UNL A   1      48.981  26.192  24.845  1.00  0.00     0.022 A 
BRANCH  62  65
ATOM     65  S   UNL A   1      48.524  27.497  22.480  1.00  0.00     0.127 S 
ATOM     66  O   UNL A   1      48.610  26.160  21.896  1.00  0.00    -0.237 OA
ATOM     67  O   UNL A   1      47.349  28.267  22.068  1.00  0.00    -0.237 OA
ATOM     68  O   UNL A   1      49.766  28.257  22.498  1.00  0.00    -0.744 OA
ENDBRANCH  62  65
ENDBRANCH  44  58
BRANCH  45  69
ATOM     69  C   UNL A   1      38.645  30.504  30.983  1.00  0.00     0.023 A 
ATOM     70  C   UNL A   1      38.555  30.326  32.377  1.00  0.00     0.012 A 
ATOM     71  C   UNL A   1      37.601  31.163  30.307  1.00  0.00     0.148 A 
ATOM     72  C   UNL A   1      37.436  30.774  33.081  1.00  0.00     0.002 A 
ATOM     73  C   UNL A   1      36.518  31.661  31.023  1.00  0.00     0.091 A 
ATOM     74  F   UNL A   1      37.689  31.300  28.977  1.00  0.00    -0.205 F 
ATOM     75  C   UNL A   1      36.425  31.453  32.407  1.00  0.00     0.022 A 
BRANCH  73  76
ATOM     76  S   UNL A   1      35.248  32.668  30.249  1.00  0.00     0.127 S 
ATOM     77  O   UNL A   1      36.005  33.848  29.842  1.00  0.00    -0.237 OA
ATOM     78  O   UNL A   1      34.805  31.810  29.147  1.00  0.00    -0.237 OA
ATOM     79  O   UNL A   1      34.241  32.878  31.281  1.00  0.00    -0.744 OA
ENDBRANCH  73  76
ENDBRANCH  45  69
BRANCH  57  80
ATOM     80  C   UNL A   1      44.876  33.338  29.628  1.00  0.00     0.023 A 
ATOM     81  C   UNL A   1      45.622  33.472  30.816  1.00  0.00     0.012 A 
ATOM     82  C   UNL A   1      44.765  34.437  28.755  1.00  0.00     0.148 A 
ATOM     83  C   UNL A   1      46.218  34.689  31.146  1.00  0.00     0.002 A 
ATOM     84  C   UNL A   1      45.398  35.636  29.070  1.00  0.00     0.091 A 
ATOM     85  F   UNL A   1      44.032  34.301  27.640  1.00  0.00    -0.205 F 
ATOM     86  C   UNL A   1      46.116  35.766  30.270  1.00  0.00     0.022 A 
BRANCH  84  87
ATOM     87  S   UNL A   1      45.382  37.038  27.947  1.00  0.00     0.127 S 
ATOM     88  O   UNL A   1      43.961  37.379  27.913  1.00  0.00    -0.237 OA
ATOM     89  O   UNL A   1      46.226  38.012  28.641  1.00  0.00    -0.237 OA
ATOM     90  O   UNL A   1      45.946  36.544  26.698  1.00  0.00    -0.744 OA
ENDBRANCH  84  87
ENDBRANCH  57  80
ENDBRANCH  31  32
ENDBRANCH  24  26
ENDBRANCH  23  24
ENDBRANCH   1  23
TORSDOF 16
ENDMDL
MODEL 3
REMARK VINA RESULT:     -12.3      4.846     10.437
REMARK SMILES C[C@@H]1OCC[C@@H]1c1nnc(-c2cccc(C(=O)OCCOC(=O)c3ccc(-c4c5nc(c(-c6cccc(S(=O)(=O)[O-])c6F)c6ccc([nH]6)c(-c6cccc(S(=O)(=O)[O-])c6F)c6nc(c(-c7cccc(S(=O)(=O)[O-])c7F)c7ccc4[nH]7)C=C6)C=C5)cc3)c2)o1
REMARK SMILES IDX 20 1 19 2 18 3 16 4 17 5 15 6 11 7 12 8 87 9 13 10 14 11
REMARK SMILES IDX 10 12 7 13 8 14 88 15 9 16 6 17 1 18 2 19 3 20 4 21 5 22
REMARK SMILES IDX 21 23 22 24 23 25 24 26 25 27 86 28 26 29 85 30 27 31 28 32
REMARK SMILES IDX 29 33 79 34 30 35 84 36 78 37 80 38 31 39 83 40 77 41 76 42
REMARK SMILES IDX 32 44 64 45 44 46 63 47 45 48 48 49 62 50 81 51 46 52 47 53
REMARK SMILES IDX 61 55 82 56 49 57 33 58 34 59 42 60 35 61 37 62 43 63 36 64
REMARK SMILES IDX 38 65 39 66 40 67 41 68 65 69 66 70 74 71 67 72 69 73 75 74
REMARK SMILES IDX 68 75 70 76 71 77 72 78 73 79 50 80 51 81 59 82 52 83 54 84
REMARK SMILES IDX 60 85 53 86 55 87 56 88 57 89 58 90
REMARK H PARENT 80 43 48 54
REMARK Flexibility Score: inf
ROOT
ATOM      1  C   UNL A   1      31.407  32.491  26.487  1.00  0.00     0.275 C 
ENDROOT
BRANCH   1   2
ATOM      2  C   UNL A   1      30.895  31.368  25.584  1.00  0.00     0.275 C 
BRANCH   2   3
ATOM      3  O   UNL A   1      31.520  30.112  25.923  1.00  0.00    -0.458 OA
BRANCH   3   4
ATOM      4  C   UNL A   1      31.979  29.375  24.882  1.00  0.00     0.338 C 
ATOM      5  O   UNL A   1      32.995  29.579  24.238  1.00  0.00    -0.246 OA
BRANCH   4   6
ATOM      6  C   UNL A   1      31.119  28.183  24.671  1.00  0.00     0.060 A 
ATOM      7  C   UNL A   1      30.561  25.851  25.034  1.00  0.00     0.040 A 
ATOM      8  C   UNL A   1      29.530  25.952  24.091  1.00  0.00     0.014 A 
ATOM      9  C   UNL A   1      31.378  26.961  25.298  1.00  0.00     0.029 A 
ATOM     10  C   UNL A   1      29.252  27.177  23.489  1.00  0.00     0.002 A 
ATOM     11  C   UNL A   1      30.017  28.297  23.811  1.00  0.00     0.016 A 
BRANCH   7  12
ATOM     12  C   UNL A   1      30.705  24.644  25.815  1.00  0.00     0.247 A 
ATOM     13  C   UNL A   1      31.604  22.774  26.263  1.00  0.00     0.222 A 
ATOM     14  N   UNL A   1      30.787  23.042  27.260  1.00  0.00    -0.112 NA
ATOM     15  O   UNL A   1      31.614  23.753  25.315  1.00  0.00    -0.420 OA
ATOM     16  N   UNL A   1      30.214  24.271  26.977  1.00  0.00    -0.108 NA
BRANCH  13  17
ATOM     17  C   UNL A   1      32.549  21.653  26.098  1.00  0.00     0.109 C 
ATOM     18  C   UNL A   1      34.611  23.146  26.697  1.00  0.00     0.039 C 
ATOM     19  C   UNL A   1      33.924  21.782  26.758  1.00  0.00     0.127 C 
ATOM     20  O   UNL A   1      34.779  20.861  26.039  1.00  0.00    -0.378 OA
ATOM     21  C   UNL A   1      34.128  20.480  24.819  1.00  0.00     0.161 C 
ATOM     22  C   UNL A   1      32.919  21.374  24.658  1.00  0.00     0.044 C 
ENDBRANCH  13  17
ENDBRANCH   7  12
ENDBRANCH   4   6
ENDBRANCH   3   4
ENDBRANCH   2   3
ENDBRANCH   1   2
BRANCH   1  23
ATOM     23  O   UNL A   1      32.561  32.045  27.222  1.00  0.00    -0.458 OA
BRANCH  23  24
ATOM     24  C   UNL A   1      33.403  33.020  27.635  1.00  0.00     0.338 C 
ATOM     25  O   UNL A   1      33.156  34.204  27.780  1.00  0.00    -0.246 OA
BRANCH  24  26
ATOM     26  C   UNL A   1      34.693  32.421  28.009  1.00  0.00     0.060 A 
ATOM     27  C   UNL A   1      34.696  31.081  28.383  1.00  0.00     0.016 A 
ATOM     28  C   UNL A   1      35.848  33.188  28.133  1.00  0.00     0.016 A 
ATOM     29  C   UNL A   1      35.834  30.504  28.938  1.00  0.00     0.010 A 
ATOM     30  C   UNL A   1      37.010  32.596  28.650  1.00  0.00     0.010 A 
ATOM     31  C   UNL A   1      37.003  31.259  29.095  1.00  0.00    -0.014 A 
BRANCH  31  32
ATOM     32  C   UNL A   1      38.166  30.670  29.817  1.00  0.00     0.031 A 
ATOM     33  C   UNL A   1      38.418  31.031  31.260  1.00  0.00     0.074 A 
ATOM     34  C   UNL A   1      38.976  29.783  29.206  1.00  0.00     0.049 A 
ATOM     35  N   UNL A   1      39.407  30.676  32.041  1.00  0.00    -0.248 NA
ATOM     36  C   UNL A   1      37.432  31.911  31.908  1.00  0.00     0.031 C 
ATOM     37  C   UNL A   1      38.843  29.332  27.820  1.00  0.00     0.029 A 
ATOM     38  N   UNL A   1      40.072  29.099  29.673  1.00  0.00    -0.354 N 
ATOM     39  C   UNL A   1      39.200  31.343  33.243  1.00  0.00     0.074 A 
ATOM     40  C   UNL A   1      37.989  32.119  33.092  1.00  0.00     0.031 C 
ATOM     41  C   UNL A   1      39.808  28.436  27.554  1.00  0.00     0.029 A 
ATOM     42  C   UNL A   1      40.657  28.284  28.733  1.00  0.00     0.049 A 
ATOM     43  H   UNL A   1      40.407  29.185  30.595  1.00  0.00     0.167 HD
ATOM     44  C   UNL A   1      39.940  31.302  34.378  1.00  0.00     0.034 A 
ATOM     45  C   UNL A   1      41.760  27.512  28.803  1.00  0.00     0.034 A 
ATOM     46  C   UNL A   1      41.099  30.472  34.562  1.00  0.00     0.049 A 
ATOM     47  C   UNL A   1      42.537  27.449  30.090  1.00  0.00     0.074 A 
ATOM     48  C   UNL A   1      41.894  30.342  35.688  1.00  0.00     0.029 A 
ATOM     49  N   UNL A   1      41.620  29.614  33.606  1.00  0.00    -0.354 N 
ATOM     50  N   UNL A   1      42.291  28.043  31.233  1.00  0.00    -0.248 NA
ATOM     51  C   UNL A   1      43.732  26.592  30.106  1.00  0.00     0.031 C 
ATOM     52  C   UNL A   1      42.896  29.403  35.412  1.00  0.00     0.029 A 
ATOM     53  C   UNL A   1      42.718  28.943  34.118  1.00  0.00     0.049 A 
ATOM     54  H   UNL A   1      41.262  29.500  32.696  1.00  0.00     0.167 HD
ATOM     55  C   UNL A   1      43.282  27.611  32.109  1.00  0.00     0.074 A 
ATOM     56  C   UNL A   1      44.115  26.683  31.373  1.00  0.00     0.031 C 
ATOM     57  C   UNL A   1      43.499  27.972  33.397  1.00  0.00     0.034 A 
BRANCH  44  58
ATOM     58  C   UNL A   1      39.494  32.161  35.532  1.00  0.00     0.023 A 
ATOM     59  C   UNL A   1      38.656  31.616  36.526  1.00  0.00     0.012 A 
ATOM     60  C   UNL A   1      39.944  33.490  35.658  1.00  0.00     0.148 A 
ATOM     61  C   UNL A   1      38.250  32.391  37.613  1.00  0.00     0.002 A 
ATOM     62  C   UNL A   1      39.567  34.243  36.765  1.00  0.00     0.091 A 
ATOM     63  F   UNL A   1      40.719  33.999  34.689  1.00  0.00    -0.205 F 
ATOM     64  C   UNL A   1      38.713  33.698  37.737  1.00  0.00     0.022 A 
BRANCH  62  65
ATOM     65  S   UNL A   1      40.175  35.909  37.048  1.00  0.00     0.127 S 
ATOM     66  O   UNL A   1      39.750  36.591  35.827  1.00  0.00    -0.237 OA
ATOM     67  O   UNL A   1      39.447  36.307  38.253  1.00  0.00    -0.237 OA
ATOM     68  O   UNL A   1      41.615  35.782  37.229  1.00  0.00    -0.744 OA
ENDBRANCH  62  65
ENDBRANCH  44  58
BRANCH  45  69
ATOM     69  C   UNL A   1      42.173  26.695  27.625  1.00  0.00     0.023 A 
ATOM     70  C   UNL A   1      42.962  27.283  26.617  1.00  0.00     0.012 A 
ATOM     71  C   UNL A   1      41.812  25.339  27.509  1.00  0.00     0.148 A 
ATOM     72  C   UNL A   1      43.365  26.542  25.506  1.00  0.00     0.002 A 
ATOM     73  C   UNL A   1      42.267  24.591  26.430  1.00  0.00     0.091 A 
ATOM     74  F   UNL A   1      41.037  24.802  28.462  1.00  0.00    -0.205 F 
ATOM     75  C   UNL A   1      43.030  25.193  25.418  1.00  0.00     0.022 A 
BRANCH  73  76
ATOM     76  S   UNL A   1      41.998  22.818  26.320  1.00  0.00     0.127 S 
ATOM     77  O   UNL A   1      42.624  22.497  25.041  1.00  0.00    -0.237 OA
ATOM     78  O   UNL A   1      42.714  22.325  27.498  1.00  0.00    -0.237 OA
ATOM     79  O   UNL A   1      40.552  22.643  26.386  1.00  0.00    -0.744 OA
ENDBRANCH  73  76
ENDBRANCH  45  69
BRANCH  57  80
ATOM     80  C   UNL A   1      44.664  27.338  34.111  1.00  0.00     0.023 A 
ATOM     81  C   UNL A   1      45.942  27.922  34.014  1.00  0.00     0.012 A 
ATOM     82  C   UNL A   1      44.483  26.201  34.922  1.00  0.00     0.148 A 
ATOM     83  C   UNL A   1      47.029  27.365  34.686  1.00  0.00     0.002 A 
ATOM     84  C   UNL A   1      45.564  25.675  35.623  1.00  0.00     0.091 A 
ATOM     85  F   UNL A   1      43.266  25.642  34.985  1.00  0.00    -0.205 F 
ATOM     86  C   UNL A   1      46.839  26.249  35.498  1.00  0.00     0.022 A 
BRANCH  84  87
ATOM     87  S   UNL A   1      45.375  24.293  36.755  1.00  0.00     0.127 S 
ATOM     88  O   UNL A   1      44.955  23.222  35.855  1.00  0.00    -0.237 OA
ATOM     89  O   UNL A   1      46.726  24.138  37.298  1.00  0.00    -0.237 OA
ATOM     90  O   UNL A   1      44.385  24.723  37.735  1.00  0.00    -0.744 OA
ENDBRANCH  84  87
ENDBRANCH  57  80
ENDBRANCH  31  32
ENDBRANCH  24  26
ENDBRANCH  23  24
ENDBRANCH   1  23
TORSDOF 16
ENDMDL
