MODEL 1
REMARK VINA RESULT:     -13.1      0.000      0.000
REMARK SMILES O=C1[NH+]=C(Nc2ccc(C(=O)OCCOC(=O)c3ccc(-c4c5nc(c(-c6cccc(S(=O)(=O)[O-])c6F)c6ccc([nH]6)c(-c6cccc(S(=O)(=O)[O-])c6F)c6nc(c(-c7cccc(S(=O)(=O)[O-])c7F)c7ccc4[nH]7)C=C6)C=C5)cc3)c(O)c2)S/C1=C\c1ccc[nH]1
REMARK SMILES IDX 14 1 13 2 12 3 10 4 11 5 9 6 6 7 7 8 83 9 8 10 81 11 5 12
REMARK SMILES IDX 1 13 2 14 3 15 85 16 4 17 84 19 86 20 87 22 88 23 91 24
REMARK SMILES IDX 89 25 90 26 82 28 15 30 16 31 17 32 18 33 19 34 80 35 20 36
REMARK SMILES IDX 79 37 21 38 22 39 23 40 73 41 24 42 78 43 72 44 74 45 25 46
REMARK SMILES IDX 77 47 71 48 70 49 26 51 58 52 38 53 57 54 39 55 42 56 56 57
REMARK SMILES IDX 75 58 40 59 41 60 55 62 76 63 43 64 27 65 28 66 36 67 29 68
REMARK SMILES IDX 31 69 37 70 30 71 32 72 33 73 34 74 35 75 59 76 60 77 68 78
REMARK SMILES IDX 61 79 63 80 69 81 62 82 64 83 65 84 66 85 67 86 44 87 45 88
REMARK SMILES IDX 53 89 46 90 48 91 54 92 47 93 49 94 50 95 51 96 52 97
REMARK H PARENT 3 18 5 21 91 27 82 29 74 50 42 61
REMARK Flexibility Score: inf
ROOT
ATOM      1  C   UNL A   1      37.014  20.440  25.222  1.00  0.00     0.275 C 
ENDROOT
BRANCH   1   2
ATOM      2  C   UNL A   1      35.794  21.159  24.639  1.00  0.00     0.275 C 
BRANCH   2   3
ATOM      3  O   UNL A   1      34.574  20.786  25.319  1.00  0.00    -0.458 OA
BRANCH   3   4
ATOM      4  C   UNL A   1      33.454  20.746  24.547  1.00  0.00     0.342 C 
ATOM      5  O   UNL A   1      32.882  19.739  24.166  1.00  0.00    -0.246 OA
BRANCH   4   6
ATOM      6  C   UNL A   1      32.940  22.116  24.289  1.00  0.00     0.102 A 
ATOM      7  C   UNL A   1      32.158  24.800  23.912  1.00  0.00     0.129 A 
ATOM      8  C   UNL A   1      32.737  24.395  25.116  1.00  0.00     0.053 A 
ATOM      9  C   UNL A   1      31.909  23.838  22.926  1.00  0.00     0.098 A 
ATOM     10  C   UNL A   1      33.081  23.058  25.318  1.00  0.00     0.024 A 
ATOM     11  C   UNL A   1      32.334  22.517  23.095  1.00  0.00     0.134 A 
BRANCH   7  12
ATOM     12  N   UNL A   1      31.760  26.127  23.724  1.00  0.00    -0.234 N 
ATOM     13  O   UNL A   1      27.141  26.349  24.281  1.00  0.00    -0.240 OA
ATOM     14  C   UNL A   1      28.253  26.684  23.902  1.00  0.00     0.346 C 
ATOM     15  N   UNL A   1      29.398  25.929  24.037  1.00  0.00    -0.199 N 
ATOM     16  C   UNL A   1      28.540  28.016  23.290  1.00  0.00     0.111 C 
ATOM     17  C   UNL A   1      30.463  26.548  23.662  1.00  0.00     0.322 C 
ATOM     18  H   UNL A   1      29.400  25.008  24.386  1.00  0.00     0.316 HD
ATOM     19  S   UNL A   1      30.234  28.163  23.023  1.00  0.00     0.006 SA
ATOM     20  C   UNL A   1      27.576  28.919  23.070  1.00  0.00     0.050 C 
ATOM     21  H   UNL A   1      32.465  26.806  23.628  1.00  0.00     0.313 HD
BRANCH  20  22
ATOM     22  C   UNL A   1      27.825  30.184  22.483  1.00  0.00     0.039 A 
ATOM     23  C   UNL A   1      28.078  31.442  22.992  1.00  0.00     0.027 A 
ATOM     24  N   UNL A   1      27.861  30.276  21.113  1.00  0.00    -0.362 N 
ATOM     25  C   UNL A   1      28.232  32.324  21.895  1.00  0.00     0.020 A 
ATOM     26  C   UNL A   1      28.076  31.580  20.746  1.00  0.00     0.083 A 
ATOM     27  H   UNL A   1      27.750  29.522  20.490  1.00  0.00     0.166 HD
ENDBRANCH  20  22
ENDBRANCH   7  12
BRANCH  11  28
ATOM     28  O   UNL A   1      32.107  21.672  22.041  1.00  0.00    -0.507 OA
ATOM     29  H   UNL A   1      31.541  20.933  22.147  1.00  0.00     0.293 HD
ENDBRANCH  11  28
ENDBRANCH   4   6
ENDBRANCH   3   4
ENDBRANCH   2   3
ENDBRANCH   1   2
BRANCH   1  30
ATOM     30  O   UNL A   1      38.205  21.231  25.056  1.00  0.00    -0.458 OA
BRANCH  30  31
ATOM     31  C   UNL A   1      39.200  20.957  25.930  1.00  0.00     0.338 C 
ATOM     32  O   UNL A   1      39.804  19.904  26.049  1.00  0.00    -0.246 OA
BRANCH  31  33
ATOM     33  C   UNL A   1      39.583  22.171  26.666  1.00  0.00     0.060 A 
ATOM     34  C   UNL A   1      38.937  23.351  26.316  1.00  0.00     0.016 A 
ATOM     35  C   UNL A   1      40.684  22.205  27.519  1.00  0.00     0.016 A 
ATOM     36  C   UNL A   1      39.442  24.583  26.718  1.00  0.00     0.010 A 
ATOM     37  C   UNL A   1      41.148  23.445  27.989  1.00  0.00     0.010 A 
ATOM     38  C   UNL A   1      40.570  24.652  27.545  1.00  0.00    -0.014 A 
BRANCH  38  39
ATOM     39  C   UNL A   1      41.189  25.980  27.837  1.00  0.00     0.031 A 
ATOM     40  C   UNL A   1      42.567  26.307  27.310  1.00  0.00     0.074 A 
ATOM     41  C   UNL A   1      40.513  26.921  28.530  1.00  0.00     0.049 A 
ATOM     42  N   UNL A   1      43.311  27.363  27.533  1.00  0.00    -0.248 NA
ATOM     43  C   UNL A   1      43.201  25.311  26.432  1.00  0.00     0.031 C 
ATOM     44  C   UNL A   1      39.171  26.759  29.092  1.00  0.00     0.029 A 
ATOM     45  N   UNL A   1      40.864  28.203  28.880  1.00  0.00    -0.354 N 
ATOM     46  C   UNL A   1      44.522  27.120  26.892  1.00  0.00     0.074 A 
ATOM     47  C   UNL A   1      44.414  25.820  26.269  1.00  0.00     0.031 C 
ATOM     48  C   UNL A   1      38.805  27.901  29.696  1.00  0.00     0.029 A 
ATOM     49  C   UNL A   1      39.907  28.855  29.623  1.00  0.00     0.049 A 
ATOM     50  H   UNL A   1      41.720  28.617  28.622  1.00  0.00     0.167 HD
ATOM     51  C   UNL A   1      45.621  27.911  26.813  1.00  0.00     0.034 A 
ATOM     52  C   UNL A   1      39.919  30.070  30.208  1.00  0.00     0.034 A 
ATOM     53  C   UNL A   1      45.699  29.248  27.341  1.00  0.00     0.049 A 
ATOM     54  C   UNL A   1      41.131  30.949  30.057  1.00  0.00     0.074 A 
ATOM     55  C   UNL A   1      46.751  30.143  27.261  1.00  0.00     0.029 A 
ATOM     56  N   UNL A   1      44.679  29.891  28.026  1.00  0.00    -0.354 N 
ATOM     57  N   UNL A   1      42.243  30.720  29.401  1.00  0.00    -0.248 NA
ATOM     58  C   UNL A   1      41.081  32.268  30.707  1.00  0.00     0.031 C 
ATOM     59  C   UNL A   1      46.373  31.324  27.910  1.00  0.00     0.029 A 
ATOM     60  C   UNL A   1      45.076  31.173  28.370  1.00  0.00     0.049 A 
ATOM     61  H   UNL A   1      43.804  29.495  28.236  1.00  0.00     0.167 HD
ATOM     62  C   UNL A   1      43.009  31.873  29.535  1.00  0.00     0.074 A 
ATOM     63  C   UNL A   1      42.221  32.811  30.305  1.00  0.00     0.031 C 
ATOM     64  C   UNL A   1      44.261  32.123  29.080  1.00  0.00     0.034 A 
BRANCH  51  65
ATOM     65  C   UNL A   1      46.833  27.366  26.102  1.00  0.00     0.023 A 
ATOM     66  C   UNL A   1      46.997  27.577  24.719  1.00  0.00     0.012 A 
ATOM     67  C   UNL A   1      47.846  26.702  26.824  1.00  0.00     0.148 A 
ATOM     68  C   UNL A   1      48.134  27.110  24.059  1.00  0.00     0.002 A 
ATOM     69  C   UNL A   1      48.998  26.281  26.168  1.00  0.00     0.091 A 
ATOM     70  F   UNL A   1      47.665  26.494  28.136  1.00  0.00    -0.205 F 
ATOM     71  C   UNL A   1      49.137  26.473  24.785  1.00  0.00     0.022 A 
BRANCH  69  72
ATOM     72  S   UNL A   1      50.384  25.529  27.030  1.00  0.00     0.127 S 
ATOM     73  O   UNL A   1      50.782  26.600  27.943  1.00  0.00    -0.237 OA
ATOM     74  O   UNL A   1      49.755  24.378  27.680  1.00  0.00    -0.237 OA
ATOM     75  O   UNL A   1      51.361  25.188  26.005  1.00  0.00    -0.744 OA
ENDBRANCH  69  72
ENDBRANCH  51  65
BRANCH  52  76
ATOM     76  C   UNL A   1      38.732  30.543  30.979  1.00  0.00     0.023 A 
ATOM     77  C   UNL A   1      38.682  30.349  32.373  1.00  0.00     0.012 A 
ATOM     78  C   UNL A   1      37.656  31.190  30.339  1.00  0.00     0.148 A 
ATOM     79  C   UNL A   1      37.570  30.758  33.110  1.00  0.00     0.002 A 
ATOM     80  C   UNL A   1      36.581  31.652  31.088  1.00  0.00     0.091 A 
ATOM     81  F   UNL A   1      37.707  31.344  29.009  1.00  0.00    -0.205 F 
ATOM     82  C   UNL A   1      36.526  31.420  32.471  1.00  0.00     0.022 A 
BRANCH  80  83
ATOM     83  S   UNL A   1      35.269  32.641  30.363  1.00  0.00     0.127 S 
ATOM     84  O   UNL A   1      34.774  31.757  29.311  1.00  0.00    -0.237 OA
ATOM     85  O   UNL A   1      34.360  32.819  31.496  1.00  0.00    -0.237 OA
ATOM     86  O   UNL A   1      35.911  33.869  29.915  1.00  0.00    -0.744 OA
ENDBRANCH  80  83
ENDBRANCH  52  76
BRANCH  64  87
ATOM     87  C   UNL A   1      44.844  33.484  29.361  1.00  0.00     0.023 A 
ATOM     88  C   UNL A   1      45.559  33.711  30.554  1.00  0.00     0.012 A 
ATOM     89  C   UNL A   1      44.721  34.528  28.422  1.00  0.00     0.148 A 
ATOM     90  C   UNL A   1      46.102  34.965  30.828  1.00  0.00     0.002 A 
ATOM     91  C   UNL A   1      45.307  35.761  28.681  1.00  0.00     0.091 A 
ATOM     92  F   UNL A   1      44.019  34.303  27.301  1.00  0.00    -0.205 F 
ATOM     93  C   UNL A   1      45.986  35.987  29.889  1.00  0.00     0.022 A 
BRANCH  91  94
ATOM     94  S   UNL A   1      45.282  37.099  27.481  1.00  0.00     0.127 S 
ATOM     95  O   UNL A   1      46.092  36.544  26.398  1.00  0.00    -0.237 OA
ATOM     96  O   UNL A   1      43.856  37.221  27.173  1.00  0.00    -0.237 OA
ATOM     97  O   UNL A   1      45.847  38.254  28.165  1.00  0.00    -0.744 OA
ENDBRANCH  91  94
ENDBRANCH  64  87
ENDBRANCH  38  39
ENDBRANCH  31  33
ENDBRANCH  30  31
ENDBRANCH   1  30
TORSDOF 17
ENDMDL
MODEL 2
REMARK VINA RESULT:     -12.9      1.390      7.543
REMARK SMILES O=C1[NH+]=C(Nc2ccc(C(=O)OCCOC(=O)c3ccc(-c4c5nc(c(-c6cccc(S(=O)(=O)[O-])c6F)c6ccc([nH]6)c(-c6cccc(S(=O)(=O)[O-])c6F)c6nc(c(-c7cccc(S(=O)(=O)[O-])c7F)c7ccc4[nH]7)C=C6)C=C5)cc3)c(O)c2)S/C1=C\c1ccc[nH]1
REMARK SMILES IDX 14 1 13 2 12 3 10 4 11 5 9 6 6 7 7 8 83 9 8 10 81 11 5 12
REMARK SMILES IDX 1 13 2 14 3 15 85 16 4 17 84 19 86 20 87 22 88 23 91 24
REMARK SMILES IDX 89 25 90 26 82 28 15 30 16 31 17 32 18 33 19 34 80 35 20 36
REMARK SMILES IDX 79 37 21 38 22 39 23 40 73 41 24 42 78 43 72 44 74 45 25 46
REMARK SMILES IDX 77 47 71 48 70 49 26 51 58 52 38 53 57 54 39 55 42 56 56 57
REMARK SMILES IDX 75 58 40 59 41 60 55 62 76 63 43 64 27 65 28 66 36 67 29 68
REMARK SMILES IDX 31 69 37 70 30 71 32 72 33 73 34 74 35 75 59 76 60 77 68 78
REMARK SMILES IDX 61 79 63 80 69 81 62 82 64 83 65 84 66 85 67 86 44 87 45 88
REMARK SMILES IDX 53 89 46 90 48 91 54 92 47 93 49 94 50 95 51 96 52 97
REMARK H PARENT 3 18 5 21 91 27 82 29 74 50 42 61
REMARK Flexibility Score: inf
ROOT
ATOM      1  C   UNL A   1      36.680  20.433  25.136  1.00  0.00     0.275 C 
ENDROOT
BRANCH   1   2
ATOM      2  C   UNL A   1      35.422  21.168  24.666  1.00  0.00     0.275 C 
BRANCH   2   3
ATOM      3  O   UNL A   1      34.232  20.673  25.322  1.00  0.00    -0.458 OA
BRANCH   3   4
ATOM      4  C   UNL A   1      33.098  20.672  24.571  1.00  0.00     0.342 C 
ATOM      5  O   UNL A   1      32.473  19.686  24.218  1.00  0.00    -0.246 OA
BRANCH   4   6
ATOM      6  C   UNL A   1      32.642  22.060  24.297  1.00  0.00     0.102 A 
ATOM      7  C   UNL A   1      31.947  24.769  23.929  1.00  0.00     0.129 A 
ATOM      8  C   UNL A   1      32.286  24.291  25.197  1.00  0.00     0.053 A 
ATOM      9  C   UNL A   1      31.890  23.865  22.862  1.00  0.00     0.098 A 
ATOM     10  C   UNL A   1      32.585  22.941  25.386  1.00  0.00     0.024 A 
ATOM     11  C   UNL A   1      32.274  22.532  23.034  1.00  0.00     0.134 A 
BRANCH   7  12
ATOM     12  N   UNL A   1      31.592  26.108  23.744  1.00  0.00    -0.234 N 
ATOM     13  O   UNL A   1      26.971  26.462  24.211  1.00  0.00    -0.240 OA
ATOM     14  C   UNL A   1      28.100  26.767  23.857  1.00  0.00     0.346 C 
ATOM     15  N   UNL A   1      29.219  25.977  24.009  1.00  0.00    -0.199 N 
ATOM     16  C   UNL A   1      28.438  28.094  23.261  1.00  0.00     0.111 C 
ATOM     17  C   UNL A   1      30.310  26.568  23.659  1.00  0.00     0.322 C 
ATOM     18  H   UNL A   1      29.187  25.054  24.350  1.00  0.00     0.316 HD
ATOM     19  S   UNL A   1      30.141  28.193  23.030  1.00  0.00     0.006 SA
ATOM     20  C   UNL A   1      27.506  29.028  23.030  1.00  0.00     0.050 C 
ATOM     21  H   UNL A   1      32.319  26.767  23.668  1.00  0.00     0.313 HD
BRANCH  20  22
ATOM     22  C   UNL A   1      27.804  30.288  22.458  1.00  0.00     0.039 A 
ATOM     23  C   UNL A   1      28.080  31.536  22.981  1.00  0.00     0.027 A 
ATOM     24  N   UNL A   1      27.874  30.388  21.090  1.00  0.00    -0.362 N 
ATOM     25  C   UNL A   1      28.285  32.420  21.894  1.00  0.00     0.020 A 
ATOM     26  C   UNL A   1      28.135  31.689  20.737  1.00  0.00     0.083 A 
ATOM     27  H   UNL A   1      27.757  29.642  20.459  1.00  0.00     0.166 HD
ENDBRANCH  20  22
ENDBRANCH   7  12
BRANCH  11  28
ATOM     28  O   UNL A   1      32.252  21.749  21.911  1.00  0.00    -0.507 OA
ATOM     29  H   UNL A   1      32.113  20.826  21.987  1.00  0.00     0.293 HD
ENDBRANCH  11  28
ENDBRANCH   4   6
ENDBRANCH   3   4
ENDBRANCH   2   3
ENDBRANCH   1   2
BRANCH   1  30
ATOM     30  O   UNL A   1      37.854  21.239  24.929  1.00  0.00    -0.458 OA
BRANCH  30  31
ATOM     31  C   UNL A   1      38.932  20.879  25.662  1.00  0.00     0.338 C 
ATOM     32  O   UNL A   1      39.515  19.807  25.633  1.00  0.00    -0.246 OA
BRANCH  31  33
ATOM     33  C   UNL A   1      39.430  22.024  26.439  1.00  0.00     0.060 A 
ATOM     34  C   UNL A   1      38.845  23.259  26.184  1.00  0.00     0.016 A 
ATOM     35  C   UNL A   1      40.571  21.942  27.232  1.00  0.00     0.016 A 
ATOM     36  C   UNL A   1      39.448  24.433  26.623  1.00  0.00     0.010 A 
ATOM     37  C   UNL A   1      41.138  23.123  27.740  1.00  0.00     0.010 A 
ATOM     38  C   UNL A   1      40.619  24.386  27.391  1.00  0.00    -0.014 A 
BRANCH  38  39
ATOM     39  C   UNL A   1      41.337  25.655  27.718  1.00  0.00     0.031 A 
ATOM     40  C   UNL A   1      40.665  26.710  28.566  1.00  0.00     0.074 A 
ATOM     41  C   UNL A   1      42.606  25.858  27.306  1.00  0.00     0.049 A 
ATOM     42  N   UNL A   1      41.082  27.912  28.879  1.00  0.00    -0.248 NA
ATOM     43  C   UNL A   1      39.342  26.380  29.120  1.00  0.00     0.031 C 
ATOM     44  C   UNL A   1      43.392  24.928  26.492  1.00  0.00     0.029 A 
ATOM     45  N   UNL A   1      43.460  26.915  27.515  1.00  0.00    -0.354 N 
ATOM     46  C   UNL A   1      40.045  28.504  29.594  1.00  0.00     0.074 A 
ATOM     47  C   UNL A   1      38.980  27.530  29.671  1.00  0.00     0.031 C 
ATOM     48  C   UNL A   1      44.614  25.444  26.289  1.00  0.00     0.029 A 
ATOM     49  C   UNL A   1      44.682  26.767  26.900  1.00  0.00     0.049 A 
ATOM     50  H   UNL A   1      43.220  27.703  28.055  1.00  0.00     0.167 HD
ATOM     51  C   UNL A   1      39.988  29.739  30.151  1.00  0.00     0.034 A 
ATOM     52  C   UNL A   1      45.732  27.609  26.810  1.00  0.00     0.034 A 
ATOM     53  C   UNL A   1      41.081  30.674  30.168  1.00  0.00     0.049 A 
ATOM     54  C   UNL A   1      45.660  28.953  27.484  1.00  0.00     0.074 A 
ATOM     55  C   UNL A   1      41.132  31.926  30.755  1.00  0.00     0.029 A 
ATOM     56  N   UNL A   1      42.323  30.453  29.593  1.00  0.00    -0.354 N 
ATOM     57  N   UNL A   1      44.691  29.468  28.200  1.00  0.00    -0.248 NA
ATOM     58  C   UNL A   1      46.840  29.822  27.360  1.00  0.00     0.031 C 
ATOM     59  C   UNL A   1      42.401  32.469  30.524  1.00  0.00     0.029 A 
ATOM     60  C   UNL A   1      43.148  31.543  29.815  1.00  0.00     0.049 A 
ATOM     61  H   UNL A   1      42.580  29.642  29.100  1.00  0.00     0.167 HD
ATOM     62  C   UNL A   1      45.154  30.705  28.634  1.00  0.00     0.074 A 
ATOM     63  C   UNL A   1      46.503  30.847  28.130  1.00  0.00     0.031 C 
ATOM     64  C   UNL A   1      44.511  31.649  29.365  1.00  0.00     0.034 A 
BRANCH  51  65
ATOM     65  C   UNL A   1      38.701  30.151  30.820  1.00  0.00     0.023 A 
ATOM     66  C   UNL A   1      38.478  29.843  32.176  1.00  0.00     0.012 A 
ATOM     67  C   UNL A   1      37.741  30.909  30.118  1.00  0.00     0.148 A 
ATOM     68  C   UNL A   1      37.308  30.254  32.815  1.00  0.00     0.002 A 
ATOM     69  C   UNL A   1      36.599  31.355  30.773  1.00  0.00     0.091 A 
ATOM     70  F   UNL A   1      37.962  31.177  28.822  1.00  0.00    -0.205 F 
ATOM     71  C   UNL A   1      36.376  31.017  32.117  1.00  0.00     0.022 A 
BRANCH  69  72
ATOM     72  S   UNL A   1      35.381  32.417  29.986  1.00  0.00     0.127 S 
ATOM     73  O   UNL A   1      36.175  33.610  29.693  1.00  0.00    -0.237 OA
ATOM     74  O   UNL A   1      35.004  31.633  28.810  1.00  0.00    -0.237 OA
ATOM     75  O   UNL A   1      34.316  32.601  30.961  1.00  0.00    -0.744 OA
ENDBRANCH  69  72
ENDBRANCH  51  65
BRANCH  52  76
ATOM     76  C   UNL A   1      46.958  27.201  26.064  1.00  0.00     0.023 A 
ATOM     77  C   UNL A   1      47.918  26.384  26.691  1.00  0.00     0.012 A 
ATOM     78  C   UNL A   1      47.173  27.611  24.733  1.00  0.00     0.148 A 
ATOM     79  C   UNL A   1      49.085  26.012  26.022  1.00  0.00     0.002 A 
ATOM     80  C   UNL A   1      48.306  27.184  24.050  1.00  0.00     0.091 A 
ATOM     81  F   UNL A   1      46.262  28.408  24.158  1.00  0.00    -0.205 F 
ATOM     82  C   UNL A   1      49.273  26.401  24.699  1.00  0.00     0.022 A 
BRANCH  80  83
ATOM     83  S   UNL A   1      48.549  27.520  22.303  1.00  0.00     0.127 S 
ATOM     84  O   UNL A   1      47.369  28.319  21.984  1.00  0.00    -0.237 OA
ATOM     85  O   UNL A   1      49.812  28.260  22.308  1.00  0.00    -0.237 OA
ATOM     86  O   UNL A   1      48.627  26.213  21.664  1.00  0.00    -0.744 OA
ENDBRANCH  80  83
ENDBRANCH  52  76
BRANCH  64  87
ATOM     87  C   UNL A   1      45.274  32.902  29.708  1.00  0.00     0.023 A 
ATOM     88  C   UNL A   1      45.980  32.985  30.925  1.00  0.00     0.012 A 
ATOM     89  C   UNL A   1      45.329  33.982  28.804  1.00  0.00     0.148 A 
ATOM     90  C   UNL A   1      46.690  34.139  31.256  1.00  0.00     0.002 A 
ATOM     91  C   UNL A   1      46.078  35.109  29.120  1.00  0.00     0.091 A 
ATOM     92  F   UNL A   1      44.635  33.897  27.659  1.00  0.00    -0.205 F 
ATOM     93  C   UNL A   1      46.748  35.196  30.351  1.00  0.00     0.022 A 
BRANCH  91  94
ATOM     94  S   UNL A   1      46.279  36.474  27.968  1.00  0.00     0.127 S 
ATOM     95  O   UNL A   1      47.294  37.285  28.638  1.00  0.00    -0.237 OA
ATOM     96  O   UNL A   1      46.743  35.797  26.756  1.00  0.00    -0.237 OA
ATOM     97  O   UNL A   1      44.962  37.084  27.845  1.00  0.00    -0.744 OA
ENDBRANCH  91  94
ENDBRANCH  64  87
ENDBRANCH  38  39
ENDBRANCH  31  33
ENDBRANCH  30  31
ENDBRANCH   1  30
TORSDOF 17
ENDMDL
MODEL 3
REMARK VINA RESULT:     -12.9      5.387     10.860
REMARK SMILES O=C1[NH+]=C(Nc2ccc(C(=O)OCCOC(=O)c3ccc(-c4c5nc(c(-c6cccc(S(=O)(=O)[O-])c6F)c6ccc([nH]6)c(-c6cccc(S(=O)(=O)[O-])c6F)c6nc(c(-c7cccc(S(=O)(=O)[O-])c7F)c7ccc4[nH]7)C=C6)C=C5)cc3)c(O)c2)S/C1=C\c1ccc[nH]1
REMARK SMILES IDX 14 1 13 2 12 3 10 4 11 5 9 6 6 7 7 8 83 9 8 10 81 11 5 12
REMARK SMILES IDX 1 13 2 14 3 15 85 16 4 17 84 19 86 20 87 22 88 23 91 24
REMARK SMILES IDX 89 25 90 26 82 28 15 30 16 31 17 32 18 33 19 34 80 35 20 36
REMARK SMILES IDX 79 37 21 38 22 39 23 40 73 41 24 42 78 43 72 44 74 45 25 46
REMARK SMILES IDX 77 47 71 48 70 49 26 51 58 52 38 53 57 54 39 55 42 56 56 57
REMARK SMILES IDX 75 58 40 59 41 60 55 62 76 63 43 64 27 65 28 66 36 67 29 68
REMARK SMILES IDX 31 69 37 70 30 71 32 72 33 73 34 74 35 75 59 76 60 77 68 78
REMARK SMILES IDX 61 79 63 80 69 81 62 82 64 83 65 84 66 85 67 86 44 87 45 88
REMARK SMILES IDX 53 89 46 90 48 91 54 92 47 93 49 94 50 95 51 96 52 97
REMARK H PARENT 3 18 5 21 91 27 82 29 74 50 42 61
REMARK Flexibility Score: inf
ROOT
ATOM      1  C   UNL A   1      31.420  31.210  26.192  1.00  0.00     0.275 C 
ENDROOT
BRANCH   1   2
ATOM      2  C   UNL A   1      31.502  30.079  25.165  1.00  0.00     0.275 C 
BRANCH   2   3
ATOM      3  O   UNL A   1      32.834  29.521  25.084  1.00  0.00    -0.458 OA
BRANCH   3   4
ATOM      4  C   UNL A   1      33.123  28.841  23.942  1.00  0.00     0.342 C 
ATOM      5  O   UNL A   1      33.512  29.330  22.895  1.00  0.00    -0.246 OA
BRANCH   4   6
ATOM      6  C   UNL A   1      32.993  27.374  24.152  1.00  0.00     0.102 A 
ATOM      7  C   UNL A   1      32.661  24.642  24.769  1.00  0.00     0.129 A 
ATOM      8  C   UNL A   1      33.134  25.533  25.735  1.00  0.00     0.053 A 
ATOM      9  C   UNL A   1      32.424  25.116  23.473  1.00  0.00     0.098 A 
ATOM     10  C   UNL A   1      33.341  26.875  25.415  1.00  0.00     0.024 A 
ATOM     11  C   UNL A   1      32.548  26.477  23.177  1.00  0.00     0.134 A 
BRANCH   7  12
ATOM     12  N   UNL A   1      32.505  23.285  25.066  1.00  0.00    -0.234 N 
ATOM     13  O   UNL A   1      36.643  21.205  24.577  1.00  0.00    -0.240 OA
ATOM     14  C   UNL A   1      35.428  21.306  24.642  1.00  0.00     0.346 C 
ATOM     15  N   UNL A   1      34.733  22.494  24.710  1.00  0.00    -0.199 N 
ATOM     16  C   UNL A   1      34.514  20.127  24.729  1.00  0.00     0.111 C 
ATOM     17  C   UNL A   1      33.466  22.334  24.887  1.00  0.00     0.322 C 
ATOM     18  H   UNL A   1      35.162  23.377  24.632  1.00  0.00     0.316 HD
ATOM     19  S   UNL A   1      32.899  20.679  24.949  1.00  0.00     0.006 SA
ATOM     20  C   UNL A   1      34.971  18.869  24.691  1.00  0.00     0.050 C 
ATOM     21  H   UNL A   1      31.638  22.995  25.431  1.00  0.00     0.313 HD
BRANCH  20  22
ATOM     22  C   UNL A   1      34.123  17.738  24.762  1.00  0.00     0.039 A 
ATOM     23  C   UNL A   1      33.880  16.669  23.924  1.00  0.00     0.027 A 
ATOM     24  N   UNL A   1      33.346  17.571  25.883  1.00  0.00    -0.362 N 
ATOM     25  C   UNL A   1      32.899  15.855  24.541  1.00  0.00     0.020 A 
ATOM     26  C   UNL A   1      32.575  16.444  25.742  1.00  0.00     0.083 A 
ATOM     27  H   UNL A   1      33.343  18.166  26.667  1.00  0.00     0.166 HD
ENDBRANCH  20  22
ENDBRANCH   7  12
BRANCH  11  28
ATOM     28  O   UNL A   1      32.222  26.848  21.900  1.00  0.00    -0.507 OA
ATOM     29  H   UNL A   1      31.625  27.556  21.756  1.00  0.00     0.293 HD
ENDBRANCH  11  28
ENDBRANCH   4   6
ENDBRANCH   3   4
ENDBRANCH   2   3
ENDBRANCH   1   2
BRANCH   1  30
ATOM     30  O   UNL A   1      32.387  31.023  27.242  1.00  0.00    -0.458 OA
BRANCH  30  31
ATOM     31  C   UNL A   1      33.180  32.091  27.485  1.00  0.00     0.338 C 
ATOM     32  O   UNL A   1      32.834  33.259  27.570  1.00  0.00    -0.246 OA
BRANCH  31  33
ATOM     33  C   UNL A   1      34.552  31.654  27.784  1.00  0.00     0.060 A 
ATOM     34  C   UNL A   1      34.762  30.286  27.918  1.00  0.00     0.016 A 
ATOM     35  C   UNL A   1      35.557  32.552  28.136  1.00  0.00     0.016 A 
ATOM     36  C   UNL A   1      35.927  29.801  28.502  1.00  0.00     0.010 A 
ATOM     37  C   UNL A   1      36.766  32.058  28.654  1.00  0.00     0.010 A 
ATOM     38  C   UNL A   1      36.941  30.681  28.901  1.00  0.00    -0.014 A 
BRANCH  38  39
ATOM     39  C   UNL A   1      38.112  30.156  29.667  1.00  0.00     0.031 A 
ATOM     40  C   UNL A   1      38.321  30.565  31.107  1.00  0.00     0.074 A 
ATOM     41  C   UNL A   1      38.968  29.277  29.105  1.00  0.00     0.049 A 
ATOM     42  N   UNL A   1      39.322  30.296  31.908  1.00  0.00    -0.248 NA
ATOM     43  C   UNL A   1      37.279  31.403  31.722  1.00  0.00     0.031 C 
ATOM     44  C   UNL A   1      38.891  28.778  27.731  1.00  0.00     0.029 A 
ATOM     45  N   UNL A   1      40.075  28.646  29.623  1.00  0.00    -0.354 N 
ATOM     46  C   UNL A   1      39.068  30.992  33.086  1.00  0.00     0.074 A 
ATOM     47  C   UNL A   1      37.819  31.694  32.897  1.00  0.00     0.031 C 
ATOM     48  C   UNL A   1      39.890  27.906  27.522  1.00  0.00     0.029 A 
ATOM     49  C   UNL A   1      40.718  27.830  28.721  1.00  0.00     0.049 A 
ATOM     50  H   UNL A   1      40.378  28.766  30.552  1.00  0.00     0.167 HD
ATOM     51  C   UNL A   1      39.797  31.032  34.228  1.00  0.00     0.034 A 
ATOM     52  C   UNL A   1      41.861  27.122  28.830  1.00  0.00     0.034 A 
ATOM     53  C   UNL A   1      40.986  30.256  34.461  1.00  0.00     0.049 A 
ATOM     54  C   UNL A   1      42.621  27.143  30.128  1.00  0.00     0.074 A 
ATOM     55  C   UNL A   1      41.761  30.192  35.607  1.00  0.00     0.029 A 
ATOM     56  N   UNL A   1      41.561  29.391  33.543  1.00  0.00    -0.354 N 
ATOM     57  N   UNL A   1      42.332  27.765  31.245  1.00  0.00    -0.248 NA
ATOM     58  C   UNL A   1      43.852  26.342  30.190  1.00  0.00     0.031 C 
ATOM     59  C   UNL A   1      42.812  29.297  35.377  1.00  0.00     0.029 A 
ATOM     60  C   UNL A   1      42.677  28.785  34.098  1.00  0.00     0.049 A 
ATOM     61  H   UNL A   1      41.227  29.231  32.632  1.00  0.00     0.167 HD
ATOM     62  C   UNL A   1      43.328  27.408  32.148  1.00  0.00     0.074 A 
ATOM     63  C   UNL A   1      44.208  26.489  31.459  1.00  0.00     0.031 C 
ATOM     64  C   UNL A   1      43.510  27.823  33.426  1.00  0.00     0.034 A 
BRANCH  51  65
ATOM     65  C   UNL A   1      39.318  31.932  35.340  1.00  0.00     0.023 A 
ATOM     66  C   UNL A   1      39.538  33.321  35.270  1.00  0.00     0.012 A 
ATOM     67  C   UNL A   1      38.584  31.402  36.421  1.00  0.00     0.148 A 
ATOM     68  C   UNL A   1      39.065  34.166  36.274  1.00  0.00     0.002 A 
ATOM     69  C   UNL A   1      38.075  32.256  37.393  1.00  0.00     0.091 A 
ATOM     70  F   UNL A   1      38.399  30.075  36.480  1.00  0.00    -0.205 F 
ATOM     71  C   UNL A   1      38.325  33.636  37.327  1.00  0.00     0.022 A 
BRANCH  69  72
ATOM     72  S   UNL A   1      37.036  31.680  38.742  1.00  0.00     0.127 S 
ATOM     73  O   UNL A   1      37.900  31.909  39.900  1.00  0.00    -0.237 OA
ATOM     74  O   UNL A   1      35.887  32.582  38.653  1.00  0.00    -0.237 OA
ATOM     75  O   UNL A   1      36.737  30.285  38.455  1.00  0.00    -0.744 OA
ENDBRANCH  69  72
ENDBRANCH  51  65
BRANCH  52  76
ATOM     76  C   UNL A   1      42.352  26.311  27.677  1.00  0.00     0.023 A 
ATOM     77  C   UNL A   1      43.247  26.883  26.752  1.00  0.00     0.012 A 
ATOM     78  C   UNL A   1      41.943  24.974  27.498  1.00  0.00     0.148 A 
ATOM     79  C   UNL A   1      43.698  26.152  25.652  1.00  0.00     0.002 A 
ATOM     80  C   UNL A   1      42.447  24.232  26.437  1.00  0.00     0.091 A 
ATOM     81  F   UNL A   1      41.073  24.453  28.373  1.00  0.00    -0.205 F 
ATOM     82  C   UNL A   1      43.308  24.825  25.501  1.00  0.00     0.022 A 
BRANCH  80  83
ATOM     83  S   UNL A   1      42.110  22.477  26.256  1.00  0.00     0.127 S 
ATOM     84  O   UNL A   1      40.654  22.463  26.134  1.00  0.00    -0.237 OA
ATOM     85  O   UNL A   1      42.835  22.153  25.026  1.00  0.00    -0.237 OA
ATOM     86  O   UNL A   1      42.657  21.852  27.452  1.00  0.00    -0.744 OA
ENDBRANCH  80  83
ENDBRANCH  52  76
BRANCH  64  87
ATOM     87  C   UNL A   1      44.679  27.249  34.183  1.00  0.00     0.023 A 
ATOM     88  C   UNL A   1      45.934  27.890  34.131  1.00  0.00     0.012 A 
ATOM     89  C   UNL A   1      44.526  26.098  34.983  1.00  0.00     0.148 A 
ATOM     90  C   UNL A   1      47.026  27.369  34.825  1.00  0.00     0.002 A 
ATOM     91  C   UNL A   1      45.607  25.614  35.710  1.00  0.00     0.091 A 
ATOM     92  F   UNL A   1      43.332  25.487  35.006  1.00  0.00    -0.205 F 
ATOM     93  C   UNL A   1      46.861  26.239  35.622  1.00  0.00     0.022 A 
BRANCH  91  94
ATOM     94  S   UNL A   1      45.452  24.219  36.833  1.00  0.00     0.127 S 
ATOM     95  O   UNL A   1      46.820  24.080  37.328  1.00  0.00    -0.237 OA
ATOM     96  O   UNL A   1      44.493  24.715  37.822  1.00  0.00    -0.237 OA
ATOM     97  O   UNL A   1      44.957  23.114  36.022  1.00  0.00    -0.744 OA
ENDBRANCH  91  94
ENDBRANCH  64  87
ENDBRANCH  38  39
ENDBRANCH  31  33
ENDBRANCH  30  31
ENDBRANCH   1  30
TORSDOF 17
ENDMDL
