MODEL 1
REMARK VINA RESULT:     -12.7      0.000      0.000
REMARK SMILES CC1(C)S[C@H](c2ccc(-c3cccc([N+](=O)[O-])c3)o2)[NH2+][C@@H]1C(=O)OCCOC(=O)c1ccc(-c2c3nc(c(-c4cccc(S(=O)(=O)[O-])c4F)c4ccc([nH]4)c(-c4cccc(S(=O)(=O)[O-])c4F)c4nc(c(-c5cccc(S(=O)(=O)[O-])c5F)c5ccc2[nH]5)C=C4)C=C3)cc1
REMARK SMILES IDX 25 1 24 2 22 3 23 4 21 5 1 6 2 7 3 8 4 9 5 10 20 11 6 14
REMARK SMILES IDX 7 15 19 16 8 17 9 18 10 19 11 20 18 21 12 22 14 23 13 24
REMARK SMILES IDX 15 25 16 26 17 27 26 28 27 29 28 30 29 31 30 32 31 33 92 34
REMARK SMILES IDX 32 35 91 36 33 37 34 38 35 39 85 40 36 41 90 42 84 43 86 44
REMARK SMILES IDX 37 45 89 46 83 47 82 48 38 50 70 51 50 52 69 53 51 54 54 55
REMARK SMILES IDX 68 56 87 57 52 58 53 59 67 61 88 62 55 63 39 64 40 65 48 66
REMARK SMILES IDX 41 67 43 68 49 69 42 70 44 71 45 72 46 73 47 74 71 75 72 76
REMARK SMILES IDX 80 77 73 78 75 79 81 80 74 81 76 82 77 83 78 84 79 85 56 86
REMARK SMILES IDX 57 87 65 88 58 89 60 90 66 91 59 92 61 93 62 94 63 95 64 96
REMARK H PARENT 20 12 20 13 86 49 54 60
REMARK Flexibility Score: inf
ROOT
ATOM      1  C   UNL A   1      36.672  22.873  23.411  1.00  0.00     0.274 C 
ENDROOT
BRANCH   1   2
ATOM      2  O   UNL A   1      35.297  23.257  23.290  1.00  0.00    -0.458 OA
BRANCH   2   3
ATOM      3  C   UNL A   1      34.872  24.255  24.129  1.00  0.00     0.366 C 
ATOM      4  O   UNL A   1      35.243  24.391  25.284  1.00  0.00    -0.245 OA
BRANCH   3   5
ATOM      5  C   UNL A   1      33.874  25.159  23.379  1.00  0.00     0.310 C 
ATOM      6  C   UNL A   1      32.649  27.381  23.295  1.00  0.00     0.030 C 
ATOM      7  C   UNL A   1      33.010  26.169  24.183  1.00  0.00     0.079 C 
ATOM      8  C   UNL A   1      33.569  26.713  25.498  1.00  0.00     0.030 C 
ATOM      9  S   UNL A   1      31.457  25.261  24.514  1.00  0.00    -0.078 SA
ATOM     10  C   UNL A   1      31.869  23.855  23.436  1.00  0.00     0.311 C 
ATOM     11  N   UNL A   1      32.955  24.306  22.557  1.00  0.00    -0.316 N 
ATOM     12  H   UNL A   1      32.573  24.850  21.784  1.00  0.00     0.348 HD
ATOM     13  H   UNL A   1      33.457  23.509  22.167  1.00  0.00     0.348 HD
BRANCH  10  14
ATOM     14  C   UNL A   1      32.128  22.602  24.231  1.00  0.00     0.172 A 
ATOM     15  C   UNL A   1      32.036  22.342  25.589  1.00  0.00     0.054 A 
ATOM     16  O   UNL A   1      32.454  21.434  23.575  1.00  0.00    -0.454 OA
ATOM     17  C   UNL A   1      32.343  20.977  25.776  1.00  0.00     0.051 A 
ATOM     18  C   UNL A   1      32.599  20.463  24.527  1.00  0.00     0.134 A 
BRANCH  18  19
ATOM     19  C   UNL A   1      32.974  19.135  24.074  1.00  0.00     0.024 A 
ATOM     20  C   UNL A   1      32.530  18.660  22.832  1.00  0.00     0.012 A 
ATOM     21  C   UNL A   1      33.857  18.350  24.823  1.00  0.00     0.097 A 
ATOM     22  C   UNL A   1      32.876  17.385  22.378  1.00  0.00     0.008 A 
ATOM     23  C   UNL A   1      34.253  17.095  24.334  1.00  0.00     0.270 A 
ATOM     24  C   UNL A   1      33.741  16.596  23.129  1.00  0.00     0.085 A 
BRANCH  23  25
ATOM     25  N   UNL A   1      35.258  16.315  25.066  1.00  0.00     0.062 N 
ATOM     26  O   UNL A   1      35.144  15.081  25.065  1.00  0.00    -0.258 OA
ATOM     27  O   UNL A   1      36.174  16.933  25.627  1.00  0.00    -0.258 OA
ENDBRANCH  23  25
ENDBRANCH  18  19
ENDBRANCH  10  14
ENDBRANCH   3   5
ENDBRANCH   2   3
ENDBRANCH   1   2
BRANCH   1  28
ATOM     28  C   UNL A   1      36.863  21.570  24.183  1.00  0.00     0.275 C 
BRANCH  28  29
ATOM     29  O   UNL A   1      37.223  21.831  25.544  1.00  0.00    -0.458 OA
BRANCH  29  30
ATOM     30  C   UNL A   1      38.489  21.458  25.853  1.00  0.00     0.338 C 
ATOM     31  O   UNL A   1      39.042  20.410  25.569  1.00  0.00    -0.246 OA
BRANCH  30  32
ATOM     32  C   UNL A   1      39.204  22.607  26.424  1.00  0.00     0.060 A 
ATOM     33  C   UNL A   1      38.750  23.878  26.060  1.00  0.00     0.016 A 
ATOM     34  C   UNL A   1      40.314  22.452  27.256  1.00  0.00     0.016 A 
ATOM     35  C   UNL A   1      39.399  25.010  26.535  1.00  0.00     0.010 A 
ATOM     36  C   UNL A   1      40.982  23.591  27.713  1.00  0.00     0.010 A 
ATOM     37  C   UNL A   1      40.529  24.871  27.346  1.00  0.00    -0.014 A 
BRANCH  37  38
ATOM     38  C   UNL A   1      41.313  26.076  27.681  1.00  0.00     0.031 A 
ATOM     39  C   UNL A   1      40.653  27.157  28.481  1.00  0.00     0.074 A 
ATOM     40  C   UNL A   1      42.600  26.178  27.311  1.00  0.00     0.049 A 
ATOM     41  N   UNL A   1      41.124  28.319  28.843  1.00  0.00    -0.248 NA
ATOM     42  C   UNL A   1      39.281  26.886  28.944  1.00  0.00     0.031 C 
ATOM     43  C   UNL A   1      43.357  25.154  26.591  1.00  0.00     0.029 A 
ATOM     44  N   UNL A   1      43.491  27.207  27.475  1.00  0.00    -0.354 N 
ATOM     45  C   UNL A   1      40.097  28.936  29.547  1.00  0.00     0.074 A 
ATOM     46  C   UNL A   1      38.982  28.014  29.571  1.00  0.00     0.031 C 
ATOM     47  C   UNL A   1      44.592  25.622  26.342  1.00  0.00     0.029 A 
ATOM     48  C   UNL A   1      44.695  26.990  26.847  1.00  0.00     0.049 A 
ATOM     49  H   UNL A   1      43.289  28.020  27.991  1.00  0.00     0.167 HD
ATOM     50  C   UNL A   1      40.087  30.162  30.116  1.00  0.00     0.034 A 
ATOM     51  C   UNL A   1      45.739  27.822  26.666  1.00  0.00     0.034 A 
ATOM     52  C   UNL A   1      41.199  31.072  30.079  1.00  0.00     0.049 A 
ATOM     53  C   UNL A   1      45.672  29.212  27.247  1.00  0.00     0.074 A 
ATOM     54  C   UNL A   1      41.291  32.336  30.630  1.00  0.00     0.029 A 
ATOM     55  N   UNL A   1      42.402  30.821  29.438  1.00  0.00    -0.354 N 
ATOM     56  N   UNL A   1      44.725  29.762  27.969  1.00  0.00    -0.248 NA
ATOM     57  C   UNL A   1      46.826  30.090  27.005  1.00  0.00     0.031 C 
ATOM     58  C   UNL A   1      42.539  32.868  30.286  1.00  0.00     0.029 A 
ATOM     59  C   UNL A   1      43.240  31.915  29.563  1.00  0.00     0.049 A 
ATOM     60  H   UNL A   1      42.628  29.989  28.964  1.00  0.00     0.167 HD
ATOM     61  C   UNL A   1      45.185  31.032  28.300  1.00  0.00     0.074 A 
ATOM     62  C   UNL A   1      46.502  31.164  27.713  1.00  0.00     0.031 C 
ATOM     63  C   UNL A   1      44.570  32.007  29.016  1.00  0.00     0.034 A 
BRANCH  50  64
ATOM     64  C   UNL A   1      38.822  30.594  30.805  1.00  0.00     0.023 A 
ATOM     65  C   UNL A   1      38.659  30.375  32.188  1.00  0.00     0.012 A 
ATOM     66  C   UNL A   1      37.804  31.244  30.082  1.00  0.00     0.148 A 
ATOM     67  C   UNL A   1      37.487  30.767  32.833  1.00  0.00     0.002 A 
ATOM     68  C   UNL A   1      36.660  31.674  30.740  1.00  0.00     0.091 A 
ATOM     69  F   UNL A   1      37.969  31.417  28.762  1.00  0.00    -0.205 F 
ATOM     70  C   UNL A   1      36.493  31.425  32.112  1.00  0.00     0.022 A 
BRANCH  68  71
ATOM     71  S   UNL A   1      35.358  32.594  29.914  1.00  0.00     0.127 S 
ATOM     72  O   UNL A   1      34.361  32.712  30.978  1.00  0.00    -0.237 OA
ATOM     73  O   UNL A   1      36.037  33.843  29.572  1.00  0.00    -0.237 OA
ATOM     74  O   UNL A   1      34.956  31.786  28.771  1.00  0.00    -0.744 OA
ENDBRANCH  68  71
ENDBRANCH  50  64
BRANCH  51  75
ATOM     75  C   UNL A   1      46.934  27.373  25.896  1.00  0.00     0.023 A 
ATOM     76  C   UNL A   1      47.920  26.591  26.527  1.00  0.00     0.012 A 
ATOM     77  C   UNL A   1      47.101  27.727  24.542  1.00  0.00     0.148 A 
ATOM     78  C   UNL A   1      49.068  26.200  25.835  1.00  0.00     0.002 A 
ATOM     79  C   UNL A   1      48.219  27.286  23.843  1.00  0.00     0.091 A 
ATOM     80  F   UNL A   1      46.160  28.487  23.964  1.00  0.00    -0.205 F 
ATOM     81  C   UNL A   1      49.212  26.539  24.493  1.00  0.00     0.022 A 
BRANCH  79  82
ATOM     82  S   UNL A   1      48.433  27.578  22.083  1.00  0.00     0.127 S 
ATOM     83  O   UNL A   1      49.617  28.433  22.065  1.00  0.00    -0.237 OA
ATOM     84  O   UNL A   1      48.644  26.221  21.579  1.00  0.00    -0.237 OA
ATOM     85  O   UNL A   1      47.197  28.204  21.632  1.00  0.00    -0.744 OA
ENDBRANCH  79  82
ENDBRANCH  51  75
BRANCH  63  86
ATOM     86  C   UNL A   1      45.328  33.288  29.255  1.00  0.00     0.023 A 
ATOM     87  C   UNL A   1      46.169  33.412  30.378  1.00  0.00     0.012 A 
ATOM     88  C   UNL A   1      45.270  34.335  28.314  1.00  0.00     0.148 A 
ATOM     89  C   UNL A   1      46.918  34.572  30.575  1.00  0.00     0.002 A 
ATOM     90  C   UNL A   1      46.061  35.464  28.488  1.00  0.00     0.091 A 
ATOM     91  F   UNL A   1      44.450  34.203  27.260  1.00  0.00    -0.205 F 
ATOM     92  C   UNL A   1      46.875  35.590  29.625  1.00  0.00     0.022 A 
BRANCH  90  93
ATOM     93  S   UNL A   1      46.148  36.777  27.266  1.00  0.00     0.127 S 
ATOM     94  O   UNL A   1      46.520  36.038  26.061  1.00  0.00    -0.237 OA
ATOM     95  O   UNL A   1      44.779  37.292  27.268  1.00  0.00    -0.237 OA
ATOM     96  O   UNL A   1      47.148  37.717  27.755  1.00  0.00    -0.744 OA
ENDBRANCH  90  93
ENDBRANCH  63  86
ENDBRANCH  37  38
ENDBRANCH  30  32
ENDBRANCH  29  30
ENDBRANCH  28  29
ENDBRANCH   1  28
TORSDOF 17
ENDMDL
MODEL 2
REMARK VINA RESULT:     -12.1      1.668      4.046
REMARK SMILES CC1(C)S[C@H](c2ccc(-c3cccc([N+](=O)[O-])c3)o2)[NH2+][C@@H]1C(=O)OCCOC(=O)c1ccc(-c2c3nc(c(-c4cccc(S(=O)(=O)[O-])c4F)c4ccc([nH]4)c(-c4cccc(S(=O)(=O)[O-])c4F)c4nc(c(-c5cccc(S(=O)(=O)[O-])c5F)c5ccc2[nH]5)C=C4)C=C3)cc1
REMARK SMILES IDX 25 1 24 2 22 3 23 4 21 5 1 6 2 7 3 8 4 9 5 10 20 11 6 14
REMARK SMILES IDX 7 15 19 16 8 17 9 18 10 19 11 20 18 21 12 22 14 23 13 24
REMARK SMILES IDX 15 25 16 26 17 27 26 28 27 29 28 30 29 31 30 32 31 33 92 34
REMARK SMILES IDX 32 35 91 36 33 37 34 38 35 39 85 40 36 41 90 42 84 43 86 44
REMARK SMILES IDX 37 45 89 46 83 47 82 48 38 50 70 51 50 52 69 53 51 54 54 55
REMARK SMILES IDX 68 56 87 57 52 58 53 59 67 61 88 62 55 63 39 64 40 65 48 66
REMARK SMILES IDX 41 67 43 68 49 69 42 70 44 71 45 72 46 73 47 74 71 75 72 76
REMARK SMILES IDX 80 77 73 78 75 79 81 80 74 81 76 82 77 83 78 84 79 85 56 86
REMARK SMILES IDX 57 87 65 88 58 89 60 90 66 91 59 92 61 93 62 94 63 95 64 96
REMARK H PARENT 20 12 20 13 86 49 54 60
REMARK Flexibility Score: inf
ROOT
ATOM      1  C   UNL A   1      36.653  21.678  24.681  1.00  0.00     0.274 C 
ENDROOT
BRANCH   1   2
ATOM      2  O   UNL A   1      35.363  21.062  24.766  1.00  0.00    -0.458 OA
BRANCH   2   3
ATOM      3  C   UNL A   1      34.623  21.360  25.883  1.00  0.00     0.366 C 
ATOM      4  O   UNL A   1      34.869  22.278  26.648  1.00  0.00    -0.245 OA
BRANCH   3   5
ATOM      5  C   UNL A   1      33.453  20.364  25.997  1.00  0.00     0.310 C 
ATOM      6  C   UNL A   1      32.649  17.970  25.733  1.00  0.00     0.030 C 
ATOM      7  C   UNL A   1      33.407  19.132  25.052  1.00  0.00     0.079 C 
ATOM      8  C   UNL A   1      34.730  18.573  24.527  1.00  0.00     0.030 C 
ATOM      9  S   UNL A   1      32.384  19.690  23.642  1.00  0.00    -0.078 SA
ATOM     10  C   UNL A   1      31.879  21.251  24.429  1.00  0.00     0.311 C 
ATOM     11  N   UNL A   1      32.157  21.106  25.863  1.00  0.00    -0.316 N 
ATOM     12  H   UNL A   1      31.406  20.580  26.311  1.00  0.00     0.348 HD
ATOM     13  H   UNL A   1      32.217  22.019  26.312  1.00  0.00     0.348 HD
BRANCH  10  14
ATOM     14  C   UNL A   1      32.496  22.443  23.745  1.00  0.00     0.172 A 
ATOM     15  C   UNL A   1      33.028  22.599  22.474  1.00  0.00     0.054 A 
ATOM     16  O   UNL A   1      32.520  23.661  24.389  1.00  0.00    -0.454 OA
ATOM     17  C   UNL A   1      33.418  23.948  22.345  1.00  0.00     0.051 A 
ATOM     18  C   UNL A   1      33.098  24.559  23.535  1.00  0.00     0.134 A 
BRANCH  18  19
ATOM     19  C   UNL A   1      33.262  25.922  24.010  1.00  0.00     0.024 A 
ATOM     20  C   UNL A   1      33.628  26.941  23.119  1.00  0.00     0.012 A 
ATOM     21  C   UNL A   1      32.967  26.255  25.335  1.00  0.00     0.097 A 
ATOM     22  C   UNL A   1      33.795  28.259  23.554  1.00  0.00     0.008 A 
ATOM     23  C   UNL A   1      33.074  27.591  25.754  1.00  0.00     0.270 A 
ATOM     24  C   UNL A   1      33.517  28.589  24.876  1.00  0.00     0.085 A 
BRANCH  23  25
ATOM     25  N   UNL A   1      32.666  27.960  27.115  1.00  0.00     0.062 N 
ATOM     26  O   UNL A   1      33.433  28.677  27.774  1.00  0.00    -0.258 OA
ATOM     27  O   UNL A   1      31.570  27.550  27.522  1.00  0.00    -0.258 OA
ENDBRANCH  23  25
ENDBRANCH  18  19
ENDBRANCH  10  14
ENDBRANCH   3   5
ENDBRANCH   2   3
ENDBRANCH   1   2
BRANCH   1  28
ATOM     28  C   UNL A   1      37.771  20.803  25.240  1.00  0.00     0.275 C 
BRANCH  28  29
ATOM     29  O   UNL A   1      38.994  21.540  25.344  1.00  0.00    -0.458 OA
BRANCH  29  30
ATOM     30  C   UNL A   1      39.691  21.283  26.477  1.00  0.00     0.338 C 
ATOM     31  O   UNL A   1      40.002  20.193  26.924  1.00  0.00    -0.246 OA
BRANCH  30  32
ATOM     32  C   UNL A   1      40.218  22.544  27.016  1.00  0.00     0.060 A 
ATOM     33  C   UNL A   1      39.704  23.726  26.473  1.00  0.00     0.016 A 
ATOM     34  C   UNL A   1      41.216  22.577  27.991  1.00  0.00     0.016 A 
ATOM     35  C   UNL A   1      40.180  24.955  26.910  1.00  0.00     0.010 A 
ATOM     36  C   UNL A   1      41.711  23.813  28.412  1.00  0.00     0.010 A 
ATOM     37  C   UNL A   1      41.198  25.003  27.866  1.00  0.00    -0.014 A 
BRANCH  37  38
ATOM     38  C   UNL A   1      41.820  26.306  28.174  1.00  0.00     0.031 A 
ATOM     39  C   UNL A   1      40.988  27.350  28.854  1.00  0.00     0.074 A 
ATOM     40  C   UNL A   1      43.112  26.532  27.888  1.00  0.00     0.049 A 
ATOM     41  N   UNL A   1      41.300  28.577  29.171  1.00  0.00    -0.248 NA
ATOM     42  C   UNL A   1      39.621  26.953  29.238  1.00  0.00     0.031 C 
ATOM     43  C   UNL A   1      44.029  25.560  27.291  1.00  0.00     0.029 A 
ATOM     44  N   UNL A   1      43.872  27.662  28.045  1.00  0.00    -0.354 N 
ATOM     45  C   UNL A   1      40.162  29.113  29.760  1.00  0.00     0.074 A 
ATOM     46  C   UNL A   1      39.156  28.074  29.767  1.00  0.00     0.031 C 
ATOM     47  C   UNL A   1      45.221  26.150  27.097  1.00  0.00     0.029 A 
ATOM     48  C   UNL A   1      45.136  27.547  27.517  1.00  0.00     0.049 A 
ATOM     49  H   UNL A   1      43.544  28.476  28.491  1.00  0.00     0.167 HD
ATOM     50  C   UNL A   1      39.976  30.360  30.246  1.00  0.00     0.034 A 
ATOM     51  C   UNL A   1      46.094  28.480  27.355  1.00  0.00     0.034 A 
ATOM     52  C   UNL A   1      40.982  31.387  30.226  1.00  0.00     0.049 A 
ATOM     53  C   UNL A   1      45.833  29.884  27.837  1.00  0.00     0.074 A 
ATOM     54  C   UNL A   1      40.895  32.683  30.698  1.00  0.00     0.029 A 
ATOM     55  N   UNL A   1      42.251  31.237  29.688  1.00  0.00    -0.354 N 
ATOM     56  N   UNL A   1      44.780  30.364  28.455  1.00  0.00    -0.248 NA
ATOM     57  C   UNL A   1      46.900  30.873  27.619  1.00  0.00     0.031 C 
ATOM     58  C   UNL A   1      42.100  33.331  30.407  1.00  0.00     0.029 A 
ATOM     59  C   UNL A   1      42.953  32.424  29.798  1.00  0.00     0.049 A 
ATOM     60  H   UNL A   1      42.601  30.410  29.286  1.00  0.00     0.167 HD
ATOM     61  C   UNL A   1      45.072  31.696  28.733  1.00  0.00     0.074 A 
ATOM     62  C   UNL A   1      46.409  31.941  28.231  1.00  0.00     0.031 C 
ATOM     63  C   UNL A   1      44.303  32.634  29.339  1.00  0.00     0.034 A 
BRANCH  50  64
ATOM     64  C   UNL A   1      38.624  30.686  30.816  1.00  0.00     0.023 A 
ATOM     65  C   UNL A   1      38.326  30.370  32.157  1.00  0.00     0.012 A 
ATOM     66  C   UNL A   1      37.654  31.332  30.025  1.00  0.00     0.148 A 
ATOM     67  C   UNL A   1      37.072  30.664  32.692  1.00  0.00     0.002 A 
ATOM     68  C   UNL A   1      36.424  31.662  30.578  1.00  0.00     0.091 A 
ATOM     69  F   UNL A   1      37.949  31.597  28.744  1.00  0.00    -0.205 F 
ATOM     70  C   UNL A   1      36.126  31.317  31.906  1.00  0.00     0.022 A 
BRANCH  68  71
ATOM     71  S   UNL A   1      35.169  32.570  29.670  1.00  0.00     0.127 S 
ATOM     72  O   UNL A   1      34.195  32.858  30.722  1.00  0.00    -0.237 OA
ATOM     73  O   UNL A   1      35.917  33.734  29.195  1.00  0.00    -0.237 OA
ATOM     74  O   UNL A   1      34.705  31.674  28.619  1.00  0.00    -0.744 OA
ENDBRANCH  68  71
ENDBRANCH  50  64
BRANCH  51  75
ATOM     75  C   UNL A   1      47.386  28.126  26.700  1.00  0.00     0.023 A 
ATOM     76  C   UNL A   1      48.541  27.944  27.484  1.00  0.00     0.012 A 
ATOM     77  C   UNL A   1      47.476  27.977  25.302  1.00  0.00     0.148 A 
ATOM     78  C   UNL A   1      49.769  27.657  26.886  1.00  0.00     0.002 A 
ATOM     79  C   UNL A   1      48.689  27.635  24.717  1.00  0.00     0.091 A 
ATOM     80  F   UNL A   1      46.369  28.172  24.571  1.00  0.00    -0.205 F 
ATOM     81  C   UNL A   1      49.841  27.494  25.505  1.00  0.00     0.022 A 
BRANCH  79  82
ATOM     82  S   UNL A   1      48.851  27.293  22.961  1.00  0.00     0.127 S 
ATOM     83  O   UNL A   1      50.302  27.273  22.793  1.00  0.00    -0.237 OA
ATOM     84  O   UNL A   1      48.199  25.988  22.849  1.00  0.00    -0.237 OA
ATOM     85  O   UNL A   1      48.153  28.376  22.280  1.00  0.00    -0.744 OA
ENDBRANCH  79  82
ENDBRANCH  51  75
BRANCH  63  86
ATOM     86  C   UNL A   1      44.897  34.004  29.546  1.00  0.00     0.023 A 
ATOM     87  C   UNL A   1      45.580  34.305  30.740  1.00  0.00     0.012 A 
ATOM     88  C   UNL A   1      44.851  34.962  28.513  1.00  0.00     0.148 A 
ATOM     89  C   UNL A   1      46.183  35.551  30.914  1.00  0.00     0.002 A 
ATOM     90  C   UNL A   1      45.499  36.180  28.673  1.00  0.00     0.091 A 
ATOM     91  F   UNL A   1      44.180  34.661  27.391  1.00  0.00    -0.205 F 
ATOM     92  C   UNL A   1      46.154  36.482  29.878  1.00  0.00     0.022 A 
BRANCH  90  93
ATOM     93  S   UNL A   1      45.604  37.397  27.356  1.00  0.00     0.127 S 
ATOM     94  O   UNL A   1      44.193  37.700  27.118  1.00  0.00    -0.237 OA
ATOM     95  O   UNL A   1      46.362  38.475  27.990  1.00  0.00    -0.237 OA
ATOM     96  O   UNL A   1      46.294  36.740  26.254  1.00  0.00    -0.744 OA
ENDBRANCH  90  93
ENDBRANCH  63  86
ENDBRANCH  37  38
ENDBRANCH  30  32
ENDBRANCH  29  30
ENDBRANCH  28  29
ENDBRANCH   1  28
TORSDOF 17
ENDMDL
MODEL 3
REMARK VINA RESULT:     -12.1      5.183      7.252
REMARK SMILES CC1(C)S[C@H](c2ccc(-c3cccc([N+](=O)[O-])c3)o2)[NH2+][C@@H]1C(=O)OCCOC(=O)c1ccc(-c2c3nc(c(-c4cccc(S(=O)(=O)[O-])c4F)c4ccc([nH]4)c(-c4cccc(S(=O)(=O)[O-])c4F)c4nc(c(-c5cccc(S(=O)(=O)[O-])c5F)c5ccc2[nH]5)C=C4)C=C3)cc1
REMARK SMILES IDX 25 1 24 2 22 3 23 4 21 5 1 6 2 7 3 8 4 9 5 10 20 11 6 14
REMARK SMILES IDX 7 15 19 16 8 17 9 18 10 19 11 20 18 21 12 22 14 23 13 24
REMARK SMILES IDX 15 25 16 26 17 27 26 28 27 29 28 30 29 31 30 32 31 33 92 34
REMARK SMILES IDX 32 35 91 36 33 37 34 38 35 39 85 40 36 41 90 42 84 43 86 44
REMARK SMILES IDX 37 45 89 46 83 47 82 48 38 50 70 51 50 52 69 53 51 54 54 55
REMARK SMILES IDX 68 56 87 57 52 58 53 59 67 61 88 62 55 63 39 64 40 65 48 66
REMARK SMILES IDX 41 67 43 68 49 69 42 70 44 71 45 72 46 73 47 74 71 75 72 76
REMARK SMILES IDX 80 77 73 78 75 79 81 80 74 81 76 82 77 83 78 84 79 85 56 86
REMARK SMILES IDX 57 87 65 88 58 89 60 90 66 91 59 92 61 93 62 94 63 95 64 96
REMARK H PARENT 20 12 20 13 86 49 54 60
REMARK Flexibility Score: inf
ROOT
ATOM      1  C   UNL A   1      31.777  28.788  27.445  1.00  0.00     0.274 C 
ENDROOT
BRANCH   1   2
ATOM      2  O   UNL A   1      32.378  27.872  26.522  1.00  0.00    -0.458 OA
BRANCH   2   3
ATOM      3  C   UNL A   1      31.558  27.374  25.542  1.00  0.00     0.366 C 
ATOM      4  O   UNL A   1      30.842  26.393  25.674  1.00  0.00    -0.245 OA
BRANCH   3   5
ATOM      5  C   UNL A   1      31.685  28.248  24.280  1.00  0.00     0.310 C 
ATOM      6  C   UNL A   1      30.513  29.353  22.317  1.00  0.00     0.030 C 
ATOM      7  C   UNL A   1      30.693  28.035  23.104  1.00  0.00     0.079 C 
ATOM      8  C   UNL A   1      29.298  27.495  23.423  1.00  0.00     0.030 C 
ATOM      9  S   UNL A   1      31.559  26.862  21.999  1.00  0.00    -0.078 SA
ATOM     10  C   UNL A   1      33.136  26.937  22.902  1.00  0.00     0.311 C 
ATOM     11  N   UNL A   1      33.080  28.140  23.742  1.00  0.00    -0.316 N 
ATOM     12  H   UNL A   1      33.304  28.964  23.184  1.00  0.00     0.348 HD
ATOM     13  H   UNL A   1      33.755  28.079  24.503  1.00  0.00     0.348 HD
BRANCH  10  14
ATOM     14  C   UNL A   1      33.435  25.641  23.608  1.00  0.00     0.172 A 
ATOM     15  C   UNL A   1      34.129  25.372  24.778  1.00  0.00     0.054 A 
ATOM     16  O   UNL A   1      32.911  24.463  23.121  1.00  0.00    -0.454 OA
ATOM     17  C   UNL A   1      34.053  23.980  24.999  1.00  0.00     0.051 A 
ATOM     18  C   UNL A   1      33.310  23.463  23.964  1.00  0.00     0.134 A 
BRANCH  18  19
ATOM     19  C   UNL A   1      32.899  22.110  23.637  1.00  0.00     0.024 A 
ATOM     20  C   UNL A   1      32.313  21.830  22.394  1.00  0.00     0.012 A 
ATOM     21  C   UNL A   1      33.164  21.053  24.513  1.00  0.00     0.097 A 
ATOM     22  C   UNL A   1      31.907  20.536  22.058  1.00  0.00     0.008 A 
ATOM     23  C   UNL A   1      32.812  19.743  24.147  1.00  0.00     0.270 A 
ATOM     24  C   UNL A   1      32.155  19.485  22.936  1.00  0.00     0.085 A 
BRANCH  23  25
ATOM     25  N   UNL A   1      33.182  18.622  25.018  1.00  0.00     0.062 N 
ATOM     26  O   UNL A   1      32.513  18.444  26.046  1.00  0.00    -0.258 OA
ATOM     27  O   UNL A   1      34.129  17.904  24.666  1.00  0.00    -0.258 OA
ENDBRANCH  23  25
ENDBRANCH  18  19
ENDBRANCH  10  14
ENDBRANCH   3   5
ENDBRANCH   2   3
ENDBRANCH   1   2
BRANCH   1  28
ATOM     28  C   UNL A   1      31.775  30.228  26.942  1.00  0.00     0.275 C 
BRANCH  28  29
ATOM     29  O   UNL A   1      33.085  30.622  26.516  1.00  0.00    -0.458 OA
BRANCH  29  30
ATOM     30  C   UNL A   1      33.616  31.628  27.251  1.00  0.00     0.338 C 
ATOM     31  O   UNL A   1      33.078  32.671  27.578  1.00  0.00    -0.246 OA
BRANCH  30  32
ATOM     32  C   UNL A   1      34.911  31.195  27.796  1.00  0.00     0.060 A 
ATOM     33  C   UNL A   1      35.084  29.822  27.995  1.00  0.00     0.016 A 
ATOM     34  C   UNL A   1      35.911  32.103  28.145  1.00  0.00     0.016 A 
ATOM     35  C   UNL A   1      36.269  29.343  28.538  1.00  0.00     0.010 A 
ATOM     36  C   UNL A   1      37.093  31.622  28.714  1.00  0.00     0.010 A 
ATOM     37  C   UNL A   1      37.269  30.242  28.918  1.00  0.00    -0.014 A 
BRANCH  37  38
ATOM     38  C   UNL A   1      38.435  29.731  29.665  1.00  0.00     0.031 A 
ATOM     39  C   UNL A   1      38.695  30.271  31.038  1.00  0.00     0.074 A 
ATOM     40  C   UNL A   1      39.217  28.773  29.140  1.00  0.00     0.049 A 
ATOM     41  N   UNL A   1      39.682  30.013  31.852  1.00  0.00    -0.248 NA
ATOM     42  C   UNL A   1      37.703  31.222  31.568  1.00  0.00     0.031 C 
ATOM     43  C   UNL A   1      39.010  28.130  27.842  1.00  0.00     0.029 A 
ATOM     44  N   UNL A   1      40.357  28.190  29.630  1.00  0.00    -0.354 N 
ATOM     45  C   UNL A   1      39.452  30.794  32.978  1.00  0.00     0.074 A 
ATOM     46  C   UNL A   1      38.226  31.526  32.746  1.00  0.00     0.031 C 
ATOM     47  C   UNL A   1      40.016  27.265  27.622  1.00  0.00     0.029 A 
ATOM     48  C   UNL A   1      40.953  27.326  28.741  1.00  0.00     0.049 A 
ATOM     49  H   UNL A   1      40.713  28.372  30.529  1.00  0.00     0.167 HD
ATOM     50  C   UNL A   1      40.200  30.892  34.099  1.00  0.00     0.034 A 
ATOM     51  C   UNL A   1      42.141  26.696  28.813  1.00  0.00     0.034 A 
ATOM     52  C   UNL A   1      41.421  30.166  34.315  1.00  0.00     0.049 A 
ATOM     53  C   UNL A   1      42.993  26.883  30.043  1.00  0.00     0.074 A 
ATOM     54  C   UNL A   1      42.252  30.191  35.419  1.00  0.00     0.029 A 
ATOM     55  N   UNL A   1      41.995  29.298  33.398  1.00  0.00    -0.354 N 
ATOM     56  N   UNL A   1      42.735  27.569  31.130  1.00  0.00    -0.248 NA
ATOM     57  C   UNL A   1      44.291  26.192  30.065  1.00  0.00     0.031 C 
ATOM     58  C   UNL A   1      43.352  29.369  35.153  1.00  0.00     0.029 A 
ATOM     59  C   UNL A   1      43.181  28.795  33.902  1.00  0.00     0.049 A 
ATOM     60  H   UNL A   1      41.616  29.074  32.518  1.00  0.00     0.167 HD
ATOM     61  C   UNL A   1      43.818  27.362  31.980  1.00  0.00     0.074 A 
ATOM     62  C   UNL A   1      44.725  26.472  31.286  1.00  0.00     0.031 C 
ATOM     63  C   UNL A   1      44.046  27.869  33.217  1.00  0.00     0.034 A 
BRANCH  50  64
ATOM     64  C   UNL A   1      39.727  31.841  35.166  1.00  0.00     0.023 A 
ATOM     65  C   UNL A   1      40.077  33.205  35.107  1.00  0.00     0.012 A 
ATOM     66  C   UNL A   1      38.910  31.380  36.216  1.00  0.00     0.148 A 
ATOM     67  C   UNL A   1      39.648  34.090  36.095  1.00  0.00     0.002 A 
ATOM     68  C   UNL A   1      38.448  32.276  37.171  1.00  0.00     0.091 A 
ATOM     69  F   UNL A   1      38.613  30.074  36.268  1.00  0.00    -0.205 F 
ATOM     70  C   UNL A   1      38.826  33.628  37.120  1.00  0.00     0.022 A 
BRANCH  68  71
ATOM     71  S   UNL A   1      37.327  31.793  38.487  1.00  0.00     0.127 S 
ATOM     72  O   UNL A   1      37.029  30.406  38.125  1.00  0.00    -0.237 OA
ATOM     73  O   UNL A   1      38.165  31.947  39.675  1.00  0.00    -0.237 OA
ATOM     74  O   UNL A   1      36.199  32.711  38.414  1.00  0.00    -0.744 OA
ENDBRANCH  68  71
ENDBRANCH  50  64
BRANCH  51  75
ATOM     75  C   UNL A   1      42.606  25.837  27.686  1.00  0.00     0.023 A 
ATOM     76  C   UNL A   1      43.490  26.362  26.725  1.00  0.00     0.012 A 
ATOM     77  C   UNL A   1      42.168  24.504  27.559  1.00  0.00     0.148 A 
ATOM     78  C   UNL A   1      43.901  25.588  25.638  1.00  0.00     0.002 A 
ATOM     79  C   UNL A   1      42.624  23.720  26.506  1.00  0.00     0.091 A 
ATOM     80  F   UNL A   1      41.311  24.028  28.475  1.00  0.00    -0.205 F 
ATOM     81  C   UNL A   1      43.476  24.267  25.534  1.00  0.00     0.022 A 
BRANCH  79  82
ATOM     82  S   UNL A   1      42.221  21.977  26.355  1.00  0.00     0.127 S 
ATOM     83  O   UNL A   1      42.614  21.465  27.665  1.00  0.00    -0.237 OA
ATOM     84  O   UNL A   1      40.778  22.023  26.118  1.00  0.00    -0.237 OA
ATOM     85  O   UNL A   1      43.002  21.486  25.227  1.00  0.00    -0.744 OA
ENDBRANCH  79  82
ENDBRANCH  51  75
BRANCH  63  86
ATOM     86  C   UNL A   1      45.301  27.438  33.932  1.00  0.00     0.023 A 
ATOM     87  C   UNL A   1      46.471  28.216  33.838  1.00  0.00     0.012 A 
ATOM     88  C   UNL A   1      45.288  26.306  34.771  1.00  0.00     0.148 A 
ATOM     89  C   UNL A   1      47.618  27.856  34.545  1.00  0.00     0.002 A 
ATOM     90  C   UNL A   1      46.417  25.984  35.514  1.00  0.00     0.091 A 
ATOM     91  F   UNL A   1      44.168  25.569  34.834  1.00  0.00    -0.205 F 
ATOM     92  C   UNL A   1      47.587  26.750  35.392  1.00  0.00     0.022 A 
BRANCH  90  93
ATOM     93  S   UNL A   1      46.436  24.641  36.707  1.00  0.00     0.127 S 
ATOM     94  O   UNL A   1      47.739  24.826  37.343  1.00  0.00    -0.237 OA
ATOM     95  O   UNL A   1      45.290  24.967  37.556  1.00  0.00    -0.237 OA
ATOM     96  O   UNL A   1      46.287  23.414  35.936  1.00  0.00    -0.744 OA
ENDBRANCH  90  93
ENDBRANCH  63  86
ENDBRANCH  37  38
ENDBRANCH  30  32
ENDBRANCH  29  30
ENDBRANCH  28  29
ENDBRANCH   1  28
TORSDOF 17
ENDMDL
