MODEL 1
REMARK VINA RESULT:     -11.8      0.000      0.000
REMARK SMILES CCc1c(C(=O)NCC(=O)OCCOC(=O)c2ccc(-c3c4nc(c(-c5cccc(S(=O)(=O)[O-])c5F)c5ccc([nH]5)c(-c5cccc(S(=O)(=O)[O-])c5F)c5nc(c(-c6cccc(S(=O)(=O)[O-])c6F)c6ccc3[nH]6)C=C5)C=C4)cc2)nnn1-c1ccc(Cl)cc1
REMARK SMILES IDX 12 1 11 2 9 3 10 4 8 5 7 6 5 7 6 8 4 10 3 11 82 12 80 13
REMARK SMILES IDX 81 14 2 15 1 16 83 17 84 18 89 19 85 20 88 21 86 22 87 23
REMARK SMILES IDX 13 24 14 25 15 26 16 27 17 28 18 29 79 30 19 31 78 32 20 33
REMARK SMILES IDX 21 34 22 35 72 36 23 37 77 38 71 39 73 40 24 41 76 42 70 43
REMARK SMILES IDX 69 44 25 46 57 47 37 48 56 49 38 50 41 51 55 52 74 53 39 54
REMARK SMILES IDX 40 55 54 57 75 58 42 59 26 60 27 61 35 62 28 63 30 64 36 65
REMARK SMILES IDX 29 66 31 67 32 68 33 69 34 70 58 71 59 72 67 73 60 74 62 75
REMARK SMILES IDX 68 76 61 77 63 78 64 79 65 80 66 81 43 82 44 83 52 84 45 85
REMARK SMILES IDX 47 86 53 87 46 88 48 89 49 90 50 91 51 92
REMARK H PARENT 7 9 73 45 41 56
REMARK Flexibility Score: inf
ROOT
ATOM      1  C   UNL A   1      32.875  30.453  27.171  1.00  0.00     0.274 C 
ENDROOT
BRANCH   1   2
ATOM      2  O   UNL A   1      33.574  29.569  26.275  1.00  0.00    -0.461 OA
BRANCH   2   3
ATOM      3  C   UNL A   1      33.046  29.448  25.022  1.00  0.00     0.325 C 
ATOM      4  O   UNL A   1      33.689  29.150  24.021  1.00  0.00    -0.250 OA
BRANCH   3   5
ATOM      5  C   UNL A   1      31.533  29.675  24.996  1.00  0.00     0.239 C 
BRANCH   5   6
ATOM      6  N   UNL A   1      30.900  29.402  23.735  1.00  0.00    -0.340 N 
ATOM      7  C   UNL A   1      30.622  28.250  23.064  1.00  0.00     0.274 C 
ATOM      8  O   UNL A   1      29.985  28.409  22.018  1.00  0.00    -0.267 OA
ATOM      9  H   UNL A   1      30.608  30.213  23.259  1.00  0.00     0.164 HD
BRANCH   7  10
ATOM     10  C   UNL A   1      31.003  26.891  23.493  1.00  0.00     0.174 A 
ATOM     11  C   UNL A   1      31.982  25.933  23.186  1.00  0.00     0.077 A 
ATOM     12  N   UNL A   1      31.623  24.847  23.980  1.00  0.00    -0.217 N 
ATOM     13  N   UNL A   1      30.110  26.300  24.380  1.00  0.00    -0.124 NA
ATOM     14  N   UNL A   1      30.444  25.044  24.578  1.00  0.00    -0.061 NA
BRANCH  11  15
ATOM     15  C   UNL A   1      33.062  25.760  22.159  1.00  0.00     0.055 C 
ATOM     16  C   UNL A   1      32.589  25.669  20.713  1.00  0.00     0.011 C 
ENDBRANCH  11  15
BRANCH  12  17
ATOM     17  C   UNL A   1      32.241  23.584  24.039  1.00  0.00     0.067 A 
ATOM     18  C   UNL A   1      33.183  23.340  25.044  1.00  0.00     0.030 A 
ATOM     19  C   UNL A   1      31.843  22.578  23.154  1.00  0.00     0.030 A 
ATOM     20  C   UNL A   1      33.686  22.049  25.201  1.00  0.00     0.023 A 
ATOM     21  C   UNL A   1      32.382  21.300  23.294  1.00  0.00     0.023 A 
ATOM     22  C   UNL A   1      33.283  21.037  24.328  1.00  0.00     0.041 A 
ATOM     23  Cl  UNL A   1      33.892  19.441  24.536  1.00  0.00    -0.084 Cl
ENDBRANCH  12  17
ENDBRANCH   7  10
ENDBRANCH   5   6
ENDBRANCH   3   5
ENDBRANCH   2   3
ENDBRANCH   1   2
BRANCH   1  24
ATOM     24  C   UNL A   1      33.770  31.603  27.622  1.00  0.00     0.275 C 
BRANCH  24  25
ATOM     25  O   UNL A   1      35.150  31.258  27.521  1.00  0.00    -0.458 OA
BRANCH  25  26
ATOM     26  C   UNL A   1      35.984  32.075  28.203  1.00  0.00     0.338 C 
ATOM     27  O   UNL A   1      36.042  33.292  28.142  1.00  0.00    -0.246 OA
BRANCH  26  28
ATOM     28  C   UNL A   1      36.934  31.284  28.978  1.00  0.00     0.060 A 
ATOM     29  C   UNL A   1      38.075  31.943  29.452  1.00  0.00     0.016 A 
ATOM     30  C   UNL A   1      36.830  29.889  28.939  1.00  0.00     0.016 A 
ATOM     31  C   UNL A   1      39.198  31.192  29.707  1.00  0.00     0.010 A 
ATOM     32  C   UNL A   1      37.959  29.147  29.170  1.00  0.00     0.010 A 
ATOM     33  C   UNL A   1      39.142  29.816  29.474  1.00  0.00    -0.014 A 
BRANCH  33  34
ATOM     34  C   UNL A   1      40.352  29.048  29.656  1.00  0.00     0.031 A 
ATOM     35  C   UNL A   1      40.669  28.825  31.081  1.00  0.00     0.074 A 
ATOM     36  C   UNL A   1      41.011  28.505  28.617  1.00  0.00     0.049 A 
ATOM     37  N   UNL A   1      41.653  29.315  31.757  1.00  0.00    -0.248 NA
ATOM     38  C   UNL A   1      39.653  28.143  31.901  1.00  0.00     0.031 C 
ATOM     39  C   UNL A   1      40.573  28.445  27.219  1.00  0.00     0.029 A 
ATOM     40  N   UNL A   1      42.142  27.750  28.620  1.00  0.00    -0.354 N 
ATOM     41  C   UNL A   1      41.516  28.765  33.028  1.00  0.00     0.074 A 
ATOM     42  C   UNL A   1      40.164  28.292  33.122  1.00  0.00     0.031 C 
ATOM     43  C   UNL A   1      41.280  27.489  26.577  1.00  0.00     0.029 A 
ATOM     44  C   UNL A   1      42.291  26.966  27.480  1.00  0.00     0.049 A 
ATOM     45  H   UNL A   1      42.792  27.755  29.359  1.00  0.00     0.167 HD
ATOM     46  C   UNL A   1      42.614  28.439  33.761  1.00  0.00     0.034 A 
ATOM     47  C   UNL A   1      43.121  25.902  27.341  1.00  0.00     0.034 A 
ATOM     48  C   UNL A   1      43.789  29.115  33.264  1.00  0.00     0.049 A 
ATOM     49  C   UNL A   1      44.143  26.000  28.409  1.00  0.00     0.074 A 
ATOM     50  C   UNL A   1      44.152  30.430  33.055  1.00  0.00     0.029 A 
ATOM     51  N   UNL A   1      44.671  28.351  32.540  1.00  0.00    -0.354 N 
ATOM     52  N   UNL A   1      45.061  26.922  28.453  1.00  0.00    -0.248 NA
ATOM     53  C   UNL A   1      43.900  25.297  29.659  1.00  0.00     0.031 C 
ATOM     54  C   UNL A   1      44.963  30.410  31.885  1.00  0.00     0.029 A 
ATOM     55  C   UNL A   1      45.101  29.083  31.470  1.00  0.00     0.049 A 
ATOM     56  H   UNL A   1      44.946  27.430  32.755  1.00  0.00     0.167 HD
ATOM     57  C   UNL A   1      45.171  27.232  29.802  1.00  0.00     0.074 A 
ATOM     58  C   UNL A   1      44.542  26.114  30.499  1.00  0.00     0.031 C 
ATOM     59  C   UNL A   1      45.484  28.499  30.203  1.00  0.00     0.034 A 
BRANCH  46  60
ATOM     60  C   UNL A   1      42.727  27.192  34.619  1.00  0.00     0.023 A 
ATOM     61  C   UNL A   1      42.537  27.362  36.009  1.00  0.00     0.012 A 
ATOM     62  C   UNL A   1      43.288  25.960  34.204  1.00  0.00     0.148 A 
ATOM     63  C   UNL A   1      42.964  26.405  36.934  1.00  0.00     0.002 A 
ATOM     64  C   UNL A   1      43.636  24.977  35.122  1.00  0.00     0.091 A 
ATOM     65  F   UNL A   1      43.619  25.757  32.928  1.00  0.00    -0.205 F 
ATOM     66  C   UNL A   1      43.514  25.210  36.490  1.00  0.00     0.022 A 
BRANCH  64  67
ATOM     67  S   UNL A   1      44.307  23.393  34.594  1.00  0.00     0.127 S 
ATOM     68  O   UNL A   1      43.244  22.905  33.720  1.00  0.00    -0.237 OA
ATOM     69  O   UNL A   1      45.535  23.803  33.914  1.00  0.00    -0.237 OA
ATOM     70  O   UNL A   1      44.530  22.630  35.816  1.00  0.00    -0.744 OA
ENDBRANCH  64  67
ENDBRANCH  46  60
BRANCH  47  71
ATOM     71  C   UNL A   1      42.971  24.671  26.530  1.00  0.00     0.023 A 
ATOM     72  C   UNL A   1      44.029  24.269  25.689  1.00  0.00     0.012 A 
ATOM     73  C   UNL A   1      41.937  23.743  26.785  1.00  0.00     0.148 A 
ATOM     74  C   UNL A   1      44.080  22.977  25.157  1.00  0.00     0.002 A 
ATOM     75  C   UNL A   1      41.985  22.461  26.244  1.00  0.00     0.091 A 
ATOM     76  F   UNL A   1      40.957  24.082  27.632  1.00  0.00    -0.205 F 
ATOM     77  C   UNL A   1      43.063  22.069  25.441  1.00  0.00     0.022 A 
BRANCH  75  78
ATOM     78  S   UNL A   1      40.719  21.231  26.586  1.00  0.00     0.127 S 
ATOM     79  O   UNL A   1      41.284  20.031  25.965  1.00  0.00    -0.237 OA
ATOM     80  O   UNL A   1      40.702  21.213  28.046  1.00  0.00    -0.237 OA
ATOM     81  O   UNL A   1      39.505  21.720  25.945  1.00  0.00    -0.744 OA
ENDBRANCH  75  78
ENDBRANCH  47  71
BRANCH  59  82
ATOM     82  C   UNL A   1      46.044  29.450  29.176  1.00  0.00     0.023 A 
ATOM     83  C   UNL A   1      47.393  29.421  28.765  1.00  0.00     0.012 A 
ATOM     84  C   UNL A   1      45.140  30.279  28.491  1.00  0.00     0.148 A 
ATOM     85  C   UNL A   1      47.831  30.221  27.705  1.00  0.00     0.002 A 
ATOM     86  C   UNL A   1      45.568  31.031  27.406  1.00  0.00     0.091 A 
ATOM     87  F   UNL A   1      43.861  30.294  28.898  1.00  0.00    -0.205 F 
ATOM     88  C   UNL A   1      46.916  31.015  27.016  1.00  0.00     0.022 A 
BRANCH  86  89
ATOM     89  S   UNL A   1      44.409  31.960  26.401  1.00  0.00     0.127 S 
ATOM     90  O   UNL A   1      43.401  30.949  26.084  1.00  0.00    -0.237 OA
ATOM     91  O   UNL A   1      43.959  33.004  27.323  1.00  0.00    -0.237 OA
ATOM     92  O   UNL A   1      45.175  32.461  25.267  1.00  0.00    -0.744 OA
ENDBRANCH  86  89
ENDBRANCH  59  82
ENDBRANCH  33  34
ENDBRANCH  26  28
ENDBRANCH  25  26
ENDBRANCH  24  25
ENDBRANCH   1  24
TORSDOF 18
ENDMDL
MODEL 2
REMARK VINA RESULT:     -11.6      3.594      7.287
REMARK SMILES CCc1c(C(=O)NCC(=O)OCCOC(=O)c2ccc(-c3c4nc(c(-c5cccc(S(=O)(=O)[O-])c5F)c5ccc([nH]5)c(-c5cccc(S(=O)(=O)[O-])c5F)c5nc(c(-c6cccc(S(=O)(=O)[O-])c6F)c6ccc3[nH]6)C=C5)C=C4)cc2)nnn1-c1ccc(Cl)cc1
REMARK SMILES IDX 12 1 11 2 9 3 10 4 8 5 7 6 5 7 6 8 4 10 3 11 82 12 80 13
REMARK SMILES IDX 81 14 2 15 1 16 83 17 84 18 89 19 85 20 88 21 86 22 87 23
REMARK SMILES IDX 13 24 14 25 15 26 16 27 17 28 18 29 79 30 19 31 78 32 20 33
REMARK SMILES IDX 21 34 22 35 72 36 23 37 77 38 71 39 73 40 24 41 76 42 70 43
REMARK SMILES IDX 69 44 25 46 57 47 37 48 56 49 38 50 41 51 55 52 74 53 39 54
REMARK SMILES IDX 40 55 54 57 75 58 42 59 26 60 27 61 35 62 28 63 30 64 36 65
REMARK SMILES IDX 29 66 31 67 32 68 33 69 34 70 58 71 59 72 67 73 60 74 62 75
REMARK SMILES IDX 68 76 61 77 63 78 64 79 65 80 66 81 43 82 44 83 52 84 45 85
REMARK SMILES IDX 47 86 53 87 46 88 48 89 49 90 50 91 51 92
REMARK H PARENT 7 9 73 45 41 56
REMARK Flexibility Score: inf
ROOT
ATOM      1  C   UNL A   1      32.255  31.202  27.046  1.00  0.00     0.274 C 
ENDROOT
BRANCH   1   2
ATOM      2  O   UNL A   1      32.849  30.212  26.185  1.00  0.00    -0.461 OA
BRANCH   2   3
ATOM      3  C   UNL A   1      32.644  28.910  26.542  1.00  0.00     0.325 C 
ATOM      4  O   UNL A   1      32.792  28.467  27.676  1.00  0.00    -0.250 OA
BRANCH   3   5
ATOM      5  C   UNL A   1      32.151  28.051  25.376  1.00  0.00     0.239 C 
BRANCH   5   6
ATOM      6  N   UNL A   1      30.968  27.280  25.647  1.00  0.00    -0.340 N 
ATOM      7  C   UNL A   1      30.767  25.983  26.010  1.00  0.00     0.274 C 
ATOM      8  O   UNL A   1      29.588  25.693  26.232  1.00  0.00    -0.267 OA
ATOM      9  H   UNL A   1      30.134  27.794  25.549  1.00  0.00     0.164 HD
BRANCH   7  10
ATOM     10  C   UNL A   1      31.818  24.959  26.160  1.00  0.00     0.174 A 
ATOM     11  C   UNL A   1      32.961  24.525  25.472  1.00  0.00     0.077 A 
ATOM     12  N   UNL A   1      33.387  23.431  26.222  1.00  0.00    -0.217 N 
ATOM     13  N   UNL A   1      31.607  24.074  27.212  1.00  0.00    -0.124 NA
ATOM     14  N   UNL A   1      32.499  23.110  27.168  1.00  0.00    -0.061 NA
BRANCH  11  15
ATOM     15  C   UNL A   1      33.619  24.804  24.152  1.00  0.00     0.055 C 
ATOM     16  C   UNL A   1      33.110  23.981  22.975  1.00  0.00     0.011 C 
ENDBRANCH  11  15
BRANCH  12  17
ATOM     17  C   UNL A   1      34.477  22.581  25.960  1.00  0.00     0.067 A 
ATOM     18  C   UNL A   1      34.232  21.322  25.399  1.00  0.00     0.030 A 
ATOM     19  C   UNL A   1      35.779  23.037  26.183  1.00  0.00     0.030 A 
ATOM     20  C   UNL A   1      35.312  20.538  24.999  1.00  0.00     0.023 A 
ATOM     21  C   UNL A   1      36.853  22.227  25.816  1.00  0.00     0.023 A 
ATOM     22  C   UNL A   1      36.615  20.993  25.207  1.00  0.00     0.041 A 
ATOM     23  Cl  UNL A   1      37.945  20.029  24.694  1.00  0.00    -0.084 Cl
ENDBRANCH  12  17
ENDBRANCH   7  10
ENDBRANCH   5   6
ENDBRANCH   3   5
ENDBRANCH   2   3
ENDBRANCH   1   2
BRANCH   1  24
ATOM     24  C   UNL A   1      33.323  32.042  27.740  1.00  0.00     0.275 C 
BRANCH  24  25
ATOM     25  O   UNL A   1      33.048  33.436  27.619  1.00  0.00    -0.458 OA
BRANCH  25  26
ATOM     26  C   UNL A   1      33.195  34.138  28.765  1.00  0.00     0.338 C 
ATOM     27  O   UNL A   1      32.374  34.866  29.298  1.00  0.00    -0.246 OA
BRANCH  26  28
ATOM     28  C   UNL A   1      34.562  34.008  29.258  1.00  0.00     0.060 A 
ATOM     29  C   UNL A   1      35.593  34.345  28.373  1.00  0.00     0.016 A 
ATOM     30  C   UNL A   1      34.783  33.276  30.429  1.00  0.00     0.016 A 
ATOM     31  C   UNL A   1      36.829  33.773  28.568  1.00  0.00     0.010 A 
ATOM     32  C   UNL A   1      36.008  32.687  30.606  1.00  0.00     0.010 A 
ATOM     33  C   UNL A   1      36.985  32.882  29.634  1.00  0.00    -0.014 A 
BRANCH  33  34
ATOM     34  C   UNL A   1      38.259  32.215  29.777  1.00  0.00     0.031 A 
ATOM     35  C   UNL A   1      38.219  30.819  29.298  1.00  0.00     0.074 A 
ATOM     36  C   UNL A   1      39.362  32.871  30.180  1.00  0.00     0.049 A 
ATOM     37  N   UNL A   1      38.312  29.741  30.002  1.00  0.00    -0.248 NA
ATOM     38  C   UNL A   1      37.822  30.594  27.899  1.00  0.00     0.031 C 
ATOM     39  C   UNL A   1      39.517  34.316  30.375  1.00  0.00     0.029 A 
ATOM     40  N   UNL A   1      40.626  32.397  30.347  1.00  0.00    -0.354 N 
ATOM     41  C   UNL A   1      38.258  28.707  29.072  1.00  0.00     0.074 A 
ATOM     42  C   UNL A   1      37.700  29.268  27.874  1.00  0.00     0.031 C 
ATOM     43  C   UNL A   1      40.833  34.620  30.376  1.00  0.00     0.029 A 
ATOM     44  C   UNL A   1      41.601  33.389  30.305  1.00  0.00     0.049 A 
ATOM     45  H   UNL A   1      40.832  31.445  30.484  1.00  0.00     0.167 HD
ATOM     46  C   UNL A   1      38.989  27.575  29.254  1.00  0.00     0.034 A 
ATOM     47  C   UNL A   1      42.931  33.198  30.123  1.00  0.00     0.034 A 
ATOM     48  C   UNL A   1      39.403  27.441  30.631  1.00  0.00     0.049 A 
ATOM     49  C   UNL A   1      43.218  31.778  30.433  1.00  0.00     0.074 A 
ATOM     50  C   UNL A   1      38.758  27.383  31.850  1.00  0.00     0.029 A 
ATOM     51  N   UNL A   1      40.718  27.728  30.903  1.00  0.00    -0.354 N 
ATOM     52  N   UNL A   1      43.138  31.266  31.628  1.00  0.00    -0.248 NA
ATOM     53  C   UNL A   1      43.210  30.820  29.339  1.00  0.00     0.031 C 
ATOM     54  C   UNL A   1      39.623  28.054  32.761  1.00  0.00     0.029 A 
ATOM     55  C   UNL A   1      40.774  28.439  32.068  1.00  0.00     0.049 A 
ATOM     56  H   UNL A   1      41.490  27.466  30.351  1.00  0.00     0.167 HD
ATOM     57  C   UNL A   1      42.608  29.999  31.422  1.00  0.00     0.074 A 
ATOM     58  C   UNL A   1      42.804  29.733  30.001  1.00  0.00     0.031 C 
ATOM     59  C   UNL A   1      41.793  29.425  32.356  1.00  0.00     0.034 A 
BRANCH  46  60
ATOM     60  C   UNL A   1      39.709  26.836  28.141  1.00  0.00     0.023 A 
ATOM     61  C   UNL A   1      39.486  25.442  28.061  1.00  0.00     0.012 A 
ATOM     62  C   UNL A   1      40.788  27.348  27.382  1.00  0.00     0.148 A 
ATOM     63  C   UNL A   1      40.341  24.600  27.345  1.00  0.00     0.002 A 
ATOM     64  C   UNL A   1      41.587  26.517  26.606  1.00  0.00     0.091 A 
ATOM     65  F   UNL A   1      41.152  28.627  27.490  1.00  0.00    -0.205 F 
ATOM     66  C   UNL A   1      41.393  25.137  26.616  1.00  0.00     0.022 A 
BRANCH  64  67
ATOM     67  S   UNL A   1      42.931  27.170  25.605  1.00  0.00     0.127 S 
ATOM     68  O   UNL A   1      43.764  27.810  26.619  1.00  0.00    -0.237 OA
ATOM     69  O   UNL A   1      43.486  25.949  25.021  1.00  0.00    -0.237 OA
ATOM     70  O   UNL A   1      42.307  28.062  24.635  1.00  0.00    -0.744 OA
ENDBRANCH  64  67
ENDBRANCH  46  60
BRANCH  47  71
ATOM     71  C   UNL A   1      43.942  34.059  29.464  1.00  0.00     0.023 A 
ATOM     72  C   UNL A   1      44.766  34.882  30.259  1.00  0.00     0.012 A 
ATOM     73  C   UNL A   1      44.298  33.872  28.110  1.00  0.00     0.148 A 
ATOM     74  C   UNL A   1      45.927  35.462  29.737  1.00  0.00     0.002 A 
ATOM     75  C   UNL A   1      45.449  34.460  27.592  1.00  0.00     0.091 A 
ATOM     76  F   UNL A   1      43.565  33.043  27.356  1.00  0.00    -0.205 F 
ATOM     77  C   UNL A   1      46.275  35.244  28.407  1.00  0.00     0.022 A 
BRANCH  75  78
ATOM     78  S   UNL A   1      45.970  34.204  25.890  1.00  0.00     0.127 S 
ATOM     79  O   UNL A   1      46.234  32.765  25.866  1.00  0.00    -0.237 OA
ATOM     80  O   UNL A   1      44.784  34.621  25.146  1.00  0.00    -0.237 OA
ATOM     81  O   UNL A   1      47.155  35.032  25.708  1.00  0.00    -0.744 OA
ENDBRANCH  75  78
ENDBRANCH  47  71
BRANCH  59  82
ATOM     82  C   UNL A   1      41.765  30.024  33.738  1.00  0.00     0.023 A 
ATOM     83  C   UNL A   1      42.710  29.696  34.732  1.00  0.00     0.012 A 
ATOM     84  C   UNL A   1      40.860  31.072  33.978  1.00  0.00     0.148 A 
ATOM     85  C   UNL A   1      42.734  30.387  35.948  1.00  0.00     0.002 A 
ATOM     86  C   UNL A   1      40.921  31.789  35.164  1.00  0.00     0.091 A 
ATOM     87  F   UNL A   1      39.966  31.369  33.021  1.00  0.00    -0.205 F 
ATOM     88  C   UNL A   1      41.850  31.443  36.158  1.00  0.00     0.022 A 
BRANCH  86  89
ATOM     89  S   UNL A   1      39.902  33.241  35.429  1.00  0.00     0.127 S 
ATOM     90  O   UNL A   1      40.535  33.850  36.598  1.00  0.00    -0.237 OA
ATOM     91  O   UNL A   1      40.082  33.983  34.180  1.00  0.00    -0.237 OA
ATOM     92  O   UNL A   1      38.547  32.746  35.633  1.00  0.00    -0.744 OA
ENDBRANCH  86  89
ENDBRANCH  59  82
ENDBRANCH  33  34
ENDBRANCH  26  28
ENDBRANCH  25  26
ENDBRANCH  24  25
ENDBRANCH   1  24
TORSDOF 18
ENDMDL
MODEL 3
REMARK VINA RESULT:     -11.4      2.661      3.530
REMARK SMILES CCc1c(C(=O)NCC(=O)OCCOC(=O)c2ccc(-c3c4nc(c(-c5cccc(S(=O)(=O)[O-])c5F)c5ccc([nH]5)c(-c5cccc(S(=O)(=O)[O-])c5F)c5nc(c(-c6cccc(S(=O)(=O)[O-])c6F)c6ccc3[nH]6)C=C5)C=C4)cc2)nnn1-c1ccc(Cl)cc1
REMARK SMILES IDX 12 1 11 2 9 3 10 4 8 5 7 6 5 7 6 8 4 10 3 11 82 12 80 13
REMARK SMILES IDX 81 14 2 15 1 16 83 17 84 18 89 19 85 20 88 21 86 22 87 23
REMARK SMILES IDX 13 24 14 25 15 26 16 27 17 28 18 29 79 30 19 31 78 32 20 33
REMARK SMILES IDX 21 34 22 35 72 36 23 37 77 38 71 39 73 40 24 41 76 42 70 43
REMARK SMILES IDX 69 44 25 46 57 47 37 48 56 49 38 50 41 51 55 52 74 53 39 54
REMARK SMILES IDX 40 55 54 57 75 58 42 59 26 60 27 61 35 62 28 63 30 64 36 65
REMARK SMILES IDX 29 66 31 67 32 68 33 69 34 70 58 71 59 72 67 73 60 74 62 75
REMARK SMILES IDX 68 76 61 77 63 78 64 79 65 80 66 81 43 82 44 83 52 84 45 85
REMARK SMILES IDX 47 86 53 87 46 88 48 89 49 90 50 91 51 92
REMARK H PARENT 7 9 73 45 41 56
REMARK Flexibility Score: inf
ROOT
ATOM      1  C   UNL A   1      32.282  29.644  25.403  1.00  0.00     0.274 C 
ENDROOT
BRANCH   1   2
ATOM      2  O   UNL A   1      31.154  29.926  24.555  1.00  0.00    -0.461 OA
BRANCH   2   3
ATOM      3  C   UNL A   1      30.820  28.950  23.660  1.00  0.00     0.325 C 
ATOM      4  O   UNL A   1      30.126  29.126  22.664  1.00  0.00    -0.250 OA
BRANCH   3   5
ATOM      5  C   UNL A   1      31.452  27.599  24.000  1.00  0.00     0.239 C 
BRANCH   5   6
ATOM      6  N   UNL A   1      30.693  26.452  23.581  1.00  0.00    -0.340 N 
ATOM      7  C   UNL A   1      31.005  25.135  23.431  1.00  0.00     0.274 C 
ATOM      8  O   UNL A   1      30.051  24.416  23.118  1.00  0.00    -0.267 OA
ATOM      9  H   UNL A   1      29.757  26.661  23.357  1.00  0.00     0.164 HD
BRANCH   7  10
ATOM     10  C   UNL A   1      32.342  24.540  23.620  1.00  0.00     0.174 A 
ATOM     11  C   UNL A   1      33.102  23.986  24.662  1.00  0.00     0.077 A 
ATOM     12  N   UNL A   1      34.325  23.714  24.053  1.00  0.00    -0.217 N 
ATOM     13  N   UNL A   1      33.166  24.620  22.503  1.00  0.00    -0.124 NA
ATOM     14  N   UNL A   1      34.378  24.215  22.815  1.00  0.00    -0.061 NA
BRANCH  11  15
ATOM     15  C   UNL A   1      32.981  23.842  26.151  1.00  0.00     0.055 C 
ATOM     16  C   UNL A   1      32.521  22.477  26.646  1.00  0.00     0.011 C 
ENDBRANCH  11  15
BRANCH  12  17
ATOM     17  C   UNL A   1      35.484  23.186  24.650  1.00  0.00     0.067 A 
ATOM     18  C   UNL A   1      35.734  21.814  24.541  1.00  0.00     0.030 A 
ATOM     19  C   UNL A   1      36.399  24.046  25.262  1.00  0.00     0.030 A 
ATOM     20  C   UNL A   1      36.951  21.309  24.997  1.00  0.00     0.023 A 
ATOM     21  C   UNL A   1      37.596  23.525  25.752  1.00  0.00     0.023 A 
ATOM     22  C   UNL A   1      37.875  22.166  25.599  1.00  0.00     0.041 A 
ATOM     23  Cl  UNL A   1      39.383  21.542  26.145  1.00  0.00    -0.084 Cl
ENDBRANCH  12  17
ENDBRANCH   7  10
ENDBRANCH   5   6
ENDBRANCH   3   5
ENDBRANCH   2   3
ENDBRANCH   1   2
BRANCH   1  24
ATOM     24  C   UNL A   1      32.152  30.350  26.748  1.00  0.00     0.275 C 
BRANCH  24  25
ATOM     25  O   UNL A   1      33.285  30.103  27.578  1.00  0.00    -0.458 OA
BRANCH  25  26
ATOM     26  C   UNL A   1      33.992  31.208  27.906  1.00  0.00     0.338 C 
ATOM     27  O   UNL A   1      33.553  32.311  28.188  1.00  0.00    -0.246 OA
BRANCH  26  28
ATOM     28  C   UNL A   1      35.420  30.947  27.766  1.00  0.00     0.060 A 
ATOM     29  C   UNL A   1      35.818  29.607  27.687  1.00  0.00     0.016 A 
ATOM     30  C   UNL A   1      36.319  31.986  28.033  1.00  0.00     0.016 A 
ATOM     31  C   UNL A   1      37.099  29.287  28.072  1.00  0.00     0.010 A 
ATOM     32  C   UNL A   1      37.586  31.660  28.441  1.00  0.00     0.010 A 
ATOM     33  C   UNL A   1      37.930  30.314  28.527  1.00  0.00    -0.014 A 
BRANCH  33  34
ATOM     34  C   UNL A   1      39.241  29.957  29.017  1.00  0.00     0.031 A 
ATOM     35  C   UNL A   1      39.468  30.413  30.403  1.00  0.00     0.074 A 
ATOM     36  C   UNL A   1      40.078  29.180  28.305  1.00  0.00     0.049 A 
ATOM     37  N   UNL A   1      40.282  31.329  30.809  1.00  0.00    -0.248 NA
ATOM     38  C   UNL A   1      38.530  29.938  31.434  1.00  0.00     0.031 C 
ATOM     39  C   UNL A   1      39.782  28.458  27.064  1.00  0.00     0.029 A 
ATOM     40  N   UNL A   1      41.324  28.743  28.628  1.00  0.00    -0.354 N 
ATOM     41  C   UNL A   1      40.139  31.339  32.193  1.00  0.00     0.074 A 
ATOM     42  C   UNL A   1      38.895  30.680  32.478  1.00  0.00     0.031 C 
ATOM     43  C   UNL A   1      40.708  27.490  26.887  1.00  0.00     0.029 A 
ATOM     44  C   UNL A   1      41.715  27.607  27.926  1.00  0.00     0.049 A 
ATOM     45  H   UNL A   1      41.895  29.187  29.296  1.00  0.00     0.167 HD
ATOM     46  C   UNL A   1      41.210  31.578  32.996  1.00  0.00     0.034 A 
ATOM     47  C   UNL A   1      42.737  26.777  28.251  1.00  0.00     0.034 A 
ATOM     48  C   UNL A   1      42.278  32.213  32.261  1.00  0.00     0.049 A 
ATOM     49  C   UNL A   1      43.626  27.514  29.178  1.00  0.00     0.074 A 
ATOM     50  C   UNL A   1      42.407  33.367  31.515  1.00  0.00     0.029 A 
ATOM     51  N   UNL A   1      43.346  31.418  31.928  1.00  0.00    -0.354 N 
ATOM     52  N   UNL A   1      44.350  28.539  28.827  1.00  0.00    -0.248 NA
ATOM     53  C   UNL A   1      43.410  27.359  30.607  1.00  0.00     0.031 C 
ATOM     54  C   UNL A   1      43.307  33.033  30.463  1.00  0.00     0.029 A 
ATOM     55  C   UNL A   1      43.724  31.712  30.649  1.00  0.00     0.049 A 
ATOM     56  H   UNL A   1      43.768  30.746  32.512  1.00  0.00     0.167 HD
ATOM     57  C   UNL A   1      44.282  29.395  29.920  1.00  0.00     0.074 A 
ATOM     58  C   UNL A   1      43.814  28.562  31.024  1.00  0.00     0.031 C 
ATOM     59  C   UNL A   1      44.318  30.749  29.747  1.00  0.00     0.034 A 
BRANCH  46  60
ATOM     60  C   UNL A   1      41.478  30.850  34.301  1.00  0.00     0.023 A 
ATOM     61  C   UNL A   1      41.839  31.651  35.408  1.00  0.00     0.012 A 
ATOM     62  C   UNL A   1      41.687  29.457  34.433  1.00  0.00     0.148 A 
ATOM     63  C   UNL A   1      42.456  31.109  36.539  1.00  0.00     0.002 A 
ATOM     64  C   UNL A   1      42.227  28.912  35.592  1.00  0.00     0.091 A 
ATOM     65  F   UNL A   1      41.494  28.637  33.399  1.00  0.00    -0.205 F 
ATOM     66  C   UNL A   1      42.650  29.737  36.632  1.00  0.00     0.022 A 
BRANCH  64  67
ATOM     67  S   UNL A   1      42.453  27.137  35.781  1.00  0.00     0.127 S 
ATOM     68  O   UNL A   1      42.639  27.020  37.224  1.00  0.00    -0.237 OA
ATOM     69  O   UNL A   1      41.182  26.621  35.273  1.00  0.00    -0.237 OA
ATOM     70  O   UNL A   1      43.606  26.794  34.958  1.00  0.00    -0.744 OA
ENDBRANCH  64  67
ENDBRANCH  46  60
BRANCH  47  71
ATOM     71  C   UNL A   1      42.891  25.318  28.036  1.00  0.00     0.023 A 
ATOM     72  C   UNL A   1      41.919  24.440  28.559  1.00  0.00     0.012 A 
ATOM     73  C   UNL A   1      43.809  24.806  27.092  1.00  0.00     0.148 A 
ATOM     74  C   UNL A   1      41.835  23.113  28.126  1.00  0.00     0.002 A 
ATOM     75  C   UNL A   1      43.729  23.481  26.672  1.00  0.00     0.091 A 
ATOM     76  F   UNL A   1      44.697  25.639  26.535  1.00  0.00    -0.205 F 
ATOM     77  C   UNL A   1      42.734  22.635  27.176  1.00  0.00     0.022 A 
BRANCH  75  78
ATOM     78  S   UNL A   1      44.841  22.802  25.433  1.00  0.00     0.127 S 
ATOM     79  O   UNL A   1      46.121  22.796  26.144  1.00  0.00    -0.237 OA
ATOM     80  O   UNL A   1      44.264  21.480  25.201  1.00  0.00    -0.237 OA
ATOM     81  O   UNL A   1      44.789  23.723  24.304  1.00  0.00    -0.744 OA
ENDBRANCH  75  78
ENDBRANCH  47  71
BRANCH  59  82
ATOM     82  C   UNL A   1      44.779  31.283  28.416  1.00  0.00     0.023 A 
ATOM     83  C   UNL A   1      43.885  31.648  27.389  1.00  0.00     0.012 A 
ATOM     84  C   UNL A   1      46.145  31.580  28.268  1.00  0.00     0.148 A 
ATOM     85  C   UNL A   1      44.349  32.277  26.230  1.00  0.00     0.002 A 
ATOM     86  C   UNL A   1      46.595  32.251  27.139  1.00  0.00     0.091 A 
ATOM     87  F   UNL A   1      46.982  31.222  29.255  1.00  0.00    -0.205 F 
ATOM     88  C   UNL A   1      45.702  32.592  26.111  1.00  0.00     0.022 A 
BRANCH  86  89
ATOM     89  S   UNL A   1      48.296  32.801  26.999  1.00  0.00     0.127 S 
ATOM     90  O   UNL A   1      49.010  31.541  26.807  1.00  0.00    -0.237 OA
ATOM     91  O   UNL A   1      48.251  33.666  25.819  1.00  0.00    -0.237 OA
ATOM     92  O   UNL A   1      48.590  33.508  28.239  1.00  0.00    -0.744 OA
ENDBRANCH  86  89
ENDBRANCH  59  82
ENDBRANCH  33  34
ENDBRANCH  26  28
ENDBRANCH  25  26
ENDBRANCH  24  25
ENDBRANCH   1  24
TORSDOF 18
ENDMDL
