MODEL 1
REMARK VINA RESULT:     -12.3      0.000      0.000
REMARK SMILES COc1cccc(NC(=O)NC2(C(=O)OCCOC(=O)c3ccc(-c4c5nc(c(-c6cccc(S(=O)(=O)[O-])c6F)c6ccc([nH]6)c(-c6cccc(S(=O)(=O)[O-])c6F)c6nc(c(-c7cccc(S(=O)(=O)[O-])c7F)c7ccc4[nH]7)C=C6)C=C5)cc3)CCCCC2)c1
REMARK SMILES IDX 16 1 15 2 13 3 14 4 12 5 84 6 88 7 85 8 87 9 86 10 11 11
REMARK SMILES IDX 8 12 9 13 10 15 7 17 3 18 4 19 89 20 5 21 6 22 2 23 1 24
REMARK SMILES IDX 17 25 18 26 19 27 20 28 21 29 22 30 83 31 23 32 82 33 24 34
REMARK SMILES IDX 25 35 26 36 76 37 27 38 81 39 75 40 77 41 28 42 80 43 74 44
REMARK SMILES IDX 73 45 29 47 61 48 41 49 60 50 42 51 45 52 59 53 78 54 43 55
REMARK SMILES IDX 44 56 58 58 79 59 46 60 30 61 31 62 39 63 32 64 34 65 40 66
REMARK SMILES IDX 33 67 35 68 36 69 37 70 38 71 62 72 63 73 71 74 64 75 66 76
REMARK SMILES IDX 72 77 65 78 67 79 68 80 69 81 70 82 47 83 48 84 56 85 49 86
REMARK SMILES IDX 51 87 57 88 50 89 52 90 53 91 54 92 55 93
REMARK H PARENT 8 14 11 16 77 46 45 57
REMARK Flexibility Score: inf
ROOT
ATOM      1  C   UNL A   1      35.117  20.512  24.995  1.00  0.00     0.274 C 
ENDROOT
BRANCH   1   2
ATOM      2  O   UNL A   1      34.761  21.872  25.322  1.00  0.00    -0.460 OA
BRANCH   2   3
ATOM      3  C   UNL A   1      33.679  22.001  26.135  1.00  0.00     0.332 C 
ATOM      4  O   UNL A   1      33.533  21.319  27.144  1.00  0.00    -0.249 OA
BRANCH   3   5
ATOM      5  C   UNL A   1      32.707  23.138  25.710  1.00  0.00     0.139 C 
ATOM      6  C   UNL A   1      32.378  23.229  24.213  1.00  0.00     0.040 C 
ATOM      7  C   UNL A   1      33.315  24.495  26.179  1.00  0.00     0.040 C 
ATOM      8  C   UNL A   1      33.477  23.806  23.327  1.00  0.00     0.003 C 
ATOM      9  C   UNL A   1      34.406  25.078  25.279  1.00  0.00     0.003 C 
ATOM     10  C   UNL A   1      33.967  25.152  23.825  1.00  0.00     0.000 C 
BRANCH   5  11
ATOM     11  N   UNL A   1      31.467  22.939  26.535  1.00  0.00    -0.322 N 
ATOM     12  N   UNL A   1      29.921  24.766  26.452  1.00  0.00    -0.308 N 
ATOM     13  C   UNL A   1      30.306  23.536  26.816  1.00  0.00     0.320 C 
ATOM     14  H   UNL A   1      29.161  25.100  26.982  1.00  0.00     0.171 HD
ATOM     15  O   UNL A   1      29.574  22.927  27.606  1.00  0.00    -0.248 OA
ATOM     16  H   UNL A   1      31.531  22.091  27.030  1.00  0.00     0.166 HD
BRANCH  12  17
ATOM     17  C   UNL A   1      30.351  25.680  25.495  1.00  0.00     0.046 A 
ATOM     18  C   UNL A   1      31.635  27.676  25.027  1.00  0.00     0.120 A 
ATOM     19  C   UNL A   1      31.438  27.465  23.659  1.00  0.00     0.046 A 
ATOM     20  C   UNL A   1      31.057  26.798  25.946  1.00  0.00     0.072 A 
ATOM     21  C   UNL A   1      30.632  26.418  23.215  1.00  0.00     0.006 A 
ATOM     22  C   UNL A   1      30.070  25.539  24.141  1.00  0.00     0.026 A 
BRANCH  18  23
ATOM     23  O   UNL A   1      32.432  28.744  25.340  1.00  0.00    -0.497 OA
ATOM     24  C   UNL A   1      31.904  29.673  26.277  1.00  0.00     0.278 C 
ENDBRANCH  18  23
ENDBRANCH  12  17
ENDBRANCH   5  11
ENDBRANCH   3   5
ENDBRANCH   2   3
ENDBRANCH   1   2
BRANCH   1  25
ATOM     25  C   UNL A   1      36.635  20.283  24.969  1.00  0.00     0.275 C 
BRANCH  25  26
ATOM     26  O   UNL A   1      37.354  21.369  25.587  1.00  0.00    -0.458 OA
BRANCH  26  27
ATOM     27  C   UNL A   1      38.644  21.128  25.911  1.00  0.00     0.338 C 
ATOM     28  O   UNL A   1      39.275  20.102  25.700  1.00  0.00    -0.246 OA
BRANCH  27  29
ATOM     29  C   UNL A   1      39.259  22.330  26.501  1.00  0.00     0.060 A 
ATOM     30  C   UNL A   1      38.762  23.582  26.135  1.00  0.00     0.016 A 
ATOM     31  C   UNL A   1      40.403  22.240  27.293  1.00  0.00     0.016 A 
ATOM     32  C   UNL A   1      39.404  24.751  26.534  1.00  0.00     0.010 A 
ATOM     33  C   UNL A   1      41.039  23.415  27.716  1.00  0.00     0.010 A 
ATOM     34  C   UNL A   1      40.560  24.677  27.318  1.00  0.00    -0.014 A 
BRANCH  34  35
ATOM     35  C   UNL A   1      41.302  25.919  27.652  1.00  0.00     0.031 A 
ATOM     36  C   UNL A   1      40.631  26.989  28.469  1.00  0.00     0.074 A 
ATOM     37  C   UNL A   1      42.576  26.082  27.247  1.00  0.00     0.049 A 
ATOM     38  N   UNL A   1      41.068  28.178  28.794  1.00  0.00    -0.248 NA
ATOM     39  C   UNL A   1      39.289  26.680  28.988  1.00  0.00     0.031 C 
ATOM     40  C   UNL A   1      43.352  25.100  26.489  1.00  0.00     0.029 A 
ATOM     41  N   UNL A   1      43.440  27.136  27.411  1.00  0.00    -0.354 N 
ATOM     42  C   UNL A   1      40.039  28.778  29.510  1.00  0.00     0.074 A 
ATOM     43  C   UNL A   1      38.956  27.820  29.578  1.00  0.00     0.031 C 
ATOM     44  C   UNL A   1      44.577  25.597  26.254  1.00  0.00     0.029 A 
ATOM     45  C   UNL A   1      44.660  26.947  26.805  1.00  0.00     0.049 A 
ATOM     46  H   UNL A   1      43.207  27.951  27.914  1.00  0.00     0.167 HD
ATOM     47  C   UNL A   1      40.003  30.009  30.073  1.00  0.00     0.034 A 
ATOM     48  C   UNL A   1      45.718  27.775  26.693  1.00  0.00     0.034 A 
ATOM     49  C   UNL A   1      41.100  30.938  30.054  1.00  0.00     0.049 A 
ATOM     50  C   UNL A   1      45.645  29.144  27.313  1.00  0.00     0.074 A 
ATOM     51  C   UNL A   1      41.168  32.202  30.616  1.00  0.00     0.029 A 
ATOM     52  N   UNL A   1      42.326  30.702  29.450  1.00  0.00    -0.354 N 
ATOM     53  N   UNL A   1      44.686  29.675  28.033  1.00  0.00    -0.248 NA
ATOM     54  C   UNL A   1      46.806  30.025  27.117  1.00  0.00     0.031 C 
ATOM     55  C   UNL A   1      42.436  32.731  30.347  1.00  0.00     0.029 A 
ATOM     56  C   UNL A   1      43.157  31.796  29.622  1.00  0.00     0.049 A 
ATOM     57  H   UNL A   1      42.569  29.877  28.971  1.00  0.00     0.167 HD
ATOM     58  C   UNL A   1      45.135  30.941  28.394  1.00  0.00     0.074 A 
ATOM     59  C   UNL A   1      46.463  31.088  27.833  1.00  0.00     0.031 C 
ATOM     60  C   UNL A   1      44.497  31.903  29.104  1.00  0.00     0.034 A 
BRANCH  47  61
ATOM     61  C   UNL A   1      38.738  30.409  30.782  1.00  0.00     0.023 A 
ATOM     62  C   UNL A   1      38.587  30.112  32.151  1.00  0.00     0.012 A 
ATOM     63  C   UNL A   1      37.716  31.101  30.106  1.00  0.00     0.148 A 
ATOM     64  C   UNL A   1      37.424  30.476  32.831  1.00  0.00     0.002 A 
ATOM     65  C   UNL A   1      36.573  31.489  30.799  1.00  0.00     0.091 A 
ATOM     66  F   UNL A   1      37.863  31.347  28.797  1.00  0.00    -0.205 F 
ATOM     67  C   UNL A   1      36.422  31.171  32.158  1.00  0.00     0.022 A 
BRANCH  65  68
ATOM     68  S   UNL A   1      35.264  32.441  30.018  1.00  0.00     0.127 S 
ATOM     69  O   UNL A   1      34.322  32.612  31.121  1.00  0.00    -0.237 OA
ATOM     70  O   UNL A   1      35.959  33.665  29.615  1.00  0.00    -0.237 OA
ATOM     71  O   UNL A   1      34.798  31.623  28.906  1.00  0.00    -0.744 OA
ENDBRANCH  65  68
ENDBRANCH  47  61
BRANCH  48  72
ATOM     72  C   UNL A   1      46.952  27.312  25.998  1.00  0.00     0.023 A 
ATOM     73  C   UNL A   1      47.112  27.586  24.627  1.00  0.00     0.012 A 
ATOM     74  C   UNL A   1      47.982  26.640  26.688  1.00  0.00     0.148 A 
ATOM     75  C   UNL A   1      48.267  27.186  23.951  1.00  0.00     0.002 A 
ATOM     76  C   UNL A   1      49.151  26.293  26.021  1.00  0.00     0.091 A 
ATOM     77  F   UNL A   1      47.801  26.359  27.987  1.00  0.00    -0.205 F 
ATOM     78  C   UNL A   1      49.291  26.553  24.650  1.00  0.00     0.022 A 
BRANCH  76  79
ATOM     79  S   UNL A   1      50.566  25.594  26.882  1.00  0.00     0.127 S 
ATOM     80  O   UNL A   1      50.919  26.670  27.804  1.00  0.00    -0.237 OA
ATOM     81  O   UNL A   1      49.989  24.406  27.514  1.00  0.00    -0.237 OA
ATOM     82  O   UNL A   1      51.542  25.297  25.841  1.00  0.00    -0.744 OA
ENDBRANCH  76  79
ENDBRANCH  48  72
BRANCH  60  83
ATOM     83  C   UNL A   1      45.226  33.201  29.328  1.00  0.00     0.023 A 
ATOM     84  C   UNL A   1      46.026  33.353  30.476  1.00  0.00     0.012 A 
ATOM     85  C   UNL A   1      45.182  34.234  28.371  1.00  0.00     0.148 A 
ATOM     86  C   UNL A   1      46.757  34.522  30.680  1.00  0.00     0.002 A 
ATOM     87  C   UNL A   1      45.942  35.382  28.564  1.00  0.00     0.091 A 
ATOM     88  F   UNL A   1      44.396  34.081  27.296  1.00  0.00    -0.205 F 
ATOM     89  C   UNL A   1      46.725  35.531  29.721  1.00  0.00     0.022 A 
BRANCH  87  90
ATOM     90  S   UNL A   1      46.021  36.689  27.334  1.00  0.00     0.127 S 
ATOM     91  O   UNL A   1      44.638  37.160  27.308  1.00  0.00    -0.237 OA
ATOM     92  O   UNL A   1      46.973  37.629  27.928  1.00  0.00    -0.237 OA
ATOM     93  O   UNL A   1      46.494  36.052  26.112  1.00  0.00    -0.744 OA
ENDBRANCH  87  90
ENDBRANCH  60  83
ENDBRANCH  34  35
ENDBRANCH  27  29
ENDBRANCH  26  27
ENDBRANCH  25  26
ENDBRANCH   1  25
TORSDOF 17
ENDMDL
MODEL 2
REMARK VINA RESULT:     -12.2      1.817      2.343
REMARK SMILES COc1cccc(NC(=O)NC2(C(=O)OCCOC(=O)c3ccc(-c4c5nc(c(-c6cccc(S(=O)(=O)[O-])c6F)c6ccc([nH]6)c(-c6cccc(S(=O)(=O)[O-])c6F)c6nc(c(-c7cccc(S(=O)(=O)[O-])c7F)c7ccc4[nH]7)C=C6)C=C5)cc3)CCCCC2)c1
REMARK SMILES IDX 16 1 15 2 13 3 14 4 12 5 84 6 88 7 85 8 87 9 86 10 11 11
REMARK SMILES IDX 8 12 9 13 10 15 7 17 3 18 4 19 89 20 5 21 6 22 2 23 1 24
REMARK SMILES IDX 17 25 18 26 19 27 20 28 21 29 22 30 83 31 23 32 82 33 24 34
REMARK SMILES IDX 25 35 26 36 76 37 27 38 81 39 75 40 77 41 28 42 80 43 74 44
REMARK SMILES IDX 73 45 29 47 61 48 41 49 60 50 42 51 45 52 59 53 78 54 43 55
REMARK SMILES IDX 44 56 58 58 79 59 46 60 30 61 31 62 39 63 32 64 34 65 40 66
REMARK SMILES IDX 33 67 35 68 36 69 37 70 38 71 62 72 63 73 71 74 64 75 66 76
REMARK SMILES IDX 72 77 65 78 67 79 68 80 69 81 70 82 47 83 48 84 56 85 49 86
REMARK SMILES IDX 51 87 57 88 50 89 52 90 53 91 54 92 55 93
REMARK H PARENT 8 14 11 16 77 46 45 57
REMARK Flexibility Score: inf
ROOT
ATOM      1  C   UNL A   1      34.623  20.941  24.909  1.00  0.00     0.274 C 
ENDROOT
BRANCH   1   2
ATOM      2  O   UNL A   1      34.418  22.274  24.393  1.00  0.00    -0.460 OA
BRANCH   2   3
ATOM      3  C   UNL A   1      33.257  22.450  23.710  1.00  0.00     0.332 C 
ATOM      4  O   UNL A   1      32.567  21.508  23.336  1.00  0.00    -0.249 OA
BRANCH   3   5
ATOM      5  C   UNL A   1      32.855  23.941  23.530  1.00  0.00     0.139 C 
ATOM      6  C   UNL A   1      33.603  24.958  24.404  1.00  0.00     0.040 C 
ATOM      7  C   UNL A   1      31.325  24.068  23.802  1.00  0.00     0.040 C 
ATOM      8  C   UNL A   1      33.192  25.000  25.872  1.00  0.00     0.003 C 
ATOM      9  C   UNL A   1      30.918  24.126  25.275  1.00  0.00     0.003 C 
ATOM     10  C   UNL A   1      31.695  25.183  26.042  1.00  0.00     0.000 C 
BRANCH   5  11
ATOM     11  N   UNL A   1      33.036  24.236  22.067  1.00  0.00    -0.322 N 
ATOM     12  N   UNL A   1      32.211  26.376  21.380  1.00  0.00    -0.308 N 
ATOM     13  C   UNL A   1      32.844  25.214  21.178  1.00  0.00     0.320 C 
ATOM     14  H   UNL A   1      31.953  26.821  20.540  1.00  0.00     0.171 HD
ATOM     15  O   UNL A   1      33.179  24.948  20.017  1.00  0.00    -0.248 OA
ATOM     16  H   UNL A   1      33.420  23.450  21.616  1.00  0.00     0.166 HD
BRANCH  12  17
ATOM     17  C   UNL A   1      31.833  27.099  22.507  1.00  0.00     0.046 A 
ATOM     18  C   UNL A   1      32.507  28.618  24.265  1.00  0.00     0.120 A 
ATOM     19  C   UNL A   1      31.171  28.741  24.654  1.00  0.00     0.046 A 
ATOM     20  C   UNL A   1      32.839  27.765  23.211  1.00  0.00     0.072 A 
ATOM     21  C   UNL A   1      30.181  27.982  24.029  1.00  0.00     0.006 A 
ATOM     22  C   UNL A   1      30.522  27.143  22.968  1.00  0.00     0.026 A 
BRANCH  18  23
ATOM     23  O   UNL A   1      33.387  29.401  24.962  1.00  0.00    -0.497 OA
ATOM     24  C   UNL A   1      33.925  28.841  26.154  1.00  0.00     0.278 C 
ENDBRANCH  18  23
ENDBRANCH  12  17
ENDBRANCH   5  11
ENDBRANCH   3   5
ENDBRANCH   2   3
ENDBRANCH   1   2
BRANCH   1  25
ATOM     25  C   UNL A   1      36.107  20.557  24.996  1.00  0.00     0.275 C 
BRANCH  25  26
ATOM     26  O   UNL A   1      36.903  21.611  25.574  1.00  0.00    -0.458 OA
BRANCH  26  27
ATOM     27  C   UNL A   1      38.213  21.339  25.766  1.00  0.00     0.338 C 
ATOM     28  O   UNL A   1      38.809  20.324  25.429  1.00  0.00    -0.246 OA
BRANCH  27  29
ATOM     29  C   UNL A   1      38.894  22.492  26.380  1.00  0.00     0.060 A 
ATOM     30  C   UNL A   1      38.386  23.770  26.143  1.00  0.00     0.016 A 
ATOM     31  C   UNL A   1      40.100  22.337  27.063  1.00  0.00     0.016 A 
ATOM     32  C   UNL A   1      39.077  24.903  26.564  1.00  0.00     0.010 A 
ATOM     33  C   UNL A   1      40.787  23.475  27.508  1.00  0.00     0.010 A 
ATOM     34  C   UNL A   1      40.294  24.765  27.239  1.00  0.00    -0.014 A 
BRANCH  34  35
ATOM     35  C   UNL A   1      41.080  25.975  27.590  1.00  0.00     0.031 A 
ATOM     36  C   UNL A   1      40.454  27.048  28.438  1.00  0.00     0.074 A 
ATOM     37  C   UNL A   1      42.354  26.105  27.173  1.00  0.00     0.049 A 
ATOM     38  N   UNL A   1      40.933  28.215  28.783  1.00  0.00    -0.248 NA
ATOM     39  C   UNL A   1      39.108  26.771  28.966  1.00  0.00     0.031 C 
ATOM     40  C   UNL A   1      43.089  25.116  26.384  1.00  0.00     0.029 A 
ATOM     41  N   UNL A   1      43.253  27.127  27.350  1.00  0.00    -0.354 N 
ATOM     42  C   UNL A   1      39.932  28.832  29.524  1.00  0.00     0.074 A 
ATOM     43  C   UNL A   1      38.820  27.908  29.585  1.00  0.00     0.031 C 
ATOM     44  C   UNL A   1      44.327  25.578  26.146  1.00  0.00     0.029 A 
ATOM     45  C   UNL A   1      44.460  26.912  26.725  1.00  0.00     0.049 A 
ATOM     46  H   UNL A   1      43.054  27.938  27.873  1.00  0.00     0.167 HD
ATOM     47  C   UNL A   1      39.944  30.050  30.114  1.00  0.00     0.034 A 
ATOM     48  C   UNL A   1      45.543  27.707  26.618  1.00  0.00     0.034 A 
ATOM     49  C   UNL A   1      41.069  30.944  30.103  1.00  0.00     0.049 A 
ATOM     50  C   UNL A   1      45.522  29.064  27.268  1.00  0.00     0.074 A 
ATOM     51  C   UNL A   1      41.185  32.192  30.691  1.00  0.00     0.029 A 
ATOM     52  N   UNL A   1      42.280  30.681  29.479  1.00  0.00    -0.354 N 
ATOM     53  N   UNL A   1      44.590  29.610  28.011  1.00  0.00    -0.248 NA
ATOM     54  C   UNL A   1      46.708  29.911  27.077  1.00  0.00     0.031 C 
ATOM     55  C   UNL A   1      42.467  32.686  30.418  1.00  0.00     0.029 A 
ATOM     56  C   UNL A   1      43.148  31.743  29.665  1.00  0.00     0.049 A 
ATOM     57  H   UNL A   1      42.490  29.860  28.979  1.00  0.00     0.167 HD
ATOM     58  C   UNL A   1      45.084  30.852  28.394  1.00  0.00     0.074 A 
ATOM     59  C   UNL A   1      46.409  30.969  27.821  1.00  0.00     0.031 C 
ATOM     60  C   UNL A   1      44.485  31.818  29.133  1.00  0.00     0.034 A 
BRANCH  47  61
ATOM     61  C   UNL A   1      38.700  30.476  30.848  1.00  0.00     0.023 A 
ATOM     62  C   UNL A   1      38.575  30.192  32.222  1.00  0.00     0.012 A 
ATOM     63  C   UNL A   1      37.674  31.178  30.189  1.00  0.00     0.148 A 
ATOM     64  C   UNL A   1      37.433  30.579  32.924  1.00  0.00     0.002 A 
ATOM     65  C   UNL A   1      36.553  31.589  30.902  1.00  0.00     0.091 A 
ATOM     66  F   UNL A   1      37.796  31.411  28.874  1.00  0.00    -0.205 F 
ATOM     67  C   UNL A   1      36.427  31.284  32.267  1.00  0.00     0.022 A 
BRANCH  65  68
ATOM     68  S   UNL A   1      35.242  32.554  30.142  1.00  0.00     0.127 S 
ATOM     69  O   UNL A   1      34.310  32.720  31.255  1.00  0.00    -0.237 OA
ATOM     70  O   UNL A   1      35.939  33.779  29.744  1.00  0.00    -0.237 OA
ATOM     71  O   UNL A   1      34.761  31.749  29.026  1.00  0.00    -0.744 OA
ENDBRANCH  65  68
ENDBRANCH  47  61
BRANCH  48  72
ATOM     72  C   UNL A   1      46.754  27.220  25.898  1.00  0.00     0.023 A 
ATOM     73  C   UNL A   1      47.601  26.291  26.531  1.00  0.00     0.012 A 
ATOM     74  C   UNL A   1      47.051  27.636  24.585  1.00  0.00     0.148 A 
ATOM     75  C   UNL A   1      48.732  25.798  25.876  1.00  0.00     0.002 A 
ATOM     76  C   UNL A   1      48.148  27.100  23.919  1.00  0.00     0.091 A 
ATOM     77  F   UNL A   1      46.251  28.544  24.007  1.00  0.00    -0.205 F 
ATOM     78  C   UNL A   1      48.996  26.190  24.568  1.00  0.00     0.022 A 
BRANCH  76  79
ATOM     79  S   UNL A   1      48.479  27.456  22.189  1.00  0.00     0.127 S 
ATOM     80  O   UNL A   1      49.694  28.261  22.275  1.00  0.00    -0.237 OA
ATOM     81  O   UNL A   1      48.665  26.117  21.626  1.00  0.00    -0.237 OA
ATOM     82  O   UNL A   1      47.289  28.143  21.703  1.00  0.00    -0.744 OA
ENDBRANCH  76  79
ENDBRANCH  48  72
BRANCH  60  83
ATOM     83  C   UNL A   1      45.258  33.087  29.375  1.00  0.00     0.023 A 
ATOM     84  C   UNL A   1      46.105  33.174  30.497  1.00  0.00     0.012 A 
ATOM     85  C   UNL A   1      45.209  34.156  28.459  1.00  0.00     0.148 A 
ATOM     86  C   UNL A   1      46.875  34.315  30.716  1.00  0.00     0.002 A 
ATOM     87  C   UNL A   1      46.009  35.275  28.664  1.00  0.00     0.091 A 
ATOM     88  F   UNL A   1      44.380  34.064  27.409  1.00  0.00    -0.205 F 
ATOM     89  C   UNL A   1      46.837  35.359  29.796  1.00  0.00     0.022 A 
BRANCH  87  90
ATOM     90  S   UNL A   1      46.080  36.624  27.480  1.00  0.00     0.127 S 
ATOM     91  O   UNL A   1      44.715  37.145  27.537  1.00  0.00    -0.237 OA
ATOM     92  O   UNL A   1      47.092  37.506  28.063  1.00  0.00    -0.237 OA
ATOM     93  O   UNL A   1      46.473  36.018  26.216  1.00  0.00    -0.744 OA
ENDBRANCH  87  90
ENDBRANCH  60  83
ENDBRANCH  34  35
ENDBRANCH  27  29
ENDBRANCH  26  27
ENDBRANCH  25  26
ENDBRANCH   1  25
TORSDOF 17
ENDMDL
MODEL 3
REMARK VINA RESULT:     -12.0      5.160     10.000
REMARK SMILES COc1cccc(NC(=O)NC2(C(=O)OCCOC(=O)c3ccc(-c4c5nc(c(-c6cccc(S(=O)(=O)[O-])c6F)c6ccc([nH]6)c(-c6cccc(S(=O)(=O)[O-])c6F)c6nc(c(-c7cccc(S(=O)(=O)[O-])c7F)c7ccc4[nH]7)C=C6)C=C5)cc3)CCCCC2)c1
REMARK SMILES IDX 16 1 15 2 13 3 14 4 12 5 84 6 88 7 85 8 87 9 86 10 11 11
REMARK SMILES IDX 8 12 9 13 10 15 7 17 3 18 4 19 89 20 5 21 6 22 2 23 1 24
REMARK SMILES IDX 17 25 18 26 19 27 20 28 21 29 22 30 83 31 23 32 82 33 24 34
REMARK SMILES IDX 25 35 26 36 76 37 27 38 81 39 75 40 77 41 28 42 80 43 74 44
REMARK SMILES IDX 73 45 29 47 61 48 41 49 60 50 42 51 45 52 59 53 78 54 43 55
REMARK SMILES IDX 44 56 58 58 79 59 46 60 30 61 31 62 39 63 32 64 34 65 40 66
REMARK SMILES IDX 33 67 35 68 36 69 37 70 38 71 62 72 63 73 71 74 64 75 66 76
REMARK SMILES IDX 72 77 65 78 67 79 68 80 69 81 70 82 47 83 48 84 56 85 49 86
REMARK SMILES IDX 51 87 57 88 50 89 52 90 53 91 54 92 55 93
REMARK H PARENT 8 14 11 16 77 46 45 57
REMARK Flexibility Score: inf
ROOT
ATOM      1  C   UNL A   1      31.210  28.884  24.849  1.00  0.00     0.274 C 
ENDROOT
BRANCH   1   2
ATOM      2  O   UNL A   1      32.193  27.862  25.118  1.00  0.00    -0.460 OA
BRANCH   2   3
ATOM      3  C   UNL A   1      31.695  26.716  25.653  1.00  0.00     0.332 C 
ATOM      4  O   UNL A   1      30.922  26.719  26.605  1.00  0.00    -0.249 OA
BRANCH   3   5
ATOM      5  C   UNL A   1      32.128  25.429  24.895  1.00  0.00     0.139 C 
ATOM      6  C   UNL A   1      31.039  24.370  24.674  1.00  0.00     0.040 C 
ATOM      7  C   UNL A   1      33.314  24.783  25.674  1.00  0.00     0.040 C 
ATOM      8  C   UNL A   1      30.658  23.547  25.899  1.00  0.00     0.003 C 
ATOM      9  C   UNL A   1      32.926  23.945  26.893  1.00  0.00     0.003 C 
ATOM     10  C   UNL A   1      31.865  22.908  26.560  1.00  0.00     0.000 C 
BRANCH   5  11
ATOM     11  N   UNL A   1      32.707  25.903  23.591  1.00  0.00    -0.322 N 
ATOM     12  N   UNL A   1      33.852  24.210  22.343  1.00  0.00    -0.308 N 
ATOM     13  C   UNL A   1      33.353  25.441  22.517  1.00  0.00     0.320 C 
ATOM     14  H   UNL A   1      34.509  24.166  21.611  1.00  0.00     0.171 HD
ATOM     15  O   UNL A   1      33.625  26.287  21.657  1.00  0.00    -0.248 OA
ATOM     16  H   UNL A   1      32.563  26.873  23.498  1.00  0.00     0.166 HD
BRANCH  12  17
ATOM     17  C   UNL A   1      33.652  22.980  22.961  1.00  0.00     0.046 A 
ATOM     18  C   UNL A   1      34.455  21.365  24.574  1.00  0.00     0.120 A 
ATOM     19  C   UNL A   1      33.274  20.636  24.411  1.00  0.00     0.046 A 
ATOM     20  C   UNL A   1      34.656  22.521  23.818  1.00  0.00     0.072 A 
ATOM     21  C   UNL A   1      32.326  21.029  23.467  1.00  0.00     0.006 A 
ATOM     22  C   UNL A   1      32.531  22.193  22.726  1.00  0.00     0.026 A 
BRANCH  18  23
ATOM     23  O   UNL A   1      35.314  20.872  25.519  1.00  0.00    -0.497 OA
ATOM     24  C   UNL A   1      36.499  21.625  25.749  1.00  0.00     0.278 C 
ENDBRANCH  18  23
ENDBRANCH  12  17
ENDBRANCH   5  11
ENDBRANCH   3   5
ENDBRANCH   2   3
ENDBRANCH   1   2
BRANCH   1  25
ATOM     25  C   UNL A   1      31.567  30.236  25.484  1.00  0.00     0.275 C 
BRANCH  25  26
ATOM     26  O   UNL A   1      32.465  30.085  26.601  1.00  0.00    -0.458 OA
BRANCH  26  27
ATOM     27  C   UNL A   1      33.012  31.221  27.090  1.00  0.00     0.338 C 
ATOM     28  O   UNL A   1      32.482  32.322  27.155  1.00  0.00    -0.246 OA
BRANCH  27  29
ATOM     29  C   UNL A   1      34.352  30.952  27.639  1.00  0.00     0.060 A 
ATOM     30  C   UNL A   1      34.696  29.634  27.943  1.00  0.00     0.016 A 
ATOM     31  C   UNL A   1      35.212  31.993  27.985  1.00  0.00     0.016 A 
ATOM     32  C   UNL A   1      35.883  29.341  28.610  1.00  0.00     0.010 A 
ATOM     33  C   UNL A   1      36.418  31.700  28.635  1.00  0.00     0.010 A 
ATOM     34  C   UNL A   1      36.750  30.376  28.975  1.00  0.00    -0.014 A 
BRANCH  34  35
ATOM     35  C   UNL A   1      37.960  30.070  29.779  1.00  0.00     0.031 A 
ATOM     36  C   UNL A   1      39.035  29.191  29.200  1.00  0.00     0.074 A 
ATOM     37  C   UNL A   1      38.110  30.593  31.011  1.00  0.00     0.049 A 
ATOM     38  N   UNL A   1      40.122  28.733  29.764  1.00  0.00    -0.248 NA
ATOM     39  C   UNL A   1      38.860  28.770  27.801  1.00  0.00     0.031 C 
ATOM     40  C   UNL A   1      37.162  31.495  31.666  1.00  0.00     0.029 A 
ATOM     41  N   UNL A   1      39.114  30.435  31.934  1.00  0.00    -0.354 N 
ATOM     42  C   UNL A   1      40.735  27.931  28.809  1.00  0.00     0.074 A 
ATOM     43  C   UNL A   1      39.902  27.968  27.627  1.00  0.00     0.031 C 
ATOM     44  C   UNL A   1      37.630  31.812  32.884  1.00  0.00     0.029 A 
ATOM     45  C   UNL A   1      38.886  31.104  33.114  1.00  0.00     0.049 A 
ATOM     46  H   UNL A   1      39.921  29.895  31.767  1.00  0.00     0.167 HD
ATOM     47  C   UNL A   1      41.895  27.238  28.903  1.00  0.00     0.034 A 
ATOM     48  C   UNL A   1      39.600  31.127  34.258  1.00  0.00     0.034 A 
ATOM     49  C   UNL A   1      42.751  27.246  30.058  1.00  0.00     0.049 A 
ATOM     50  C   UNL A   1      40.876  30.334  34.341  1.00  0.00     0.074 A 
ATOM     51  C   UNL A   1      43.958  26.593  30.240  1.00  0.00     0.029 A 
ATOM     52  N   UNL A   1      42.497  27.952  31.224  1.00  0.00    -0.354 N 
ATOM     53  N   UNL A   1      41.469  29.625  33.411  1.00  0.00    -0.248 NA
ATOM     54  C   UNL A   1      41.588  30.353  35.627  1.00  0.00     0.031 C 
ATOM     55  C   UNL A   1      44.432  26.901  31.521  1.00  0.00     0.029 A 
ATOM     56  C   UNL A   1      43.521  27.749  32.133  1.00  0.00     0.049 A 
ATOM     57  H   UNL A   1      41.705  28.515  31.382  1.00  0.00     0.167 HD
ATOM     58  C   UNL A   1      42.634  29.132  33.991  1.00  0.00     0.074 A 
ATOM     59  C   UNL A   1      42.674  29.644  35.345  1.00  0.00     0.031 C 
ATOM     60  C   UNL A   1      43.572  28.312  33.458  1.00  0.00     0.034 A 
BRANCH  47  61
ATOM     61  C   UNL A   1      42.317  26.429  27.706  1.00  0.00     0.023 A 
ATOM     62  C   UNL A   1      43.102  27.033  26.704  1.00  0.00     0.012 A 
ATOM     63  C   UNL A   1      41.963  25.073  27.586  1.00  0.00     0.148 A 
ATOM     64  C   UNL A   1      43.508  26.303  25.586  1.00  0.00     0.002 A 
ATOM     65  C   UNL A   1      42.398  24.343  26.485  1.00  0.00     0.091 A 
ATOM     66  F   UNL A   1      41.188  24.524  28.532  1.00  0.00    -0.205 F 
ATOM     67  C   UNL A   1      43.164  24.957  25.481  1.00  0.00     0.022 A 
BRANCH  65  68
ATOM     68  S   UNL A   1      42.047  22.589  26.306  1.00  0.00     0.127 S 
ATOM     69  O   UNL A   1      42.674  22.036  27.505  1.00  0.00    -0.237 OA
ATOM     70  O   UNL A   1      40.584  22.556  26.313  1.00  0.00    -0.237 OA
ATOM     71  O   UNL A   1      42.649  22.198  25.037  1.00  0.00    -0.744 OA
ENDBRANCH  65  68
ENDBRANCH  47  61
BRANCH  48  72
ATOM     72  C   UNL A   1      39.142  31.966  35.401  1.00  0.00     0.023 A 
ATOM     73  C   UNL A   1      39.338  33.359  35.353  1.00  0.00     0.012 A 
ATOM     74  C   UNL A   1      38.483  31.405  36.514  1.00  0.00     0.148 A 
ATOM     75  C   UNL A   1      38.902  34.176  36.398  1.00  0.00     0.002 A 
ATOM     76  C   UNL A   1      38.003  32.230  37.524  1.00  0.00     0.091 A 
ATOM     77  F   UNL A   1      38.331  30.073  36.559  1.00  0.00    -0.205 F 
ATOM     78  C   UNL A   1      38.222  33.615  37.474  1.00  0.00     0.022 A 
BRANCH  76  79
ATOM     79  S   UNL A   1      37.004  31.595  38.877  1.00  0.00     0.127 S 
ATOM     80  O   UNL A   1      37.910  31.741  40.014  1.00  0.00    -0.237 OA
ATOM     81  O   UNL A   1      35.863  32.512  38.878  1.00  0.00    -0.237 OA
ATOM     82  O   UNL A   1      36.668  30.229  38.499  1.00  0.00    -0.744 OA
ENDBRANCH  76  79
ENDBRANCH  48  72
BRANCH  60  83
ATOM     83  C   UNL A   1      44.731  27.920  34.335  1.00  0.00     0.023 A 
ATOM     84  C   UNL A   1      45.874  28.742  34.374  1.00  0.00     0.012 A 
ATOM     85  C   UNL A   1      44.660  26.790  35.173  1.00  0.00     0.148 A 
ATOM     86  C   UNL A   1      46.939  28.433  35.219  1.00  0.00     0.002 A 
ATOM     87  C   UNL A   1      45.711  26.510  36.040  1.00  0.00     0.091 A 
ATOM     88  F   UNL A   1      43.574  26.007  35.105  1.00  0.00    -0.205 F 
ATOM     89  C   UNL A   1      46.854  27.327  36.060  1.00  0.00     0.022 A 
BRANCH  87  90
ATOM     90  S   UNL A   1      45.640  25.152  37.214  1.00  0.00     0.127 S 
ATOM     91  O   UNL A   1      46.841  25.385  38.015  1.00  0.00    -0.237 OA
ATOM     92  O   UNL A   1      44.381  25.405  37.918  1.00  0.00    -0.237 OA
ATOM     93  O   UNL A   1      45.641  23.937  36.412  1.00  0.00    -0.744 OA
ENDBRANCH  87  90
ENDBRANCH  60  83
ENDBRANCH  34  35
ENDBRANCH  27  29
ENDBRANCH  26  27
ENDBRANCH  25  26
ENDBRANCH   1  25
TORSDOF 17
ENDMDL
