MODEL 1
REMARK VINA RESULT:     -12.1      0.000      0.000
REMARK SMILES O=C(C[C@H](C(=O)OCCOC(=O)c1ccc(-c2c3nc(c(-c4cccc(S(=O)(=O)[O-])c4F)c4ccc([nH]4)c(-c4cccc(S(=O)(=O)[O-])c4F)c4nc(c(-c5cccc(S(=O)(=O)[O-])c5F)c5ccc2[nH]5)C=C4)C=C3)cc1)c1ccccc1)Nc1ccc(Cl)cc1Cl
REMARK SMILES IDX 8 1 7 2 5 3 6 4 4 5 3 6 2 7 1 8 82 9 83 11 84 12 89 13 85 14
REMARK SMILES IDX 88 15 90 16 86 17 87 18 76 19 77 20 81 21 78 22 80 23 79 24
REMARK SMILES IDX 9 25 10 26 11 27 12 28 13 29 14 30 75 31 15 32 74 33 16 34
REMARK SMILES IDX 17 35 18 36 68 37 19 38 73 39 67 40 69 41 20 42 72 43 66 44
REMARK SMILES IDX 65 45 21 47 53 48 33 49 52 50 34 51 37 52 51 53 70 54 35 55
REMARK SMILES IDX 36 56 50 58 71 59 38 60 22 61 23 62 31 63 24 64 26 65 32 66
REMARK SMILES IDX 25 67 27 68 28 69 29 70 30 71 54 72 55 73 63 74 56 75 58 76
REMARK SMILES IDX 64 77 57 78 59 79 60 80 61 81 62 82 39 83 40 84 48 85 41 86
REMARK SMILES IDX 43 87 49 88 42 89 44 90 45 91 46 92 47 93
REMARK H PARENT 82 10 69 46 37 57
REMARK Flexibility Score: inf
ROOT
ATOM      1  C   UNL A   1      35.547  21.682  26.015  1.00  0.00     0.274 C 
ENDROOT
BRANCH   1   2
ATOM      2  O   UNL A   1      34.460  22.136  25.176  1.00  0.00    -0.462 OA
BRANCH   2   3
ATOM      3  C   UNL A   1      33.209  21.813  25.623  1.00  0.00     0.314 C 
ATOM      4  O   UNL A   1      32.848  21.908  26.789  1.00  0.00    -0.252 OA
BRANCH   3   5
ATOM      5  C   UNL A   1      32.316  21.251  24.523  1.00  0.00     0.138 C 
BRANCH   5   6
ATOM      6  C   UNL A   1      32.156  22.271  23.374  1.00  0.00     0.120 C 
BRANCH   6   7
ATOM      7  C   UNL A   1      31.580  23.613  23.764  1.00  0.00     0.225 C 
ATOM      8  O   UNL A   1      30.498  23.975  23.309  1.00  0.00    -0.275 OA
ATOM      9  N   UNL A   1      32.428  24.373  24.548  1.00  0.00    -0.325 N 
ATOM     10  H   UNL A   1      33.218  23.943  24.948  1.00  0.00     0.169 HD
BRANCH   9  11
ATOM     11  C   UNL A   1      32.201  25.742  24.796  1.00  0.00     0.060 A 
ATOM     12  C   UNL A   1      31.537  26.037  25.995  1.00  0.00     0.029 A 
ATOM     13  C   UNL A   1      32.636  26.798  23.975  1.00  0.00     0.066 A 
ATOM     14  C   UNL A   1      31.399  27.359  26.419  1.00  0.00     0.023 A 
ATOM     15  C   UNL A   1      32.490  28.121  24.399  1.00  0.00     0.043 A 
ATOM     16  Cl  UNL A   1      33.191  26.561  22.353  1.00  0.00    -0.082 Cl
ATOM     17  C   UNL A   1      31.893  28.393  25.627  1.00  0.00     0.042 A 
ATOM     18  Cl  UNL A   1      31.742  30.021  26.163  1.00  0.00    -0.084 Cl
ENDBRANCH   9  11
ENDBRANCH   6   7
ENDBRANCH   5   6
BRANCH   5  19
ATOM     19  C   UNL A   1      32.621  19.809  24.124  1.00  0.00    -0.033 A 
ATOM     20  C   UNL A   1      32.183  19.335  22.876  1.00  0.00     0.004 A 
ATOM     21  C   UNL A   1      33.317  18.919  24.958  1.00  0.00     0.004 A 
ATOM     22  C   UNL A   1      32.496  18.045  22.444  1.00  0.00     0.000 A 
ATOM     23  C   UNL A   1      33.620  17.624  24.530  1.00  0.00     0.000 A 
ATOM     24  C   UNL A   1      33.222  17.192  23.268  1.00  0.00     0.000 A 
ENDBRANCH   5  19
ENDBRANCH   3   5
ENDBRANCH   2   3
ENDBRANCH   1   2
BRANCH   1  25
ATOM     25  C   UNL A   1      36.528  20.768  25.277  1.00  0.00     0.275 C 
BRANCH  25  26
ATOM     26  O   UNL A   1      37.759  21.443  24.976  1.00  0.00    -0.458 OA
BRANCH  26  27
ATOM     27  C   UNL A   1      38.788  21.104  25.786  1.00  0.00     0.338 C 
ATOM     28  O   UNL A   1      39.295  20.001  25.900  1.00  0.00    -0.246 OA
BRANCH  27  29
ATOM     29  C   UNL A   1      39.327  22.299  26.448  1.00  0.00     0.060 A 
ATOM     30  C   UNL A   1      38.815  23.548  26.086  1.00  0.00     0.016 A 
ATOM     31  C   UNL A   1      40.424  22.201  27.302  1.00  0.00     0.016 A 
ATOM     32  C   UNL A   1      39.439  24.711  26.520  1.00  0.00     0.010 A 
ATOM     33  C   UNL A   1      41.028  23.372  27.770  1.00  0.00     0.010 A 
ATOM     34  C   UNL A   1      40.561  24.631  27.351  1.00  0.00    -0.014 A 
BRANCH  34  35
ATOM     35  C   UNL A   1      41.289  25.867  27.723  1.00  0.00     0.031 A 
ATOM     36  C   UNL A   1      40.580  26.935  28.506  1.00  0.00     0.074 A 
ATOM     37  C   UNL A   1      42.576  26.023  27.361  1.00  0.00     0.049 A 
ATOM     38  N   UNL A   1      40.991  28.133  28.826  1.00  0.00    -0.248 NA
ATOM     39  C   UNL A   1      39.225  26.615  28.990  1.00  0.00     0.031 C 
ATOM     40  C   UNL A   1      43.371  25.041  26.622  1.00  0.00     0.029 A 
ATOM     41  N   UNL A   1      43.433  27.078  27.546  1.00  0.00    -0.354 N 
ATOM     42  C   UNL A   1      39.935  28.727  29.508  1.00  0.00     0.074 A 
ATOM     43  C   UNL A   1      38.863  27.757  29.557  1.00  0.00     0.031 C 
ATOM     44  C   UNL A   1      44.594  25.548  26.397  1.00  0.00     0.029 A 
ATOM     45  C   UNL A   1      44.654  26.903  26.939  1.00  0.00     0.049 A 
ATOM     46  H   UNL A   1      43.197  27.880  28.065  1.00  0.00     0.167 HD
ATOM     47  C   UNL A   1      39.873  29.963  30.055  1.00  0.00     0.034 A 
ATOM     48  C   UNL A   1      45.691  27.752  26.808  1.00  0.00     0.034 A 
ATOM     49  C   UNL A   1      40.960  30.904  30.042  1.00  0.00     0.049 A 
ATOM     50  C   UNL A   1      45.594  29.119  27.431  1.00  0.00     0.074 A 
ATOM     51  C   UNL A   1      40.999  32.183  30.568  1.00  0.00     0.029 A 
ATOM     52  N   UNL A   1      42.206  30.661  29.485  1.00  0.00    -0.354 N 
ATOM     53  N   UNL A   1      44.610  29.643  28.121  1.00  0.00    -0.248 NA
ATOM     54  C   UNL A   1      46.760  30.002  27.281  1.00  0.00     0.031 C 
ATOM     55  C   UNL A   1      42.272  32.713  30.333  1.00  0.00     0.029 A 
ATOM     56  C   UNL A   1      43.027  31.761  29.666  1.00  0.00     0.049 A 
ATOM     57  H   UNL A   1      42.469  29.830  29.028  1.00  0.00     0.167 HD
ATOM     58  C   UNL A   1      45.049  30.900  28.516  1.00  0.00     0.074 A 
ATOM     59  C   UNL A   1      46.397  31.051  28.007  1.00  0.00     0.031 C 
ATOM     60  C   UNL A   1      44.391  31.856  29.216  1.00  0.00     0.034 A 
BRANCH  47  61
ATOM     61  C   UNL A   1      38.600  30.359  30.752  1.00  0.00     0.023 A 
ATOM     62  C   UNL A   1      38.420  30.020  32.108  1.00  0.00     0.012 A 
ATOM     63  C   UNL A   1      37.614  31.117  30.090  1.00  0.00     0.148 A 
ATOM     64  C   UNL A   1      37.269  30.414  32.791  1.00  0.00     0.002 A 
ATOM     65  C   UNL A   1      36.485  31.535  30.786  1.00  0.00     0.091 A 
ATOM     66  F   UNL A   1      37.794  31.407  28.794  1.00  0.00    -0.205 F 
ATOM     67  C   UNL A   1      36.309  31.178  32.134  1.00  0.00     0.022 A 
BRANCH  65  68
ATOM     68  S   UNL A   1      35.222  32.578  30.049  1.00  0.00     0.127 S 
ATOM     69  O   UNL A   1      34.731  31.727  28.966  1.00  0.00    -0.237 OA
ATOM     70  O   UNL A   1      34.284  32.758  31.157  1.00  0.00    -0.237 OA
ATOM     71  O   UNL A   1      35.902  33.794  29.627  1.00  0.00    -0.744 OA
ENDBRANCH  65  68
ENDBRANCH  47  61
BRANCH  48  72
ATOM     72  C   UNL A   1      46.921  27.323  26.085  1.00  0.00     0.023 A 
ATOM     73  C   UNL A   1      47.033  27.570  24.703  1.00  0.00     0.012 A 
ATOM     74  C   UNL A   1      47.985  26.690  26.756  1.00  0.00     0.148 A 
ATOM     75  C   UNL A   1      48.169  27.169  23.998  1.00  0.00     0.002 A 
ATOM     76  C   UNL A   1      49.137  26.344  26.059  1.00  0.00     0.091 A 
ATOM     77  F   UNL A   1      47.855  26.439  28.067  1.00  0.00    -0.205 F 
ATOM     78  C   UNL A   1      49.225  26.567  24.678  1.00  0.00     0.022 A 
BRANCH  76  79
ATOM     79  S   UNL A   1      50.583  25.689  26.901  1.00  0.00     0.127 S 
ATOM     80  O   UNL A   1      51.559  25.622  25.818  1.00  0.00    -0.237 OA
ATOM     81  O   UNL A   1      50.851  26.717  27.909  1.00  0.00    -0.237 OA
ATOM     82  O   UNL A   1      50.149  24.415  27.458  1.00  0.00    -0.744 OA
ENDBRANCH  76  79
ENDBRANCH  48  72
BRANCH  60  83
ATOM     83  C   UNL A   1      45.127  33.134  29.514  1.00  0.00     0.023 A 
ATOM     84  C   UNL A   1      45.888  33.239  30.694  1.00  0.00     0.012 A 
ATOM     85  C   UNL A   1      45.129  34.196  28.590  1.00  0.00     0.148 A 
ATOM     86  C   UNL A   1      46.619  34.393  30.964  1.00  0.00     0.002 A 
ATOM     87  C   UNL A   1      45.893  35.329  28.846  1.00  0.00     0.091 A 
ATOM     88  F   UNL A   1      44.379  34.086  27.483  1.00  0.00    -0.205 F 
ATOM     89  C   UNL A   1      46.633  35.432  30.036  1.00  0.00     0.022 A 
BRANCH  87  90
ATOM     90  S   UNL A   1      46.032  36.671  27.660  1.00  0.00     0.127 S 
ATOM     91  O   UNL A   1      44.700  37.267  27.727  1.00  0.00    -0.237 OA
ATOM     92  O   UNL A   1      47.098  37.492  28.235  1.00  0.00    -0.237 OA
ATOM     93  O   UNL A   1      46.380  36.041  26.393  1.00  0.00    -0.744 OA
ENDBRANCH  87  90
ENDBRANCH  60  83
ENDBRANCH  34  35
ENDBRANCH  27  29
ENDBRANCH  26  27
ENDBRANCH  25  26
ENDBRANCH   1  25
TORSDOF 18
ENDMDL
MODEL 2
REMARK VINA RESULT:     -12.0      1.618      7.728
REMARK SMILES O=C(C[C@H](C(=O)OCCOC(=O)c1ccc(-c2c3nc(c(-c4cccc(S(=O)(=O)[O-])c4F)c4ccc([nH]4)c(-c4cccc(S(=O)(=O)[O-])c4F)c4nc(c(-c5cccc(S(=O)(=O)[O-])c5F)c5ccc2[nH]5)C=C4)C=C3)cc1)c1ccccc1)Nc1ccc(Cl)cc1Cl
REMARK SMILES IDX 8 1 7 2 5 3 6 4 4 5 3 6 2 7 1 8 82 9 83 11 84 12 89 13 85 14
REMARK SMILES IDX 88 15 90 16 86 17 87 18 76 19 77 20 81 21 78 22 80 23 79 24
REMARK SMILES IDX 9 25 10 26 11 27 12 28 13 29 14 30 75 31 15 32 74 33 16 34
REMARK SMILES IDX 17 35 18 36 68 37 19 38 73 39 67 40 69 41 20 42 72 43 66 44
REMARK SMILES IDX 65 45 21 47 53 48 33 49 52 50 34 51 37 52 51 53 70 54 35 55
REMARK SMILES IDX 36 56 50 58 71 59 38 60 22 61 23 62 31 63 24 64 26 65 32 66
REMARK SMILES IDX 25 67 27 68 28 69 29 70 30 71 54 72 55 73 63 74 56 75 58 76
REMARK SMILES IDX 64 77 57 78 59 79 60 80 61 81 62 82 39 83 40 84 48 85 41 86
REMARK SMILES IDX 43 87 49 88 42 89 44 90 45 91 46 92 47 93
REMARK H PARENT 82 10 69 46 37 57
REMARK Flexibility Score: inf
ROOT
ATOM      1  C   UNL A   1      36.853  21.911  23.896  1.00  0.00     0.274 C 
ENDROOT
BRANCH   1   2
ATOM      2  O   UNL A   1      35.732  22.430  24.647  1.00  0.00    -0.462 OA
BRANCH   2   3
ATOM      3  C   UNL A   1      34.513  22.286  24.045  1.00  0.00     0.314 C 
ATOM      4  O   UNL A   1      34.170  22.882  23.031  1.00  0.00    -0.252 OA
BRANCH   3   5
ATOM      5  C   UNL A   1      33.585  21.348  24.808  1.00  0.00     0.138 C 
BRANCH   5   6
ATOM      6  C   UNL A   1      32.270  22.067  25.184  1.00  0.00     0.120 C 
BRANCH   6   7
ATOM      7  C   UNL A   1      32.424  23.324  26.010  1.00  0.00     0.225 C 
ATOM      8  O   UNL A   1      32.320  23.275  27.233  1.00  0.00    -0.275 OA
ATOM      9  N   UNL A   1      32.566  24.471  25.251  1.00  0.00    -0.325 N 
ATOM     10  H   UNL A   1      32.750  24.384  24.288  1.00  0.00     0.169 HD
BRANCH   9  11
ATOM     11  C   UNL A   1      32.455  25.762  25.807  1.00  0.00     0.060 A 
ATOM     12  C   UNL A   1      33.668  26.423  26.044  1.00  0.00     0.029 A 
ATOM     13  C   UNL A   1      31.246  26.428  26.075  1.00  0.00     0.066 A 
ATOM     14  C   UNL A   1      33.677  27.760  26.444  1.00  0.00     0.023 A 
ATOM     15  C   UNL A   1      31.259  27.765  26.482  1.00  0.00     0.043 A 
ATOM     16  Cl  UNL A   1      29.715  25.623  26.107  1.00  0.00    -0.082 Cl
ATOM     17  C   UNL A   1      32.472  28.429  26.642  1.00  0.00     0.042 A 
ATOM     18  Cl  UNL A   1      32.486  30.084  27.112  1.00  0.00    -0.084 Cl
ENDBRANCH   9  11
ENDBRANCH   6   7
ENDBRANCH   5   6
BRANCH   5  19
ATOM     19  C   UNL A   1      33.457  19.949  24.212  1.00  0.00    -0.033 A 
ATOM     20  C   UNL A   1      34.404  18.968  24.552  1.00  0.00     0.004 A 
ATOM     21  C   UNL A   1      32.431  19.590  23.321  1.00  0.00     0.004 A 
ATOM     22  C   UNL A   1      34.288  17.659  24.083  1.00  0.00     0.000 A 
ATOM     23  C   UNL A   1      32.322  18.282  22.843  1.00  0.00     0.000 A 
ATOM     24  C   UNL A   1      33.243  17.314  23.234  1.00  0.00     0.000 A 
ENDBRANCH   5  19
ENDBRANCH   3   5
ENDBRANCH   2   3
ENDBRANCH   1   2
BRANCH   1  25
ATOM     25  C   UNL A   1      37.596  20.793  24.631  1.00  0.00     0.275 C 
BRANCH  25  26
ATOM     26  O   UNL A   1      37.913  21.165  25.981  1.00  0.00    -0.458 OA
BRANCH  26  27
ATOM     27  C   UNL A   1      39.235  21.147  26.265  1.00  0.00     0.338 C 
ATOM     28  O   UNL A   1      40.026  20.255  26.005  1.00  0.00    -0.246 OA
BRANCH  27  29
ATOM     29  C   UNL A   1      39.649  22.435  26.836  1.00  0.00     0.060 A 
ATOM     30  C   UNL A   1      39.000  23.594  26.402  1.00  0.00     0.016 A 
ATOM     31  C   UNL A   1      40.760  22.513  27.674  1.00  0.00     0.016 A 
ATOM     32  C   UNL A   1      39.499  24.845  26.746  1.00  0.00     0.010 A 
ATOM     33  C   UNL A   1      41.239  23.772  28.051  1.00  0.00     0.010 A 
ATOM     34  C   UNL A   1      40.633  24.942  27.559  1.00  0.00    -0.014 A 
BRANCH  34  35
ATOM     35  C   UNL A   1      41.227  26.271  27.834  1.00  0.00     0.031 A 
ATOM     36  C   UNL A   1      42.636  26.556  27.398  1.00  0.00     0.074 A 
ATOM     37  C   UNL A   1      40.504  27.211  28.470  1.00  0.00     0.049 A 
ATOM     38  N   UNL A   1      43.381  27.600  27.645  1.00  0.00    -0.248 NA
ATOM     39  C   UNL A   1      43.298  25.526  26.577  1.00  0.00     0.031 C 
ATOM     40  C   UNL A   1      39.118  27.053  28.917  1.00  0.00     0.029 A 
ATOM     41  N   UNL A   1      40.843  28.478  28.871  1.00  0.00    -0.354 N 
ATOM     42  C   UNL A   1      44.611  27.339  27.052  1.00  0.00     0.074 A 
ATOM     43  C   UNL A   1      44.513  26.036  26.430  1.00  0.00     0.031 C 
ATOM     44  C   UNL A   1      38.733  28.173  29.550  1.00  0.00     0.029 A 
ATOM     45  C   UNL A   1      39.853  29.108  29.588  1.00  0.00     0.049 A 
ATOM     46  H   UNL A   1      41.709  28.896  28.663  1.00  0.00     0.167 HD
ATOM     47  C   UNL A   1      45.714  28.121  27.017  1.00  0.00     0.034 A 
ATOM     48  C   UNL A   1      39.862  30.292  30.231  1.00  0.00     0.034 A 
ATOM     49  C   UNL A   1      45.788  29.434  27.599  1.00  0.00     0.049 A 
ATOM     50  C   UNL A   1      41.103  31.141  30.172  1.00  0.00     0.074 A 
ATOM     51  C   UNL A   1      46.860  30.309  27.619  1.00  0.00     0.029 A 
ATOM     52  N   UNL A   1      44.741  30.068  28.250  1.00  0.00    -0.354 N 
ATOM     53  N   UNL A   1      42.238  30.903  29.558  1.00  0.00    -0.248 NA
ATOM     54  C   UNL A   1      41.057  32.434  30.869  1.00  0.00     0.031 C 
ATOM     55  C   UNL A   1      46.459  31.475  28.280  1.00  0.00     0.029 A 
ATOM     56  C   UNL A   1      45.136  31.328  28.665  1.00  0.00     0.049 A 
ATOM     57  H   UNL A   1      43.848  29.679  28.396  1.00  0.00     0.167 HD
ATOM     58  C   UNL A   1      43.026  32.028  29.766  1.00  0.00     0.074 A 
ATOM     59  C   UNL A   1      42.232  32.957  30.544  1.00  0.00     0.031 C 
ATOM     60  C   UNL A   1      44.301  32.264  29.371  1.00  0.00     0.034 A 
BRANCH  47  61
ATOM     61  C   UNL A   1      46.924  27.596  26.292  1.00  0.00     0.023 A 
ATOM     62  C   UNL A   1      47.821  26.746  26.969  1.00  0.00     0.012 A 
ATOM     63  C   UNL A   1      47.139  27.890  24.931  1.00  0.00     0.148 A 
ATOM     64  C   UNL A   1      48.925  26.210  26.308  1.00  0.00     0.002 A 
ATOM     65  C   UNL A   1      48.222  27.324  24.269  1.00  0.00     0.091 A 
ATOM     66  F   UNL A   1      46.286  28.719  24.314  1.00  0.00    -0.205 F 
ATOM     67  C   UNL A   1      49.119  26.490  24.958  1.00  0.00     0.022 A 
BRANCH  65  68
ATOM     68  S   UNL A   1      48.524  27.569  22.515  1.00  0.00     0.127 S 
ATOM     69  O   UNL A   1      49.797  28.288  22.532  1.00  0.00    -0.237 OA
ATOM     70  O   UNL A   1      48.605  26.195  22.020  1.00  0.00    -0.237 OA
ATOM     71  O   UNL A   1      47.386  28.328  22.015  1.00  0.00    -0.744 OA
ENDBRANCH  65  68
ENDBRANCH  47  61
BRANCH  48  72
ATOM     72  C   UNL A   1      38.647  30.755  30.959  1.00  0.00     0.023 A 
ATOM     73  C   UNL A   1      38.564  30.575  32.353  1.00  0.00     0.012 A 
ATOM     74  C   UNL A   1      37.586  31.389  30.286  1.00  0.00     0.148 A 
ATOM     75  C   UNL A   1      37.434  30.990  33.058  1.00  0.00     0.002 A 
ATOM     76  C   UNL A   1      36.487  31.850  31.002  1.00  0.00     0.091 A 
ATOM     77  F   UNL A   1      37.666  31.533  28.954  1.00  0.00    -0.205 F 
ATOM     78  C   UNL A   1      36.401  31.637  32.385  1.00  0.00     0.022 A 
BRANCH  76  79
ATOM     79  S   UNL A   1      35.188  32.810  30.214  1.00  0.00     0.127 S 
ATOM     80  O   UNL A   1      35.928  33.962  29.708  1.00  0.00    -0.237 OA
ATOM     81  O   UNL A   1      34.698  31.891  29.185  1.00  0.00    -0.237 OA
ATOM     82  O   UNL A   1      34.224  33.078  31.273  1.00  0.00    -0.744 OA
ENDBRANCH  76  79
ENDBRANCH  48  72
BRANCH  60  83
ATOM     83  C   UNL A   1      44.908  33.592  29.732  1.00  0.00     0.023 A 
ATOM     84  C   UNL A   1      45.655  33.716  30.919  1.00  0.00     0.012 A 
ATOM     85  C   UNL A   1      44.802  34.693  28.861  1.00  0.00     0.148 A 
ATOM     86  C   UNL A   1      46.269  34.923  31.246  1.00  0.00     0.002 A 
ATOM     87  C   UNL A   1      45.450  35.882  29.173  1.00  0.00     0.091 A 
ATOM     88  F   UNL A   1      44.066  34.562  27.747  1.00  0.00    -0.205 F 
ATOM     89  C   UNL A   1      46.178  36.001  30.368  1.00  0.00     0.022 A 
BRANCH  87  90
ATOM     90  S   UNL A   1      45.453  37.286  28.053  1.00  0.00     0.127 S 
ATOM     91  O   UNL A   1      45.796  36.654  26.781  1.00  0.00    -0.237 OA
ATOM     92  O   UNL A   1      44.074  37.767  28.143  1.00  0.00    -0.237 OA
ATOM     93  O   UNL A   1      46.445  38.212  28.585  1.00  0.00    -0.744 OA
ENDBRANCH  87  90
ENDBRANCH  60  83
ENDBRANCH  34  35
ENDBRANCH  27  29
ENDBRANCH  26  27
ENDBRANCH  25  26
ENDBRANCH   1  25
TORSDOF 18
ENDMDL
MODEL 3
REMARK VINA RESULT:     -11.9      1.042      1.572
REMARK SMILES O=C(C[C@H](C(=O)OCCOC(=O)c1ccc(-c2c3nc(c(-c4cccc(S(=O)(=O)[O-])c4F)c4ccc([nH]4)c(-c4cccc(S(=O)(=O)[O-])c4F)c4nc(c(-c5cccc(S(=O)(=O)[O-])c5F)c5ccc2[nH]5)C=C4)C=C3)cc1)c1ccccc1)Nc1ccc(Cl)cc1Cl
REMARK SMILES IDX 8 1 7 2 5 3 6 4 4 5 3 6 2 7 1 8 82 9 83 11 84 12 89 13 85 14
REMARK SMILES IDX 88 15 90 16 86 17 87 18 76 19 77 20 81 21 78 22 80 23 79 24
REMARK SMILES IDX 9 25 10 26 11 27 12 28 13 29 14 30 75 31 15 32 74 33 16 34
REMARK SMILES IDX 17 35 18 36 68 37 19 38 73 39 67 40 69 41 20 42 72 43 66 44
REMARK SMILES IDX 65 45 21 47 53 48 33 49 52 50 34 51 37 52 51 53 70 54 35 55
REMARK SMILES IDX 36 56 50 58 71 59 38 60 22 61 23 62 31 63 24 64 26 65 32 66
REMARK SMILES IDX 25 67 27 68 28 69 29 70 30 71 54 72 55 73 63 74 56 75 58 76
REMARK SMILES IDX 64 77 57 78 59 79 60 80 61 81 62 82 39 83 40 84 48 85 41 86
REMARK SMILES IDX 43 87 49 88 42 89 44 90 45 91 46 92 47 93
REMARK H PARENT 82 10 69 46 37 57
REMARK Flexibility Score: inf
ROOT
ATOM      1  C   UNL A   1      36.010  20.033  25.054  1.00  0.00     0.274 C 
ENDROOT
BRANCH   1   2
ATOM      2  O   UNL A   1      34.960  21.020  24.932  1.00  0.00    -0.462 OA
BRANCH   2   3
ATOM      3  C   UNL A   1      33.867  20.806  25.725  1.00  0.00     0.314 C 
ATOM      4  O   UNL A   1      33.810  21.098  26.914  1.00  0.00    -0.252 OA
BRANCH   3   5
ATOM      5  C   UNL A   1      32.735  20.097  24.991  1.00  0.00     0.138 C 
BRANCH   5   6
ATOM      6  C   UNL A   1      32.290  20.911  23.756  1.00  0.00     0.120 C 
BRANCH   6   7
ATOM      7  C   UNL A   1      32.259  22.411  23.937  1.00  0.00     0.225 C 
ATOM      8  O   UNL A   1      31.283  22.950  24.454  1.00  0.00    -0.275 OA
ATOM      9  N   UNL A   1      33.341  23.060  23.371  1.00  0.00    -0.325 N 
ATOM     10  H   UNL A   1      34.117  22.526  23.084  1.00  0.00     0.169 HD
BRANCH   9  11
ATOM     11  C   UNL A   1      33.375  24.457  23.192  1.00  0.00     0.060 A 
ATOM     12  C   UNL A   1      32.841  24.925  21.984  1.00  0.00     0.029 A 
ATOM     13  C   UNL A   1      33.840  25.385  24.142  1.00  0.00     0.066 A 
ATOM     14  C   UNL A   1      32.678  26.293  21.766  1.00  0.00     0.023 A 
ATOM     15  C   UNL A   1      33.682  26.755  23.917  1.00  0.00     0.043 A 
ATOM     16  Cl  UNL A   1      34.781  24.929  25.521  1.00  0.00    -0.082 Cl
ATOM     17  C   UNL A   1      33.083  27.200  22.742  1.00  0.00     0.042 A 
ATOM     18  Cl  UNL A   1      32.859  28.886  22.481  1.00  0.00    -0.084 Cl
ENDBRANCH   9  11
ENDBRANCH   6   7
ENDBRANCH   5   6
BRANCH   5  19
ATOM     19  C   UNL A   1      32.943  18.598  24.789  1.00  0.00    -0.033 A 
ATOM     20  C   UNL A   1      32.614  17.713  25.830  1.00  0.00     0.004 A 
ATOM     21  C   UNL A   1      33.462  18.054  23.603  1.00  0.00     0.004 A 
ATOM     22  C   UNL A   1      32.726  16.332  25.665  1.00  0.00     0.000 A 
ATOM     23  C   UNL A   1      33.584  16.672  23.443  1.00  0.00     0.000 A 
ATOM     24  C   UNL A   1      33.203  15.810  24.468  1.00  0.00     0.000 A 
ENDBRANCH   5  19
ENDBRANCH   3   5
ENDBRANCH   2   3
ENDBRANCH   1   2
BRANCH   1  25
ATOM     25  C   UNL A   1      37.378  20.561  24.618  1.00  0.00     0.275 C 
BRANCH  25  26
ATOM     26  O   UNL A   1      37.849  21.600  25.491  1.00  0.00    -0.458 OA
BRANCH  26  27
ATOM     27  C   UNL A   1      39.025  21.322  26.099  1.00  0.00     0.338 C 
ATOM     28  O   UNL A   1      39.638  20.269  26.055  1.00  0.00    -0.246 OA
BRANCH  27  29
ATOM     29  C   UNL A   1      39.560  22.528  26.744  1.00  0.00     0.060 A 
ATOM     30  C   UNL A   1      39.059  23.771  26.350  1.00  0.00     0.016 A 
ATOM     31  C   UNL A   1      40.643  22.442  27.616  1.00  0.00     0.016 A 
ATOM     32  C   UNL A   1      39.682  24.941  26.769  1.00  0.00     0.010 A 
ATOM     33  C   UNL A   1      41.246  23.620  28.069  1.00  0.00     0.010 A 
ATOM     34  C   UNL A   1      40.792  24.872  27.617  1.00  0.00    -0.014 A 
BRANCH  34  35
ATOM     35  C   UNL A   1      41.520  26.111  27.975  1.00  0.00     0.031 A 
ATOM     36  C   UNL A   1      40.803  27.203  28.718  1.00  0.00     0.074 A 
ATOM     37  C   UNL A   1      42.815  26.252  27.635  1.00  0.00     0.049 A 
ATOM     38  N   UNL A   1      41.215  28.405  29.018  1.00  0.00    -0.248 NA
ATOM     39  C   UNL A   1      39.437  26.902  29.182  1.00  0.00     0.031 C 
ATOM     40  C   UNL A   1      43.618  25.247  26.935  1.00  0.00     0.029 A 
ATOM     41  N   UNL A   1      43.675  27.305  27.812  1.00  0.00    -0.354 N 
ATOM     42  C   UNL A   1      40.150  29.021  29.665  1.00  0.00     0.074 A 
ATOM     43  C   UNL A   1      39.071  28.059  29.716  1.00  0.00     0.031 C 
ATOM     44  C   UNL A   1      44.848  25.742  26.723  1.00  0.00     0.029 A 
ATOM     45  C   UNL A   1      44.907  27.108  27.234  1.00  0.00     0.049 A 
ATOM     46  H   UNL A   1      43.435  28.121  28.307  1.00  0.00     0.167 HD
ATOM     47  C   UNL A   1      40.085  30.270  30.182  1.00  0.00     0.034 A 
ATOM     48  C   UNL A   1      45.952  27.948  27.104  1.00  0.00     0.034 A 
ATOM     49  C   UNL A   1      41.178  31.204  30.168  1.00  0.00     0.049 A 
ATOM     50  C   UNL A   1      45.851  29.330  27.692  1.00  0.00     0.074 A 
ATOM     51  C   UNL A   1      41.216  32.495  30.665  1.00  0.00     0.029 A 
ATOM     52  N   UNL A   1      42.434  30.941  29.642  1.00  0.00    -0.354 N 
ATOM     53  N   UNL A   1      44.857  29.876  28.350  1.00  0.00    -0.248 NA
ATOM     54  C   UNL A   1      47.026  30.202  27.545  1.00  0.00     0.031 C 
ATOM     55  C   UNL A   1      42.497  33.011  30.443  1.00  0.00     0.029 A 
ATOM     56  C   UNL A   1      43.258  32.039  29.814  1.00  0.00     0.049 A 
ATOM     57  H   UNL A   1      42.700  30.097  29.210  1.00  0.00     0.167 HD
ATOM     58  C   UNL A   1      45.297  31.140  28.724  1.00  0.00     0.074 A 
ATOM     59  C   UNL A   1      46.655  31.270  28.239  1.00  0.00     0.031 C 
ATOM     60  C   UNL A   1      44.631  32.116  29.389  1.00  0.00     0.034 A 
BRANCH  47  61
ATOM     61  C   UNL A   1      38.801  30.690  30.844  1.00  0.00     0.023 A 
ATOM     62  C   UNL A   1      38.661  30.539  32.238  1.00  0.00     0.012 A 
ATOM     63  C   UNL A   1      37.764  31.290  30.103  1.00  0.00     0.148 A 
ATOM     64  C   UNL A   1      37.499  30.961  32.883  1.00  0.00     0.002 A 
ATOM     65  C   UNL A   1      36.623  31.739  30.758  1.00  0.00     0.091 A 
ATOM     66  F   UNL A   1      37.909  31.402  28.776  1.00  0.00    -0.205 F 
ATOM     67  C   UNL A   1      36.487  31.570  32.146  1.00  0.00     0.022 A 
BRANCH  65  68
ATOM     68  S   UNL A   1      35.291  32.595  29.909  1.00  0.00     0.127 S 
ATOM     69  O   UNL A   1      34.351  32.837  31.003  1.00  0.00    -0.237 OA
ATOM     70  O   UNL A   1      35.963  33.793  29.407  1.00  0.00    -0.237 OA
ATOM     71  O   UNL A   1      34.823  31.683  28.875  1.00  0.00    -0.744 OA
ENDBRANCH  65  68
ENDBRANCH  47  61
BRANCH  48  72
ATOM     72  C   UNL A   1      47.193  27.494  26.415  1.00  0.00     0.023 A 
ATOM     73  C   UNL A   1      47.387  27.813  25.057  1.00  0.00     0.012 A 
ATOM     74  C   UNL A   1      48.188  26.769  27.097  1.00  0.00     0.148 A 
ATOM     75  C   UNL A   1      48.535  27.391  24.385  1.00  0.00     0.002 A 
ATOM     76  C   UNL A   1      49.354  26.400  26.437  1.00  0.00     0.091 A 
ATOM     77  F   UNL A   1      47.980  26.451  28.384  1.00  0.00    -0.205 F 
ATOM     78  C   UNL A   1      49.523  26.696  25.077  1.00  0.00     0.022 A 
BRANCH  76  79
ATOM     79  S   UNL A   1      50.721  25.622  27.306  1.00  0.00     0.127 S 
ATOM     80  O   UNL A   1      50.127  24.360  27.736  1.00  0.00    -0.237 OA
ATOM     81  O   UNL A   1      51.733  25.500  26.255  1.00  0.00    -0.237 OA
ATOM     82  O   UNL A   1      51.077  26.560  28.362  1.00  0.00    -0.744 OA
ENDBRANCH  76  79
ENDBRANCH  48  72
BRANCH  60  83
ATOM     83  C   UNL A   1      45.370  33.395  29.671  1.00  0.00     0.023 A 
ATOM     84  C   UNL A   1      46.131  33.513  30.851  1.00  0.00     0.012 A 
ATOM     85  C   UNL A   1      45.373  34.447  28.735  1.00  0.00     0.148 A 
ATOM     86  C   UNL A   1      46.865  34.669  31.106  1.00  0.00     0.002 A 
ATOM     87  C   UNL A   1      46.140  35.580  28.977  1.00  0.00     0.091 A 
ATOM     88  F   UNL A   1      44.624  34.325  27.629  1.00  0.00    -0.205 F 
ATOM     89  C   UNL A   1      46.880  35.697  30.165  1.00  0.00     0.022 A 
BRANCH  87  90
ATOM     90  S   UNL A   1      46.282  36.908  27.775  1.00  0.00     0.127 S 
ATOM     91  O   UNL A   1      46.702  36.183  26.578  1.00  0.00    -0.237 OA
ATOM     92  O   UNL A   1      44.917  37.434  27.722  1.00  0.00    -0.237 OA
ATOM     93  O   UNL A   1      47.260  37.836  28.328  1.00  0.00    -0.744 OA
ENDBRANCH  87  90
ENDBRANCH  60  83
ENDBRANCH  34  35
ENDBRANCH  27  29
ENDBRANCH  26  27
ENDBRANCH  25  26
ENDBRANCH   1  25
TORSDOF 18
ENDMDL
