MODEL 1
REMARK VINA RESULT:     -11.7      0.000      0.000
REMARK SMILES Cc1ccc([C@@H](C)[N@@H+]2CCO[C@H](CC(=O)OCCOC(=O)c3ccc(-c4c5nc(c(-c6cccc(S(=O)(=O)[O-])c6F)c6ccc([nH]6)c(-c6cccc(S(=O)(=O)[O-])c6F)c6nc(c(-c7cccc(S(=O)(=O)[O-])c7F)c7ccc4[nH]7)C=C6)C=C5)cc3)C2)o1
REMARK SMILES IDX 17 1 16 2 14 3 15 4 13 5 12 6 8 7 9 8 85 9 10 11 11 12 6 13
REMARK SMILES IDX 7 14 5 15 1 16 2 17 3 18 86 19 4 20 18 21 19 22 20 23 21 24
REMARK SMILES IDX 22 25 23 26 84 27 24 28 83 29 25 30 26 31 27 32 77 33 28 34
REMARK SMILES IDX 82 35 76 36 78 37 29 38 81 39 75 40 74 41 30 43 62 44 42 45
REMARK SMILES IDX 61 46 43 47 46 48 60 49 79 50 44 51 45 52 59 54 80 55 47 56
REMARK SMILES IDX 31 57 32 58 40 59 33 60 35 61 41 62 34 63 36 64 37 65 38 66
REMARK SMILES IDX 39 67 63 68 64 69 72 70 65 71 67 72 73 73 66 74 68 75 69 76
REMARK SMILES IDX 70 77 71 78 48 79 49 80 57 81 50 82 52 83 58 84 51 85 53 86
REMARK SMILES IDX 54 87 55 88 56 89
REMARK H PARENT 8 10 78 42 46 53
REMARK Flexibility Score: inf
ROOT
ATOM      1  C   UNL A   1      35.525  21.900  25.648  1.00  0.00     0.274 C 
ENDROOT
BRANCH   1   2
ATOM      2  O   UNL A   1      34.704  22.229  24.509  1.00  0.00    -0.462 OA
BRANCH   2   3
ATOM      3  C   UNL A   1      35.123  23.323  23.826  1.00  0.00     0.308 C 
ATOM      4  O   UNL A   1      35.718  23.261  22.758  1.00  0.00    -0.252 OA
BRANCH   3   5
ATOM      5  C   UNL A   1      34.581  24.618  24.352  1.00  0.00     0.160 C 
BRANCH   5   6
ATOM      6  C   UNL A   1      34.147  25.740  23.421  1.00  0.00     0.184 C 
ATOM      7  N   UNL A   1      31.807  26.594  24.026  1.00  0.00    -0.322 N 
ATOM      8  C   UNL A   1      31.420  26.202  22.674  1.00  0.00     0.291 C 
ATOM      9  C   UNL A   1      33.249  26.800  24.113  1.00  0.00     0.295 C 
ATOM     10  H   UNL A   1      31.434  27.525  24.214  1.00  0.00     0.348 HD
ATOM     11  C   UNL A   1      32.264  25.044  22.124  1.00  0.00     0.222 C 
ATOM     12  O   UNL A   1      33.662  25.344  22.136  1.00  0.00    -0.366 OA
BRANCH   7  13
ATOM     13  C   UNL A   1      31.031  26.057  25.158  1.00  0.00     0.248 C 
ATOM     14  C   UNL A   1      31.024  26.976  26.392  1.00  0.00     0.084 C 
BRANCH  13  15
ATOM     15  C   UNL A   1      31.283  24.622  25.542  1.00  0.00     0.161 A 
ATOM     16  C   UNL A   1      32.900  22.548  27.982  1.00  0.00     0.087 C 
ATOM     17  C   UNL A   1      32.076  23.037  26.854  1.00  0.00     0.101 A 
ATOM     18  C   UNL A   1      31.339  22.398  25.883  1.00  0.00     0.046 A 
ATOM     19  O   UNL A   1      32.037  24.386  26.657  1.00  0.00    -0.460 OA
ATOM     20  C   UNL A   1      30.805  23.417  25.059  1.00  0.00     0.052 A 
ENDBRANCH  13  15
ENDBRANCH   7  13
ENDBRANCH   5   6
ENDBRANCH   3   5
ENDBRANCH   2   3
ENDBRANCH   1   2
BRANCH   1  21
ATOM     21  C   UNL A   1      36.600  20.856  25.311  1.00  0.00     0.275 C 
BRANCH  21  22
ATOM     22  O   UNL A   1      37.867  21.445  24.952  1.00  0.00    -0.458 OA
BRANCH  22  23
ATOM     23  C   UNL A   1      38.899  21.129  25.771  1.00  0.00     0.338 C 
ATOM     24  O   UNL A   1      39.440  20.042  25.884  1.00  0.00    -0.246 OA
BRANCH  23  25
ATOM     25  C   UNL A   1      39.387  22.324  26.480  1.00  0.00     0.060 A 
ATOM     26  C   UNL A   1      38.935  23.581  26.066  1.00  0.00     0.016 A 
ATOM     27  C   UNL A   1      40.411  22.218  27.419  1.00  0.00     0.016 A 
ATOM     28  C   UNL A   1      39.525  24.741  26.550  1.00  0.00     0.010 A 
ATOM     29  C   UNL A   1      41.003  23.385  27.912  1.00  0.00     0.010 A 
ATOM     30  C   UNL A   1      40.585  24.647  27.451  1.00  0.00    -0.014 A 
BRANCH  30  31
ATOM     31  C   UNL A   1      41.344  25.864  27.809  1.00  0.00     0.031 A 
ATOM     32  C   UNL A   1      40.652  26.946  28.587  1.00  0.00     0.074 A 
ATOM     33  C   UNL A   1      42.629  25.994  27.441  1.00  0.00     0.049 A 
ATOM     34  N   UNL A   1      41.073  28.142  28.892  1.00  0.00    -0.248 NA
ATOM     35  C   UNL A   1      39.301  26.635  29.086  1.00  0.00     0.031 C 
ATOM     36  C   UNL A   1      43.408  24.982  26.727  1.00  0.00     0.029 A 
ATOM     37  N   UNL A   1      43.496  27.046  27.590  1.00  0.00    -0.354 N 
ATOM     38  C   UNL A   1      40.022  28.750  29.568  1.00  0.00     0.074 A 
ATOM     39  C   UNL A   1      38.948  27.784  29.643  1.00  0.00     0.031 C 
ATOM     40  C   UNL A   1      44.626  25.480  26.458  1.00  0.00     0.029 A 
ATOM     41  C   UNL A   1      44.694  26.856  26.945  1.00  0.00     0.049 A 
ATOM     42  H   UNL A   1      43.280  27.856  28.105  1.00  0.00     0.167 HD
ATOM     43  C   UNL A   1      39.962  30.002  30.079  1.00  0.00     0.034 A 
ATOM     44  C   UNL A   1      45.713  27.712  26.736  1.00  0.00     0.034 A 
ATOM     45  C   UNL A   1      41.051  30.938  30.027  1.00  0.00     0.049 A 
ATOM     46  C   UNL A   1      45.618  29.104  27.303  1.00  0.00     0.074 A 
ATOM     47  C   UNL A   1      41.110  32.220  30.542  1.00  0.00     0.029 A 
ATOM     48  N   UNL A   1      42.272  30.692  29.418  1.00  0.00    -0.354 N 
ATOM     49  N   UNL A   1      44.650  29.644  28.006  1.00  0.00    -0.248 NA
ATOM     50  C   UNL A   1      46.760  29.998  27.069  1.00  0.00     0.031 C 
ATOM     51  C   UNL A   1      42.364  32.756  30.228  1.00  0.00     0.029 A 
ATOM     52  C   UNL A   1      43.091  31.801  29.535  1.00  0.00     0.049 A 
ATOM     53  H   UNL A   1      42.520  29.852  28.969  1.00  0.00     0.167 HD
ATOM     54  C   UNL A   1      45.076  30.929  28.321  1.00  0.00     0.074 A 
ATOM     55  C   UNL A   1      46.400  31.078  27.749  1.00  0.00     0.031 C 
ATOM     56  C   UNL A   1      44.427  31.904  29.003  1.00  0.00     0.034 A 
BRANCH  43  57
ATOM     57  C   UNL A   1      38.677  30.422  30.739  1.00  0.00     0.023 A 
ATOM     58  C   UNL A   1      38.471  30.152  32.108  1.00  0.00     0.012 A 
ATOM     59  C   UNL A   1      37.685  31.108  30.012  1.00  0.00     0.148 A 
ATOM     60  C   UNL A   1      37.283  30.530  32.733  1.00  0.00     0.002 A 
ATOM     61  C   UNL A   1      36.521  31.516  30.652  1.00  0.00     0.091 A 
ATOM     62  F   UNL A   1      37.888  31.330  28.706  1.00  0.00    -0.205 F 
ATOM     63  C   UNL A   1      36.314  31.220  32.010  1.00  0.00     0.022 A 
BRANCH  61  64
ATOM     64  S   UNL A   1      35.245  32.465  29.818  1.00  0.00     0.127 S 
ATOM     65  O   UNL A   1      34.304  32.719  30.907  1.00  0.00    -0.237 OA
ATOM     66  O   UNL A   1      35.983  33.645  29.364  1.00  0.00    -0.237 OA
ATOM     67  O   UNL A   1      34.751  31.613  28.744  1.00  0.00    -0.744 OA
ENDBRANCH  61  64
ENDBRANCH  43  57
BRANCH  44  68
ATOM     68  C   UNL A   1      46.908  27.266  25.966  1.00  0.00     0.023 A 
ATOM     69  C   UNL A   1      47.820  26.371  26.554  1.00  0.00     0.012 A 
ATOM     70  C   UNL A   1      47.118  27.686  24.637  1.00  0.00     0.148 A 
ATOM     71  C   UNL A   1      48.930  25.916  25.842  1.00  0.00     0.002 A 
ATOM     72  C   UNL A   1      48.196  27.186  23.913  1.00  0.00     0.091 A 
ATOM     73  F   UNL A   1      46.252  28.556  24.100  1.00  0.00    -0.205 F 
ATOM     74  C   UNL A   1      49.111  26.313  24.519  1.00  0.00     0.022 A 
BRANCH  72  75
ATOM     75  S   UNL A   1      48.425  27.538  22.167  1.00  0.00     0.127 S 
ATOM     76  O   UNL A   1      47.164  28.192  21.825  1.00  0.00    -0.237 OA
ATOM     77  O   UNL A   1      49.592  28.421  22.184  1.00  0.00    -0.237 OA
ATOM     78  O   UNL A   1      48.663  26.247  21.535  1.00  0.00    -0.744 OA
ENDBRANCH  72  75
ENDBRANCH  44  68
BRANCH  56  79
ATOM     79  C   UNL A   1      45.144  33.214  29.195  1.00  0.00     0.023 A 
ATOM     80  C   UNL A   1      45.969  33.396  30.322  1.00  0.00     0.012 A 
ATOM     81  C   UNL A   1      45.072  34.223  28.216  1.00  0.00     0.148 A 
ATOM     82  C   UNL A   1      46.693  34.576  30.483  1.00  0.00     0.002 A 
ATOM     83  C   UNL A   1      45.831  35.378  28.362  1.00  0.00     0.091 A 
ATOM     84  F   UNL A   1      44.264  34.038  27.162  1.00  0.00    -0.205 F 
ATOM     85  C   UNL A   1      46.635  35.560  29.499  1.00  0.00     0.022 A 
BRANCH  83  86
ATOM     86  S   UNL A   1      45.888  36.651  27.096  1.00  0.00     0.127 S 
ATOM     87  O   UNL A   1      46.418  35.911  25.952  1.00  0.00    -0.237 OA
ATOM     88  O   UNL A   1      44.480  37.036  26.973  1.00  0.00    -0.237 OA
ATOM     89  O   UNL A   1      46.752  37.698  27.623  1.00  0.00    -0.744 OA
ENDBRANCH  83  86
ENDBRANCH  56  79
ENDBRANCH  30  31
ENDBRANCH  23  25
ENDBRANCH  22  23
ENDBRANCH  21  22
ENDBRANCH   1  21
TORSDOF 17
ENDMDL
MODEL 2
REMARK VINA RESULT:     -11.5      5.378     10.177
REMARK SMILES Cc1ccc([C@@H](C)[N@@H+]2CCO[C@H](CC(=O)OCCOC(=O)c3ccc(-c4c5nc(c(-c6cccc(S(=O)(=O)[O-])c6F)c6ccc([nH]6)c(-c6cccc(S(=O)(=O)[O-])c6F)c6nc(c(-c7cccc(S(=O)(=O)[O-])c7F)c7ccc4[nH]7)C=C6)C=C5)cc3)C2)o1
REMARK SMILES IDX 17 1 16 2 14 3 15 4 13 5 12 6 8 7 9 8 85 9 10 11 11 12 6 13
REMARK SMILES IDX 7 14 5 15 1 16 2 17 3 18 86 19 4 20 18 21 19 22 20 23 21 24
REMARK SMILES IDX 22 25 23 26 84 27 24 28 83 29 25 30 26 31 27 32 77 33 28 34
REMARK SMILES IDX 82 35 76 36 78 37 29 38 81 39 75 40 74 41 30 43 62 44 42 45
REMARK SMILES IDX 61 46 43 47 46 48 60 49 79 50 44 51 45 52 59 54 80 55 47 56
REMARK SMILES IDX 31 57 32 58 40 59 33 60 35 61 41 62 34 63 36 64 37 65 38 66
REMARK SMILES IDX 39 67 63 68 64 69 72 70 65 71 67 72 73 73 66 74 68 75 69 76
REMARK SMILES IDX 70 77 71 78 48 79 49 80 57 81 50 82 52 83 58 84 51 85 53 86
REMARK SMILES IDX 54 87 55 88 56 89
REMARK H PARENT 8 10 78 42 46 53
REMARK Flexibility Score: inf
ROOT
ATOM      1  C   UNL A   1      32.366  29.031  25.113  1.00  0.00     0.274 C 
ENDROOT
BRANCH   1   2
ATOM      2  O   UNL A   1      33.396  29.385  24.168  1.00  0.00    -0.462 OA
BRANCH   2   3
ATOM      3  C   UNL A   1      33.726  28.386  23.313  1.00  0.00     0.308 C 
ATOM      4  O   UNL A   1      34.277  28.578  22.237  1.00  0.00    -0.252 OA
BRANCH   3   5
ATOM      5  C   UNL A   1      33.592  27.011  23.895  1.00  0.00     0.160 C 
BRANCH   5   6
ATOM      6  C   UNL A   1      33.056  25.846  23.077  1.00  0.00     0.184 C 
ATOM      7  N   UNL A   1      30.492  25.824  23.063  1.00  0.00    -0.322 N 
ATOM      8  C   UNL A   1      30.597  24.501  23.672  1.00  0.00     0.291 C 
ATOM      9  C   UNL A   1      31.721  26.166  22.353  1.00  0.00     0.295 C 
ATOM     10  H   UNL A   1      29.802  25.783  22.314  1.00  0.00     0.348 HD
ATOM     11  C   UNL A   1      31.880  24.323  24.496  1.00  0.00     0.222 C 
ATOM     12  O   UNL A   1      33.056  24.569  23.719  1.00  0.00    -0.366 OA
BRANCH   7  13
ATOM     13  C   UNL A   1      29.684  26.847  23.749  1.00  0.00     0.248 C 
ATOM     14  C   UNL A   1      28.321  26.328  24.240  1.00  0.00     0.084 C 
BRANCH  13  15
ATOM     15  C   UNL A   1      29.551  28.185  23.070  1.00  0.00     0.161 A 
ATOM     16  C   UNL A   1      27.652  31.229  23.078  1.00  0.00     0.087 C 
ATOM     17  C   UNL A   1      28.672  30.191  22.809  1.00  0.00     0.101 A 
ATOM     18  C   UNL A   1      29.731  30.119  21.933  1.00  0.00     0.046 A 
ATOM     19  O   UNL A   1      28.564  29.024  23.507  1.00  0.00    -0.460 OA
ATOM     20  C   UNL A   1      30.315  28.844  22.123  1.00  0.00     0.052 A 
ENDBRANCH  13  15
ENDBRANCH   7  13
ENDBRANCH   5   6
ENDBRANCH   3   5
ENDBRANCH   2   3
ENDBRANCH   1   2
BRANCH   1  21
ATOM     21  C   UNL A   1      31.793  30.258  25.840  1.00  0.00     0.275 C 
BRANCH  21  22
ATOM     22  O   UNL A   1      32.348  30.444  27.158  1.00  0.00    -0.458 OA
BRANCH  22  23
ATOM     23  C   UNL A   1      33.082  31.572  27.316  1.00  0.00     0.338 C 
ATOM     24  O   UNL A   1      32.686  32.723  27.240  1.00  0.00    -0.246 OA
BRANCH  23  25
ATOM     25  C   UNL A   1      34.464  31.243  27.707  1.00  0.00     0.060 A 
ATOM     26  C   UNL A   1      34.778  29.914  28.009  1.00  0.00     0.016 A 
ATOM     27  C   UNL A   1      35.390  32.257  27.944  1.00  0.00     0.016 A 
ATOM     28  C   UNL A   1      35.996  29.588  28.588  1.00  0.00     0.010 A 
ATOM     29  C   UNL A   1      36.620  31.930  28.522  1.00  0.00     0.010 A 
ATOM     30  C   UNL A   1      36.911  30.600  28.878  1.00  0.00    -0.014 A 
BRANCH  30  31
ATOM     31  C   UNL A   1      38.116  30.284  29.675  1.00  0.00     0.031 A 
ATOM     32  C   UNL A   1      39.123  29.323  29.114  1.00  0.00     0.074 A 
ATOM     33  C   UNL A   1      38.299  30.851  30.879  1.00  0.00     0.049 A 
ATOM     34  N   UNL A   1      40.174  28.801  29.684  1.00  0.00    -0.248 NA
ATOM     35  C   UNL A   1      38.914  28.891  27.721  1.00  0.00     0.031 C 
ATOM     36  C   UNL A   1      37.407  31.834  31.493  1.00  0.00     0.029 A 
ATOM     37  N   UNL A   1      39.282  30.654  31.815  1.00  0.00    -0.354 N 
ATOM     38  C   UNL A   1      40.721  27.936  28.745  1.00  0.00     0.074 A 
ATOM     39  C   UNL A   1      39.895  28.015  27.560  1.00  0.00     0.031 C 
ATOM     40  C   UNL A   1      37.858  32.122  32.725  1.00  0.00     0.029 A 
ATOM     41  C   UNL A   1      39.044  31.314  32.997  1.00  0.00     0.049 A 
ATOM     42  H   UNL A   1      40.076  30.096  31.656  1.00  0.00     0.167 HD
ATOM     43  C   UNL A   1      41.815  27.148  28.864  1.00  0.00     0.034 A 
ATOM     44  C   UNL A   1      39.688  31.238  34.178  1.00  0.00     0.034 A 
ATOM     45  C   UNL A   1      42.646  27.107  30.035  1.00  0.00     0.049 A 
ATOM     46  C   UNL A   1      40.895  30.344  34.289  1.00  0.00     0.074 A 
ATOM     47  C   UNL A   1      43.796  26.370  30.251  1.00  0.00     0.029 A 
ATOM     48  N   UNL A   1      42.409  27.832  31.194  1.00  0.00    -0.354 N 
ATOM     49  N   UNL A   1      41.449  29.588  33.371  1.00  0.00    -0.248 NA
ATOM     50  C   UNL A   1      41.579  30.308  35.589  1.00  0.00     0.031 C 
ATOM     51  C   UNL A   1      44.246  26.638  31.548  1.00  0.00     0.029 A 
ATOM     52  C   UNL A   1      43.386  27.555  32.133  1.00  0.00     0.049 A 
ATOM     53  H   UNL A   1      41.658  28.452  31.328  1.00  0.00     0.167 HD
ATOM     54  C   UNL A   1      42.560  29.007  33.972  1.00  0.00     0.074 A 
ATOM     55  C   UNL A   1      42.612  29.518  35.328  1.00  0.00     0.031 C 
ATOM     56  C   UNL A   1      43.446  28.119  33.458  1.00  0.00     0.034 A 
BRANCH  43  57
ATOM     57  C   UNL A   1      42.172  26.274  27.693  1.00  0.00     0.023 A 
ATOM     58  C   UNL A   1      42.902  26.811  26.613  1.00  0.00     0.012 A 
ATOM     59  C   UNL A   1      41.808  24.913  27.673  1.00  0.00     0.148 A 
ATOM     60  C   UNL A   1      43.236  26.015  25.517  1.00  0.00     0.002 A 
ATOM     61  C   UNL A   1      42.178  24.116  26.596  1.00  0.00     0.091 A 
ATOM     62  F   UNL A   1      41.089  24.429  28.696  1.00  0.00    -0.205 F 
ATOM     63  C   UNL A   1      42.883  24.668  25.513  1.00  0.00     0.022 A 
BRANCH  61  64
ATOM     64  S   UNL A   1      41.824  22.357  26.532  1.00  0.00     0.127 S 
ATOM     65  O   UNL A   1      42.495  21.965  25.294  1.00  0.00    -0.237 OA
ATOM     66  O   UNL A   1      42.465  21.867  27.754  1.00  0.00    -0.237 OA
ATOM     67  O   UNL A   1      40.371  22.242  26.525  1.00  0.00    -0.744 OA
ENDBRANCH  61  64
ENDBRANCH  43  57
BRANCH  44  68
ATOM     68  C   UNL A   1      39.206  32.042  35.336  1.00  0.00     0.023 A 
ATOM     69  C   UNL A   1      38.297  31.474  36.247  1.00  0.00     0.012 A 
ATOM     70  C   UNL A   1      39.680  33.350  35.564  1.00  0.00     0.148 A 
ATOM     71  C   UNL A   1      37.854  32.198  37.355  1.00  0.00     0.002 A 
ATOM     72  C   UNL A   1      39.278  34.046  36.699  1.00  0.00     0.091 A 
ATOM     73  F   UNL A   1      40.528  33.884  34.674  1.00  0.00    -0.205 F 
ATOM     74  C   UNL A   1      38.354  33.477  37.588  1.00  0.00     0.022 A 
BRANCH  72  75
ATOM     75  S   UNL A   1      39.976  35.640  37.145  1.00  0.00     0.127 S 
ATOM     76  O   UNL A   1      41.392  35.314  37.298  1.00  0.00    -0.237 OA
ATOM     77  O   UNL A   1      39.654  36.453  35.972  1.00  0.00    -0.237 OA
ATOM     78  O   UNL A   1      39.282  36.045  38.360  1.00  0.00    -0.744 OA
ENDBRANCH  72  75
ENDBRANCH  44  68
BRANCH  56  79
ATOM     79  C   UNL A   1      44.565  27.657  34.352  1.00  0.00     0.023 A 
ATOM     80  C   UNL A   1      45.762  28.398  34.407  1.00  0.00     0.012 A 
ATOM     81  C   UNL A   1      44.396  26.548  35.202  1.00  0.00     0.148 A 
ATOM     82  C   UNL A   1      46.785  28.025  35.277  1.00  0.00     0.002 A 
ATOM     83  C   UNL A   1      45.402  26.208  36.099  1.00  0.00     0.091 A 
ATOM     84  F   UNL A   1      43.258  25.844  35.119  1.00  0.00    -0.205 F 
ATOM     85  C   UNL A   1      46.600  26.941  36.132  1.00  0.00     0.022 A 
BRANCH  83  86
ATOM     86  S   UNL A   1      45.207  24.887  37.299  1.00  0.00     0.127 S 
ATOM     87  O   UNL A   1      44.039  25.338  38.053  1.00  0.00    -0.237 OA
ATOM     88  O   UNL A   1      44.968  23.720  36.447  1.00  0.00    -0.237 OA
ATOM     89  O   UNL A   1      46.457  24.839  38.046  1.00  0.00    -0.744 OA
ENDBRANCH  83  86
ENDBRANCH  56  79
ENDBRANCH  30  31
ENDBRANCH  23  25
ENDBRANCH  22  23
ENDBRANCH  21  22
ENDBRANCH   1  21
TORSDOF 17
ENDMDL
MODEL 3
REMARK VINA RESULT:     -11.4      5.238      9.950
REMARK SMILES Cc1ccc([C@@H](C)[N@@H+]2CCO[C@H](CC(=O)OCCOC(=O)c3ccc(-c4c5nc(c(-c6cccc(S(=O)(=O)[O-])c6F)c6ccc([nH]6)c(-c6cccc(S(=O)(=O)[O-])c6F)c6nc(c(-c7cccc(S(=O)(=O)[O-])c7F)c7ccc4[nH]7)C=C6)C=C5)cc3)C2)o1
REMARK SMILES IDX 17 1 16 2 14 3 15 4 13 5 12 6 8 7 9 8 85 9 10 11 11 12 6 13
REMARK SMILES IDX 7 14 5 15 1 16 2 17 3 18 86 19 4 20 18 21 19 22 20 23 21 24
REMARK SMILES IDX 22 25 23 26 84 27 24 28 83 29 25 30 26 31 27 32 77 33 28 34
REMARK SMILES IDX 82 35 76 36 78 37 29 38 81 39 75 40 74 41 30 43 62 44 42 45
REMARK SMILES IDX 61 46 43 47 46 48 60 49 79 50 44 51 45 52 59 54 80 55 47 56
REMARK SMILES IDX 31 57 32 58 40 59 33 60 35 61 41 62 34 63 36 64 37 65 38 66
REMARK SMILES IDX 39 67 63 68 64 69 72 70 65 71 67 72 73 73 66 74 68 75 69 76
REMARK SMILES IDX 70 77 71 78 48 79 49 80 57 81 50 82 52 83 58 84 51 85 53 86
REMARK SMILES IDX 54 87 55 88 56 89
REMARK H PARENT 8 10 78 42 46 53
REMARK Flexibility Score: inf
ROOT
ATOM      1  C   UNL A   1      32.676  28.607  24.928  1.00  0.00     0.274 C 
ENDROOT
BRANCH   1   2
ATOM      2  O   UNL A   1      31.554  27.740  24.673  1.00  0.00    -0.462 OA
BRANCH   2   3
ATOM      3  C   UNL A   1      31.884  26.577  24.059  1.00  0.00     0.308 C 
ATOM      4  O   UNL A   1      32.546  26.526  23.030  1.00  0.00    -0.252 OA
BRANCH   3   5
ATOM      5  C   UNL A   1      31.593  25.351  24.870  1.00  0.00     0.160 C 
BRANCH   5   6
ATOM      6  C   UNL A   1      32.219  25.131  26.239  1.00  0.00     0.184 C 
ATOM      7  N   UNL A   1      34.140  23.437  26.119  1.00  0.00    -0.322 N 
ATOM      8  C   UNL A   1      33.367  22.640  27.067  1.00  0.00     0.291 C 
ATOM      9  C   UNL A   1      33.743  24.840  26.178  1.00  0.00     0.295 C 
ATOM     10  H   UNL A   1      35.110  23.463  26.433  1.00  0.00     0.348 HD
ATOM     11  C   UNL A   1      31.855  22.879  26.954  1.00  0.00     0.222 C 
ATOM     12  O   UNL A   1      31.515  24.258  27.125  1.00  0.00    -0.366 OA
BRANCH   7  13
ATOM     13  C   UNL A   1      34.567  22.805  24.859  1.00  0.00     0.248 C 
ATOM     14  C   UNL A   1      34.677  23.789  23.681  1.00  0.00     0.084 C 
BRANCH  13  15
ATOM     15  C   UNL A   1      33.858  21.539  24.452  1.00  0.00     0.161 A 
ATOM     16  C   UNL A   1      34.092  17.961  24.553  1.00  0.00     0.087 C 
ATOM     17  C   UNL A   1      33.613  19.349  24.369  1.00  0.00     0.101 A 
ATOM     18  C   UNL A   1      32.471  19.883  23.818  1.00  0.00     0.046 A 
ATOM     19  O   UNL A   1      34.453  20.349  24.762  1.00  0.00    -0.460 OA
ATOM     20  C   UNL A   1      32.614  21.288  23.899  1.00  0.00     0.052 A 
ENDBRANCH  13  15
ENDBRANCH   7  13
ENDBRANCH   5   6
ENDBRANCH   3   5
ENDBRANCH   2   3
ENDBRANCH   1   2
BRANCH   1  21
ATOM     21  C   UNL A   1      32.244  29.976  25.476  1.00  0.00     0.275 C 
BRANCH  21  22
ATOM     22  O   UNL A   1      32.500  30.125  26.888  1.00  0.00    -0.458 OA
BRANCH  22  23
ATOM     23  C   UNL A   1      33.127  31.274  27.238  1.00  0.00     0.338 C 
ATOM     24  O   UNL A   1      32.630  32.384  27.328  1.00  0.00    -0.246 OA
BRANCH  23  25
ATOM     25  C   UNL A   1      34.527  31.010  27.613  1.00  0.00     0.060 A 
ATOM     26  C   UNL A   1      34.901  29.700  27.929  1.00  0.00     0.016 A 
ATOM     27  C   UNL A   1      35.413  32.065  27.820  1.00  0.00     0.016 A 
ATOM     28  C   UNL A   1      36.141  29.434  28.495  1.00  0.00     0.010 A 
ATOM     29  C   UNL A   1      36.665  31.800  28.383  1.00  0.00     0.010 A 
ATOM     30  C   UNL A   1      37.017  30.489  28.755  1.00  0.00    -0.014 A 
BRANCH  30  31
ATOM     31  C   UNL A   1      38.245  30.236  29.538  1.00  0.00     0.031 A 
ATOM     32  C   UNL A   1      39.290  29.320  28.969  1.00  0.00     0.074 A 
ATOM     33  C   UNL A   1      38.417  30.819  30.736  1.00  0.00     0.049 A 
ATOM     34  N   UNL A   1      40.372  28.853  29.529  1.00  0.00    -0.248 NA
ATOM     35  C   UNL A   1      39.084  28.869  27.582  1.00  0.00     0.031 C 
ATOM     36  C   UNL A   1      37.487  31.762  31.355  1.00  0.00     0.029 A 
ATOM     37  N   UNL A   1      39.420  30.676  31.659  1.00  0.00    -0.354 N 
ATOM     38  C   UNL A   1      40.948  28.009  28.587  1.00  0.00     0.074 A 
ATOM     39  C   UNL A   1      40.104  28.040  27.414  1.00  0.00     0.031 C 
ATOM     40  C   UNL A   1      37.940  32.081  32.578  1.00  0.00     0.029 A 
ATOM     41  C   UNL A   1      39.166  31.332  32.840  1.00  0.00     0.049 A 
ATOM     42  H   UNL A   1      40.238  30.156  31.494  1.00  0.00     0.167 HD
ATOM     43  C   UNL A   1      42.079  27.274  28.697  1.00  0.00     0.034 A 
ATOM     44  C   UNL A   1      39.829  31.295  34.013  1.00  0.00     0.034 A 
ATOM     45  C   UNL A   1      42.926  27.282  29.857  1.00  0.00     0.049 A 
ATOM     46  C   UNL A   1      41.078  30.461  34.114  1.00  0.00     0.074 A 
ATOM     47  C   UNL A   1      44.113  26.602  30.062  1.00  0.00     0.029 A 
ATOM     48  N   UNL A   1      42.671  28.002  31.014  1.00  0.00    -0.354 N 
ATOM     49  N   UNL A   1      41.656  29.726  33.193  1.00  0.00    -0.248 NA
ATOM     50  C   UNL A   1      41.780  30.467  35.404  1.00  0.00     0.031 C 
ATOM     51  C   UNL A   1      44.567  26.900  31.352  1.00  0.00     0.029 A 
ATOM     52  C   UNL A   1      43.672  27.779  31.942  1.00  0.00     0.049 A 
ATOM     53  H   UNL A   1      41.892  28.587  31.154  1.00  0.00     0.167 HD
ATOM     54  C   UNL A   1      42.801  29.203  33.783  1.00  0.00     0.074 A 
ATOM     55  C   UNL A   1      42.846  29.725  35.134  1.00  0.00     0.031 C 
ATOM     56  C   UNL A   1      43.722  28.354  33.262  1.00  0.00     0.034 A 
BRANCH  43  57
ATOM     57  C   UNL A   1      42.463  26.410  27.527  1.00  0.00     0.023 A 
ATOM     58  C   UNL A   1      43.247  26.947  26.485  1.00  0.00     0.012 A 
ATOM     59  C   UNL A   1      42.068  25.059  27.470  1.00  0.00     0.148 A 
ATOM     60  C   UNL A   1      43.607  26.160  25.391  1.00  0.00     0.002 A 
ATOM     61  C   UNL A   1      42.462  24.271  26.395  1.00  0.00     0.091 A 
ATOM     62  F   UNL A   1      41.298  24.577  28.456  1.00  0.00    -0.205 F 
ATOM     63  C   UNL A   1      43.223  24.822  25.351  1.00  0.00     0.022 A 
BRANCH  61  64
ATOM     64  S   UNL A   1      42.070  22.522  26.289  1.00  0.00     0.127 S 
ATOM     65  O   UNL A   1      42.665  22.009  27.523  1.00  0.00    -0.237 OA
ATOM     66  O   UNL A   1      40.606  22.532  26.278  1.00  0.00    -0.237 OA
ATOM     67  O   UNL A   1      42.680  22.050  25.053  1.00  0.00    -0.744 OA
ENDBRANCH  61  64
ENDBRANCH  43  57
BRANCH  44  68
ATOM     68  C   UNL A   1      39.324  32.084  35.172  1.00  0.00     0.023 A 
ATOM     69  C   UNL A   1      38.425  31.491  36.077  1.00  0.00     0.012 A 
ATOM     70  C   UNL A   1      39.767  33.401  35.407  1.00  0.00     0.148 A 
ATOM     71  C   UNL A   1      37.961  32.200  37.186  1.00  0.00     0.002 A 
ATOM     72  C   UNL A   1      39.344  34.083  36.543  1.00  0.00     0.091 A 
ATOM     73  F   UNL A   1      40.605  33.958  34.522  1.00  0.00    -0.205 F 
ATOM     74  C   UNL A   1      38.430  33.490  37.426  1.00  0.00     0.022 A 
BRANCH  72  75
ATOM     75  S   UNL A   1      40.003  35.691  36.998  1.00  0.00     0.127 S 
ATOM     76  O   UNL A   1      41.434  35.410  37.100  1.00  0.00    -0.237 OA
ATOM     77  O   UNL A   1      39.617  36.514  35.851  1.00  0.00    -0.237 OA
ATOM     78  O   UNL A   1      39.336  36.050  38.242  1.00  0.00    -0.744 OA
ENDBRANCH  72  75
ENDBRANCH  44  68
BRANCH  56  79
ATOM     79  C   UNL A   1      44.874  27.953  34.145  1.00  0.00     0.023 A 
ATOM     80  C   UNL A   1      46.016  28.775  34.214  1.00  0.00     0.012 A 
ATOM     81  C   UNL A   1      44.785  26.816  34.970  1.00  0.00     0.148 A 
ATOM     82  C   UNL A   1      47.065  28.456  35.074  1.00  0.00     0.002 A 
ATOM     83  C   UNL A   1      45.815  26.528  35.858  1.00  0.00     0.091 A 
ATOM     84  F   UNL A   1      43.699  26.036  34.873  1.00  0.00    -0.205 F 
ATOM     85  C   UNL A   1      46.959  27.342  35.905  1.00  0.00     0.022 A 
BRANCH  83  86
ATOM     86  S   UNL A   1      45.717  25.170  37.029  1.00  0.00     0.127 S 
ATOM     87  O   UNL A   1      44.499  25.499  37.766  1.00  0.00    -0.237 OA
ATOM     88  O   UNL A   1      45.601  24.005  36.150  1.00  0.00    -0.237 OA
ATOM     89  O   UNL A   1      46.952  25.219  37.800  1.00  0.00    -0.744 OA
ENDBRANCH  83  86
ENDBRANCH  56  79
ENDBRANCH  30  31
ENDBRANCH  23  25
ENDBRANCH  22  23
ENDBRANCH  21  22
ENDBRANCH   1  21
TORSDOF 17
ENDMDL
