MODEL 1
REMARK VINA RESULT:     -12.1      0.000      0.000
REMARK SMILES Cc1ccc2nc(CC3(CC(=O)OCCOC(=O)c4ccc(-c5c6nc(c(-c7cccc(S(=O)(=O)[O-])c7F)c7ccc([nH]7)c(-c7cccc(S(=O)(=O)[O-])c7F)c7nc(c(-c8cccc(S(=O)(=O)[O-])c8F)c8ccc5[nH]8)C=C7)C=C6)cc4)CCCCC3)sc2c1
REMARK SMILES IDX 14 1 13 2 11 3 12 4 10 5 9 6 82 7 86 8 83 9 85 10 84 11 8 12
REMARK SMILES IDX 7 13 1 14 2 15 3 16 89 17 4 18 88 19 5 20 87 21 6 22 15 23
REMARK SMILES IDX 16 24 17 25 18 26 19 27 20 28 81 29 21 30 80 31 22 32 23 33
REMARK SMILES IDX 24 34 74 35 25 36 79 37 73 38 75 39 26 40 78 41 72 42 71 43
REMARK SMILES IDX 27 45 59 46 39 47 58 48 40 49 43 50 57 51 76 52 41 53 42 54
REMARK SMILES IDX 56 56 77 57 44 58 28 59 29 60 37 61 30 62 32 63 38 64 31 65
REMARK SMILES IDX 33 66 34 67 35 68 36 69 60 70 61 71 69 72 62 73 64 74 70 75
REMARK SMILES IDX 63 76 65 77 66 78 67 79 68 80 45 81 46 82 54 83 47 84 49 85
REMARK SMILES IDX 55 86 48 87 50 88 51 89 52 90 53 91
REMARK H PARENT 75 44 43 55
REMARK Flexibility Score: inf
ROOT
ATOM      1  C   UNL A   1      36.569  22.208  23.952  1.00  0.00     0.274 C 
ENDROOT
BRANCH   1   2
ATOM      2  O   UNL A   1      35.158  21.924  23.874  1.00  0.00    -0.462 OA
BRANCH   2   3
ATOM      3  C   UNL A   1      34.373  22.940  23.452  1.00  0.00     0.306 C 
ATOM      4  O   UNL A   1      34.504  23.522  22.380  1.00  0.00    -0.252 OA
BRANCH   3   5
ATOM      5  C   UNL A   1      33.275  23.335  24.419  1.00  0.00     0.130 C 
BRANCH   5   6
ATOM      6  C   UNL A   1      33.530  24.320  25.605  1.00  0.00    -0.013 C 
ATOM      7  C   UNL A   1      34.605  23.661  26.528  1.00  0.00     0.008 C 
ATOM      8  C   UNL A   1      32.259  24.534  26.468  1.00  0.00     0.008 C 
ATOM      9  C   UNL A   1      34.124  22.382  27.226  1.00  0.00     0.001 C 
ATOM     10  C   UNL A   1      31.733  23.242  27.086  1.00  0.00     0.001 C 
ATOM     11  C   UNL A   1      32.797  22.577  27.955  1.00  0.00     0.000 C 
BRANCH   6  12
ATOM     12  C   UNL A   1      34.094  25.660  25.024  1.00  0.00     0.075 C 
BRANCH  12  13
ATOM     13  C   UNL A   1      33.055  26.673  24.617  1.00  0.00     0.094 A 
ATOM     14  C   UNL A   1      28.868  31.099  23.502  1.00  0.00     0.044 C 
ATOM     15  C   UNL A   1      29.755  29.886  23.488  1.00  0.00    -0.050 A 
ATOM     16  C   UNL A   1      29.631  28.931  22.476  1.00  0.00     0.006 A 
ATOM     17  C   UNL A   1      30.724  29.723  24.492  1.00  0.00     0.024 A 
ATOM     18  C   UNL A   1      30.461  27.806  22.449  1.00  0.00     0.030 A 
ATOM     19  C   UNL A   1      31.548  28.583  24.459  1.00  0.00     0.055 A 
ATOM     20  C   UNL A   1      31.433  27.625  23.452  1.00  0.00     0.082 A 
ATOM     21  S   UNL A   1      32.800  28.101  25.541  1.00  0.00    -0.119 S 
ATOM     22  N   UNL A   1      32.306  26.558  23.542  1.00  0.00    -0.241 NA
ENDBRANCH  12  13
ENDBRANCH   6  12
ENDBRANCH   5   6
ENDBRANCH   3   5
ENDBRANCH   2   3
ENDBRANCH   1   2
BRANCH   1  23
ATOM     23  C   UNL A   1      37.305  21.055  24.625  1.00  0.00     0.275 C 
BRANCH  23  24
ATOM     24  O   UNL A   1      37.761  21.469  25.923  1.00  0.00    -0.458 OA
BRANCH  24  25
ATOM     25  C   UNL A   1      39.088  21.335  26.146  1.00  0.00     0.338 C 
ATOM     26  O   UNL A   1      39.777  20.349  25.958  1.00  0.00    -0.246 OA
BRANCH  25  27
ATOM     27  C   UNL A   1      39.628  22.599  26.667  1.00  0.00     0.060 A 
ATOM     28  C   UNL A   1      39.185  23.822  26.158  1.00  0.00     0.016 A 
ATOM     29  C   UNL A   1      40.654  22.554  27.609  1.00  0.00     0.016 A 
ATOM     30  C   UNL A   1      39.804  25.006  26.555  1.00  0.00     0.010 A 
ATOM     31  C   UNL A   1      41.224  23.746  28.058  1.00  0.00     0.010 A 
ATOM     32  C   UNL A   1      40.823  24.979  27.518  1.00  0.00    -0.014 A 
BRANCH  32  33
ATOM     33  C   UNL A   1      41.473  26.230  27.985  1.00  0.00     0.031 A 
ATOM     34  C   UNL A   1      40.663  27.282  28.690  1.00  0.00     0.074 A 
ATOM     35  C   UNL A   1      42.771  26.451  27.701  1.00  0.00     0.049 A 
ATOM     36  N   UNL A   1      40.994  28.506  29.003  1.00  0.00    -0.248 NA
ATOM     37  C   UNL A   1      39.292  26.912  29.081  1.00  0.00     0.031 C 
ATOM     38  C   UNL A   1      43.657  25.511  27.011  1.00  0.00     0.029 A 
ATOM     39  N   UNL A   1      43.561  27.552  27.922  1.00  0.00    -0.354 N 
ATOM     40  C   UNL A   1      39.860  29.074  29.569  1.00  0.00     0.074 A 
ATOM     41  C   UNL A   1      38.831  28.057  29.566  1.00  0.00     0.031 C 
ATOM     42  C   UNL A   1      44.861  26.080  26.849  1.00  0.00     0.029 A 
ATOM     43  C   UNL A   1      44.817  27.441  27.372  1.00  0.00     0.049 A 
ATOM     44  H   UNL A   1      43.257  28.342  28.423  1.00  0.00     0.167 HD
ATOM     45  C   UNL A   1      39.695  30.328  30.055  1.00  0.00     0.034 A 
ATOM     46  C   UNL A   1      45.809  28.345  27.265  1.00  0.00     0.034 A 
ATOM     47  C   UNL A   1      40.739  31.317  30.106  1.00  0.00     0.049 A 
ATOM     48  C   UNL A   1      45.607  29.722  27.831  1.00  0.00     0.074 A 
ATOM     49  C   UNL A   1      40.688  32.594  30.636  1.00  0.00     0.029 A 
ATOM     50  N   UNL A   1      42.022  31.137  29.615  1.00  0.00    -0.354 N 
ATOM     51  N   UNL A   1      44.559  30.214  28.446  1.00  0.00    -0.248 NA
ATOM     52  C   UNL A   1      46.728  30.664  27.709  1.00  0.00     0.031 C 
ATOM     53  C   UNL A   1      41.942  33.190  30.459  1.00  0.00     0.029 A 
ATOM     54  C   UNL A   1      42.774  32.280  29.826  1.00  0.00     0.049 A 
ATOM     55  H   UNL A   1      42.351  30.318  29.179  1.00  0.00     0.167 HD
ATOM     56  C   UNL A   1      44.900  31.511  28.804  1.00  0.00     0.074 A 
ATOM     57  C   UNL A   1      46.263  31.722  28.358  1.00  0.00     0.031 C 
ATOM     58  C   UNL A   1      44.147  32.452  29.425  1.00  0.00     0.034 A 
BRANCH  45  59
ATOM     59  C   UNL A   1      38.343  30.693  30.610  1.00  0.00     0.023 A 
ATOM     60  C   UNL A   1      38.047  30.407  31.958  1.00  0.00     0.012 A 
ATOM     61  C   UNL A   1      37.394  31.372  29.822  1.00  0.00     0.148 A 
ATOM     62  C   UNL A   1      36.818  30.772  32.506  1.00  0.00     0.002 A 
ATOM     63  C   UNL A   1      36.185  31.764  30.385  1.00  0.00     0.091 A 
ATOM     64  F   UNL A   1      37.683  31.612  28.534  1.00  0.00    -0.205 F 
ATOM     65  C   UNL A   1      35.892  31.458  31.724  1.00  0.00     0.022 A 
BRANCH  63  66
ATOM     66  S   UNL A   1      34.962  32.714  29.474  1.00  0.00     0.127 S 
ATOM     67  O   UNL A   1      34.029  33.090  30.535  1.00  0.00    -0.237 OA
ATOM     68  O   UNL A   1      35.757  33.821  28.942  1.00  0.00    -0.237 OA
ATOM     69  O   UNL A   1      34.434  31.811  28.460  1.00  0.00    -0.744 OA
ENDBRANCH  63  66
ENDBRANCH  45  59
BRANCH  46  70
ATOM     70  C   UNL A   1      47.094  27.953  26.620  1.00  0.00     0.023 A 
ATOM     71  C   UNL A   1      48.152  27.489  27.423  1.00  0.00     0.012 A 
ATOM     72  C   UNL A   1      47.249  27.970  25.220  1.00  0.00     0.148 A 
ATOM     73  C   UNL A   1      49.348  27.062  26.845  1.00  0.00     0.002 A 
ATOM     74  C   UNL A   1      48.422  27.491  24.647  1.00  0.00     0.091 A 
ATOM     75  F   UNL A   1      46.239  28.437  24.472  1.00  0.00    -0.205 F 
ATOM     76  C   UNL A   1      49.479  27.050  25.459  1.00  0.00     0.022 A 
BRANCH  74  77
ATOM     77  S   UNL A   1      48.607  27.306  22.870  1.00  0.00     0.127 S 
ATOM     78  O   UNL A   1      50.013  27.650  22.676  1.00  0.00    -0.237 OA
ATOM     79  O   UNL A   1      48.286  25.892  22.671  1.00  0.00    -0.237 OA
ATOM     80  O   UNL A   1      47.637  28.223  22.286  1.00  0.00    -0.744 OA
ENDBRANCH  74  77
ENDBRANCH  46  70
BRANCH  58  81
ATOM     81  C   UNL A   1      44.783  33.791  29.680  1.00  0.00     0.023 A 
ATOM     82  C   UNL A   1      45.565  33.977  30.836  1.00  0.00     0.012 A 
ATOM     83  C   UNL A   1      44.667  34.837  28.745  1.00  0.00     0.148 A 
ATOM     84  C   UNL A   1      46.205  35.193  31.070  1.00  0.00     0.002 A 
ATOM     85  C   UNL A   1      45.339  36.034  28.965  1.00  0.00     0.091 A 
ATOM     86  F   UNL A   1      43.898  34.649  27.663  1.00  0.00    -0.205 F 
ATOM     87  C   UNL A   1      46.101  36.217  30.130  1.00  0.00     0.022 A 
BRANCH  85  88
ATOM     88  S   UNL A   1      45.324  37.370  27.764  1.00  0.00     0.127 S 
ATOM     89  O   UNL A   1      45.892  38.473  28.536  1.00  0.00    -0.237 OA
ATOM     90  O   UNL A   1      46.195  36.854  26.707  1.00  0.00    -0.237 OA
ATOM     91  O   UNL A   1      43.931  37.528  27.367  1.00  0.00    -0.744 OA
ENDBRANCH  85  88
ENDBRANCH  58  81
ENDBRANCH  32  33
ENDBRANCH  25  27
ENDBRANCH  24  25
ENDBRANCH  23  24
ENDBRANCH   1  23
TORSDOF 17
ENDMDL
MODEL 2
REMARK VINA RESULT:     -11.6      5.270     10.322
REMARK SMILES Cc1ccc2nc(CC3(CC(=O)OCCOC(=O)c4ccc(-c5c6nc(c(-c7cccc(S(=O)(=O)[O-])c7F)c7ccc([nH]7)c(-c7cccc(S(=O)(=O)[O-])c7F)c7nc(c(-c8cccc(S(=O)(=O)[O-])c8F)c8ccc5[nH]8)C=C7)C=C6)cc4)CCCCC3)sc2c1
REMARK SMILES IDX 14 1 13 2 11 3 12 4 10 5 9 6 82 7 86 8 83 9 85 10 84 11 8 12
REMARK SMILES IDX 7 13 1 14 2 15 3 16 89 17 4 18 88 19 5 20 87 21 6 22 15 23
REMARK SMILES IDX 16 24 17 25 18 26 19 27 20 28 81 29 21 30 80 31 22 32 23 33
REMARK SMILES IDX 24 34 74 35 25 36 79 37 73 38 75 39 26 40 78 41 72 42 71 43
REMARK SMILES IDX 27 45 59 46 39 47 58 48 40 49 43 50 57 51 76 52 41 53 42 54
REMARK SMILES IDX 56 56 77 57 44 58 28 59 29 60 37 61 30 62 32 63 38 64 31 65
REMARK SMILES IDX 33 66 34 67 35 68 36 69 60 70 61 71 69 72 62 73 64 74 70 75
REMARK SMILES IDX 63 76 65 77 66 78 67 79 68 80 45 81 46 82 54 83 47 84 49 85
REMARK SMILES IDX 55 86 48 87 50 88 51 89 52 90 53 91
REMARK H PARENT 75 44 43 55
REMARK Flexibility Score: inf
ROOT
ATOM      1  C   UNL A   1      31.370  29.594  25.463  1.00  0.00     0.274 C 
ENDROOT
BRANCH   1   2
ATOM      2  O   UNL A   1      32.125  28.489  25.998  1.00  0.00    -0.462 OA
BRANCH   2   3
ATOM      3  C   UNL A   1      31.436  27.344  26.197  1.00  0.00     0.306 C 
ATOM      4  O   UNL A   1      30.941  27.006  27.267  1.00  0.00    -0.252 OA
BRANCH   3   5
ATOM      5  C   UNL A   1      31.305  26.463  24.970  1.00  0.00     0.130 C 
BRANCH   5   6
ATOM      6  C   UNL A   1      32.376  25.386  24.605  1.00  0.00    -0.013 C 
ATOM      7  C   UNL A   1      33.710  26.144  24.306  1.00  0.00     0.008 C 
ATOM      8  C   UNL A   1      32.000  24.603  23.319  1.00  0.00     0.008 C 
ATOM      9  C   UNL A   1      33.654  27.028  23.054  1.00  0.00     0.001 C 
ATOM     10  C   UNL A   1      31.858  25.503  22.094  1.00  0.00     0.001 C 
ATOM     11  C   UNL A   1      33.148  26.274  21.828  1.00  0.00     0.000 C 
BRANCH   6  12
ATOM     12  C   UNL A   1      32.577  24.447  25.842  1.00  0.00     0.075 C 
BRANCH  12  13
ATOM     13  C   UNL A   1      33.064  23.057  25.522  1.00  0.00     0.094 A 
ATOM     14  C   UNL A   1      34.481  17.154  24.296  1.00  0.00     0.044 C 
ATOM     15  C   UNL A   1      34.477  18.626  24.596  1.00  0.00    -0.050 A 
ATOM     16  C   UNL A   1      35.680  19.325  24.721  1.00  0.00     0.006 A 
ATOM     17  C   UNL A   1      33.253  19.303  24.734  1.00  0.00     0.024 A 
ATOM     18  C   UNL A   1      35.684  20.698  24.987  1.00  0.00     0.030 A 
ATOM     19  C   UNL A   1      33.271  20.682  25.010  1.00  0.00     0.055 A 
ATOM     20  C   UNL A   1      34.466  21.389  25.135  1.00  0.00     0.082 A 
ATOM     21  S   UNL A   1      31.956  21.772  25.246  1.00  0.00    -0.119 S 
ATOM     22  N   UNL A   1      34.335  22.738  25.406  1.00  0.00    -0.241 NA
ENDBRANCH  12  13
ENDBRANCH   6  12
ENDBRANCH   5   6
ENDBRANCH   3   5
ENDBRANCH   2   3
ENDBRANCH   1   2
BRANCH   1  23
ATOM     23  C   UNL A   1      31.781  30.896  26.143  1.00  0.00     0.275 C 
BRANCH  23  24
ATOM     24  O   UNL A   1      33.183  30.851  26.457  1.00  0.00    -0.458 OA
BRANCH  24  25
ATOM     25  C   UNL A   1      33.614  31.784  27.336  1.00  0.00     0.338 C 
ATOM     26  O   UNL A   1      33.053  32.815  27.659  1.00  0.00    -0.246 OA
BRANCH  25  27
ATOM     27  C   UNL A   1      34.913  31.374  27.887  1.00  0.00     0.060 A 
ATOM     28  C   UNL A   1      35.116  30.064  28.326  1.00  0.00     0.016 A 
ATOM     29  C   UNL A   1      35.908  32.337  28.052  1.00  0.00     0.016 A 
ATOM     30  C   UNL A   1      36.300  29.723  28.977  1.00  0.00     0.010 A 
ATOM     31  C   UNL A   1      37.120  31.976  28.640  1.00  0.00     0.010 A 
ATOM     32  C   UNL A   1      37.318  30.674  29.130  1.00  0.00    -0.014 A 
BRANCH  32  33
ATOM     33  C   UNL A   1      38.603  30.327  29.788  1.00  0.00     0.031 A 
ATOM     34  C   UNL A   1      39.534  29.336  29.146  1.00  0.00     0.074 A 
ATOM     35  C   UNL A   1      38.891  30.840  31.000  1.00  0.00     0.049 A 
ATOM     36  N   UNL A   1      40.598  28.762  29.641  1.00  0.00    -0.248 NA
ATOM     37  C   UNL A   1      39.215  28.924  27.768  1.00  0.00     0.031 C 
ATOM     38  C   UNL A   1      38.060  31.800  31.729  1.00  0.00     0.029 A 
ATOM     39  N   UNL A   1      39.941  30.596  31.849  1.00  0.00    -0.354 N 
ATOM     40  C   UNL A   1      41.042  27.878  28.666  1.00  0.00     0.074 A 
ATOM     41  C   UNL A   1      40.137  27.997  27.544  1.00  0.00     0.031 C 
ATOM     42  C   UNL A   1      38.621  32.050  32.922  1.00  0.00     0.029 A 
ATOM     43  C   UNL A   1      39.819  31.230  33.064  1.00  0.00     0.049 A 
ATOM     44  H   UNL A   1      40.706  30.024  31.611  1.00  0.00     0.167 HD
ATOM     45  C   UNL A   1      42.113  27.049  28.701  1.00  0.00     0.034 A 
ATOM     46  C   UNL A   1      40.563  31.131  34.182  1.00  0.00     0.034 A 
ATOM     47  C   UNL A   1      43.041  26.977  29.798  1.00  0.00     0.049 A 
ATOM     48  C   UNL A   1      41.758  30.220  34.186  1.00  0.00     0.074 A 
ATOM     49  C   UNL A   1      44.191  26.215  29.903  1.00  0.00     0.029 A 
ATOM     50  N   UNL A   1      42.929  27.698  30.977  1.00  0.00    -0.354 N 
ATOM     51  N   UNL A   1      42.217  29.459  33.222  1.00  0.00    -0.248 NA
ATOM     52  C   UNL A   1      42.549  30.167  35.423  1.00  0.00     0.031 C 
ATOM     53  C   UNL A   1      44.772  26.470  31.151  1.00  0.00     0.029 A 
ATOM     54  C   UNL A   1      43.987  27.397  31.818  1.00  0.00     0.049 A 
ATOM     55  H   UNL A   1      42.203  28.328  31.186  1.00  0.00     0.167 HD
ATOM     56  C   UNL A   1      43.361  28.855  33.725  1.00  0.00     0.074 A 
ATOM     57  C   UNL A   1      43.540  29.357  35.074  1.00  0.00     0.031 C 
ATOM     58  C   UNL A   1      44.178  27.949  33.135  1.00  0.00     0.034 A 
BRANCH  45  59
ATOM     59  C   UNL A   1      42.366  26.177  27.500  1.00  0.00     0.023 A 
ATOM     60  C   UNL A   1      43.060  26.706  26.393  1.00  0.00     0.012 A 
ATOM     61  C   UNL A   1      41.974  24.824  27.489  1.00  0.00     0.148 A 
ATOM     62  C   UNL A   1      43.342  25.908  25.285  1.00  0.00     0.002 A 
ATOM     63  C   UNL A   1      42.290  24.025  26.396  1.00  0.00     0.091 A 
ATOM     64  F   UNL A   1      41.291  24.346  28.539  1.00  0.00    -0.205 F 
ATOM     65  C   UNL A   1      42.966  24.567  25.291  1.00  0.00     0.022 A 
BRANCH  63  66
ATOM     66  S   UNL A   1      41.908  22.270  26.346  1.00  0.00     0.127 S 
ATOM     67  O   UNL A   1      40.448  22.288  26.252  1.00  0.00    -0.237 OA
ATOM     68  O   UNL A   1      42.590  21.835  25.126  1.00  0.00    -0.237 OA
ATOM     69  O   UNL A   1      42.454  21.710  27.574  1.00  0.00    -0.744 OA
ENDBRANCH  63  66
ENDBRANCH  45  59
BRANCH  46  70
ATOM     70  C   UNL A   1      40.208  31.951  35.375  1.00  0.00     0.023 A 
ATOM     71  C   UNL A   1      40.808  33.213  35.544  1.00  0.00     0.012 A 
ATOM     72  C   UNL A   1      39.236  31.522  36.299  1.00  0.00     0.148 A 
ATOM     73  C   UNL A   1      40.456  34.027  36.621  1.00  0.00     0.002 A 
ATOM     74  C   UNL A   1      38.849  32.361  37.337  1.00  0.00     0.091 A 
ATOM     75  F   UNL A   1      38.693  30.307  36.135  1.00  0.00    -0.205 F 
ATOM     76  C   UNL A   1      39.468  33.609  37.508  1.00  0.00     0.022 A 
BRANCH  74  77
ATOM     77  S   UNL A   1      37.482  31.955  38.431  1.00  0.00     0.127 S 
ATOM     78  O   UNL A   1      37.182  30.581  38.039  1.00  0.00    -0.237 OA
ATOM     79  O   UNL A   1      38.092  32.098  39.753  1.00  0.00    -0.237 OA
ATOM     80  O   UNL A   1      36.452  32.944  38.142  1.00  0.00    -0.744 OA
ENDBRANCH  74  77
ENDBRANCH  46  70
BRANCH  58  81
ATOM     81  C   UNL A   1      45.354  27.454  33.932  1.00  0.00     0.023 A 
ATOM     82  C   UNL A   1      46.553  28.192  33.928  1.00  0.00     0.012 A 
ATOM     83  C   UNL A   1      45.250  26.304  34.736  1.00  0.00     0.148 A 
ATOM     84  C   UNL A   1      47.641  27.781  34.696  1.00  0.00     0.002 A 
ATOM     85  C   UNL A   1      46.325  25.920  35.530  1.00  0.00     0.091 A 
ATOM     86  F   UNL A   1      44.109  25.601  34.708  1.00  0.00    -0.205 F 
ATOM     87  C   UNL A   1      47.523  26.652  35.506  1.00  0.00     0.022 A 
BRANCH  85  88
ATOM     88  S   UNL A   1      46.225  24.529  36.663  1.00  0.00     0.127 S 
ATOM     89  O   UNL A   1      45.063  24.887  37.474  1.00  0.00    -0.237 OA
ATOM     90  O   UNL A   1      46.012  23.399  35.758  1.00  0.00    -0.237 OA
ATOM     91  O   UNL A   1      47.501  24.500  37.366  1.00  0.00    -0.744 OA
ENDBRANCH  85  88
ENDBRANCH  58  81
ENDBRANCH  32  33
ENDBRANCH  25  27
ENDBRANCH  24  25
ENDBRANCH  23  24
ENDBRANCH   1  23
TORSDOF 17
ENDMDL
MODEL 3
REMARK VINA RESULT:     -11.5      5.328     10.164
REMARK SMILES Cc1ccc2nc(CC3(CC(=O)OCCOC(=O)c4ccc(-c5c6nc(c(-c7cccc(S(=O)(=O)[O-])c7F)c7ccc([nH]7)c(-c7cccc(S(=O)(=O)[O-])c7F)c7nc(c(-c8cccc(S(=O)(=O)[O-])c8F)c8ccc5[nH]8)C=C7)C=C6)cc4)CCCCC3)sc2c1
REMARK SMILES IDX 14 1 13 2 11 3 12 4 10 5 9 6 82 7 86 8 83 9 85 10 84 11 8 12
REMARK SMILES IDX 7 13 1 14 2 15 3 16 89 17 4 18 88 19 5 20 87 21 6 22 15 23
REMARK SMILES IDX 16 24 17 25 18 26 19 27 20 28 81 29 21 30 80 31 22 32 23 33
REMARK SMILES IDX 24 34 74 35 25 36 79 37 73 38 75 39 26 40 78 41 72 42 71 43
REMARK SMILES IDX 27 45 59 46 39 47 58 48 40 49 43 50 57 51 76 52 41 53 42 54
REMARK SMILES IDX 56 56 77 57 44 58 28 59 29 60 37 61 30 62 32 63 38 64 31 65
REMARK SMILES IDX 33 66 34 67 35 68 36 69 60 70 61 71 69 72 62 73 64 74 70 75
REMARK SMILES IDX 63 76 65 77 66 78 67 79 68 80 45 81 46 82 54 83 47 84 49 85
REMARK SMILES IDX 55 86 48 87 50 88 51 89 52 90 53 91
REMARK H PARENT 75 44 43 55
REMARK Flexibility Score: inf
ROOT
ATOM      1  C   UNL A   1      32.118  28.143  24.159  1.00  0.00     0.274 C 
ENDROOT
BRANCH   1   2
ATOM      2  O   UNL A   1      32.372  26.837  24.713  1.00  0.00    -0.462 OA
BRANCH   2   3
ATOM      3  C   UNL A   1      33.109  26.003  23.947  1.00  0.00     0.306 C 
ATOM      4  O   UNL A   1      32.896  25.777  22.760  1.00  0.00    -0.252 OA
BRANCH   3   5
ATOM      5  C   UNL A   1      34.263  25.335  24.668  1.00  0.00     0.130 C 
BRANCH   5   6
ATOM      6  C   UNL A   1      34.379  23.781  24.786  1.00  0.00    -0.013 C 
ATOM      7  C   UNL A   1      35.135  23.476  26.119  1.00  0.00     0.008 C 
ATOM      8  C   UNL A   1      35.221  23.171  23.636  1.00  0.00     0.008 C 
ATOM      9  C   UNL A   1      36.596  23.943  26.126  1.00  0.00     0.001 C 
ATOM     10  C   UNL A   1      36.650  23.708  23.593  1.00  0.00     0.001 C 
ATOM     11  C   UNL A   1      37.373  23.446  24.910  1.00  0.00     0.000 C 
BRANCH   6  12
ATOM     12  C   UNL A   1      32.935  23.179  24.857  1.00  0.00     0.075 C 
BRANCH  12  13
ATOM     13  C   UNL A   1      32.864  21.675  24.832  1.00  0.00     0.094 A 
ATOM     14  C   UNL A   1      32.779  15.500  25.316  1.00  0.00     0.044 C 
ATOM     15  C   UNL A   1      32.748  16.933  24.866  1.00  0.00    -0.050 A 
ATOM     16  C   UNL A   1      32.561  17.248  23.518  1.00  0.00     0.006 A 
ATOM     17  C   UNL A   1      32.895  17.962  25.813  1.00  0.00     0.024 A 
ATOM     18  C   UNL A   1      32.518  18.580  23.094  1.00  0.00     0.030 A 
ATOM     19  C   UNL A   1      32.859  19.297  25.373  1.00  0.00     0.055 A 
ATOM     20  C   UNL A   1      32.670  19.621  24.030  1.00  0.00     0.082 A 
ATOM     21  S   UNL A   1      33.022  20.756  26.277  1.00  0.00    -0.119 S 
ATOM     22  N   UNL A   1      32.655  20.972  23.740  1.00  0.00    -0.241 NA
ENDBRANCH  12  13
ENDBRANCH   6  12
ENDBRANCH   5   6
ENDBRANCH   3   5
ENDBRANCH   2   3
ENDBRANCH   1   2
BRANCH   1  23
ATOM     23  C   UNL A   1      31.905  29.160  25.275  1.00  0.00     0.275 C 
BRANCH  23  24
ATOM     24  O   UNL A   1      33.168  29.736  25.646  1.00  0.00    -0.458 OA
BRANCH  24  25
ATOM     25  C   UNL A   1      33.123  30.648  26.644  1.00  0.00     0.338 C 
ATOM     26  O   UNL A   1      32.224  31.430  26.896  1.00  0.00    -0.246 OA
BRANCH  25  27
ATOM     27  C   UNL A   1      34.359  30.570  27.435  1.00  0.00     0.060 A 
ATOM     28  C   UNL A   1      35.152  31.704  27.625  1.00  0.00     0.016 A 
ATOM     29  C   UNL A   1      34.775  29.328  27.914  1.00  0.00     0.016 A 
ATOM     30  C   UNL A   1      36.391  31.590  28.252  1.00  0.00     0.010 A 
ATOM     31  C   UNL A   1      35.982  29.229  28.604  1.00  0.00     0.010 A 
ATOM     32  C   UNL A   1      36.813  30.352  28.758  1.00  0.00    -0.014 A 
BRANCH  32  33
ATOM     33  C   UNL A   1      38.112  30.212  29.464  1.00  0.00     0.031 A 
ATOM     34  C   UNL A   1      39.183  29.322  28.897  1.00  0.00     0.074 A 
ATOM     35  C   UNL A   1      38.293  30.818  30.653  1.00  0.00     0.049 A 
ATOM     36  N   UNL A   1      40.298  28.920  29.447  1.00  0.00    -0.248 NA
ATOM     37  C   UNL A   1      38.964  28.804  27.536  1.00  0.00     0.031 C 
ATOM     38  C   UNL A   1      37.322  31.695  31.310  1.00  0.00     0.029 A 
ATOM     39  N   UNL A   1      39.340  30.758  31.538  1.00  0.00    -0.354 N 
ATOM     40  C   UNL A   1      40.884  28.055  28.531  1.00  0.00     0.074 A 
ATOM     41  C   UNL A   1      40.005  27.997  27.383  1.00  0.00     0.031 C 
ATOM     42  C   UNL A   1      37.809  32.076  32.500  1.00  0.00     0.029 A 
ATOM     43  C   UNL A   1      39.099  31.430  32.714  1.00  0.00     0.049 A 
ATOM     44  H   UNL A   1      40.180  30.281  31.349  1.00  0.00     0.167 HD
ATOM     45  C   UNL A   1      42.053  27.379  28.635  1.00  0.00     0.034 A 
ATOM     46  C   UNL A   1      39.816  31.487  33.853  1.00  0.00     0.034 A 
ATOM     47  C   UNL A   1      42.949  27.485  29.756  1.00  0.00     0.049 A 
ATOM     48  C   UNL A   1      41.119  30.743  33.934  1.00  0.00     0.074 A 
ATOM     49  C   UNL A   1      44.185  26.888  29.928  1.00  0.00     0.029 A 
ATOM     50  N   UNL A   1      42.707  28.242  30.892  1.00  0.00    -0.354 N 
ATOM     51  N   UNL A   1      41.703  30.003  33.023  1.00  0.00    -0.248 NA
ATOM     52  C   UNL A   1      41.873  30.857  35.190  1.00  0.00     0.031 C 
ATOM     53  C   UNL A   1      44.689  27.280  31.173  1.00  0.00     0.029 A 
ATOM     54  C   UNL A   1      43.770  28.127  31.772  1.00  0.00     0.049 A 
ATOM     55  H   UNL A   1      41.899  28.781  31.050  1.00  0.00     0.167 HD
ATOM     56  C   UNL A   1      42.901  29.582  33.584  1.00  0.00     0.074 A 
ATOM     57  C   UNL A   1      42.972  30.170  34.907  1.00  0.00     0.031 C 
ATOM     58  C   UNL A   1      43.848  28.764  33.061  1.00  0.00     0.034 A 
BRANCH  45  59
ATOM     59  C   UNL A   1      42.454  26.489  27.488  1.00  0.00     0.023 A 
ATOM     60  C   UNL A   1      43.309  26.992  26.487  1.00  0.00     0.012 A 
ATOM     61  C   UNL A   1      42.038  25.145  27.432  1.00  0.00     0.148 A 
ATOM     62  C   UNL A   1      43.727  26.177  25.436  1.00  0.00     0.002 A 
ATOM     63  C   UNL A   1      42.488  24.328  26.401  1.00  0.00     0.091 A 
ATOM     64  F   UNL A   1      41.203  24.692  28.378  1.00  0.00    -0.205 F 
ATOM     65  C   UNL A   1      43.326  24.844  25.399  1.00  0.00     0.022 A 
BRANCH  63  66
ATOM     66  S   UNL A   1      42.078  22.581  26.310  1.00  0.00     0.127 S 
ATOM     67  O   UNL A   1      42.648  22.211  25.015  1.00  0.00    -0.237 OA
ATOM     68  O   UNL A   1      42.788  22.031  27.465  1.00  0.00    -0.237 OA
ATOM     69  O   UNL A   1      40.627  22.508  26.405  1.00  0.00    -0.744 OA
ENDBRANCH  63  66
ENDBRANCH  45  59
BRANCH  46  70
ATOM     70  C   UNL A   1      39.321  32.311  34.992  1.00  0.00     0.023 A 
ATOM     71  C   UNL A   1      39.377  33.714  34.900  1.00  0.00     0.012 A 
ATOM     72  C   UNL A   1      38.735  31.718  36.127  1.00  0.00     0.148 A 
ATOM     73  C   UNL A   1      38.871  34.513  35.926  1.00  0.00     0.002 A 
ATOM     74  C   UNL A   1      38.182  32.520  37.119  1.00  0.00     0.091 A 
ATOM     75  F   UNL A   1      38.711  30.380  36.208  1.00  0.00    -0.205 F 
ATOM     76  C   UNL A   1      38.262  33.918  37.027  1.00  0.00     0.022 A 
BRANCH  74  77
ATOM     77  S   UNL A   1      37.252  31.829  38.494  1.00  0.00     0.127 S 
ATOM     78  O   UNL A   1      36.062  32.675  38.505  1.00  0.00    -0.237 OA
ATOM     79  O   UNL A   1      37.026  30.453  38.053  1.00  0.00    -0.237 OA
ATOM     80  O   UNL A   1      38.132  31.946  39.649  1.00  0.00    -0.744 OA
ENDBRANCH  74  77
ENDBRANCH  46  70
BRANCH  58  81
ATOM     81  C   UNL A   1      45.054  28.469  33.911  1.00  0.00     0.023 A 
ATOM     82  C   UNL A   1      46.172  29.322  33.844  1.00  0.00     0.012 A 
ATOM     83  C   UNL A   1      45.052  27.397  34.822  1.00  0.00     0.148 A 
ATOM     84  C   UNL A   1      47.283  29.099  34.656  1.00  0.00     0.002 A 
ATOM     85  C   UNL A   1      46.147  27.203  35.657  1.00  0.00     0.091 A 
ATOM     86  F   UNL A   1      43.988  26.583  34.854  1.00  0.00    -0.205 F 
ATOM     87  C   UNL A   1      47.265  28.047  35.570  1.00  0.00     0.022 A 
BRANCH  85  88
ATOM     88  S   UNL A   1      46.168  25.924  36.919  1.00  0.00     0.127 S 
ATOM     89  O   UNL A   1      47.515  26.066  37.467  1.00  0.00    -0.237 OA
ATOM     90  O   UNL A   1      45.095  26.350  37.819  1.00  0.00    -0.237 OA
ATOM     91  O   UNL A   1      45.900  24.674  36.218  1.00  0.00    -0.744 OA
ENDBRANCH  85  88
ENDBRANCH  58  81
ENDBRANCH  32  33
ENDBRANCH  25  27
ENDBRANCH  24  25
ENDBRANCH  23  24
ENDBRANCH   1  23
TORSDOF 17
ENDMDL
