MODEL 1
REMARK VINA RESULT:     -11.5      0.000      0.000
REMARK SMILES O=C(OCCOC(=O)c1cc(SCC(=O)N2CCOCC2)ccn1)c1ccc(-c2c3nc(c(-c4cccc(S(=O)(=O)[O-])c4F)c4ccc([nH]4)c(-c4cccc(S(=O)(=O)[O-])c4F)c4nc(c(-c5cccc(S(=O)(=O)[O-])c5F)c5ccc2[nH]5)C=C4)C=C3)cc1
REMARK SMILES IDX 4 1 3 2 2 3 1 4 25 5 26 6 87 7 27 8 86 9 28 10 29 11 30 12
REMARK SMILES IDX 80 13 31 14 85 15 79 16 81 17 32 18 84 19 78 20 77 21 33 23
REMARK SMILES IDX 65 24 45 25 64 26 46 27 49 28 63 29 82 30 47 31 48 32 62 34
REMARK SMILES IDX 83 35 50 36 34 37 35 38 43 39 36 40 38 41 44 42 37 43 39 44
REMARK SMILES IDX 40 45 41 46 42 47 66 48 67 49 75 50 68 51 70 52 76 53 69 54
REMARK SMILES IDX 71 55 72 56 73 57 74 58 51 59 52 60 60 61 53 62 55 63 61 64
REMARK SMILES IDX 54 65 56 66 57 67 58 68 59 69 5 70 6 71 7 72 8 73 9 74 10 75
REMARK SMILES IDX 24 76 11 77 23 78 22 79 12 80 13 81 14 82 15 83 16 84 17 85
REMARK SMILES IDX 21 86 18 87 20 88 19 89
REMARK H PARENT 81 22 49 33
REMARK Flexibility Score: inf
ROOT
ATOM      1  C   UNL A   1      35.511  20.880  25.179  1.00  0.00     0.275 C 
ENDROOT
BRANCH   1   2
ATOM      2  O   UNL A   1      36.845  21.222  24.751  1.00  0.00    -0.458 OA
BRANCH   2   3
ATOM      3  C   UNL A   1      38.041  21.156  25.389  1.00  0.00     0.338 C 
ATOM      4  O   UNL A   1      38.568  20.048  25.500  1.00  0.00    -0.246 OA
BRANCH   3   5
ATOM      5  C   UNL A   1      38.765  22.326  25.995  1.00  0.00     0.060 A 
ATOM      6  C   UNL A   1      38.357  23.652  25.933  1.00  0.00     0.016 A 
ATOM      7  C   UNL A   1      39.969  22.055  26.691  1.00  0.00     0.016 A 
ATOM      8  C   UNL A   1      39.104  24.657  26.538  1.00  0.00     0.010 A 
ATOM      9  C   UNL A   1      40.721  23.065  27.314  1.00  0.00     0.010 A 
ATOM     10  C   UNL A   1      40.277  24.377  27.246  1.00  0.00    -0.014 A 
BRANCH  10  11
ATOM     11  C   UNL A   1      40.964  25.544  27.791  1.00  0.00     0.031 A 
ATOM     12  C   UNL A   1      42.320  26.036  27.268  1.00  0.00     0.074 A 
ATOM     13  C   UNL A   1      40.211  26.427  28.473  1.00  0.00     0.049 A 
ATOM     14  N   UNL A   1      42.936  27.177  27.496  1.00  0.00    -0.248 NA
ATOM     15  C   UNL A   1      43.123  25.102  26.482  1.00  0.00     0.031 C 
ATOM     16  C   UNL A   1      38.899  26.321  29.836  1.00  0.00     0.029 A 
ATOM     17  N   UNL A   1      40.614  28.134  28.397  1.00  0.00    -0.354 N 
ATOM     18  C   UNL A   1      44.206  27.120  26.940  1.00  0.00     0.074 A 
ATOM     19  C   UNL A   1      44.260  25.783  26.339  1.00  0.00     0.031 C 
ATOM     20  C   UNL A   1      38.489  27.814  30.454  1.00  0.00     0.029 A 
ATOM     21  C   UNL A   1      39.580  29.228  29.640  1.00  0.00     0.049 A 
ATOM     22  H   UNL A   1      41.293  28.502  27.789  1.00  0.00     0.167 HD
ATOM     23  C   UNL A   1      45.237  28.028  26.930  1.00  0.00     0.034 A 
ATOM     24  C   UNL A   1      39.610  30.504  30.217  1.00  0.00     0.034 A 
ATOM     25  C   UNL A   1      45.331  29.388  27.506  1.00  0.00     0.049 A 
ATOM     26  C   UNL A   1      40.761  31.546  30.152  1.00  0.00     0.074 A 
ATOM     27  C   UNL A   1      46.426  30.249  27.471  1.00  0.00     0.029 A 
ATOM     28  N   UNL A   1      44.362  30.126  28.193  1.00  0.00    -0.354 N 
ATOM     29  N   UNL A   1      41.955  31.317  29.702  1.00  0.00    -0.248 NA
ATOM     30  C   UNL A   1      40.675  32.920  30.666  1.00  0.00     0.031 C 
ATOM     31  C   UNL A   1      46.112  31.451  28.145  1.00  0.00     0.029 A 
ATOM     32  C   UNL A   1      44.801  31.398  28.596  1.00  0.00     0.049 A 
ATOM     33  H   UNL A   1      43.456  29.786  28.375  1.00  0.00     0.167 HD
ATOM     34  C   UNL A   1      42.747  32.403  29.750  1.00  0.00     0.074 A 
ATOM     35  C   UNL A   1      41.902  33.399  30.393  1.00  0.00     0.031 C 
ATOM     36  C   UNL A   1      44.029  32.456  29.294  1.00  0.00     0.034 A 
BRANCH  23  37
ATOM     37  C   UNL A   1      46.484  27.518  26.213  1.00  0.00     0.023 A 
ATOM     38  C   UNL A   1      46.601  27.665  24.814  1.00  0.00     0.012 A 
ATOM     39  C   UNL A   1      47.518  26.869  26.922  1.00  0.00     0.148 A 
ATOM     40  C   UNL A   1      47.692  27.128  24.128  1.00  0.00     0.002 A 
ATOM     41  C   UNL A   1      48.625  26.378  26.236  1.00  0.00     0.091 A 
ATOM     42  F   UNL A   1      47.388  26.723  28.248  1.00  0.00    -0.205 F 
ATOM     43  C   UNL A   1      48.705  26.489  24.838  1.00  0.00     0.022 A 
BRANCH  41  44
ATOM     44  S   UNL A   1      50.016  25.589  27.057  1.00  0.00     0.127 S 
ATOM     45  O   UNL A   1      50.975  25.460  25.959  1.00  0.00    -0.237 OA
ATOM     46  O   UNL A   1      50.379  26.584  28.067  1.00  0.00    -0.237 OA
ATOM     47  O   UNL A   1      49.512  24.331  27.589  1.00  0.00    -0.744 OA
ENDBRANCH  41  44
ENDBRANCH  23  37
BRANCH  24  48
ATOM     48  C   UNL A   1      38.373  30.946  30.933  1.00  0.00     0.023 A 
ATOM     49  C   UNL A   1      38.352  30.876  32.343  1.00  0.00     0.012 A 
ATOM     50  C   UNL A   1      37.248  31.462  30.275  1.00  0.00     0.148 A 
ATOM     51  C   UNL A   1      37.248  31.320  33.073  1.00  0.00     0.002 A 
ATOM     52  C   UNL A   1      36.200  32.012  31.012  1.00  0.00     0.091 A 
ATOM     53  F   UNL A   1      37.217  31.428  28.935  1.00  0.00    -0.205 F 
ATOM     54  C   UNL A   1      36.184  31.922  32.410  1.00  0.00     0.022 A 
BRANCH  52  55
ATOM     55  S   UNL A   1      34.951  33.027  30.211  1.00  0.00     0.127 S 
ATOM     56  O   UNL A   1      35.754  34.100  29.638  1.00  0.00    -0.237 OA
ATOM     57  O   UNL A   1      34.369  32.101  29.239  1.00  0.00    -0.237 OA
ATOM     58  O   UNL A   1      34.046  33.399  31.293  1.00  0.00    -0.744 OA
ENDBRANCH  52  55
ENDBRANCH  24  48
BRANCH  36  59
ATOM     59  C   UNL A   1      44.701  33.763  29.565  1.00  0.00     0.023 A 
ATOM     60  C   UNL A   1      45.385  33.949  30.783  1.00  0.00     0.012 A 
ATOM     61  C   UNL A   1      44.660  34.800  28.620  1.00  0.00     0.148 A 
ATOM     62  C   UNL A   1      45.988  35.169  31.073  1.00  0.00     0.002 A 
ATOM     63  C   UNL A   1      45.301  35.999  28.897  1.00  0.00     0.091 A 
ATOM     64  F   UNL A   1      43.973  34.608  27.485  1.00  0.00    -0.205 F 
ATOM     65  C   UNL A   1      45.953  36.190  30.127  1.00  0.00     0.022 A 
BRANCH  63  66
ATOM     66  S   UNL A   1      45.368  37.337  27.704  1.00  0.00     0.127 S 
ATOM     67  O   UNL A   1      46.114  38.354  28.443  1.00  0.00    -0.237 OA
ATOM     68  O   UNL A   1      46.100  36.727  26.594  1.00  0.00    -0.237 OA
ATOM     69  O   UNL A   1      43.982  37.670  27.402  1.00  0.00    -0.744 OA
ENDBRANCH  63  66
ENDBRANCH  36  59
ENDBRANCH  10  11
ENDBRANCH   3   5
ENDBRANCH   2   3
ENDBRANCH   1   2
BRANCH   1  70
ATOM     70  C   UNL A   1      35.080  21.579  26.471  1.00  0.00     0.275 C 
BRANCH  70  71
ATOM     71  O   UNL A   1      34.297  22.748  26.234  1.00  0.00    -0.457 OA
BRANCH  71  72
ATOM     72  C   UNL A   1      33.215  22.911  27.044  1.00  0.00     0.357 C 
ATOM     73  O   UNL A   1      33.085  22.492  28.180  1.00  0.00    -0.244 OA
BRANCH  72  74
ATOM     74  C   UNL A   1      32.233  23.728  26.296  1.00  0.00     0.149 A 
ATOM     75  C   UNL A   1      32.411  23.893  24.929  1.00  0.00     0.051 A 
ATOM     76  N   UNL A   1      31.219  24.273  27.019  1.00  0.00    -0.249 NA
ATOM     77  C   UNL A   1      31.489  24.664  24.251  1.00  0.00     0.012 A 
ATOM     78  C   UNL A   1      30.329  25.008  26.329  1.00  0.00     0.113 A 
ATOM     79  C   UNL A   1      30.397  25.188  24.957  1.00  0.00     0.035 A 
BRANCH  77  80
ATOM     80  S   UNL A   1      31.609  24.933  22.501  1.00  0.00    -0.116 SA
BRANCH  80  81
ATOM     81  C   UNL A   1      33.235  25.746  22.207  1.00  0.00     0.175 C 
BRANCH  81  82
ATOM     82  C   UNL A   1      33.615  27.148  22.773  1.00  0.00     0.233 C 
ATOM     83  O   UNL A   1      33.975  27.991  21.926  1.00  0.00    -0.274 OA
ATOM     84  N   UNL A   1      33.188  27.625  24.137  1.00  0.00    -0.337 N 
ATOM     85  C   UNL A   1      33.566  27.292  26.268  1.00  0.00     0.148 C 
ATOM     86  C   UNL A   1      32.165  29.043  23.720  1.00  0.00     0.148 C 
ATOM     87  C   UNL A   1      32.717  28.565  27.386  1.00  0.00     0.181 C 
ATOM     88  C   UNL A   1      31.387  29.906  25.057  1.00  0.00     0.181 C 
ATOM     89  O   UNL A   1      32.016  29.922  26.564  1.00  0.00    -0.378 OA
ENDBRANCH  81  82
ENDBRANCH  80  81
ENDBRANCH  77  80
ENDBRANCH  72  74
ENDBRANCH  71  72
ENDBRANCH  70  71
ENDBRANCH   1  70
TORSDOF 17
ENDMDL
MODEL 2
REMARK VINA RESULT:     -11.1      5.147     10.398
REMARK SMILES O=C(OCCOC(=O)c1cc(SCC(=O)N2CCOCC2)ccn1)c1ccc(-c2c3nc(c(-c4cccc(S(=O)(=O)[O-])c4F)c4ccc([nH]4)c(-c4cccc(S(=O)(=O)[O-])c4F)c4nc(c(-c5cccc(S(=O)(=O)[O-])c5F)c5ccc2[nH]5)C=C4)C=C3)cc1
REMARK SMILES IDX 4 1 3 2 2 3 1 4 25 5 26 6 87 7 27 8 86 9 28 10 29 11 30 12
REMARK SMILES IDX 80 13 31 14 85 15 79 16 81 17 32 18 84 19 78 20 77 21 33 23
REMARK SMILES IDX 65 24 45 25 64 26 46 27 49 28 63 29 82 30 47 31 48 32 62 34
REMARK SMILES IDX 83 35 50 36 34 37 35 38 43 39 36 40 38 41 44 42 37 43 39 44
REMARK SMILES IDX 40 45 41 46 42 47 66 48 67 49 75 50 68 51 70 52 76 53 69 54
REMARK SMILES IDX 71 55 72 56 73 57 74 58 51 59 52 60 60 61 53 62 55 63 61 64
REMARK SMILES IDX 54 65 56 66 57 67 58 68 59 69 5 70 6 71 7 72 8 73 9 74 10 75
REMARK SMILES IDX 24 76 11 77 23 78 22 79 12 80 13 81 14 82 15 83 16 84 17 85
REMARK SMILES IDX 21 86 18 87 20 88 19 89
REMARK H PARENT 81 22 49 33
REMARK Flexibility Score: inf
ROOT
ATOM      1  C   UNL A   1      31.328  30.269  25.563  1.00  0.00     0.275 C 
ENDROOT
BRANCH   1   2
ATOM      2  O   UNL A   1      32.701  30.400  25.984  1.00  0.00    -0.458 OA
BRANCH   2   3
ATOM      3  C   UNL A   1      33.280  31.161  26.946  1.00  0.00     0.338 C 
ATOM      4  O   UNL A   1      32.672  32.163  27.325  1.00  0.00    -0.246 OA
BRANCH   3   5
ATOM      5  C   UNL A   1      34.622  30.894  27.570  1.00  0.00     0.060 A 
ATOM      6  C   UNL A   1      35.153  29.640  27.844  1.00  0.00     0.016 A 
ATOM      7  C   UNL A   1      35.414  32.017  27.912  1.00  0.00     0.016 A 
ATOM      8  C   UNL A   1      36.412  29.509  28.419  1.00  0.00     0.010 A 
ATOM      9  C   UNL A   1      36.692  31.889  28.483  1.00  0.00     0.010 A 
ATOM     10  C   UNL A   1      37.200  30.623  28.728  1.00  0.00    -0.014 A 
BRANCH  10  11
ATOM     11  C   UNL A   1      38.479  30.319  29.362  1.00  0.00     0.031 A 
ATOM     12  C   UNL A   1      38.786  30.651  30.828  1.00  0.00     0.074 A 
ATOM     13  C   UNL A   1      39.238  29.376  28.772  1.00  0.00     0.049 A 
ATOM     14  N   UNL A   1      39.784  30.240  31.583  1.00  0.00    -0.248 NA
ATOM     15  C   UNL A   1      37.935  31.635  31.493  1.00  0.00     0.031 C 
ATOM     16  C   UNL A   1      39.804  29.003  27.003  1.00  0.00     0.029 A 
ATOM     17  N   UNL A   1      40.237  28.334  29.771  1.00  0.00    -0.354 N 
ATOM     18  C   UNL A   1      39.739  30.919  32.791  1.00  0.00     0.074 A 
ATOM     19  C   UNL A   1      38.568  31.791  32.656  1.00  0.00     0.031 C 
ATOM     20  C   UNL A   1      40.957  27.801  26.935  1.00  0.00     0.029 A 
ATOM     21  C   UNL A   1      41.452  27.208  28.739  1.00  0.00     0.049 A 
ATOM     22  H   UNL A   1      40.189  28.320  30.753  1.00  0.00     0.167 HD
ATOM     23  C   UNL A   1      40.563  30.876  33.891  1.00  0.00     0.034 A 
ATOM     24  C   UNL A   1      42.600  26.427  28.925  1.00  0.00     0.034 A 
ATOM     25  C   UNL A   1      41.777  30.071  34.156  1.00  0.00     0.049 A 
ATOM     26  C   UNL A   1      43.493  26.343  30.194  1.00  0.00     0.074 A 
ATOM     27  C   UNL A   1      42.576  30.095  35.298  1.00  0.00     0.029 A 
ATOM     28  N   UNL A   1      42.390  29.105  33.353  1.00  0.00    -0.354 N 
ATOM     29  N   UNL A   1      43.413  27.131  31.221  1.00  0.00    -0.248 NA
ATOM     30  C   UNL A   1      44.607  25.402  30.372  1.00  0.00     0.031 C 
ATOM     31  C   UNL A   1      43.646  29.184  35.152  1.00  0.00     0.029 A 
ATOM     32  C   UNL A   1      43.536  28.534  33.931  1.00  0.00     0.049 A 
ATOM     33  H   UNL A   1      42.049  28.848  32.466  1.00  0.00     0.167 HD
ATOM     34  C   UNL A   1      44.299  26.823  32.184  1.00  0.00     0.074 A 
ATOM     35  C   UNL A   1      45.059  25.729  31.596  1.00  0.00     0.031 C 
ATOM     36  C   UNL A   1      44.396  27.453  33.387  1.00  0.00     0.034 A 
BRANCH  23  37
ATOM     37  C   UNL A   1      40.141  31.835  35.000  1.00  0.00     0.023 A 
ATOM     38  C   UNL A   1      40.740  33.111  35.092  1.00  0.00     0.012 A 
ATOM     39  C   UNL A   1      39.181  31.458  35.964  1.00  0.00     0.148 A 
ATOM     40  C   UNL A   1      40.433  33.969  36.150  1.00  0.00     0.002 A 
ATOM     41  C   UNL A   1      38.847  32.339  36.989  1.00  0.00     0.091 A 
ATOM     42  F   UNL A   1      38.632  30.239  35.874  1.00  0.00    -0.205 F 
ATOM     43  C   UNL A   1      39.485  33.586  37.095  1.00  0.00     0.022 A 
BRANCH  41  44
ATOM     44  S   UNL A   1      37.596  31.971  38.227  1.00  0.00     0.127 S 
ATOM     45  O   UNL A   1      38.334  32.200  39.471  1.00  0.00    -0.237 OA
ATOM     46  O   UNL A   1      36.572  32.975  37.935  1.00  0.00    -0.237 OA
ATOM     47  O   UNL A   1      37.188  30.593  37.994  1.00  0.00    -0.744 OA
ENDBRANCH  41  44
ENDBRANCH  23  37
BRANCH  24  48
ATOM     48  C   UNL A   1      42.988  25.523  27.798  1.00  0.00     0.023 A 
ATOM     49  C   UNL A   1      44.142  25.842  27.048  1.00  0.00     0.012 A 
ATOM     50  C   UNL A   1      42.283  24.356  27.472  1.00  0.00     0.148 A 
ATOM     51  C   UNL A   1      44.585  25.013  26.016  1.00  0.00     0.002 A 
ATOM     52  C   UNL A   1      42.796  23.474  26.523  1.00  0.00     0.091 A 
ATOM     53  F   UNL A   1      41.128  24.107  28.105  1.00  0.00    -0.205 F 
ATOM     54  C   UNL A   1      43.933  23.809  25.775  1.00  0.00     0.022 A 
BRANCH  52  55
ATOM     55  S   UNL A   1      42.142  21.806  26.374  1.00  0.00     0.127 S 
ATOM     56  O   UNL A   1      42.345  21.280  27.719  1.00  0.00    -0.237 OA
ATOM     57  O   UNL A   1      40.747  22.046  26.007  1.00  0.00    -0.237 OA
ATOM     58  O   UNL A   1      42.941  21.202  25.314  1.00  0.00    -0.744 OA
ENDBRANCH  52  55
ENDBRANCH  24  48
BRANCH  36  59
ATOM     59  C   UNL A   1      45.534  26.965  34.223  1.00  0.00     0.023 A 
ATOM     60  C   UNL A   1      46.794  27.585  34.104  1.00  0.00     0.012 A 
ATOM     61  C   UNL A   1      45.360  25.902  35.122  1.00  0.00     0.148 A 
ATOM     62  C   UNL A   1      47.879  27.125  34.845  1.00  0.00     0.002 A 
ATOM     63  C   UNL A   1      46.434  25.476  35.891  1.00  0.00     0.091 A 
ATOM     64  F   UNL A   1      44.159  25.308  35.190  1.00  0.00    -0.205 F 
ATOM     65  C   UNL A   1      47.696  26.077  35.744  1.00  0.00     0.022 A 
BRANCH  63  66
ATOM     66  S   UNL A   1      46.267  24.185  37.124  1.00  0.00     0.127 S 
ATOM     67  O   UNL A   1      47.572  24.233  37.781  1.00  0.00    -0.237 OA
ATOM     68  O   UNL A   1      45.155  24.675  37.938  1.00  0.00    -0.237 OA
ATOM     69  O   UNL A   1      45.980  22.963  36.384  1.00  0.00    -0.744 OA
ENDBRANCH  63  66
ENDBRANCH  36  59
ENDBRANCH  10  11
ENDBRANCH   3   5
ENDBRANCH   2   3
ENDBRANCH   1   2
BRANCH   1  70
ATOM     70  C   UNL A   1      31.069  29.051  24.673  1.00  0.00     0.275 C 
BRANCH  70  71
ATOM     71  O   UNL A   1      32.006  27.996  24.892  1.00  0.00    -0.457 OA
BRANCH  71  72
ATOM     72  C   UNL A   1      31.633  27.052  25.798  1.00  0.00     0.357 C 
ATOM     73  O   UNL A   1      30.975  27.229  26.808  1.00  0.00    -0.244 OA
BRANCH  72  74
ATOM     74  C   UNL A   1      32.149  25.753  25.309  1.00  0.00     0.149 A 
ATOM     75  C   UNL A   1      32.307  24.716  26.219  1.00  0.00     0.051 A 
ATOM     76  N   UNL A   1      32.443  25.676  23.984  1.00  0.00    -0.249 NA
ATOM     77  C   UNL A   1      32.796  23.516  25.745  1.00  0.00     0.012 A 
ATOM     78  C   UNL A   1      32.905  24.491  23.549  1.00  0.00     0.113 A 
ATOM     79  C   UNL A   1      33.050  23.386  24.372  1.00  0.00     0.035 A 
BRANCH  77  80
ATOM     80  S   UNL A   1      33.028  22.119  26.813  1.00  0.00    -0.116 SA
BRANCH  80  81
ATOM     81  C   UNL A   1      34.747  21.522  26.530  1.00  0.00     0.175 C 
BRANCH  81  82
ATOM     82  C   UNL A   1      35.197  20.765  25.244  1.00  0.00     0.233 C 
ATOM     83  O   UNL A   1      36.431  20.665  25.082  1.00  0.00    -0.274 OA
ATOM     84  N   UNL A   1      34.286  19.848  24.470  1.00  0.00    -0.337 N 
ATOM     85  C   UNL A   1      32.537  19.877  23.154  1.00  0.00     0.148 C 
ATOM     86  C   UNL A   1      35.135  18.273  24.634  1.00  0.00     0.148 C 
ATOM     87  C   UNL A   1      32.152  18.189  22.384  1.00  0.00     0.181 C 
ATOM     88  C   UNL A   1      34.368  16.855  23.900  1.00  0.00     0.181 C 
ATOM     89  O   UNL A   1      33.370  16.975  22.614  1.00  0.00    -0.378 OA
ENDBRANCH  81  82
ENDBRANCH  80  81
ENDBRANCH  77  80
ENDBRANCH  72  74
ENDBRANCH  71  72
ENDBRANCH  70  71
ENDBRANCH   1  70
TORSDOF 17
ENDMDL
MODEL 3
REMARK VINA RESULT:     -11.1      4.874     10.414
REMARK SMILES O=C(OCCOC(=O)c1cc(SCC(=O)N2CCOCC2)ccn1)c1ccc(-c2c3nc(c(-c4cccc(S(=O)(=O)[O-])c4F)c4ccc([nH]4)c(-c4cccc(S(=O)(=O)[O-])c4F)c4nc(c(-c5cccc(S(=O)(=O)[O-])c5F)c5ccc2[nH]5)C=C4)C=C3)cc1
REMARK SMILES IDX 4 1 3 2 2 3 1 4 25 5 26 6 87 7 27 8 86 9 28 10 29 11 30 12
REMARK SMILES IDX 80 13 31 14 85 15 79 16 81 17 32 18 84 19 78 20 77 21 33 23
REMARK SMILES IDX 65 24 45 25 64 26 46 27 49 28 63 29 82 30 47 31 48 32 62 34
REMARK SMILES IDX 83 35 50 36 34 37 35 38 43 39 36 40 38 41 44 42 37 43 39 44
REMARK SMILES IDX 40 45 41 46 42 47 66 48 67 49 75 50 68 51 70 52 76 53 69 54
REMARK SMILES IDX 71 55 72 56 73 57 74 58 51 59 52 60 60 61 53 62 55 63 61 64
REMARK SMILES IDX 54 65 56 66 57 67 58 68 59 69 5 70 6 71 7 72 8 73 9 74 10 75
REMARK SMILES IDX 24 76 11 77 23 78 22 79 12 80 13 81 14 82 15 83 16 84 17 85
REMARK SMILES IDX 21 86 18 87 20 88 19 89
REMARK H PARENT 81 22 49 33
REMARK Flexibility Score: inf
ROOT
ATOM      1  C   UNL A   1      31.378  29.596  25.050  1.00  0.00     0.275 C 
ENDROOT
BRANCH   1   2
ATOM      2  O   UNL A   1      32.589  30.272  25.445  1.00  0.00    -0.458 OA
BRANCH   2   3
ATOM      3  C   UNL A   1      32.973  30.817  26.626  1.00  0.00     0.338 C 
ATOM      4  O   UNL A   1      32.187  31.584  27.184  1.00  0.00    -0.246 OA
BRANCH   3   5
ATOM      5  C   UNL A   1      34.297  30.580  27.299  1.00  0.00     0.060 A 
ATOM      6  C   UNL A   1      34.885  29.341  27.516  1.00  0.00     0.016 A 
ATOM      7  C   UNL A   1      35.006  31.718  27.755  1.00  0.00     0.016 A 
ATOM      8  C   UNL A   1      36.121  29.239  28.145  1.00  0.00     0.010 A 
ATOM      9  C   UNL A   1      36.260  31.621  28.382  1.00  0.00     0.010 A 
ATOM     10  C   UNL A   1      36.828  30.370  28.567  1.00  0.00    -0.014 A 
BRANCH  10  11
ATOM     11  C   UNL A   1      38.091  30.092  29.244  1.00  0.00     0.031 A 
ATOM     12  C   UNL A   1      38.312  30.349  30.741  1.00  0.00     0.074 A 
ATOM     13  C   UNL A   1      38.925  29.227  28.638  1.00  0.00     0.049 A 
ATOM     14  N   UNL A   1      39.294  29.944  31.518  1.00  0.00    -0.248 NA
ATOM     15  C   UNL A   1      37.380  31.247  31.420  1.00  0.00     0.031 C 
ATOM     16  C   UNL A   1      39.591  28.992  26.880  1.00  0.00     0.029 A 
ATOM     17  N   UNL A   1      39.931  28.178  29.622  1.00  0.00    -0.354 N 
ATOM     18  C   UNL A   1      39.158  30.545  32.761  1.00  0.00     0.074 A 
ATOM     19  C   UNL A   1      37.949  31.363  32.620  1.00  0.00     0.031 C 
ATOM     20  C   UNL A   1      40.809  27.856  26.798  1.00  0.00     0.029 A 
ATOM     21  C   UNL A   1      41.251  27.179  28.587  1.00  0.00     0.049 A 
ATOM     22  H   UNL A   1      39.839  28.100  30.598  1.00  0.00     0.167 HD
ATOM     23  C   UNL A   1      39.931  30.475  33.896  1.00  0.00     0.034 A 
ATOM     24  C   UNL A   1      42.429  26.447  28.783  1.00  0.00     0.034 A 
ATOM     25  C   UNL A   1      41.173  29.718  34.172  1.00  0.00     0.049 A 
ATOM     26  C   UNL A   1      43.266  26.331  30.087  1.00  0.00     0.074 A 
ATOM     27  C   UNL A   1      41.916  29.712  35.351  1.00  0.00     0.029 A 
ATOM     28  N   UNL A   1      41.873  28.835  33.345  1.00  0.00    -0.354 N 
ATOM     29  N   UNL A   1      43.096  27.049  31.153  1.00  0.00    -0.248 NA
ATOM     30  C   UNL A   1      44.419  25.438  30.264  1.00  0.00     0.031 C 
ATOM     31  C   UNL A   1      43.038  28.867  35.205  1.00  0.00     0.029 A 
ATOM     32  C   UNL A   1      43.020  28.288  33.944  1.00  0.00     0.049 A 
ATOM     33  H   UNL A   1      41.587  28.616  32.428  1.00  0.00     0.167 HD
ATOM     34  C   UNL A   1      43.952  26.728  32.139  1.00  0.00     0.074 A 
ATOM     35  C   UNL A   1      44.796  25.712  31.526  1.00  0.00     0.031 C 
ATOM     36  C   UNL A   1      43.960  27.288  33.381  1.00  0.00     0.034 A 
BRANCH  23  37
ATOM     37  C   UNL A   1      39.409  31.343  35.037  1.00  0.00     0.023 A 
ATOM     38  C   UNL A   1      38.442  30.827  35.927  1.00  0.00     0.012 A 
ATOM     39  C   UNL A   1      39.852  32.673  35.203  1.00  0.00     0.148 A 
ATOM     40  C   UNL A   1      37.886  31.632  36.924  1.00  0.00     0.002 A 
ATOM     41  C   UNL A   1      39.327  33.454  36.229  1.00  0.00     0.091 A 
ATOM     42  F   UNL A   1      40.759  33.155  34.342  1.00  0.00    -0.205 F 
ATOM     43  C   UNL A   1      38.331  32.942  37.077  1.00  0.00     0.022 A 
BRANCH  41  44
ATOM     44  S   UNL A   1      39.870  35.137  36.555  1.00  0.00     0.127 S 
ATOM     45  O   UNL A   1      39.261  35.397  37.860  1.00  0.00    -0.237 OA
ATOM     46  O   UNL A   1      41.326  34.988  36.582  1.00  0.00    -0.237 OA
ATOM     47  O   UNL A   1      39.357  35.947  35.460  1.00  0.00    -0.744 OA
ENDBRANCH  41  44
ENDBRANCH  23  37
BRANCH  24  48
ATOM     48  C   UNL A   1      42.916  25.635  27.625  1.00  0.00     0.023 A 
ATOM     49  C   UNL A   1      44.005  26.126  26.871  1.00  0.00     0.012 A 
ATOM     50  C   UNL A   1      42.368  24.394  27.273  1.00  0.00     0.148 A 
ATOM     51  C   UNL A   1      44.539  25.392  25.810  1.00  0.00     0.002 A 
ATOM     52  C   UNL A   1      42.979  23.615  26.292  1.00  0.00     0.091 A 
ATOM     53  F   UNL A   1      41.266  23.975  27.912  1.00  0.00    -0.205 F 
ATOM     54  C   UNL A   1      44.049  24.119  25.542  1.00  0.00     0.022 A 
BRANCH  52  55
ATOM     55  S   UNL A   1      42.551  21.879  26.102  1.00  0.00     0.127 S 
ATOM     56  O   UNL A   1      43.470  21.453  25.054  1.00  0.00    -0.237 OA
ATOM     57  O   UNL A   1      42.833  21.337  27.432  1.00  0.00    -0.237 OA
ATOM     58  O   UNL A   1      41.134  21.896  25.756  1.00  0.00    -0.744 OA
ENDBRANCH  52  55
ENDBRANCH  24  48
BRANCH  36  59
ATOM     59  C   UNL A   1      45.083  26.807  34.241  1.00  0.00     0.023 A 
ATOM     60  C   UNL A   1      46.343  27.432  34.146  1.00  0.00     0.012 A 
ATOM     61  C   UNL A   1      44.895  25.746  35.140  1.00  0.00     0.148 A 
ATOM     62  C   UNL A   1      47.414  26.979  34.911  1.00  0.00     0.002 A 
ATOM     63  C   UNL A   1      45.955  25.328  35.932  1.00  0.00     0.091 A 
ATOM     64  F   UNL A   1      43.696  25.147  35.185  1.00  0.00    -0.205 F 
ATOM     65  C   UNL A   1      47.217  25.934  35.809  1.00  0.00     0.022 A 
BRANCH  63  66
ATOM     66  S   UNL A   1      45.768  24.040  37.166  1.00  0.00     0.127 S 
ATOM     67  O   UNL A   1      46.992  24.201  37.949  1.00  0.00    -0.237 OA
ATOM     68  O   UNL A   1      44.544  24.445  37.856  1.00  0.00    -0.237 OA
ATOM     69  O   UNL A   1      45.656  22.791  36.423  1.00  0.00    -0.744 OA
ENDBRANCH  63  66
ENDBRANCH  36  59
ENDBRANCH  10  11
ENDBRANCH   3   5
ENDBRANCH   2   3
ENDBRANCH   1   2
BRANCH   1  70
ATOM     70  C   UNL A   1      31.538  28.081  24.903  1.00  0.00     0.275 C 
BRANCH  70  71
ATOM     71  O   UNL A   1      32.898  27.681  24.738  1.00  0.00    -0.457 OA
BRANCH  71  72
ATOM     72  C   UNL A   1      33.234  27.220  23.502  1.00  0.00     0.357 C 
ATOM     73  O   UNL A   1      33.278  27.866  22.470  1.00  0.00    -0.244 OA
BRANCH  72  74
ATOM     74  C   UNL A   1      33.575  25.787  23.650  1.00  0.00     0.149 A 
ATOM     75  C   UNL A   1      34.038  25.339  24.881  1.00  0.00     0.051 A 
ATOM     76  N   UNL A   1      33.414  25.006  22.549  1.00  0.00    -0.249 NA
ATOM     77  C   UNL A   1      34.356  24.002  24.997  1.00  0.00     0.012 A 
ATOM     78  C   UNL A   1      33.720  23.706  22.697  1.00  0.00     0.113 A 
ATOM     79  C   UNL A   1      34.143  23.159  23.898  1.00  0.00     0.035 A 
BRANCH  77  80
ATOM     80  S   UNL A   1      34.945  23.316  26.524  1.00  0.00    -0.116 SA
BRANCH  80  81
ATOM     81  C   UNL A   1      34.738  21.490  26.392  1.00  0.00     0.175 C 
BRANCH  81  82
ATOM     82  C   UNL A   1      35.191  20.657  25.155  1.00  0.00     0.233 C 
ATOM     83  O   UNL A   1      36.425  20.546  25.004  1.00  0.00    -0.274 OA
ATOM     84  N   UNL A   1      34.282  19.695  24.435  1.00  0.00    -0.337 N 
ATOM     85  C   UNL A   1      32.537  19.646  23.115  1.00  0.00     0.148 C 
ATOM     86  C   UNL A   1      35.130  18.133  24.696  1.00  0.00     0.148 C 
ATOM     87  C   UNL A   1      32.153  17.915  22.446  1.00  0.00     0.181 C 
ATOM     88  C   UNL A   1      34.364  16.674  24.046  1.00  0.00     0.181 C 
ATOM     89  O   UNL A   1      33.370  16.717  22.752  1.00  0.00    -0.378 OA
ENDBRANCH  81  82
ENDBRANCH  80  81
ENDBRANCH  77  80
ENDBRANCH  72  74
ENDBRANCH  71  72
ENDBRANCH  70  71
ENDBRANCH   1  70
TORSDOF 17
ENDMDL
