MODEL 1
REMARK VINA RESULT:     -12.0      0.000      0.000
REMARK SMILES CCc1cc(/C=C/C(=O)OCCOC(=O)c2ccc(-c3c4nc(c(-c5cccc(S(=O)(=O)[O-])c5F)c5ccc([nH]5)c(-c5cccc(S(=O)(=O)[O-])c5F)c5nc(c(-c6cccc(S(=O)(=O)[O-])c6F)c6ccc3[nH]6)C=C5)C=C4)cc2)cc(C(=O)c2ccccc2)c1
REMARK SMILES IDX 11 1 10 2 8 3 9 4 7 5 6 6 5 7 3 8 4 9 89 10 80 11 79 12 2 13
REMARK SMILES IDX 1 14 81 15 82 16 83 17 84 18 88 19 85 20 87 21 86 22 12 23
REMARK SMILES IDX 13 24 14 25 15 26 16 27 17 28 78 29 18 30 77 31 19 32 20 33
REMARK SMILES IDX 21 34 71 35 22 36 76 37 70 38 72 39 23 40 75 41 69 42 68 43
REMARK SMILES IDX 24 45 56 46 36 47 55 48 37 49 40 50 54 51 73 52 38 53 39 54
REMARK SMILES IDX 53 56 74 57 41 58 25 59 26 60 34 61 27 62 29 63 35 64 28 65
REMARK SMILES IDX 30 66 31 67 32 68 33 69 57 70 58 71 66 72 59 73 61 74 67 75
REMARK SMILES IDX 60 76 62 77 63 78 64 79 65 80 42 81 43 82 51 83 44 84 46 85
REMARK SMILES IDX 52 86 45 87 47 88 48 89 49 90 50 91
REMARK H PARENT 72 44 40 55
REMARK Flexibility Score: inf
ROOT
ATOM      1  C   UNL A   1      35.243  21.813  24.638  1.00  0.00     0.275 C 
ENDROOT
BRANCH   1   2
ATOM      2  O   UNL A   1      34.105  20.952  24.452  1.00  0.00    -0.459 OA
BRANCH   2   3
ATOM      3  C   UNL A   1      32.923  21.435  24.901  1.00  0.00     0.330 C 
ATOM      4  O   UNL A   1      31.977  20.771  25.299  1.00  0.00    -0.247 OA
BRANCH   3   5
ATOM      5  C   UNL A   1      32.884  22.912  24.933  1.00  0.00     0.094 C 
ATOM      6  C   UNL A   1      31.854  23.659  25.361  1.00  0.00     0.015 C 
BRANCH   6   7
ATOM      7  C   UNL A   1      31.842  25.129  25.263  1.00  0.00    -0.024 A 
ATOM      8  C   UNL A   1      32.564  27.324  26.080  1.00  0.00    -0.047 A 
ATOM      9  C   UNL A   1      32.546  25.926  26.182  1.00  0.00     0.011 A 
ATOM     10  C   UNL A   1      31.867  27.922  25.019  1.00  0.00     0.016 A 
ATOM     11  C   UNL A   1      31.196  27.145  24.064  1.00  0.00     0.023 A 
ATOM     12  C   UNL A   1      31.183  25.749  24.196  1.00  0.00     0.020 A 
BRANCH   8  13
ATOM     13  C   UNL A   1      33.327  28.223  27.029  1.00  0.00     0.032 C 
ATOM     14  C   UNL A   1      32.746  29.606  27.291  1.00  0.00     0.009 C 
ENDBRANCH   8  13
BRANCH  11  15
ATOM     15  C   UNL A   1      30.453  27.763  22.928  1.00  0.00     0.193 C 
ATOM     16  O   UNL A   1      30.597  27.327  21.787  1.00  0.00    -0.289 OA
BRANCH  15  17
ATOM     17  C   UNL A   1      29.501  28.881  23.134  1.00  0.00     0.022 A 
ATOM     18  C   UNL A   1      28.142  28.648  22.895  1.00  0.00     0.012 A 
ATOM     19  C   UNL A   1      29.935  30.147  23.540  1.00  0.00     0.012 A 
ATOM     20  C   UNL A   1      27.213  29.667  23.108  1.00  0.00     0.001 A 
ATOM     21  C   UNL A   1      29.001  31.163  23.753  1.00  0.00     0.001 A 
ATOM     22  C   UNL A   1      27.642  30.921  23.543  1.00  0.00     0.000 A 
ENDBRANCH  15  17
ENDBRANCH  11  15
ENDBRANCH   6   7
ENDBRANCH   3   5
ENDBRANCH   2   3
ENDBRANCH   1   2
BRANCH   1  23
ATOM     23  C   UNL A   1      36.412  21.061  25.284  1.00  0.00     0.275 C 
BRANCH  23  24
ATOM     24  O   UNL A   1      37.684  21.640  24.937  1.00  0.00    -0.458 OA
BRANCH  24  25
ATOM     25  C   UNL A   1      38.708  21.286  25.751  1.00  0.00     0.338 C 
ATOM     26  O   UNL A   1      39.193  20.172  25.871  1.00  0.00    -0.246 OA
BRANCH  25  27
ATOM     27  C   UNL A   1      39.267  22.469  26.432  1.00  0.00     0.060 A 
ATOM     28  C   UNL A   1      38.791  23.722  26.038  1.00  0.00     0.016 A 
ATOM     29  C   UNL A   1      40.304  22.368  27.363  1.00  0.00     0.016 A 
ATOM     30  C   UNL A   1      39.371  24.882  26.545  1.00  0.00     0.010 A 
ATOM     31  C   UNL A   1      40.887  23.536  27.873  1.00  0.00     0.010 A 
ATOM     32  C   UNL A   1      40.444  24.799  27.444  1.00  0.00    -0.014 A 
BRANCH  32  33
ATOM     33  C   UNL A   1      41.131  26.047  27.859  1.00  0.00     0.031 A 
ATOM     34  C   UNL A   1      42.559  26.290  27.459  1.00  0.00     0.074 A 
ATOM     35  C   UNL A   1      40.462  26.982  28.559  1.00  0.00     0.049 A 
ATOM     36  N   UNL A   1      43.298  27.356  27.641  1.00  0.00    -0.248 NA
ATOM     37  C   UNL A   1      43.251  25.192  26.767  1.00  0.00     0.031 C 
ATOM     38  C   UNL A   1      39.084  26.854  29.034  1.00  0.00     0.029 A 
ATOM     39  N   UNL A   1      40.856  28.222  28.998  1.00  0.00    -0.354 N 
ATOM     40  C   UNL A   1      44.545  27.050  27.110  1.00  0.00     0.074 A 
ATOM     41  C   UNL A   1      44.468  25.693  26.613  1.00  0.00     0.031 C 
ATOM     42  C   UNL A   1      38.750  27.968  29.705  1.00  0.00     0.029 A 
ATOM     43  C   UNL A   1      39.888  28.885  29.713  1.00  0.00     0.049 A 
ATOM     44  H   UNL A   1      41.747  28.600  28.816  1.00  0.00     0.167 HD
ATOM     45  C   UNL A   1      45.647  27.833  27.022  1.00  0.00     0.034 A 
ATOM     46  C   UNL A   1      39.914  30.096  30.306  1.00  0.00     0.034 A 
ATOM     47  C   UNL A   1      45.716  29.193  27.491  1.00  0.00     0.049 A 
ATOM     48  C   UNL A   1      41.137  30.962  30.161  1.00  0.00     0.074 A 
ATOM     49  C   UNL A   1      46.770  30.085  27.394  1.00  0.00     0.029 A 
ATOM     50  N   UNL A   1      44.693  29.855  28.152  1.00  0.00    -0.354 N 
ATOM     51  N   UNL A   1      42.253  30.714  29.520  1.00  0.00    -0.248 NA
ATOM     52  C   UNL A   1      41.085  32.294  30.781  1.00  0.00     0.031 C 
ATOM     53  C   UNL A   1      46.388  31.283  28.009  1.00  0.00     0.029 A 
ATOM     54  C   UNL A   1      45.090  31.142  28.474  1.00  0.00     0.049 A 
ATOM     55  H   UNL A   1      43.813  29.466  28.363  1.00  0.00     0.167 HD
ATOM     56  C   UNL A   1      43.024  31.866  29.633  1.00  0.00     0.074 A 
ATOM     57  C   UNL A   1      42.234  32.823  30.382  1.00  0.00     0.031 C 
ATOM     58  C   UNL A   1      44.277  32.106  29.173  1.00  0.00     0.034 A 
BRANCH  45  59
ATOM     59  C   UNL A   1      46.862  27.246  26.355  1.00  0.00     0.023 A 
ATOM     60  C   UNL A   1      46.995  27.334  24.954  1.00  0.00     0.012 A 
ATOM     61  C   UNL A   1      47.888  26.645  27.109  1.00  0.00     0.148 A 
ATOM     62  C   UNL A   1      48.113  26.803  24.311  1.00  0.00     0.002 A 
ATOM     63  C   UNL A   1      49.017  26.152  26.464  1.00  0.00     0.091 A 
ATOM     64  F   UNL A   1      47.734  26.545  28.438  1.00  0.00    -0.205 F 
ATOM     65  C   UNL A   1      49.127  26.221  25.067  1.00  0.00     0.022 A 
BRANCH  63  66
ATOM     66  S   UNL A   1      50.405  25.450  27.365  1.00  0.00     0.127 S 
ATOM     67  O   UNL A   1      50.771  26.553  28.252  1.00  0.00    -0.237 OA
ATOM     68  O   UNL A   1      49.793  24.303  28.039  1.00  0.00    -0.237 OA
ATOM     69  O   UNL A   1      51.392  25.096  26.354  1.00  0.00    -0.744 OA
ENDBRANCH  63  66
ENDBRANCH  45  59
BRANCH  46  70
ATOM     70  C   UNL A   1      38.708  30.585  31.028  1.00  0.00     0.023 A 
ATOM     71  C   UNL A   1      38.617  30.415  32.424  1.00  0.00     0.012 A 
ATOM     72  C   UNL A   1      37.672  31.253  30.346  1.00  0.00     0.148 A 
ATOM     73  C   UNL A   1      37.506  30.885  33.124  1.00  0.00     0.002 A 
ATOM     74  C   UNL A   1      36.594  31.765  31.058  1.00  0.00     0.091 A 
ATOM     75  F   UNL A   1      37.771  31.386  29.017  1.00  0.00    -0.205 F 
ATOM     76  C   UNL A   1      36.502  31.569  32.445  1.00  0.00     0.022 A 
BRANCH  74  77
ATOM     77  S   UNL A   1      35.321  32.769  30.286  1.00  0.00     0.127 S 
ATOM     78  O   UNL A   1      34.759  31.840  29.309  1.00  0.00    -0.237 OA
ATOM     79  O   UNL A   1      34.448  33.076  31.419  1.00  0.00    -0.237 OA
ATOM     80  O   UNL A   1      36.016  33.925  29.734  1.00  0.00    -0.744 OA
ENDBRANCH  74  77
ENDBRANCH  46  70
BRANCH  58  81
ATOM     81  C   UNL A   1      44.871  33.465  29.442  1.00  0.00     0.023 A 
ATOM     82  C   UNL A   1      45.716  33.649  30.554  1.00  0.00     0.012 A 
ATOM     83  C   UNL A   1      44.641  34.542  28.566  1.00  0.00     0.148 A 
ATOM     84  C   UNL A   1      46.293  34.893  30.809  1.00  0.00     0.002 A 
ATOM     85  C   UNL A   1      45.254  35.769  28.801  1.00  0.00     0.091 A 
ATOM     86  F   UNL A   1      43.815  34.359  27.524  1.00  0.00    -0.205 F 
ATOM     87  C   UNL A   1      46.071  35.949  29.928  1.00  0.00     0.022 A 
BRANCH  85  88
ATOM     88  S   UNL A   1      45.087  37.145  27.658  1.00  0.00     0.127 S 
ATOM     89  O   UNL A   1      45.591  36.566  26.415  1.00  0.00    -0.237 OA
ATOM     90  O   UNL A   1      43.644  37.397  27.671  1.00  0.00    -0.237 OA
ATOM     91  O   UNL A   1      45.885  38.223  28.227  1.00  0.00    -0.744 OA
ENDBRANCH  85  88
ENDBRANCH  58  81
ENDBRANCH  32  33
ENDBRANCH  25  27
ENDBRANCH  24  25
ENDBRANCH  23  24
ENDBRANCH   1  23
TORSDOF 18
ENDMDL
MODEL 2
REMARK VINA RESULT:     -12.0      4.938     10.390
REMARK SMILES CCc1cc(/C=C/C(=O)OCCOC(=O)c2ccc(-c3c4nc(c(-c5cccc(S(=O)(=O)[O-])c5F)c5ccc([nH]5)c(-c5cccc(S(=O)(=O)[O-])c5F)c5nc(c(-c6cccc(S(=O)(=O)[O-])c6F)c6ccc3[nH]6)C=C5)C=C4)cc2)cc(C(=O)c2ccccc2)c1
REMARK SMILES IDX 11 1 10 2 8 3 9 4 7 5 6 6 5 7 3 8 4 9 89 10 80 11 79 12 2 13
REMARK SMILES IDX 1 14 81 15 82 16 83 17 84 18 88 19 85 20 87 21 86 22 12 23
REMARK SMILES IDX 13 24 14 25 15 26 16 27 17 28 78 29 18 30 77 31 19 32 20 33
REMARK SMILES IDX 21 34 71 35 22 36 76 37 70 38 72 39 23 40 75 41 69 42 68 43
REMARK SMILES IDX 24 45 56 46 36 47 55 48 37 49 40 50 54 51 73 52 38 53 39 54
REMARK SMILES IDX 53 56 74 57 41 58 25 59 26 60 34 61 27 62 29 63 35 64 28 65
REMARK SMILES IDX 30 66 31 67 32 68 33 69 57 70 58 71 66 72 59 73 61 74 67 75
REMARK SMILES IDX 60 76 62 77 63 78 64 79 65 80 42 81 43 82 51 83 44 84 46 85
REMARK SMILES IDX 52 86 45 87 47 88 48 89 49 90 50 91
REMARK H PARENT 72 44 40 55
REMARK Flexibility Score: inf
ROOT
ATOM      1  C   UNL A   1      31.776  29.731  25.206  1.00  0.00     0.275 C 
ENDROOT
BRANCH   1   2
ATOM      2  O   UNL A   1      31.551  28.310  25.154  1.00  0.00    -0.459 OA
BRANCH   2   3
ATOM      3  C   UNL A   1      31.749  27.728  23.948  1.00  0.00     0.330 C 
ATOM      4  O   UNL A   1      31.590  28.257  22.858  1.00  0.00    -0.247 OA
BRANCH   3   5
ATOM      5  C   UNL A   1      32.261  26.346  24.057  1.00  0.00     0.094 C 
ATOM      6  C   UNL A   1      33.235  25.934  24.884  1.00  0.00     0.015 C 
BRANCH   6   7
ATOM      7  C   UNL A   1      33.771  24.563  24.863  1.00  0.00    -0.024 A 
ATOM      8  C   UNL A   1      35.676  23.020  24.894  1.00  0.00    -0.047 A 
ATOM      9  C   UNL A   1      35.156  24.322  24.885  1.00  0.00     0.011 A 
ATOM     10  C   UNL A   1      34.774  21.945  24.896  1.00  0.00     0.016 A 
ATOM     11  C   UNL A   1      33.389  22.161  24.921  1.00  0.00     0.023 A 
ATOM     12  C   UNL A   1      32.895  23.473  24.899  1.00  0.00     0.020 A 
BRANCH   8  13
ATOM     13  C   UNL A   1      37.156  22.709  24.942  1.00  0.00     0.032 C 
ATOM     14  C   UNL A   1      37.569  21.264  24.694  1.00  0.00     0.009 C 
ENDBRANCH   8  13
BRANCH  11  15
ATOM     15  C   UNL A   1      32.415  21.030  24.927  1.00  0.00     0.193 C 
ATOM     16  O   UNL A   1      31.324  21.159  25.480  1.00  0.00    -0.289 OA
BRANCH  15  17
ATOM     17  C   UNL A   1      32.707  19.746  24.245  1.00  0.00     0.022 A 
ATOM     18  C   UNL A   1      33.550  18.832  24.886  1.00  0.00     0.012 A 
ATOM     19  C   UNL A   1      32.177  19.449  22.985  1.00  0.00     0.012 A 
ATOM     20  C   UNL A   1      33.824  17.601  24.288  1.00  0.00     0.001 A 
ATOM     21  C   UNL A   1      32.452  18.216  22.393  1.00  0.00     0.001 A 
ATOM     22  C   UNL A   1      33.269  17.291  23.046  1.00  0.00     0.000 A 
ENDBRANCH  15  17
ENDBRANCH  11  15
ENDBRANCH   6   7
ENDBRANCH   3   5
ENDBRANCH   2   3
ENDBRANCH   1   2
BRANCH   1  23
ATOM     23  C   UNL A   1      33.088  30.062  25.926  1.00  0.00     0.275 C 
BRANCH  23  24
ATOM     24  O   UNL A   1      32.861  30.573  27.253  1.00  0.00    -0.458 OA
BRANCH  24  25
ATOM     25  C   UNL A   1      33.632  31.636  27.589  1.00  0.00     0.338 C 
ATOM     26  O   UNL A   1      33.274  32.801  27.669  1.00  0.00    -0.246 OA
BRANCH  25  27
ATOM     27  C   UNL A   1      34.989  31.198  27.967  1.00  0.00     0.060 A 
ATOM     28  C   UNL A   1      35.140  29.878  28.402  1.00  0.00     0.016 A 
ATOM     29  C   UNL A   1      36.074  32.079  27.992  1.00  0.00     0.016 A 
ATOM     30  C   UNL A   1      36.367  29.442  28.897  1.00  0.00     0.010 A 
ATOM     31  C   UNL A   1      37.306  31.638  28.491  1.00  0.00     0.010 A 
ATOM     32  C   UNL A   1      37.452  30.327  28.974  1.00  0.00    -0.014 A 
BRANCH  32  33
ATOM     33  C   UNL A   1      38.701  29.873  29.634  1.00  0.00     0.031 A 
ATOM     34  C   UNL A   1      39.058  30.382  31.002  1.00  0.00     0.074 A 
ATOM     35  C   UNL A   1      39.496  28.975  29.024  1.00  0.00     0.049 A 
ATOM     36  N   UNL A   1      40.052  30.032  31.780  1.00  0.00    -0.248 NA
ATOM     37  C   UNL A   1      38.188  31.422  31.572  1.00  0.00     0.031 C 
ATOM     38  C   UNL A   1      39.278  28.428  27.684  1.00  0.00     0.029 A 
ATOM     39  N   UNL A   1      40.652  28.369  29.450  1.00  0.00    -0.354 N 
ATOM     40  C   UNL A   1      39.941  30.822  32.917  1.00  0.00     0.074 A 
ATOM     41  C   UNL A   1      38.794  31.682  32.722  1.00  0.00     0.031 C 
ATOM     42  C   UNL A   1      40.272  27.573  27.395  1.00  0.00     0.029 A 
ATOM     43  C   UNL A   1      41.199  27.514  28.524  1.00  0.00     0.049 A 
ATOM     44  H   UNL A   1      41.050  28.531  30.336  1.00  0.00     0.167 HD
ATOM     45  C   UNL A   1      40.711  30.819  34.033  1.00  0.00     0.034 A 
ATOM     46  C   UNL A   1      42.320  26.767  28.579  1.00  0.00     0.034 A 
ATOM     47  C   UNL A   1      41.835  29.945  34.241  1.00  0.00     0.049 A 
ATOM     48  C   UNL A   1      43.135  26.751  29.844  1.00  0.00     0.074 A 
ATOM     49  C   UNL A   1      42.640  29.828  35.361  1.00  0.00     0.029 A 
ATOM     50  N   UNL A   1      42.321  29.045  33.306  1.00  0.00    -0.354 N 
ATOM     51  N   UNL A   1      42.926  27.391  30.968  1.00  0.00    -0.248 NA
ATOM     52  C   UNL A   1      44.314  25.873  29.863  1.00  0.00     0.031 C 
ATOM     53  C   UNL A   1      43.620  28.864  35.098  1.00  0.00     0.029 A 
ATOM     54  C   UNL A   1      43.416  28.370  33.819  1.00  0.00     0.049 A 
ATOM     55  H   UNL A   1      41.944  28.906  32.406  1.00  0.00     0.167 HD
ATOM     56  C   UNL A   1      43.928  26.973  31.838  1.00  0.00     0.074 A 
ATOM     57  C   UNL A   1      44.727  26.003  31.117  1.00  0.00     0.031 C 
ATOM     58  C   UNL A   1      44.174  27.367  33.113  1.00  0.00     0.034 A 
BRANCH  45  59
ATOM     59  C   UNL A   1      40.331  31.769  35.137  1.00  0.00     0.023 A 
ATOM     60  C   UNL A   1      40.977  33.020  35.230  1.00  0.00     0.012 A 
ATOM     61  C   UNL A   1      39.314  31.448  36.057  1.00  0.00     0.148 A 
ATOM     62  C   UNL A   1      40.641  33.921  36.240  1.00  0.00     0.002 A 
ATOM     63  C   UNL A   1      38.959  32.368  37.038  1.00  0.00     0.091 A 
ATOM     64  F   UNL A   1      38.729  30.245  35.972  1.00  0.00    -0.205 F 
ATOM     65  C   UNL A   1      39.626  33.598  37.137  1.00  0.00     0.022 A 
BRANCH  63  66
ATOM     66  S   UNL A   1      37.614  32.066  38.192  1.00  0.00     0.127 S 
ATOM     67  O   UNL A   1      38.253  32.363  39.473  1.00  0.00    -0.237 OA
ATOM     68  O   UNL A   1      36.612  33.045  37.769  1.00  0.00    -0.237 OA
ATOM     69  O   UNL A   1      37.222  30.678  37.986  1.00  0.00    -0.744 OA
ENDBRANCH  63  66
ENDBRANCH  45  59
BRANCH  46  70
ATOM     70  C   UNL A   1      42.689  25.913  27.416  1.00  0.00     0.023 A 
ATOM     71  C   UNL A   1      43.548  26.424  26.423  1.00  0.00     0.012 A 
ATOM     72  C   UNL A   1      42.227  24.586  27.311  1.00  0.00     0.148 A 
ATOM     73  C   UNL A   1      43.925  25.635  25.337  1.00  0.00     0.002 A 
ATOM     74  C   UNL A   1      42.650  23.789  26.254  1.00  0.00     0.091 A 
ATOM     75  F   UNL A   1      41.396  24.128  28.257  1.00  0.00    -0.205 F 
ATOM     76  C   UNL A   1      43.486  24.315  25.258  1.00  0.00     0.022 A 
BRANCH  74  77
ATOM     77  S   UNL A   1      42.239  22.044  26.142  1.00  0.00     0.127 S 
ATOM     78  O   UNL A   1      40.802  22.091  25.890  1.00  0.00    -0.237 OA
ATOM     79  O   UNL A   1      43.052  21.615  25.003  1.00  0.00    -0.237 OA
ATOM     80  O   UNL A   1      42.641  21.464  27.418  1.00  0.00    -0.744 OA
ENDBRANCH  74  77
ENDBRANCH  46  70
BRANCH  58  81
ATOM     81  C   UNL A   1      45.341  26.734  33.826  1.00  0.00     0.023 A 
ATOM     82  C   UNL A   1      46.600  27.366  33.801  1.00  0.00     0.012 A 
ATOM     83  C   UNL A   1      45.180  25.548  34.568  1.00  0.00     0.148 A 
ATOM     84  C   UNL A   1      47.688  26.807  34.471  1.00  0.00     0.002 A 
ATOM     85  C   UNL A   1      46.258  25.020  35.271  1.00  0.00     0.091 A 
ATOM     86  F   UNL A   1      43.981  24.945  34.565  1.00  0.00    -0.205 F 
ATOM     87  C   UNL A   1      47.515  25.642  35.215  1.00  0.00     0.022 A 
BRANCH  85  88
ATOM     88  S   UNL A   1      46.084  23.574  36.323  1.00  0.00     0.127 S 
ATOM     89  O   UNL A   1      44.924  23.931  37.136  1.00  0.00    -0.237 OA
ATOM     90  O   UNL A   1      45.843  22.502  35.355  1.00  0.00    -0.237 OA
ATOM     91  O   UNL A   1      47.349  23.458  37.037  1.00  0.00    -0.744 OA
ENDBRANCH  85  88
ENDBRANCH  58  81
ENDBRANCH  32  33
ENDBRANCH  25  27
ENDBRANCH  24  25
ENDBRANCH  23  24
ENDBRANCH   1  23
TORSDOF 18
ENDMDL
MODEL 3
REMARK VINA RESULT:     -11.8      4.280      8.076
REMARK SMILES CCc1cc(/C=C/C(=O)OCCOC(=O)c2ccc(-c3c4nc(c(-c5cccc(S(=O)(=O)[O-])c5F)c5ccc([nH]5)c(-c5cccc(S(=O)(=O)[O-])c5F)c5nc(c(-c6cccc(S(=O)(=O)[O-])c6F)c6ccc3[nH]6)C=C5)C=C4)cc2)cc(C(=O)c2ccccc2)c1
REMARK SMILES IDX 11 1 10 2 8 3 9 4 7 5 6 6 5 7 3 8 4 9 89 10 80 11 79 12 2 13
REMARK SMILES IDX 1 14 81 15 82 16 83 17 84 18 88 19 85 20 87 21 86 22 12 23
REMARK SMILES IDX 13 24 14 25 15 26 16 27 17 28 78 29 18 30 77 31 19 32 20 33
REMARK SMILES IDX 21 34 71 35 22 36 76 37 70 38 72 39 23 40 75 41 69 42 68 43
REMARK SMILES IDX 24 45 56 46 36 47 55 48 37 49 40 50 54 51 73 52 38 53 39 54
REMARK SMILES IDX 53 56 74 57 41 58 25 59 26 60 34 61 27 62 29 63 35 64 28 65
REMARK SMILES IDX 30 66 31 67 32 68 33 69 57 70 58 71 66 72 59 73 61 74 67 75
REMARK SMILES IDX 60 76 62 77 63 78 64 79 65 80 42 81 43 82 51 83 44 84 46 85
REMARK SMILES IDX 52 86 45 87 47 88 48 89 49 90 50 91
REMARK H PARENT 72 44 40 55
REMARK Flexibility Score: inf
ROOT
ATOM      1  C   UNL A   1      41.732  19.582  26.572  1.00  0.00     0.275 C 
ENDROOT
BRANCH   1   2
ATOM      2  O   UNL A   1      42.284  19.026  25.364  1.00  0.00    -0.459 OA
BRANCH   2   3
ATOM      3  C   UNL A   1      43.492  19.512  24.994  1.00  0.00     0.330 C 
ATOM      4  O   UNL A   1      44.103  19.222  23.975  1.00  0.00    -0.247 OA
BRANCH   3   5
ATOM      5  C   UNL A   1      44.016  20.522  25.936  1.00  0.00     0.094 C 
ATOM      6  C   UNL A   1      44.215  21.822  25.660  1.00  0.00     0.015 C 
BRANCH   6   7
ATOM      7  C   UNL A   1      44.843  22.751  26.615  1.00  0.00    -0.024 A 
ATOM      8  C   UNL A   1      44.876  23.859  28.801  1.00  0.00    -0.047 A 
ATOM      9  C   UNL A   1      44.270  22.998  27.875  1.00  0.00     0.011 A 
ATOM     10  C   UNL A   1      46.090  24.467  28.448  1.00  0.00     0.016 A 
ATOM     11  C   UNL A   1      46.703  24.200  27.216  1.00  0.00     0.023 A 
ATOM     12  C   UNL A   1      46.070  23.345  26.301  1.00  0.00     0.020 A 
BRANCH   8  13
ATOM     13  C   UNL A   1      44.312  24.137  30.177  1.00  0.00     0.032 C 
ATOM     14  C   UNL A   1      43.402  23.074  30.782  1.00  0.00     0.009 C 
ENDBRANCH   8  13
BRANCH  11  15
ATOM     15  C   UNL A   1      47.995  24.835  26.825  1.00  0.00     0.193 C 
ATOM     16  O   UNL A   1      49.027  24.556  27.431  1.00  0.00    -0.289 OA
BRANCH  15  17
ATOM     17  C   UNL A   1      48.085  25.780  25.685  1.00  0.00     0.022 A 
ATOM     18  C   UNL A   1      46.926  26.456  25.291  1.00  0.00     0.012 A 
ATOM     19  C   UNL A   1      49.287  25.987  24.999  1.00  0.00     0.012 A 
ATOM     20  C   UNL A   1      46.979  27.375  24.242  1.00  0.00     0.001 A 
ATOM     21  C   UNL A   1      49.335  26.908  23.952  1.00  0.00     0.001 A 
ATOM     22  C   UNL A   1      48.185  27.606  23.579  1.00  0.00     0.000 A 
ENDBRANCH  15  17
ENDBRANCH  11  15
ENDBRANCH   6   7
ENDBRANCH   3   5
ENDBRANCH   2   3
ENDBRANCH   1   2
BRANCH   1  23
ATOM     23  C   UNL A   1      40.396  20.284  26.303  1.00  0.00     0.275 C 
BRANCH  23  24
ATOM     24  O   UNL A   1      40.205  21.426  27.158  1.00  0.00    -0.458 OA
BRANCH  24  25
ATOM     25  C   UNL A   1      39.464  22.422  26.614  1.00  0.00     0.338 C 
ATOM     26  O   UNL A   1      38.403  22.302  26.022  1.00  0.00    -0.246 OA
BRANCH  25  27
ATOM     27  C   UNL A   1      40.054  23.739  26.922  1.00  0.00     0.060 A 
ATOM     28  C   UNL A   1      40.646  23.900  28.177  1.00  0.00     0.016 A 
ATOM     29  C   UNL A   1      39.945  24.824  26.047  1.00  0.00     0.016 A 
ATOM     30  C   UNL A   1      41.102  25.154  28.579  1.00  0.00     0.010 A 
ATOM     31  C   UNL A   1      40.404  26.083  26.452  1.00  0.00     0.010 A 
ATOM     32  C   UNL A   1      40.957  26.262  27.732  1.00  0.00    -0.014 A 
BRANCH  32  33
ATOM     33  C   UNL A   1      41.325  27.606  28.242  1.00  0.00     0.031 A 
ATOM     34  C   UNL A   1      42.759  28.056  28.215  1.00  0.00     0.074 A 
ATOM     35  C   UNL A   1      40.369  28.441  28.691  1.00  0.00     0.049 A 
ATOM     36  N   UNL A   1      43.264  29.223  28.524  1.00  0.00    -0.248 NA
ATOM     37  C   UNL A   1      43.758  27.064  27.789  1.00  0.00     0.031 C 
ATOM     38  C   UNL A   1      38.947  28.113  28.796  1.00  0.00     0.029 A 
ATOM     39  N   UNL A   1      40.452  29.732  29.147  1.00  0.00    -0.354 N 
ATOM     40  C   UNL A   1      44.637  29.102  28.354  1.00  0.00     0.074 A 
ATOM     41  C   UNL A   1      44.889  27.741  27.930  1.00  0.00     0.031 C 
ATOM     42  C   UNL A   1      38.292  29.174  29.295  1.00  0.00     0.029 A 
ATOM     43  C   UNL A   1      39.245  30.253  29.548  1.00  0.00     0.049 A 
ATOM     44  H   UNL A   1      41.296  30.237  29.184  1.00  0.00     0.167 HD
ATOM     45  C   UNL A   1      45.601  30.041  28.513  1.00  0.00     0.034 A 
ATOM     46  C   UNL A   1      38.941  31.463  30.059  1.00  0.00     0.034 A 
ATOM     47  C   UNL A   1      45.349  31.402  28.907  1.00  0.00     0.049 A 
ATOM     48  C   UNL A   1      40.023  32.502  30.190  1.00  0.00     0.074 A 
ATOM     49  C   UNL A   1      46.254  32.442  29.040  1.00  0.00     0.029 A 
ATOM     50  N   UNL A   1      44.105  31.913  29.242  1.00  0.00    -0.354 N 
ATOM     51  N   UNL A   1      41.293  32.415  29.877  1.00  0.00    -0.248 NA
ATOM     52  C   UNL A   1      39.620  33.820  30.700  1.00  0.00     0.031 C 
ATOM     53  C   UNL A   1      45.557  33.578  29.466  1.00  0.00     0.029 A 
ATOM     54  C   UNL A   1      44.216  33.250  29.584  1.00  0.00     0.049 A 
ATOM     55  H   UNL A   1      43.264  31.399  29.238  1.00  0.00     0.167 HD
ATOM     56  C   UNL A   1      41.834  33.672  30.123  1.00  0.00     0.074 A 
ATOM     57  C   UNL A   1      40.747  34.510  30.586  1.00  0.00     0.031 C 
ATOM     58  C   UNL A   1      43.118  34.091  29.993  1.00  0.00     0.034 A 
BRANCH  45  59
ATOM     59  C   UNL A   1      47.020  29.633  28.219  1.00  0.00     0.023 A 
ATOM     60  C   UNL A   1      47.565  29.889  26.944  1.00  0.00     0.012 A 
ATOM     61  C   UNL A   1      47.826  29.038  29.208  1.00  0.00     0.148 A 
ATOM     62  C   UNL A   1      48.879  29.526  26.646  1.00  0.00     0.002 A 
ATOM     63  C   UNL A   1      49.147  28.714  28.916  1.00  0.00     0.091 A 
ATOM     64  F   UNL A   1      47.285  28.777  30.407  1.00  0.00    -0.205 F 
ATOM     65  C   UNL A   1      49.671  28.948  27.635  1.00  0.00     0.022 A 
BRANCH  63  66
ATOM     66  S   UNL A   1      50.262  28.031  30.149  1.00  0.00     0.127 S 
ATOM     67  O   UNL A   1      49.591  26.778  30.492  1.00  0.00    -0.237 OA
ATOM     68  O   UNL A   1      51.505  27.869  29.392  1.00  0.00    -0.237 OA
ATOM     69  O   UNL A   1      50.330  29.024  31.212  1.00  0.00    -0.744 OA
ENDBRANCH  63  66
ENDBRANCH  45  59
BRANCH  46  70
ATOM     70  C   UNL A   1      37.529  31.775  30.414  1.00  0.00     0.023 A 
ATOM     71  C   UNL A   1      37.086  31.582  31.737  1.00  0.00     0.012 A 
ATOM     72  C   UNL A   1      36.638  32.301  29.459  1.00  0.00     0.148 A 
ATOM     73  C   UNL A   1      35.774  31.889  32.097  1.00  0.00     0.002 A 
ATOM     74  C   UNL A   1      35.348  32.654  29.837  1.00  0.00     0.091 A 
ATOM     75  F   UNL A   1      37.076  32.458  28.202  1.00  0.00    -0.205 F 
ATOM     76  C   UNL A   1      34.910  32.435  31.152  1.00  0.00     0.022 A 
BRANCH  74  77
ATOM     77  S   UNL A   1      34.210  33.481  28.721  1.00  0.00     0.127 S 
ATOM     78  O   UNL A   1      35.118  34.308  27.929  1.00  0.00    -0.237 OA
ATOM     79  O   UNL A   1      33.618  32.352  28.001  1.00  0.00    -0.237 OA
ATOM     80  O   UNL A   1      33.277  34.203  29.576  1.00  0.00    -0.744 OA
ENDBRANCH  74  77
ENDBRANCH  46  70
BRANCH  58  81
ATOM     81  C   UNL A   1      43.421  35.528  30.332  1.00  0.00     0.023 A 
ATOM     82  C   UNL A   1      43.911  35.855  31.611  1.00  0.00     0.012 A 
ATOM     83  C   UNL A   1      43.275  36.545  29.369  1.00  0.00     0.148 A 
ATOM     84  C   UNL A   1      44.217  37.176  31.938  1.00  0.00     0.002 A 
ATOM     85  C   UNL A   1      43.624  37.854  29.688  1.00  0.00     0.091 A 
ATOM     86  F   UNL A   1      42.785  36.224  28.162  1.00  0.00    -0.205 F 
ATOM     87  C   UNL A   1      44.084  38.173  30.974  1.00  0.00     0.022 A 
BRANCH  85  88
ATOM     88  S   UNL A   1      43.565  39.171  28.468  1.00  0.00     0.127 S 
ATOM     89  O   UNL A   1      43.905  40.342  29.273  1.00  0.00    -0.237 OA
ATOM     90  O   UNL A   1      44.600  38.769  27.513  1.00  0.00    -0.237 OA
ATOM     91  O   UNL A   1      42.212  39.143  27.928  1.00  0.00    -0.744 OA
ENDBRANCH  85  88
ENDBRANCH  58  81
ENDBRANCH  32  33
ENDBRANCH  25  27
ENDBRANCH  24  25
ENDBRANCH  23  24
ENDBRANCH   1  23
TORSDOF 18
ENDMDL
