MODEL 1
REMARK VINA RESULT:     -10.7      0.000      0.000
REMARK SMILES O=C(C[C@](O)(c1ccco1)C(F)(F)F)OCCOC(=O)c1ccc(-c2c3nc(c(-c4cccc(S(=O)(=O)[O-])c4F)c4ccc([nH]4)c(-c4cccc(S(=O)(=O)[O-])c4F)c4nc(c(-c5cccc(S(=O)(=O)[O-])c5F)c5ccc2[nH]5)C=C4)C=C3)cc1
REMARK SMILES IDX 17 1 16 2 15 3 2 4 1 5 3 6 4 7 6 8 7 9 10 10 8 11 9 12 11 13
REMARK SMILES IDX 12 14 13 15 14 16 5 17 18 19 19 20 20 21 21 22 22 23 83 24
REMARK SMILES IDX 23 25 82 26 24 27 25 28 26 29 76 30 27 31 81 32 75 33 77 34
REMARK SMILES IDX 28 35 80 36 74 37 73 38 29 40 61 41 41 42 60 43 42 44 45 45
REMARK SMILES IDX 59 46 78 47 43 48 44 49 58 51 79 52 46 53 30 54 31 55 39 56
REMARK SMILES IDX 32 57 34 58 40 59 33 60 35 61 36 62 37 63 38 64 62 65 63 66
REMARK SMILES IDX 71 67 64 68 66 69 72 70 65 71 67 72 68 73 69 74 70 75 47 76
REMARK SMILES IDX 48 77 56 78 49 79 51 80 57 81 50 82 52 83 53 84 54 85 55 86
REMARK H PARENT 5 18 77 39 45 50
REMARK Flexibility Score: inf
ROOT
ATOM      1  C   UNL A   1      33.036  35.595  28.632  1.00  0.00     0.275 C 
ENDROOT
BRANCH   1   2
ATOM      2  C   UNL A   1      33.443  36.985  29.119  1.00  0.00     0.274 C 
BRANCH   2   3
ATOM      3  O   UNL A   1      32.781  37.316  30.358  1.00  0.00    -0.462 OA
BRANCH   3   4
ATOM      4  C   UNL A   1      33.400  37.592  31.525  1.00  0.00     0.309 C 
ATOM      5  O   UNL A   1      33.078  38.588  32.174  1.00  0.00    -0.252 OA
BRANCH   4   6
ATOM      6  C   UNL A   1      34.484  36.681  32.042  1.00  0.00     0.176 C 
BRANCH   6   7
ATOM      7  C   UNL A   1      34.083  35.768  33.207  1.00  0.00     0.229 C 
BRANCH   7   8
ATOM      8  C   UNL A   1      35.263  35.164  33.919  1.00  0.00     0.145 A 
ATOM      9  C   UNL A   1      35.380  34.412  35.075  1.00  0.00     0.049 A 
ATOM     10  O   UNL A   1      36.490  35.270  33.323  1.00  0.00    -0.466 OA
ATOM     11  C   UNL A   1      36.736  34.023  35.171  1.00  0.00     0.042 A 
ATOM     12  C   UNL A   1      37.372  34.583  34.089  1.00  0.00     0.195 A 
ENDBRANCH   7   8
BRANCH   7  13
ATOM     13  C   UNL A   1      33.142  34.658  32.675  1.00  0.00     0.425 C 
ATOM     14  F   UNL A   1      31.854  35.058  32.628  1.00  0.00    -0.167 F 
ATOM     15  F   UNL A   1      33.504  34.338  31.406  1.00  0.00    -0.167 F 
ATOM     16  F   UNL A   1      33.205  33.528  33.411  1.00  0.00    -0.167 F 
ENDBRANCH   7  13
BRANCH   7  17
ATOM     17  O   UNL A   1      33.376  36.605  34.166  1.00  0.00    -0.374 OA
ATOM     18  H   UNL A   1      33.666  37.525  34.068  1.00  0.00     0.212 HD
ENDBRANCH   7  17
ENDBRANCH   6   7
ENDBRANCH   4   6
ENDBRANCH   3   4
ENDBRANCH   2   3
ENDBRANCH   1   2
BRANCH   1  19
ATOM     19  O   UNL A   1      34.199  34.763  28.479  1.00  0.00    -0.458 OA
BRANCH  19  20
ATOM     20  C   UNL A   1      33.962  33.480  28.107  1.00  0.00     0.338 C 
ATOM     21  O   UNL A   1      33.026  33.074  27.440  1.00  0.00    -0.246 OA
BRANCH  20  22
ATOM     22  C   UNL A   1      35.136  32.660  28.471  1.00  0.00     0.060 A 
ATOM     23  C   UNL A   1      34.943  31.296  28.734  1.00  0.00     0.016 A 
ATOM     24  C   UNL A   1      36.416  33.218  28.540  1.00  0.00     0.016 A 
ATOM     25  C   UNL A   1      36.025  30.495  29.103  1.00  0.00     0.010 A 
ATOM     26  C   UNL A   1      37.494  32.419  28.921  1.00  0.00     0.010 A 
ATOM     27  C   UNL A   1      37.298  31.064  29.237  1.00  0.00    -0.014 A 
BRANCH  27  28
ATOM     28  C   UNL A   1      38.392  30.321  29.904  1.00  0.00     0.031 A 
ATOM     29  C   UNL A   1      38.738  30.698  31.317  1.00  0.00     0.074 A 
ATOM     30  C   UNL A   1      39.114  29.394  29.252  1.00  0.00     0.049 A 
ATOM     31  N   UNL A   1      39.717  30.276  32.073  1.00  0.00    -0.248 NA
ATOM     32  C   UNL A   1      37.868  31.698  31.959  1.00  0.00     0.031 C 
ATOM     33  C   UNL A   1      38.883  28.950  27.880  1.00  0.00     0.029 A 
ATOM     34  N   UNL A   1      40.222  28.689  29.655  1.00  0.00    -0.354 N 
ATOM     35  C   UNL A   1      39.600  30.978  33.266  1.00  0.00     0.074 A 
ATOM     36  C   UNL A   1      38.461  31.859  33.132  1.00  0.00     0.031 C 
ATOM     37  C   UNL A   1      39.847  28.076  27.539  1.00  0.00     0.029 A 
ATOM     38  C   UNL A   1      40.773  27.917  28.660  1.00  0.00     0.049 A 
ATOM     39  H   UNL A   1      40.585  28.732  30.569  1.00  0.00     0.167 HD
ATOM     40  C   UNL A   1      40.363  30.891  34.379  1.00  0.00     0.034 A 
ATOM     41  C   UNL A   1      41.908  27.188  28.651  1.00  0.00     0.034 A 
ATOM     42  C   UNL A   1      41.490  30.014  34.517  1.00  0.00     0.049 A 
ATOM     43  C   UNL A   1      42.754  27.119  29.899  1.00  0.00     0.074 A 
ATOM     44  C   UNL A   1      42.302  29.822  35.620  1.00  0.00     0.029 A 
ATOM     45  N   UNL A   1      41.974  29.190  33.513  1.00  0.00    -0.354 N 
ATOM     46  N   UNL A   1      42.557  27.687  31.064  1.00  0.00    -0.248 NA
ATOM     47  C   UNL A   1      43.963  26.283  29.839  1.00  0.00     0.031 C 
ATOM     48  C   UNL A   1      43.291  28.894  35.276  1.00  0.00     0.029 A 
ATOM     49  C   UNL A   1      43.080  28.492  33.967  1.00  0.00     0.049 A 
ATOM     50  H   UNL A   1      41.589  29.111  32.611  1.00  0.00     0.167 HD
ATOM     51  C   UNL A   1      43.589  27.244  31.886  1.00  0.00     0.074 A 
ATOM     52  C   UNL A   1      44.406  26.354  31.089  1.00  0.00     0.031 C 
ATOM     53  C   UNL A   1      43.843  27.555  33.182  1.00  0.00     0.034 A 
BRANCH  40  54
ATOM     54  C   UNL A   1      39.981  31.761  35.544  1.00  0.00     0.023 A 
ATOM     55  C   UNL A   1      40.614  33.010  35.715  1.00  0.00     0.012 A 
ATOM     56  C   UNL A   1      38.986  31.358  36.454  1.00  0.00     0.148 A 
ATOM     57  C   UNL A   1      40.287  33.829  36.794  1.00  0.00     0.002 A 
ATOM     58  C   UNL A   1      38.637  32.199  37.505  1.00  0.00     0.091 A 
ATOM     59  F   UNL A   1      38.420  30.154  36.293  1.00  0.00    -0.205 F 
ATOM     60  C   UNL A   1      39.293  33.428  37.683  1.00  0.00     0.022 A 
BRANCH  58  61
ATOM     61  S   UNL A   1      37.320  31.795  38.657  1.00  0.00     0.127 S 
ATOM     62  O   UNL A   1      37.978  32.010  39.945  1.00  0.00    -0.237 OA
ATOM     63  O   UNL A   1      36.298  32.788  38.323  1.00  0.00    -0.237 OA
ATOM     64  O   UNL A   1      36.943  30.419  38.363  1.00  0.00    -0.744 OA
ENDBRANCH  58  61
ENDBRANCH  40  54
BRANCH  41  65
ATOM     65  C   UNL A   1      42.292  26.428  27.429  1.00  0.00     0.023 A 
ATOM     66  C   UNL A   1      42.938  27.100  26.373  1.00  0.00     0.012 A 
ATOM     67  C   UNL A   1      42.041  25.047  27.314  1.00  0.00     0.148 A 
ATOM     68  C   UNL A   1      43.302  26.416  25.212  1.00  0.00     0.002 A 
ATOM     69  C   UNL A   1      42.452  24.361  26.176  1.00  0.00     0.091 A 
ATOM     70  F   UNL A   1      41.411  24.431  28.324  1.00  0.00    -0.205 F 
ATOM     71  C   UNL A   1      43.069  25.046  25.118  1.00  0.00     0.022 A 
BRANCH  69  72
ATOM     72  S   UNL A   1      42.298  22.579  26.014  1.00  0.00     0.127 S 
ATOM     73  O   UNL A   1      40.848  22.401  26.032  1.00  0.00    -0.237 OA
ATOM     74  O   UNL A   1      42.932  22.340  24.717  1.00  0.00    -0.237 OA
ATOM     75  O   UNL A   1      43.018  22.015  27.148  1.00  0.00    -0.744 OA
ENDBRANCH  69  72
ENDBRANCH  41  65
BRANCH  53  76
ATOM     76  C   UNL A   1      45.022  26.899  33.854  1.00  0.00     0.023 A 
ATOM     77  C   UNL A   1      46.275  27.541  33.855  1.00  0.00     0.012 A 
ATOM     78  C   UNL A   1      44.857  25.702  34.579  1.00  0.00     0.148 A 
ATOM     79  C   UNL A   1      47.351  26.992  34.552  1.00  0.00     0.002 A 
ATOM     80  C   UNL A   1      45.920  25.186  35.309  1.00  0.00     0.091 A 
ATOM     81  F   UNL A   1      43.660  25.097  34.550  1.00  0.00    -0.205 F 
ATOM     82  C   UNL A   1      47.170  25.823  35.289  1.00  0.00     0.022 A 
BRANCH  80  83
ATOM     83  S   UNL A   1      45.749  23.742  36.366  1.00  0.00     0.127 S 
ATOM     84  O   UNL A   1      47.109  23.585  36.879  1.00  0.00    -0.237 OA
ATOM     85  O   UNL A   1      44.773  24.195  37.357  1.00  0.00    -0.237 OA
ATOM     86  O   UNL A   1      45.277  22.668  35.503  1.00  0.00    -0.744 OA
ENDBRANCH  80  83
ENDBRANCH  53  76
ENDBRANCH  27  28
ENDBRANCH  20  22
ENDBRANCH  19  20
ENDBRANCH   1  19
TORSDOF 18
ENDMDL
MODEL 2
REMARK VINA RESULT:     -10.5      1.971      2.455
REMARK SMILES O=C(C[C@](O)(c1ccco1)C(F)(F)F)OCCOC(=O)c1ccc(-c2c3nc(c(-c4cccc(S(=O)(=O)[O-])c4F)c4ccc([nH]4)c(-c4cccc(S(=O)(=O)[O-])c4F)c4nc(c(-c5cccc(S(=O)(=O)[O-])c5F)c5ccc2[nH]5)C=C4)C=C3)cc1
REMARK SMILES IDX 17 1 16 2 15 3 2 4 1 5 3 6 4 7 6 8 7 9 10 10 8 11 9 12 11 13
REMARK SMILES IDX 12 14 13 15 14 16 5 17 18 19 19 20 20 21 21 22 22 23 83 24
REMARK SMILES IDX 23 25 82 26 24 27 25 28 26 29 76 30 27 31 81 32 75 33 77 34
REMARK SMILES IDX 28 35 80 36 74 37 73 38 29 40 61 41 41 42 60 43 42 44 45 45
REMARK SMILES IDX 59 46 78 47 43 48 44 49 58 51 79 52 46 53 30 54 31 55 39 56
REMARK SMILES IDX 32 57 34 58 40 59 33 60 35 61 36 62 37 63 38 64 62 65 63 66
REMARK SMILES IDX 71 67 64 68 66 69 72 70 65 71 67 72 68 73 69 74 70 75 47 76
REMARK SMILES IDX 48 77 56 78 49 79 51 80 57 81 50 82 52 83 53 84 54 85 55 86
REMARK H PARENT 5 18 77 39 45 50
REMARK Flexibility Score: inf
ROOT
ATOM      1  C   UNL A   1      33.050  34.490  28.459  1.00  0.00     0.275 C 
ENDROOT
BRANCH   1   2
ATOM      2  C   UNL A   1      33.693  35.806  28.894  1.00  0.00     0.274 C 
BRANCH   2   3
ATOM      3  O   UNL A   1      33.245  36.194  30.209  1.00  0.00    -0.462 OA
BRANCH   3   4
ATOM      4  C   UNL A   1      33.297  35.419  31.312  1.00  0.00     0.309 C 
ATOM      5  O   UNL A   1      32.403  35.486  32.157  1.00  0.00    -0.252 OA
BRANCH   4   6
ATOM      6  C   UNL A   1      34.445  34.463  31.514  1.00  0.00     0.176 C 
BRANCH   6   7
ATOM      7  C   UNL A   1      35.324  34.733  32.742  1.00  0.00     0.229 C 
BRANCH   7   8
ATOM      8  C   UNL A   1      36.795  34.586  32.461  1.00  0.00     0.145 A 
ATOM      9  C   UNL A   1      37.511  34.351  31.300  1.00  0.00     0.049 A 
ATOM     10  O   UNL A   1      37.666  34.792  33.495  1.00  0.00    -0.466 OA
ATOM     11  C   UNL A   1      38.881  34.444  31.642  1.00  0.00     0.042 A 
ATOM     12  C   UNL A   1      38.921  34.699  32.992  1.00  0.00     0.195 A 
ENDBRANCH   7   8
BRANCH   7  13
ATOM     13  C   UNL A   1      34.892  33.784  33.887  1.00  0.00     0.425 C 
ATOM     14  F   UNL A   1      33.644  33.301  33.709  1.00  0.00    -0.167 F 
ATOM     15  F   UNL A   1      35.729  32.714  33.919  1.00  0.00    -0.167 F 
ATOM     16  F   UNL A   1      34.945  34.375  35.100  1.00  0.00    -0.167 F 
ENDBRANCH   7  13
BRANCH   7  17
ATOM     17  O   UNL A   1      35.088  36.118  33.125  1.00  0.00    -0.374 OA
ATOM     18  H   UNL A   1      34.247  36.419  32.749  1.00  0.00     0.212 HD
ENDBRANCH   7  17
ENDBRANCH   6   7
ENDBRANCH   4   6
ENDBRANCH   3   4
ENDBRANCH   2   3
ENDBRANCH   1   2
BRANCH   1  19
ATOM     19  O   UNL A   1      33.975  33.722  27.669  1.00  0.00    -0.458 OA
BRANCH  19  20
ATOM     20  C   UNL A   1      33.755  32.384  27.637  1.00  0.00     0.338 C 
ATOM     21  O   UNL A   1      32.781  31.815  27.175  1.00  0.00    -0.246 OA
BRANCH  20  22
ATOM     22  C   UNL A   1      34.986  31.693  28.077  1.00  0.00     0.060 A 
ATOM     23  C   UNL A   1      34.930  30.312  28.310  1.00  0.00     0.016 A 
ATOM     24  C   UNL A   1      36.185  32.390  28.246  1.00  0.00     0.016 A 
ATOM     25  C   UNL A   1      36.067  29.630  28.747  1.00  0.00     0.010 A 
ATOM     26  C   UNL A   1      37.317  31.710  28.694  1.00  0.00     0.010 A 
ATOM     27  C   UNL A   1      37.254  30.335  28.980  1.00  0.00    -0.014 A 
BRANCH  27  28
ATOM     28  C   UNL A   1      38.375  29.707  29.717  1.00  0.00     0.031 A 
ATOM     29  C   UNL A   1      38.566  30.081  31.160  1.00  0.00     0.074 A 
ATOM     30  C   UNL A   1      39.250  28.890  29.106  1.00  0.00     0.049 A 
ATOM     31  N   UNL A   1      39.528  29.756  31.982  1.00  0.00    -0.248 NA
ATOM     32  C   UNL A   1      37.536  30.954  31.751  1.00  0.00     0.031 C 
ATOM     33  C   UNL A   1      39.179  28.462  27.711  1.00  0.00     0.029 A 
ATOM     34  N   UNL A   1      40.400  28.309  29.581  1.00  0.00    -0.354 N 
ATOM     35  C   UNL A   1      39.237  30.405  33.175  1.00  0.00     0.074 A 
ATOM     36  C   UNL A   1      38.015  31.150  32.970  1.00  0.00     0.031 C 
ATOM     37  C   UNL A   1      40.263  27.717  27.430  1.00  0.00     0.029 A 
ATOM     38  C   UNL A   1      41.113  27.636  28.618  1.00  0.00     0.049 A 
ATOM     39  H   UNL A   1      40.686  28.369  30.521  1.00  0.00     0.167 HD
ATOM     40  C   UNL A   1      39.919  30.376  34.343  1.00  0.00     0.034 A 
ATOM     41  C   UNL A   1      42.324  27.046  28.684  1.00  0.00     0.034 A 
ATOM     42  C   UNL A   1      41.129  29.633  34.553  1.00  0.00     0.049 A 
ATOM     43  C   UNL A   1      43.076  27.041  29.993  1.00  0.00     0.074 A 
ATOM     44  C   UNL A   1      41.872  29.506  35.713  1.00  0.00     0.029 A 
ATOM     45  N   UNL A   1      41.782  28.901  33.574  1.00  0.00    -0.354 N 
ATOM     46  N   UNL A   1      42.724  27.548  31.150  1.00  0.00    -0.248 NA
ATOM     47  C   UNL A   1      44.377  26.355  30.012  1.00  0.00     0.031 C 
ATOM     48  C   UNL A   1      42.987  28.712  35.430  1.00  0.00     0.029 A 
ATOM     49  C   UNL A   1      42.925  28.325  34.100  1.00  0.00     0.049 A 
ATOM     50  H   UNL A   1      41.478  28.804  32.643  1.00  0.00     0.167 HD
ATOM     51  C   UNL A   1      43.736  27.206  32.042  1.00  0.00     0.074 A 
ATOM     52  C   UNL A   1      44.711  26.441  31.294  1.00  0.00     0.031 C 
ATOM     53  C   UNL A   1      43.852  27.507  33.360  1.00  0.00     0.034 A 
BRANCH  40  54
ATOM     54  C   UNL A   1      39.348  31.162  35.492  1.00  0.00     0.023 A 
ATOM     55  C   UNL A   1      38.307  30.605  36.263  1.00  0.00     0.012 A 
ATOM     56  C   UNL A   1      39.852  32.433  35.822  1.00  0.00     0.148 A 
ATOM     57  C   UNL A   1      37.752  31.318  37.325  1.00  0.00     0.002 A 
ATOM     58  C   UNL A   1      39.321  33.121  36.907  1.00  0.00     0.091 A 
ATOM     59  F   UNL A   1      40.820  32.958  35.057  1.00  0.00    -0.205 F 
ATOM     60  C   UNL A   1      38.265  32.571  37.652  1.00  0.00     0.022 A 
BRANCH  58  61
ATOM     61  S   UNL A   1      39.967  34.709  37.443  1.00  0.00     0.127 S 
ATOM     62  O   UNL A   1      39.609  35.569  36.315  1.00  0.00    -0.237 OA
ATOM     63  O   UNL A   1      39.202  34.960  38.665  1.00  0.00    -0.237 OA
ATOM     64  O   UNL A   1      41.393  34.507  37.655  1.00  0.00    -0.744 OA
ENDBRANCH  58  61
ENDBRANCH  40  54
BRANCH  41  65
ATOM     65  C   UNL A   1      42.888  26.371  27.481  1.00  0.00     0.023 A 
ATOM     66  C   UNL A   1      43.765  27.083  26.639  1.00  0.00     0.012 A 
ATOM     67  C   UNL A   1      42.579  25.031  27.178  1.00  0.00     0.148 A 
ATOM     68  C   UNL A   1      44.303  26.480  25.501  1.00  0.00     0.002 A 
ATOM     69  C   UNL A   1      43.157  24.421  26.071  1.00  0.00     0.091 A 
ATOM     70  F   UNL A   1      41.729  24.379  27.984  1.00  0.00    -0.205 F 
ATOM     71  C   UNL A   1      44.007  25.147  25.222  1.00  0.00     0.022 A 
BRANCH  69  72
ATOM     72  S   UNL A   1      42.927  22.679  25.697  1.00  0.00     0.127 S 
ATOM     73  O   UNL A   1      43.716  22.041  26.748  1.00  0.00    -0.237 OA
ATOM     74  O   UNL A   1      41.478  22.531  25.838  1.00  0.00    -0.237 OA
ATOM     75  O   UNL A   1      43.420  22.498  24.339  1.00  0.00    -0.744 OA
ENDBRANCH  69  72
ENDBRANCH  41  65
BRANCH  53  76
ATOM     76  C   UNL A   1      45.047  26.975  34.109  1.00  0.00     0.023 A 
ATOM     77  C   UNL A   1      44.991  25.702  34.706  1.00  0.00     0.012 A 
ATOM     78  C   UNL A   1      46.260  27.694  34.123  1.00  0.00     0.148 A 
ATOM     79  C   UNL A   1      46.120  25.158  35.320  1.00  0.00     0.002 A 
ATOM     80  C   UNL A   1      47.391  27.127  34.696  1.00  0.00     0.091 A 
ATOM     81  F   UNL A   1      46.286  28.914  33.565  1.00  0.00    -0.205 F 
ATOM     82  C   UNL A   1      47.321  25.864  35.304  1.00  0.00     0.022 A 
BRANCH  80  83
ATOM     83  S   UNL A   1      49.002  27.922  34.631  1.00  0.00     0.127 S 
ATOM     84  O   UNL A   1      49.844  26.946  35.321  1.00  0.00    -0.237 OA
ATOM     85  O   UNL A   1      49.242  28.023  33.191  1.00  0.00    -0.237 OA
ATOM     86  O   UNL A   1      48.845  29.202  35.307  1.00  0.00    -0.744 OA
ENDBRANCH  80  83
ENDBRANCH  53  76
ENDBRANCH  27  28
ENDBRANCH  20  22
ENDBRANCH  19  20
ENDBRANCH   1  19
TORSDOF 18
ENDMDL
MODEL 3
REMARK VINA RESULT:     -10.3      2.399      2.981
REMARK SMILES O=C(C[C@](O)(c1ccco1)C(F)(F)F)OCCOC(=O)c1ccc(-c2c3nc(c(-c4cccc(S(=O)(=O)[O-])c4F)c4ccc([nH]4)c(-c4cccc(S(=O)(=O)[O-])c4F)c4nc(c(-c5cccc(S(=O)(=O)[O-])c5F)c5ccc2[nH]5)C=C4)C=C3)cc1
REMARK SMILES IDX 17 1 16 2 15 3 2 4 1 5 3 6 4 7 6 8 7 9 10 10 8 11 9 12 11 13
REMARK SMILES IDX 12 14 13 15 14 16 5 17 18 19 19 20 20 21 21 22 22 23 83 24
REMARK SMILES IDX 23 25 82 26 24 27 25 28 26 29 76 30 27 31 81 32 75 33 77 34
REMARK SMILES IDX 28 35 80 36 74 37 73 38 29 40 61 41 41 42 60 43 42 44 45 45
REMARK SMILES IDX 59 46 78 47 43 48 44 49 58 51 79 52 46 53 30 54 31 55 39 56
REMARK SMILES IDX 32 57 34 58 40 59 33 60 35 61 36 62 37 63 38 64 62 65 63 66
REMARK SMILES IDX 71 67 64 68 66 69 72 70 65 71 67 72 68 73 69 74 70 75 47 76
REMARK SMILES IDX 48 77 56 78 49 79 51 80 57 81 50 82 52 83 53 84 54 85 55 86
REMARK H PARENT 5 18 77 39 45 50
REMARK Flexibility Score: inf
ROOT
ATOM      1  C   UNL A   1      33.630  33.507  28.463  1.00  0.00     0.275 C 
ENDROOT
BRANCH   1   2
ATOM      2  C   UNL A   1      34.239  34.527  29.425  1.00  0.00     0.274 C 
BRANCH   2   3
ATOM      3  O   UNL A   1      33.507  34.572  30.667  1.00  0.00    -0.462 OA
BRANCH   3   4
ATOM      4  C   UNL A   1      33.949  35.126  31.815  1.00  0.00     0.309 C 
ATOM      5  O   UNL A   1      33.225  35.894  32.449  1.00  0.00    -0.252 OA
BRANCH   4   6
ATOM      6  C   UNL A   1      35.328  34.802  32.331  1.00  0.00     0.176 C 
BRANCH   6   7
ATOM      7  C   UNL A   1      35.430  33.548  33.209  1.00  0.00     0.229 C 
BRANCH   7   8
ATOM      8  C   UNL A   1      36.542  33.623  34.220  1.00  0.00     0.145 A 
ATOM      9  C   UNL A   1      37.833  34.118  34.163  1.00  0.00     0.049 A 
ATOM     10  O   UNL A   1      36.272  33.212  35.496  1.00  0.00    -0.466 OA
ATOM     11  C   UNL A   1      38.362  34.027  35.471  1.00  0.00     0.042 A 
ATOM     12  C   UNL A   1      37.378  33.454  36.241  1.00  0.00     0.195 A 
ENDBRANCH   7   8
BRANCH   7  13
ATOM     13  C   UNL A   1      35.607  32.309  32.297  1.00  0.00     0.425 C 
ATOM     14  F   UNL A   1      34.456  31.954  31.687  1.00  0.00    -0.167 F 
ATOM     15  F   UNL A   1      36.501  32.601  31.317  1.00  0.00    -0.167 F 
ATOM     16  F   UNL A   1      36.077  31.235  32.966  1.00  0.00    -0.167 F 
ENDBRANCH   7  13
BRANCH   7  17
ATOM     17  O   UNL A   1      34.177  33.453  33.944  1.00  0.00    -0.374 OA
ATOM     18  H   UNL A   1      33.433  33.556  33.330  1.00  0.00     0.212 HD
ENDBRANCH   7  17
ENDBRANCH   6   7
ENDBRANCH   4   6
ENDBRANCH   3   4
ENDBRANCH   2   3
ENDBRANCH   1   2
BRANCH   1  19
ATOM     19  O   UNL A   1      34.667  32.867  27.698  1.00  0.00    -0.458 OA
BRANCH  19  20
ATOM     20  C   UNL A   1      34.632  31.511  27.676  1.00  0.00     0.338 C 
ATOM     21  O   UNL A   1      33.876  30.810  27.025  1.00  0.00    -0.246 OA
BRANCH  20  22
ATOM     22  C   UNL A   1      35.800  30.998  28.423  1.00  0.00     0.060 A 
ATOM     23  C   UNL A   1      37.041  31.621  28.231  1.00  0.00     0.016 A 
ATOM     24  C   UNL A   1      35.676  29.927  29.313  1.00  0.00     0.016 A 
ATOM     25  C   UNL A   1      38.171  31.150  28.904  1.00  0.00     0.010 A 
ATOM     26  C   UNL A   1      36.808  29.450  29.974  1.00  0.00     0.010 A 
ATOM     27  C   UNL A   1      38.065  30.036  29.746  1.00  0.00    -0.014 A 
BRANCH  27  28
ATOM     28  C   UNL A   1      39.277  29.337  30.233  1.00  0.00     0.031 A 
ATOM     29  C   UNL A   1      39.949  29.870  31.467  1.00  0.00     0.074 A 
ATOM     30  C   UNL A   1      39.816  28.308  29.556  1.00  0.00     0.049 A 
ATOM     31  N   UNL A   1      41.074  29.505  32.023  1.00  0.00    -0.248 NA
ATOM     32  C   UNL A   1      39.265  30.977  32.158  1.00  0.00     0.031 C 
ATOM     33  C   UNL A   1      39.264  27.709  28.344  1.00  0.00     0.029 A 
ATOM     34  N   UNL A   1      40.979  27.614  29.780  1.00  0.00    -0.354 N 
ATOM     35  C   UNL A   1      41.247  30.353  33.110  1.00  0.00     0.074 A 
ATOM     36  C   UNL A   1      40.119  31.257  33.130  1.00  0.00     0.031 C 
ATOM     37  C   UNL A   1      40.111  26.760  27.905  1.00  0.00     0.029 A 
ATOM     38  C   UNL A   1      41.273  26.703  28.793  1.00  0.00     0.049 A 
ATOM     39  H   UNL A   1      41.547  27.754  30.571  1.00  0.00     0.167 HD
ATOM     40  C   UNL A   1      42.249  30.372  34.018  1.00  0.00     0.034 A 
ATOM     41  C   UNL A   1      42.365  25.933  28.615  1.00  0.00     0.034 A 
ATOM     42  C   UNL A   1      43.367  29.472  34.004  1.00  0.00     0.049 A 
ATOM     43  C   UNL A   1      43.480  25.982  29.632  1.00  0.00     0.074 A 
ATOM     44  C   UNL A   1      44.413  29.384  34.905  1.00  0.00     0.029 A 
ATOM     45  N   UNL A   1      43.593  28.512  33.030  1.00  0.00    -0.354 N 
ATOM     46  N   UNL A   1      43.568  26.697  30.728  1.00  0.00    -0.248 NA
ATOM     47  C   UNL A   1      44.632  25.097  29.403  1.00  0.00     0.031 C 
ATOM     48  C   UNL A   1      45.284  28.382  34.464  1.00  0.00     0.029 A 
ATOM     49  C   UNL A   1      44.766  27.831  33.302  1.00  0.00     0.049 A 
ATOM     50  H   UNL A   1      43.006  28.339  32.259  1.00  0.00     0.167 HD
ATOM     51  C   UNL A   1      44.759  26.317  31.339  1.00  0.00     0.074 A 
ATOM     52  C   UNL A   1      45.356  25.302  30.496  1.00  0.00     0.031 C 
ATOM     53  C   UNL A   1      45.314  26.773  32.490  1.00  0.00     0.034 A 
BRANCH  40  54
ATOM     54  C   UNL A   1      42.161  31.393  35.118  1.00  0.00     0.023 A 
ATOM     55  C   UNL A   1      41.546  31.047  36.339  1.00  0.00     0.012 A 
ATOM     56  C   UNL A   1      42.701  32.682  34.955  1.00  0.00     0.148 A 
ATOM     57  C   UNL A   1      41.440  31.980  37.369  1.00  0.00     0.002 A 
ATOM     58  C   UNL A   1      42.627  33.594  36.002  1.00  0.00     0.091 A 
ATOM     59  F   UNL A   1      43.253  33.003  33.776  1.00  0.00    -0.205 F 
ATOM     60  C   UNL A   1      41.988  33.249  37.204  1.00  0.00     0.022 A 
BRANCH  58  61
ATOM     61  S   UNL A   1      43.367  35.228  35.903  1.00  0.00     0.127 S 
ATOM     62  O   UNL A   1      42.555  35.857  34.862  1.00  0.00    -0.237 OA
ATOM     63  O   UNL A   1      43.143  35.754  37.250  1.00  0.00    -0.237 OA
ATOM     64  O   UNL A   1      44.767  35.010  35.565  1.00  0.00    -0.744 OA
ENDBRANCH  58  61
ENDBRANCH  40  54
BRANCH  41  65
ATOM     65  C   UNL A   1      42.444  25.012  27.446  1.00  0.00     0.023 A 
ATOM     66  C   UNL A   1      43.017  25.472  26.244  1.00  0.00     0.012 A 
ATOM     67  C   UNL A   1      41.975  23.687  27.522  1.00  0.00     0.148 A 
ATOM     68  C   UNL A   1      43.097  24.636  25.130  1.00  0.00     0.002 A 
ATOM     69  C   UNL A   1      42.103  22.844  26.424  1.00  0.00     0.091 A 
ATOM     70  F   UNL A   1      41.418  23.276  28.671  1.00  0.00    -0.205 F 
ATOM     71  C   UNL A   1      42.649  23.320  25.222  1.00  0.00     0.022 A 
BRANCH  69  72
ATOM     72  S   UNL A   1      41.661  21.104  26.485  1.00  0.00     0.127 S 
ATOM     73  O   UNL A   1      42.125  20.724  27.818  1.00  0.00    -0.237 OA
ATOM     74  O   UNL A   1      40.207  21.158  26.332  1.00  0.00    -0.237 OA
ATOM     75  O   UNL A   1      42.360  20.479  25.371  1.00  0.00    -0.744 OA
ENDBRANCH  69  72
ENDBRANCH  41  65
BRANCH  53  76
ATOM     76  C   UNL A   1      46.610  26.158  32.949  1.00  0.00     0.023 A 
ATOM     77  C   UNL A   1      47.834  26.769  32.617  1.00  0.00     0.012 A 
ATOM     78  C   UNL A   1      46.606  25.037  33.805  1.00  0.00     0.148 A 
ATOM     79  C   UNL A   1      49.035  26.264  33.114  1.00  0.00     0.002 A 
ATOM     80  C   UNL A   1      47.802  24.568  34.333  1.00  0.00     0.091 A 
ATOM     81  F   UNL A   1      45.430  24.459  34.095  1.00  0.00    -0.205 F 
ATOM     82  C   UNL A   1      49.018  25.173  33.981  1.00  0.00     0.022 A 
BRANCH  80  83
ATOM     83  S   UNL A   1      47.863  23.234  35.536  1.00  0.00     0.127 S 
ATOM     84  O   UNL A   1      46.772  23.596  36.438  1.00  0.00    -0.237 OA
ATOM     85  O   UNL A   1      47.605  22.056  34.709  1.00  0.00    -0.237 OA
ATOM     86  O   UNL A   1      49.198  23.280  36.118  1.00  0.00    -0.744 OA
ENDBRANCH  80  83
ENDBRANCH  53  76
ENDBRANCH  27  28
ENDBRANCH  20  22
ENDBRANCH  19  20
ENDBRANCH   1  19
TORSDOF 18
ENDMDL
