MODEL 1
REMARK VINA RESULT:     -11.5      0.000      0.000
REMARK SMILES CSc1ccc(CNc2ccc(N3CCOCC3)c(C(=O)OCCOC(=O)c3ccc(-c4c5nc(c(-c6cccc(S(=O)(=O)[O-])c6F)c6ccc([nH]6)c(-c6cccc(S(=O)(=O)[O-])c6F)c6nc(c(-c7cccc(S(=O)(=O)[O-])c7F)c7ccc4[nH]7)C=C6)C=C5)cc3)c2)cc1
REMARK SMILES IDX 23 1 22 2 20 3 21 4 19 5 9 6 10 7 91 8 11 9 12 10 8 11 7 13
REMARK SMILES IDX 6 14 3 15 4 16 93 17 5 18 92 19 2 20 1 21 13 22 14 23 18 24
REMARK SMILES IDX 15 25 17 26 16 27 24 28 25 29 26 30 27 31 28 32 29 33 90 34
REMARK SMILES IDX 30 35 89 36 31 37 32 38 33 39 83 40 34 41 88 42 82 43 84 44
REMARK SMILES IDX 35 45 87 46 81 47 80 48 36 50 68 51 48 52 67 53 49 54 52 55
REMARK SMILES IDX 66 56 85 57 50 58 51 59 65 61 86 62 53 63 37 64 38 65 46 66
REMARK SMILES IDX 39 67 41 68 47 69 40 70 42 71 43 72 44 73 45 74 69 75 70 76
REMARK SMILES IDX 78 77 71 78 73 79 79 80 72 81 74 82 75 83 76 84 77 85 54 86
REMARK SMILES IDX 55 87 63 88 56 89 58 90 64 91 57 92 59 93 60 94 61 95 62 96
REMARK H PARENT 8 12 84 49 52 60
REMARK Flexibility Score: inf
ROOT
ATOM      1  C   UNL A   1      32.169  29.567  25.440  1.00  0.00     0.275 C 
ENDROOT
BRANCH   1   2
ATOM      2  O   UNL A   1      31.163  28.548  25.613  1.00  0.00    -0.458 OA
BRANCH   2   3
ATOM      3  C   UNL A   1      31.600  27.353  26.092  1.00  0.00     0.340 C 
ATOM      4  O   UNL A   1      31.476  26.953  27.238  1.00  0.00    -0.246 OA
BRANCH   3   5
ATOM      5  C   UNL A   1      32.440  26.693  25.072  1.00  0.00     0.085 A 
ATOM      6  C   UNL A   1      34.326  25.145  24.995  1.00  0.00     0.035 A 
ATOM      7  C   UNL A   1      34.021  24.917  23.652  1.00  0.00     0.028 A 
ATOM      8  C   UNL A   1      33.567  26.094  25.662  1.00  0.00     0.043 A 
ATOM      9  C   UNL A   1      32.937  25.566  23.026  1.00  0.00     0.029 A 
ATOM     10  C   UNL A   1      32.092  26.439  23.725  1.00  0.00     0.052 A 
BRANCH   6  11
ATOM     11  N   UNL A   1      35.264  24.370  25.651  1.00  0.00    -0.381 N 
ATOM     12  H   UNL A   1      36.214  24.467  25.410  1.00  0.00     0.160 HD
BRANCH  11  13
ATOM     13  C   UNL A   1      34.897  23.416  26.685  1.00  0.00     0.148 C 
BRANCH  13  14
ATOM     14  C   UNL A   1      34.547  22.088  26.059  1.00  0.00    -0.029 A 
ATOM     15  C   UNL A   1      33.921  19.615  24.862  1.00  0.00     0.007 A 
ATOM     16  C   UNL A   1      35.248  20.052  24.932  1.00  0.00     0.015 A 
ATOM     17  C   UNL A   1      32.910  20.440  25.367  1.00  0.00     0.015 A 
ATOM     18  C   UNL A   1      35.559  21.277  25.523  1.00  0.00     0.007 A 
ATOM     19  C   UNL A   1      33.219  21.665  25.965  1.00  0.00     0.007 A 
BRANCH  15  20
ATOM     20  S   UNL A   1      33.590  18.041  24.087  1.00  0.00    -0.130 SA
ATOM     21  C   UNL A   1      32.486  17.275  25.303  1.00  0.00     0.091 C 
ENDBRANCH  15  20
ENDBRANCH  13  14
ENDBRANCH  11  13
ENDBRANCH   6  11
BRANCH  10  22
ATOM     22  N   UNL A   1      30.898  26.807  23.093  1.00  0.00    -0.366 N 
ATOM     23  C   UNL A   1      30.663  28.500  22.321  1.00  0.00     0.145 C 
ATOM     24  C   UNL A   1      29.551  25.897  23.654  1.00  0.00     0.145 C 
ATOM     25  C   UNL A   1      28.641  29.345  22.611  1.00  0.00     0.181 C 
ATOM     26  C   UNL A   1      27.901  26.662  23.911  1.00  0.00     0.181 C 
ATOM     27  O   UNL A   1      27.465  28.223  23.449  1.00  0.00    -0.378 OA
ENDBRANCH  10  22
ENDBRANCH   3   5
ENDBRANCH   2   3
ENDBRANCH   1   2
BRANCH   1  28
ATOM     28  C   UNL A   1      31.924  30.675  26.455  1.00  0.00     0.275 C 
BRANCH  28  29
ATOM     29  O   UNL A   1      32.950  31.660  26.261  1.00  0.00    -0.458 OA
BRANCH  29  30
ATOM     30  C   UNL A   1      33.050  32.536  27.276  1.00  0.00     0.338 C 
ATOM     31  O   UNL A   1      32.254  33.397  27.614  1.00  0.00    -0.246 OA
BRANCH  30  32
ATOM     32  C   UNL A   1      34.274  32.299  28.027  1.00  0.00     0.060 A 
ATOM     33  C   UNL A   1      35.601  33.445  28.124  1.00  0.00     0.016 A 
ATOM     34  C   UNL A   1      34.585  30.694  28.543  1.00  0.00     0.016 A 
ATOM     35  C   UNL A   1      37.351  32.798  28.746  1.00  0.00     0.010 A 
ATOM     36  C   UNL A   1      36.103  30.150  29.139  1.00  0.00     0.010 A 
ATOM     37  C   UNL A   1      37.527  31.120  29.267  1.00  0.00    -0.014 A 
BRANCH  37  38
ATOM     38  C   UNL A   1      38.775  30.605  29.925  1.00  0.00     0.031 A 
ATOM     39  C   UNL A   1      39.697  29.617  29.241  1.00  0.00     0.074 A 
ATOM     40  C   UNL A   1      39.055  30.958  31.200  1.00  0.00     0.049 A 
ATOM     41  N   UNL A   1      40.718  28.960  29.741  1.00  0.00    -0.248 NA
ATOM     42  C   UNL A   1      39.413  29.268  27.841  1.00  0.00     0.031 C 
ATOM     43  C   UNL A   1      38.190  31.754  32.063  1.00  0.00     0.029 A 
ATOM     44  N   UNL A   1      40.139  30.701  32.009  1.00  0.00    -0.354 N 
ATOM     45  C   UNL A   1      41.122  28.058  28.760  1.00  0.00     0.074 A 
ATOM     46  C   UNL A   1      40.231  28.244  27.636  1.00  0.00     0.031 C 
ATOM     47  C   UNL A   1      38.816  32.050  33.205  1.00  0.00     0.029 A 
ATOM     48  C   UNL A   1      40.075  31.330  33.236  1.00  0.00     0.049 A 
ATOM     49  H   UNL A   1      40.889  30.124  31.738  1.00  0.00     0.167 HD
ATOM     50  C   UNL A   1      42.153  27.176  28.781  1.00  0.00     0.034 A 
ATOM     51  C   UNL A   1      40.894  31.306  34.305  1.00  0.00     0.034 A 
ATOM     52  C   UNL A   1      43.110  27.085  29.856  1.00  0.00     0.049 A 
ATOM     53  C   UNL A   1      42.100  30.425  34.250  1.00  0.00     0.074 A 
ATOM     54  C   UNL A   1      44.250  26.303  29.928  1.00  0.00     0.029 A 
ATOM     55  N   UNL A   1      43.053  27.812  31.036  1.00  0.00    -0.354 N 
ATOM     56  N   UNL A   1      42.493  29.638  33.279  1.00  0.00    -0.248 NA
ATOM     57  C   UNL A   1      42.971  30.417  35.431  1.00  0.00     0.031 C 
ATOM     58  C   UNL A   1      44.874  26.548  31.157  1.00  0.00     0.029 A 
ATOM     59  C   UNL A   1      44.138  27.502  31.840  1.00  0.00     0.049 A 
ATOM     60  H   UNL A   1      42.344  28.455  31.268  1.00  0.00     0.167 HD
ATOM     61  C   UNL A   1      43.654  29.033  33.732  1.00  0.00     0.074 A 
ATOM     62  C   UNL A   1      43.928  29.585  35.045  1.00  0.00     0.031 C 
ATOM     63  C   UNL A   1      44.407  28.080  33.131  1.00  0.00     0.034 A 
BRANCH  50  64
ATOM     64  C   UNL A   1      42.346  26.268  27.587  1.00  0.00     0.023 A 
ATOM     65  C   UNL A   1      43.071  26.720  26.465  1.00  0.00     0.012 A 
ATOM     66  C   UNL A   1      41.874  24.938  27.604  1.00  0.00     0.148 A 
ATOM     67  C   UNL A   1      43.288  25.883  25.368  1.00  0.00     0.002 A 
ATOM     68  C   UNL A   1      42.135  24.094  26.529  1.00  0.00     0.091 A 
ATOM     69  F   UNL A   1      41.175  24.522  28.670  1.00  0.00    -0.205 F 
ATOM     70  C   UNL A   1      42.830  24.569  25.405  1.00  0.00     0.022 A 
BRANCH  68  71
ATOM     71  S   UNL A   1      41.665  22.359  26.514  1.00  0.00     0.127 S 
ATOM     72  O   UNL A   1      42.269  21.900  25.265  1.00  0.00    -0.237 OA
ATOM     73  O   UNL A   1      42.314  21.854  27.725  1.00  0.00    -0.237 OA
ATOM     74  O   UNL A   1      40.210  22.336  26.551  1.00  0.00    -0.744 OA
ENDBRANCH  68  71
ENDBRANCH  50  64
BRANCH  51  75
ATOM     75  C   UNL A   1      40.594  32.157  35.495  1.00  0.00     0.023 A 
ATOM     76  C   UNL A   1      41.330  33.339  35.705  1.00  0.00     0.012 A 
ATOM     77  C   UNL A   1      39.522  31.859  36.360  1.00  0.00     0.148 A 
ATOM     78  C   UNL A   1      41.007  34.203  36.754  1.00  0.00     0.002 A 
ATOM     79  C   UNL A   1      39.155  32.763  37.351  1.00  0.00     0.091 A 
ATOM     80  F   UNL A   1      38.849  30.715  36.170  1.00  0.00    -0.205 F 
ATOM     81  C   UNL A   1      39.907  33.927  37.561  1.00  0.00     0.022 A 
BRANCH  79  82
ATOM     82  S   UNL A   1      37.637  32.574  38.295  1.00  0.00     0.127 S 
ATOM     83  O   UNL A   1      37.712  31.174  38.705  1.00  0.00    -0.237 OA
ATOM     84  O   UNL A   1      37.824  33.544  39.375  1.00  0.00    -0.237 OA
ATOM     85  O   UNL A   1      36.563  32.913  37.370  1.00  0.00    -0.744 OA
ENDBRANCH  79  82
ENDBRANCH  51  75
BRANCH  63  86
ATOM     86  C   UNL A   1      45.609  27.594  33.891  1.00  0.00     0.023 A 
ATOM     87  C   UNL A   1      46.843  28.258  33.746  1.00  0.00     0.012 A 
ATOM     88  C   UNL A   1      45.509  26.491  34.759  1.00  0.00     0.148 A 
ATOM     89  C   UNL A   1      47.973  27.803  34.421  1.00  0.00     0.002 A 
ATOM     90  C   UNL A   1      46.629  26.073  35.466  1.00  0.00     0.091 A 
ATOM     91  F   UNL A   1      44.331  25.861  34.862  1.00  0.00    -0.205 F 
ATOM     92  C   UNL A   1      47.865  26.717  35.287  1.00  0.00     0.022 A 
BRANCH  90  93
ATOM     93  S   UNL A   1      46.560  24.738  36.663  1.00  0.00     0.127 S 
ATOM     94  O   UNL A   1      45.884  23.690  35.902  1.00  0.00    -0.237 OA
ATOM     95  O   UNL A   1      47.978  24.484  36.927  1.00  0.00    -0.237 OA
ATOM     96  O   UNL A   1      45.821  25.262  37.803  1.00  0.00    -0.744 OA
ENDBRANCH  90  93
ENDBRANCH  63  86
ENDBRANCH  37  38
ENDBRANCH  30  32
ENDBRANCH  29  30
ENDBRANCH  28  29
ENDBRANCH   1  28
TORSDOF 19
ENDMDL
MODEL 2
REMARK VINA RESULT:     -11.3      5.318      8.464
REMARK SMILES CSc1ccc(CNc2ccc(N3CCOCC3)c(C(=O)OCCOC(=O)c3ccc(-c4c5nc(c(-c6cccc(S(=O)(=O)[O-])c6F)c6ccc([nH]6)c(-c6cccc(S(=O)(=O)[O-])c6F)c6nc(c(-c7cccc(S(=O)(=O)[O-])c7F)c7ccc4[nH]7)C=C6)C=C5)cc3)c2)cc1
REMARK SMILES IDX 23 1 22 2 20 3 21 4 19 5 9 6 10 7 91 8 11 9 12 10 8 11 7 13
REMARK SMILES IDX 6 14 3 15 4 16 93 17 5 18 92 19 2 20 1 21 13 22 14 23 18 24
REMARK SMILES IDX 15 25 17 26 16 27 24 28 25 29 26 30 27 31 28 32 29 33 90 34
REMARK SMILES IDX 30 35 89 36 31 37 32 38 33 39 83 40 34 41 88 42 82 43 84 44
REMARK SMILES IDX 35 45 87 46 81 47 80 48 36 50 68 51 48 52 67 53 49 54 52 55
REMARK SMILES IDX 66 56 85 57 50 58 51 59 65 61 86 62 53 63 37 64 38 65 46 66
REMARK SMILES IDX 39 67 41 68 47 69 40 70 42 71 43 72 44 73 45 74 69 75 70 76
REMARK SMILES IDX 78 77 71 78 73 79 79 80 72 81 74 82 75 83 76 84 77 85 54 86
REMARK SMILES IDX 55 87 63 88 56 89 58 90 64 91 57 92 59 93 60 94 61 95 62 96
REMARK H PARENT 8 12 84 49 52 60
REMARK Flexibility Score: inf
ROOT
ATOM      1  C   UNL A   1      35.922  21.253  24.621  1.00  0.00     0.275 C 
ENDROOT
BRANCH   1   2
ATOM      2  O   UNL A   1      36.013  22.686  24.487  1.00  0.00    -0.458 OA
BRANCH   2   3
ATOM      3  C   UNL A   1      34.972  23.294  23.859  1.00  0.00     0.340 C 
ATOM      4  O   UNL A   1      34.858  23.454  22.655  1.00  0.00    -0.246 OA
BRANCH   3   5
ATOM      5  C   UNL A   1      34.093  23.925  24.865  1.00  0.00     0.085 A 
ATOM      6  C   UNL A   1      33.524  26.173  25.626  1.00  0.00     0.035 A 
ATOM      7  C   UNL A   1      32.395  25.627  26.239  1.00  0.00     0.028 A 
ATOM      8  C   UNL A   1      34.396  25.290  25.008  1.00  0.00     0.043 A 
ATOM      9  C   UNL A   1      32.115  24.247  26.165  1.00  0.00     0.029 A 
ATOM     10  C   UNL A   1      32.931  23.364  25.443  1.00  0.00     0.052 A 
BRANCH   6  11
ATOM     11  N   UNL A   1      33.692  27.543  25.540  1.00  0.00    -0.381 N 
ATOM     12  H   UNL A   1      33.767  28.065  26.371  1.00  0.00     0.160 HD
BRANCH  11  13
ATOM     13  C   UNL A   1      33.761  28.238  24.265  1.00  0.00     0.148 C 
BRANCH  13  14
ATOM     14  C   UNL A   1      32.408  28.810  23.917  1.00  0.00    -0.029 A 
ATOM     15  C   UNL A   1      29.871  29.871  23.303  1.00  0.00     0.007 A 
ATOM     16  C   UNL A   1      30.478  30.154  24.530  1.00  0.00     0.015 A 
ATOM     17  C   UNL A   1      30.528  29.027  22.401  1.00  0.00     0.015 A 
ATOM     18  C   UNL A   1      31.735  29.628  24.836  1.00  0.00     0.007 A 
ATOM     19  C   UNL A   1      31.789  28.504  22.702  1.00  0.00     0.007 A 
BRANCH  15  20
ATOM     20  S   UNL A   1      28.260  30.569  22.977  1.00  0.00    -0.130 SA
ATOM     21  C   UNL A   1      28.323  30.774  21.177  1.00  0.00     0.091 C 
ENDBRANCH  15  20
ENDBRANCH  13  14
ENDBRANCH  11  13
ENDBRANCH   6  11
BRANCH  10  22
ATOM     22  N   UNL A   1      32.420  22.082  25.202  1.00  0.00    -0.366 N 
ATOM     23  C   UNL A   1      32.927  20.600  26.233  1.00  0.00     0.145 C 
ATOM     24  C   UNL A   1      31.874  21.888  23.583  1.00  0.00     0.145 C 
ATOM     25  C   UNL A   1      33.171  18.738  25.068  1.00  0.00     0.181 C 
ATOM     26  C   UNL A   1      32.137  20.327  22.651  1.00  0.00     0.181 C 
ATOM     27  O   UNL A   1      32.726  18.887  23.300  1.00  0.00    -0.378 OA
ENDBRANCH  10  22
ENDBRANCH   3   5
ENDBRANCH   2   3
ENDBRANCH   1   2
BRANCH   1  28
ATOM     28  C   UNL A   1      37.329  20.672  24.643  1.00  0.00     0.275 C 
BRANCH  28  29
ATOM     29  O   UNL A   1      37.840  20.851  25.973  1.00  0.00    -0.458 OA
BRANCH  29  30
ATOM     30  C   UNL A   1      39.147  20.561  26.088  1.00  0.00     0.338 C 
ATOM     31  O   UNL A   1      39.704  19.493  25.902  1.00  0.00    -0.246 OA
BRANCH  30  32
ATOM     32  C   UNL A   1      39.900  21.759  26.429  1.00  0.00     0.060 A 
ATOM     33  C   UNL A   1      41.085  21.837  27.722  1.00  0.00     0.016 A 
ATOM     34  C   UNL A   1      39.352  23.248  25.778  1.00  0.00     0.016 A 
ATOM     35  C   UNL A   1      41.643  23.607  28.374  1.00  0.00     0.010 A 
ATOM     36  C   UNL A   1      39.888  24.791  26.316  1.00  0.00     0.010 A 
ATOM     37  C   UNL A   1      41.012  25.062  27.597  1.00  0.00    -0.014 A 
BRANCH  37  38
ATOM     38  C   UNL A   1      41.531  26.436  27.914  1.00  0.00     0.031 A 
ATOM     39  C   UNL A   1      42.923  26.882  27.518  1.00  0.00     0.074 A 
ATOM     40  C   UNL A   1      40.776  27.284  28.650  1.00  0.00     0.049 A 
ATOM     41  N   UNL A   1      43.567  27.972  27.862  1.00  0.00    -0.248 NA
ATOM     42  C   UNL A   1      43.723  25.975  26.683  1.00  0.00     0.031 C 
ATOM     43  C   UNL A   1      39.494  26.956  29.261  1.00  0.00     0.029 A 
ATOM     44  N   UNL A   1      40.965  28.596  29.020  1.00  0.00    -0.354 N 
ATOM     45  C   UNL A   1      44.866  27.830  27.378  1.00  0.00     0.074 A 
ATOM     46  C   UNL A   1      44.922  26.542  26.722  1.00  0.00     0.031 C 
ATOM     47  C   UNL A   1      38.938  28.048  29.792  1.00  0.00     0.029 A 
ATOM     48  C   UNL A   1      39.895  29.134  29.709  1.00  0.00     0.049 A 
ATOM     49  H   UNL A   1      41.782  29.103  28.814  1.00  0.00     0.167 HD
ATOM     50  C   UNL A   1      45.906  28.699  27.449  1.00  0.00     0.034 A 
ATOM     51  C   UNL A   1      39.702  30.344  30.269  1.00  0.00     0.034 A 
ATOM     52  C   UNL A   1      45.805  30.029  27.996  1.00  0.00     0.049 A 
ATOM     53  C   UNL A   1      40.820  31.334  30.215  1.00  0.00     0.074 A 
ATOM     54  C   UNL A   1      46.767  31.024  28.019  1.00  0.00     0.029 A 
ATOM     55  N   UNL A   1      44.673  30.558  28.597  1.00  0.00    -0.354 N 
ATOM     56  N   UNL A   1      42.011  31.194  29.687  1.00  0.00    -0.248 NA
ATOM     57  C   UNL A   1      40.580  32.641  30.837  1.00  0.00     0.031 C 
ATOM     58  C   UNL A   1      46.220  32.150  28.645  1.00  0.00     0.029 A 
ATOM     59  C   UNL A   1      44.908  31.867  28.989  1.00  0.00     0.049 A 
ATOM     60  H   UNL A   1      43.824  30.075  28.726  1.00  0.00     0.167 HD
ATOM     61  C   UNL A   1      42.668  32.391  29.918  1.00  0.00     0.074 A 
ATOM     62  C   UNL A   1      41.723  33.264  30.588  1.00  0.00     0.031 C 
ATOM     63  C   UNL A   1      43.949  32.726  29.631  1.00  0.00     0.034 A 
BRANCH  50  64
ATOM     64  C   UNL A   1      47.239  28.271  26.876  1.00  0.00     0.023 A 
ATOM     65  C   UNL A   1      48.325  28.006  27.735  1.00  0.00     0.012 A 
ATOM     66  C   UNL A   1      47.396  28.056  25.490  1.00  0.00     0.148 A 
ATOM     67  C   UNL A   1      49.552  27.576  27.227  1.00  0.00     0.002 A 
ATOM     68  C   UNL A   1      48.607  27.581  24.994  1.00  0.00     0.091 A 
ATOM     69  F   UNL A   1      46.361  28.323  24.680  1.00  0.00    -0.205 F 
ATOM     70  C   UNL A   1      49.690  27.354  25.859  1.00  0.00     0.022 A 
BRANCH  68  71
ATOM     71  S   UNL A   1      48.860  27.179  23.260  1.00  0.00     0.127 S 
ATOM     72  O   UNL A   1      48.205  25.876  23.160  1.00  0.00    -0.237 OA
ATOM     73  O   UNL A   1      48.154  28.269  22.585  1.00  0.00    -0.237 OA
ATOM     74  O   UNL A   1      50.302  27.172  23.055  1.00  0.00    -0.744 OA
ENDBRANCH  68  71
ENDBRANCH  50  64
BRANCH  51  75
ATOM     75  C   UNL A   1      38.390  30.670  30.906  1.00  0.00     0.023 A 
ATOM     76  C   UNL A   1      38.209  30.433  32.282  1.00  0.00     0.012 A 
ATOM     77  C   UNL A   1      37.360  31.304  30.182  1.00  0.00     0.148 A 
ATOM     78  C   UNL A   1      37.029  30.818  32.922  1.00  0.00     0.002 A 
ATOM     79  C   UNL A   1      36.223  31.757  30.842  1.00  0.00     0.091 A 
ATOM     80  F   UNL A   1      37.531  31.495  28.866  1.00  0.00    -0.205 F 
ATOM     81  C   UNL A   1      36.047  31.499  32.209  1.00  0.00     0.022 A 
BRANCH  79  82
ATOM     82  S   UNL A   1      35.012  32.812  30.034  1.00  0.00     0.127 S 
ATOM     83  O   UNL A   1      34.428  31.901  29.054  1.00  0.00    -0.237 OA
ATOM     84  O   UNL A   1      34.130  33.173  31.145  1.00  0.00    -0.237 OA
ATOM     85  O   UNL A   1      35.776  33.930  29.494  1.00  0.00    -0.744 OA
ENDBRANCH  79  82
ENDBRANCH  51  75
BRANCH  63  86
ATOM     86  C   UNL A   1      44.388  34.106  30.033  1.00  0.00     0.023 A 
ATOM     87  C   UNL A   1      45.001  34.307  31.286  1.00  0.00     0.012 A 
ATOM     88  C   UNL A   1      44.208  35.197  29.164  1.00  0.00     0.148 A 
ATOM     89  C   UNL A   1      45.388  35.584  31.687  1.00  0.00     0.002 A 
ATOM     90  C   UNL A   1      44.640  36.459  29.549  1.00  0.00     0.091 A 
ATOM     91  F   UNL A   1      43.601  34.986  27.987  1.00  0.00    -0.205 F 
ATOM     92  C   UNL A   1      45.216  36.658  30.816  1.00  0.00     0.022 A 
BRANCH  90  93
ATOM     93  S   UNL A   1      44.535  37.880  28.459  1.00  0.00     0.127 S 
ATOM     94  O   UNL A   1      44.809  37.278  27.157  1.00  0.00    -0.237 OA
ATOM     95  O   UNL A   1      43.151  38.317  28.651  1.00  0.00    -0.237 OA
ATOM     96  O   UNL A   1      45.535  38.825  28.937  1.00  0.00    -0.744 OA
ENDBRANCH  90  93
ENDBRANCH  63  86
ENDBRANCH  37  38
ENDBRANCH  30  32
ENDBRANCH  29  30
ENDBRANCH  28  29
ENDBRANCH   1  28
TORSDOF 19
ENDMDL
MODEL 3
REMARK VINA RESULT:     -11.2      2.082      7.668
REMARK SMILES CSc1ccc(CNc2ccc(N3CCOCC3)c(C(=O)OCCOC(=O)c3ccc(-c4c5nc(c(-c6cccc(S(=O)(=O)[O-])c6F)c6ccc([nH]6)c(-c6cccc(S(=O)(=O)[O-])c6F)c6nc(c(-c7cccc(S(=O)(=O)[O-])c7F)c7ccc4[nH]7)C=C6)C=C5)cc3)c2)cc1
REMARK SMILES IDX 23 1 22 2 20 3 21 4 19 5 9 6 10 7 91 8 11 9 12 10 8 11 7 13
REMARK SMILES IDX 6 14 3 15 4 16 93 17 5 18 92 19 2 20 1 21 13 22 14 23 18 24
REMARK SMILES IDX 15 25 17 26 16 27 24 28 25 29 26 30 27 31 28 32 29 33 90 34
REMARK SMILES IDX 30 35 89 36 31 37 32 38 33 39 83 40 34 41 88 42 82 43 84 44
REMARK SMILES IDX 35 45 87 46 81 47 80 48 36 50 68 51 48 52 67 53 49 54 52 55
REMARK SMILES IDX 66 56 85 57 50 58 51 59 65 61 86 62 53 63 37 64 38 65 46 66
REMARK SMILES IDX 39 67 41 68 47 69 40 70 42 71 43 72 44 73 45 74 69 75 70 76
REMARK SMILES IDX 78 77 71 78 73 79 79 80 72 81 74 82 75 83 76 84 77 85 54 86
REMARK SMILES IDX 55 87 63 88 56 89 58 90 64 91 57 92 59 93 60 94 61 95 62 96
REMARK H PARENT 8 12 84 49 52 60
REMARK Flexibility Score: inf
ROOT
ATOM      1  C   UNL A   1      32.864  30.036  25.743  1.00  0.00     0.275 C 
ENDROOT
BRANCH   1   2
ATOM      2  O   UNL A   1      31.539  29.506  25.540  1.00  0.00    -0.458 OA
BRANCH   2   3
ATOM      3  C   UNL A   1      31.414  28.156  25.641  1.00  0.00     0.340 C 
ATOM      4  O   UNL A   1      30.970  27.549  26.602  1.00  0.00    -0.246 OA
BRANCH   3   5
ATOM      5  C   UNL A   1      32.094  27.513  24.499  1.00  0.00     0.085 A 
ATOM      6  C   UNL A   1      33.742  25.753  24.121  1.00  0.00     0.035 A 
ATOM      7  C   UNL A   1      33.329  25.720  22.788  1.00  0.00     0.028 A 
ATOM      8  C   UNL A   1      33.161  26.710  24.938  1.00  0.00     0.043 A 
ATOM      9  C   UNL A   1      32.309  26.570  22.315  1.00  0.00     0.029 A 
ATOM     10  C   UNL A   1      31.635  27.460  23.163  1.00  0.00     0.052 A 
BRANCH   6  11
ATOM     11  N   UNL A   1      34.603  24.794  24.621  1.00  0.00    -0.381 N 
ATOM     12  H   UNL A   1      34.789  24.779  25.588  1.00  0.00     0.160 HD
BRANCH  11  13
ATOM     13  C   UNL A   1      35.245  23.806  23.768  1.00  0.00     0.148 C 
BRANCH  13  14
ATOM     14  C   UNL A   1      34.680  22.436  24.053  1.00  0.00    -0.029 A 
ATOM     15  C   UNL A   1      33.593  19.894  24.596  1.00  0.00     0.007 A 
ATOM     16  C   UNL A   1      32.822  20.872  23.961  1.00  0.00     0.015 A 
ATOM     17  C   UNL A   1      34.899  20.208  24.985  1.00  0.00     0.015 A 
ATOM     18  C   UNL A   1      33.359  22.132  23.692  1.00  0.00     0.007 A 
ATOM     19  C   UNL A   1      35.442  21.468  24.712  1.00  0.00     0.007 A 
BRANCH  15  20
ATOM     20  S   UNL A   1      32.844  18.304  24.916  1.00  0.00    -0.130 SA
ATOM     21  C   UNL A   1      32.750  17.615  23.242  1.00  0.00     0.091 C 
ENDBRANCH  15  20
ENDBRANCH  13  14
ENDBRANCH  11  13
ENDBRANCH   6  11
BRANCH  10  22
ATOM     22  N   UNL A   1      30.466  28.048  22.663  1.00  0.00    -0.366 N 
ATOM     23  C   UNL A   1      30.404  29.850  22.144  1.00  0.00     0.145 C 
ATOM     24  C   UNL A   1      29.046  27.228  23.179  1.00  0.00     0.145 C 
ATOM     25  C   UNL A   1      28.517  30.871  22.673  1.00  0.00     0.181 C 
ATOM     26  C   UNL A   1      27.515  28.133  23.640  1.00  0.00     0.181 C 
ATOM     27  O   UNL A   1      27.252  29.783  23.423  1.00  0.00    -0.378 OA
ENDBRANCH  10  22
ENDBRANCH   3   5
ENDBRANCH   2   3
ENDBRANCH   1   2
BRANCH   1  28
ATOM     28  C   UNL A   1      32.920  30.707  27.109  1.00  0.00     0.275 C 
BRANCH  28  29
ATOM     29  O   UNL A   1      33.943  31.711  27.045  1.00  0.00    -0.458 OA
BRANCH  29  30
ATOM     30  C   UNL A   1      34.453  32.035  28.246  1.00  0.00     0.338 C 
ATOM     31  O   UNL A   1      34.008  32.815  29.071  1.00  0.00    -0.246 OA
BRANCH  30  32
ATOM     32  C   UNL A   1      35.653  31.255  28.511  1.00  0.00     0.060 A 
ATOM     33  C   UNL A   1      35.642  29.660  29.246  1.00  0.00     0.016 A 
ATOM     34  C   UNL A   1      37.158  32.071  28.431  1.00  0.00     0.016 A 
ATOM     35  C   UNL A   1      37.327  28.958  29.980  1.00  0.00     0.010 A 
ATOM     36  C   UNL A   1      38.638  31.426  29.025  1.00  0.00     0.010 A 
ATOM     37  C   UNL A   1      38.812  29.899  29.812  1.00  0.00    -0.014 A 
BRANCH  37  38
ATOM     38  C   UNL A   1      40.161  29.350  30.179  1.00  0.00     0.031 A 
ATOM     39  C   UNL A   1      40.954  29.883  31.355  1.00  0.00     0.074 A 
ATOM     40  C   UNL A   1      40.738  28.410  29.396  1.00  0.00     0.049 A 
ATOM     41  N   UNL A   1      42.194  29.625  31.697  1.00  0.00    -0.248 NA
ATOM     42  C   UNL A   1      40.306  30.873  32.227  1.00  0.00     0.031 C 
ATOM     43  C   UNL A   1      40.198  27.916  28.136  1.00  0.00     0.029 A 
ATOM     44  N   UNL A   1      41.907  27.695  29.529  1.00  0.00    -0.354 N 
ATOM     45  C   UNL A   1      42.500  30.489  32.745  1.00  0.00     0.074 A 
ATOM     46  C   UNL A   1      41.318  31.288  32.980  1.00  0.00     0.031 C 
ATOM     47  C   UNL A   1      40.927  26.892  27.686  1.00  0.00     0.029 A 
ATOM     48  C   UNL A   1      42.092  26.751  28.538  1.00  0.00     0.049 A 
ATOM     49  H   UNL A   1      42.549  27.841  30.260  1.00  0.00     0.167 HD
ATOM     50  C   UNL A   1      43.648  30.592  33.462  1.00  0.00     0.034 A 
ATOM     51  C   UNL A   1      43.100  25.894  28.287  1.00  0.00     0.034 A 
ATOM     52  C   UNL A   1      44.777  29.709  33.302  1.00  0.00     0.049 A 
ATOM     53  C   UNL A   1      44.300  25.935  29.178  1.00  0.00     0.074 A 
ATOM     54  C   UNL A   1      45.942  29.660  34.048  1.00  0.00     0.029 A 
ATOM     55  N   UNL A   1      44.876  28.709  32.346  1.00  0.00    -0.354 N 
ATOM     56  N   UNL A   1      44.528  26.716  30.205  1.00  0.00    -0.248 NA
ATOM     57  C   UNL A   1      45.383  24.992  28.877  1.00  0.00     0.031 C 
ATOM     58  C   UNL A   1      46.750  28.638  33.535  1.00  0.00     0.029 A 
ATOM     59  C   UNL A   1      46.077  28.033  32.485  1.00  0.00     0.049 A 
ATOM     60  H   UNL A   1      44.191  28.508  31.667  1.00  0.00     0.167 HD
ATOM     61  C   UNL A   1      45.784  26.366  30.672  1.00  0.00     0.074 A 
ATOM     62  C   UNL A   1      46.245  25.266  29.846  1.00  0.00     0.031 C 
ATOM     63  C   UNL A   1      46.507  26.927  31.671  1.00  0.00     0.034 A 
BRANCH  50  64
ATOM     64  C   UNL A   1      43.734  31.661  34.529  1.00  0.00     0.023 A 
ATOM     65  C   UNL A   1      44.285  32.923  34.221  1.00  0.00     0.012 A 
ATOM     66  C   UNL A   1      43.200  31.445  35.817  1.00  0.00     0.148 A 
ATOM     67  C   UNL A   1      44.341  33.933  35.183  1.00  0.00     0.002 A 
ATOM     68  C   UNL A   1      43.215  32.472  36.757  1.00  0.00     0.091 A 
ATOM     69  F   UNL A   1      42.690  30.238  36.102  1.00  0.00    -0.205 F 
ATOM     70  C   UNL A   1      43.797  33.711  36.445  1.00  0.00     0.022 A 
BRANCH  68  71
ATOM     71  S   UNL A   1      42.462  32.317  38.382  1.00  0.00     0.127 S 
ATOM     72  O   UNL A   1      42.642  33.664  38.920  1.00  0.00    -0.237 OA
ATOM     73  O   UNL A   1      41.079  31.974  38.049  1.00  0.00    -0.237 OA
ATOM     74  O   UNL A   1      43.199  31.266  39.068  1.00  0.00    -0.744 OA
ENDBRANCH  68  71
ENDBRANCH  50  64
BRANCH  51  75
ATOM     75  C   UNL A   1      42.992  24.925  27.156  1.00  0.00     0.023 A 
ATOM     76  C   UNL A   1      43.680  25.182  25.954  1.00  0.00     0.012 A 
ATOM     77  C   UNL A   1      42.297  23.706  27.296  1.00  0.00     0.148 A 
ATOM     78  C   UNL A   1      43.675  24.248  24.916  1.00  0.00     0.002 A 
ATOM     79  C   UNL A   1      42.364  22.747  26.290  1.00  0.00     0.091 A 
ATOM     80  F   UNL A   1      41.619  23.486  28.431  1.00  0.00    -0.205 F 
ATOM     81  C   UNL A   1      43.038  23.024  25.092  1.00  0.00     0.022 A 
BRANCH  79  82
ATOM     82  S   UNL A   1      41.740  21.079  26.526  1.00  0.00     0.127 S 
ATOM     83  O   UNL A   1      42.375  20.363  25.424  1.00  0.00    -0.237 OA
ATOM     84  O   UNL A   1      42.253  20.744  27.856  1.00  0.00    -0.237 OA
ATOM     85  O   UNL A   1      40.289  21.197  26.461  1.00  0.00    -0.744 OA
ENDBRANCH  79  82
ENDBRANCH  51  75
BRANCH  63  86
ATOM     86  C   UNL A   1      47.866  26.339  31.930  1.00  0.00     0.023 A 
ATOM     87  C   UNL A   1      48.967  26.762  31.159  1.00  0.00     0.012 A 
ATOM     88  C   UNL A   1      48.052  25.383  32.944  1.00  0.00     0.148 A 
ATOM     89  C   UNL A   1      50.228  26.206  31.365  1.00  0.00     0.002 A 
ATOM     90  C   UNL A   1      49.321  24.870  33.177  1.00  0.00     0.091 A 
ATOM     91  F   UNL A   1      46.985  24.979  33.648  1.00  0.00    -0.205 F 
ATOM     92  C   UNL A   1      50.407  25.268  32.380  1.00  0.00     0.022 A 
BRANCH  90  93
ATOM     93  S   UNL A   1      49.657  23.721  34.514  1.00  0.00     0.127 S 
ATOM     94  O   UNL A   1      51.085  23.469  34.338  1.00  0.00    -0.237 OA
ATOM     95  O   UNL A   1      49.318  24.514  35.697  1.00  0.00    -0.237 OA
ATOM     96  O   UNL A   1      48.785  22.577  34.287  1.00  0.00    -0.744 OA
ENDBRANCH  90  93
ENDBRANCH  63  86
ENDBRANCH  37  38
ENDBRANCH  30  32
ENDBRANCH  29  30
ENDBRANCH  28  29
ENDBRANCH   1  28
TORSDOF 19
ENDMDL
