MODEL 1
REMARK VINA RESULT:     -12.4      0.000      0.000
REMARK SMILES CC(C)CCc1cc2c(cc1Cl)C=C(C(=O)OCCOC(=O)c1ccc(-c3c4nc(c(-c5cccc(S(=O)(=O)[O-])c5F)c5ccc([nH]5)c(-c5cccc(S(=O)(=O)[O-])c5F)c5nc(c(-c6cccc(S(=O)(=O)[O-])c6F)c6ccc3[nH]6)C=C5)C=C4)cc1)[C@@H](C(F)(F)F)O2
REMARK SMILES IDX 18 1 17 2 15 3 16 4 14 5 6 6 7 7 11 8 8 9 10 10 12 11 9 12
REMARK SMILES IDX 91 13 13 14 86 15 5 16 4 17 2 18 1 19 3 20 87 21 88 22 89 23
REMARK SMILES IDX 90 24 19 25 20 26 21 27 22 28 23 29 24 30 85 31 25 32 84 33
REMARK SMILES IDX 26 34 27 35 28 36 78 37 29 38 83 39 77 40 79 41 30 42 82 43
REMARK SMILES IDX 76 44 75 45 31 47 63 48 43 49 62 50 44 51 47 52 61 53 80 54
REMARK SMILES IDX 45 55 46 56 60 58 81 59 48 60 32 61 33 62 41 63 34 64 36 65
REMARK SMILES IDX 42 66 35 67 37 68 38 69 39 70 40 71 64 72 65 73 73 74 66 75
REMARK SMILES IDX 68 76 74 77 67 78 69 79 70 80 71 81 72 82 49 83 50 84 58 85
REMARK SMILES IDX 51 86 53 87 59 88 52 89 54 90 55 91 56 92 57 93
REMARK H PARENT 79 46 47 57
REMARK Flexibility Score: inf
ROOT
ATOM      1  C   UNL A   1      31.570  29.057  25.126  1.00  0.00     0.275 C 
ENDROOT
BRANCH   1   2
ATOM      2  O   UNL A   1      32.273  27.893  25.609  1.00  0.00    -0.459 OA
BRANCH   2   3
ATOM      3  C   UNL A   1      31.607  27.138  26.514  1.00  0.00     0.338 C 
ATOM      4  O   UNL A   1      30.993  27.548  27.488  1.00  0.00    -0.246 OA
BRANCH   3   5
ATOM      5  C   UNL A   1      31.682  25.710  26.152  1.00  0.00     0.087 C 
ATOM      6  C   UNL A   1      33.292  21.120  24.867  1.00  0.00    -0.026 A 
ATOM      7  C   UNL A   1      32.037  21.767  24.844  1.00  0.00     0.052 A 
ATOM      8  C   UNL A   1      34.364  21.766  25.503  1.00  0.00     0.045 A 
ATOM      9  C   UNL A   1      31.885  23.065  25.331  1.00  0.00     0.128 A 
ATOM     10  C   UNL A   1      34.206  23.055  26.009  1.00  0.00     0.032 A 
ATOM     11  Cl  UNL A   1      35.923  21.043  25.675  1.00  0.00    -0.084 Cl
ATOM     12  C   UNL A   1      32.979  23.713  25.887  1.00  0.00     0.019 A 
ATOM     13  O   UNL A   1      30.646  23.631  25.220  1.00  0.00    -0.475 OA
ATOM     14  C   UNL A   1      32.855  25.088  26.310  1.00  0.00     0.027 C 
ATOM     15  C   UNL A   1      30.494  25.052  25.512  1.00  0.00     0.316 C 
BRANCH   6  16
ATOM     16  C   UNL A   1      33.449  19.778  24.185  1.00  0.00     0.037 C 
BRANCH  16  17
ATOM     17  C   UNL A   1      33.072  18.574  25.068  1.00  0.00     0.008 C 
BRANCH  17  18
ATOM     18  C   UNL A   1      33.834  17.267  24.761  1.00  0.00    -0.017 C 
ATOM     19  C   UNL A   1      33.140  16.036  25.343  1.00  0.00     0.007 C 
ATOM     20  C   UNL A   1      33.999  17.110  23.248  1.00  0.00     0.007 C 
ENDBRANCH  17  18
ENDBRANCH  16  17
ENDBRANCH   6  16
BRANCH  15  21
ATOM     21  C   UNL A   1      30.099  25.783  24.218  1.00  0.00     0.430 C 
ATOM     22  F   UNL A   1      31.190  26.224  23.546  1.00  0.00    -0.167 F 
ATOM     23  F   UNL A   1      29.432  24.964  23.366  1.00  0.00    -0.167 F 
ATOM     24  F   UNL A   1      29.308  26.854  24.451  1.00  0.00    -0.167 F 
ENDBRANCH  15  21
ENDBRANCH   3   5
ENDBRANCH   2   3
ENDBRANCH   1   2
BRANCH   1  25
ATOM     25  C   UNL A   1      31.889  30.295  25.967  1.00  0.00     0.275 C 
BRANCH  25  26
ATOM     26  O   UNL A   1      33.307  30.413  26.182  1.00  0.00    -0.458 OA
BRANCH  26  27
ATOM     27  C   UNL A   1      33.668  31.289  27.148  1.00  0.00     0.338 C 
ATOM     28  O   UNL A   1      32.973  32.148  27.663  1.00  0.00    -0.246 OA
BRANCH  27  29
ATOM     29  C   UNL A   1      35.031  30.986  27.601  1.00  0.00     0.060 A 
ATOM     30  C   UNL A   1      35.908  31.983  28.006  1.00  0.00     0.016 A 
ATOM     31  C   UNL A   1      35.372  29.651  27.774  1.00  0.00     0.016 A 
ATOM     32  C   UNL A   1      37.132  31.616  28.582  1.00  0.00     0.010 A 
ATOM     33  C   UNL A   1      36.502  29.295  28.499  1.00  0.00     0.010 A 
ATOM     34  C   UNL A   1      37.427  30.268  28.880  1.00  0.00    -0.014 A 
BRANCH  34  35
ATOM     35  C   UNL A   1      38.685  29.878  29.585  1.00  0.00     0.031 A 
ATOM     36  C   UNL A   1      39.019  30.418  30.959  1.00  0.00     0.074 A 
ATOM     37  C   UNL A   1      39.565  29.062  28.966  1.00  0.00     0.049 A 
ATOM     38  N   UNL A   1      40.050  30.143  31.720  1.00  0.00    -0.248 NA
ATOM     39  C   UNL A   1      38.113  31.421  31.548  1.00  0.00     0.031 C 
ATOM     40  C   UNL A   1      39.447  28.579  27.587  1.00  0.00     0.029 A 
ATOM     41  N   UNL A   1      40.725  28.482  29.416  1.00  0.00    -0.354 N 
ATOM     42  C   UNL A   1      39.938  30.964  32.837  1.00  0.00     0.074 A 
ATOM     43  C   UNL A   1      38.770  31.788  32.640  1.00  0.00     0.031 C 
ATOM     44  C   UNL A   1      40.443  27.718  27.333  1.00  0.00     0.029 A 
ATOM     45  C   UNL A   1      41.293  27.612  28.513  1.00  0.00     0.049 A 
ATOM     46  H   UNL A   1      41.115  28.670  30.300  1.00  0.00     0.167 HD
ATOM     47  C   UNL A   1      40.700  30.996  33.954  1.00  0.00     0.034 A 
ATOM     48  C   UNL A   1      42.361  26.797  28.625  1.00  0.00     0.034 A 
ATOM     49  C   UNL A   1      41.797  30.104  34.202  1.00  0.00     0.049 A 
ATOM     50  C   UNL A   1      43.121  26.760  29.920  1.00  0.00     0.074 A 
ATOM     51  C   UNL A   1      42.550  29.972  35.354  1.00  0.00     0.029 A 
ATOM     52  N   UNL A   1      42.284  29.182  33.292  1.00  0.00    -0.354 N 
ATOM     53  N   UNL A   1      42.901  27.438  31.018  1.00  0.00    -0.248 NA
ATOM     54  C   UNL A   1      44.257  25.830  30.003  1.00  0.00     0.031 C 
ATOM     55  C   UNL A   1      43.497  28.968  35.140  1.00  0.00     0.029 A 
ATOM     56  C   UNL A   1      43.325  28.472  33.858  1.00  0.00     0.049 A 
ATOM     57  H   UNL A   1      41.940  29.053  32.378  1.00  0.00     0.167 HD
ATOM     58  C   UNL A   1      43.859  27.010  31.929  1.00  0.00     0.074 A 
ATOM     59  C   UNL A   1      44.650  25.998  31.261  1.00  0.00     0.031 C 
ATOM     60  C   UNL A   1      44.071  27.434  33.197  1.00  0.00     0.034 A 
BRANCH  47  61
ATOM     61  C   UNL A   1      40.314  31.949  35.054  1.00  0.00     0.023 A 
ATOM     62  C   UNL A   1      40.901  33.231  35.087  1.00  0.00     0.012 A 
ATOM     63  C   UNL A   1      39.303  31.627  35.981  1.00  0.00     0.148 A 
ATOM     64  C   UNL A   1      40.504  34.171  36.036  1.00  0.00     0.002 A 
ATOM     65  C   UNL A   1      38.887  32.582  36.903  1.00  0.00     0.091 A 
ATOM     66  F   UNL A   1      38.763  30.401  35.936  1.00  0.00    -0.205 F 
ATOM     67  C   UNL A   1      39.490  33.850  36.935  1.00  0.00     0.022 A 
BRANCH  65  68
ATOM     68  S   UNL A   1      37.548  32.300  38.067  1.00  0.00     0.127 S 
ATOM     69  O   UNL A   1      38.084  32.907  39.285  1.00  0.00    -0.237 OA
ATOM     70  O   UNL A   1      36.448  33.041  37.452  1.00  0.00    -0.237 OA
ATOM     71  O   UNL A   1      37.360  30.858  38.128  1.00  0.00    -0.744 OA
ENDBRANCH  65  68
ENDBRANCH  47  61
BRANCH  48  72
ATOM     72  C   UNL A   1      42.691  25.873  27.506  1.00  0.00     0.023 A 
ATOM     73  C   UNL A   1      43.634  26.277  26.540  1.00  0.00     0.012 A 
ATOM     74  C   UNL A   1      42.154  24.573  27.444  1.00  0.00     0.148 A 
ATOM     75  C   UNL A   1      44.033  25.404  25.528  1.00  0.00     0.002 A 
ATOM     76  C   UNL A   1      42.587  23.695  26.457  1.00  0.00     0.091 A 
ATOM     77  F   UNL A   1      41.260  24.214  28.375  1.00  0.00    -0.205 F 
ATOM     78  C   UNL A   1      43.519  24.111  25.493  1.00  0.00     0.022 A 
BRANCH  76  79
ATOM     79  S   UNL A   1      42.067  21.977  26.392  1.00  0.00     0.127 S 
ATOM     80  O   UNL A   1      40.637  22.107  26.121  1.00  0.00    -0.237 OA
ATOM     81  O   UNL A   1      42.863  21.467  25.274  1.00  0.00    -0.237 OA
ATOM     82  O   UNL A   1      42.410  21.408  27.688  1.00  0.00    -0.744 OA
ENDBRANCH  76  79
ENDBRANCH  48  72
BRANCH  60  83
ATOM     83  C   UNL A   1      45.196  26.812  33.974  1.00  0.00     0.023 A 
ATOM     84  C   UNL A   1      46.465  27.421  33.951  1.00  0.00     0.012 A 
ATOM     85  C   UNL A   1      44.956  25.725  34.835  1.00  0.00     0.148 A 
ATOM     86  C   UNL A   1      47.485  26.952  34.777  1.00  0.00     0.002 A 
ATOM     87  C   UNL A   1      45.968  25.284  35.679  1.00  0.00     0.091 A 
ATOM     88  F   UNL A   1      43.738  25.163  34.830  1.00  0.00    -0.205 F 
ATOM     89  C   UNL A   1      47.233  25.894  35.649  1.00  0.00     0.022 A 
BRANCH  87  90
ATOM     90  S   UNL A   1      45.719  23.983  36.891  1.00  0.00     0.127 S 
ATOM     91  O   UNL A   1      45.343  22.853  36.042  1.00  0.00    -0.237 OA
ATOM     92  O   UNL A   1      47.044  23.872  37.502  1.00  0.00    -0.237 OA
ATOM     93  O   UNL A   1      44.673  24.456  37.787  1.00  0.00    -0.744 OA
ENDBRANCH  87  90
ENDBRANCH  60  83
ENDBRANCH  34  35
ENDBRANCH  27  29
ENDBRANCH  26  27
ENDBRANCH  25  26
ENDBRANCH   1  25
TORSDOF 18
ENDMDL
MODEL 2
REMARK VINA RESULT:     -12.3      5.239     10.235
REMARK SMILES CC(C)CCc1cc2c(cc1Cl)C=C(C(=O)OCCOC(=O)c1ccc(-c3c4nc(c(-c5cccc(S(=O)(=O)[O-])c5F)c5ccc([nH]5)c(-c5cccc(S(=O)(=O)[O-])c5F)c5nc(c(-c6cccc(S(=O)(=O)[O-])c6F)c6ccc3[nH]6)C=C5)C=C4)cc1)[C@@H](C(F)(F)F)O2
REMARK SMILES IDX 18 1 17 2 15 3 16 4 14 5 6 6 7 7 11 8 8 9 10 10 12 11 9 12
REMARK SMILES IDX 91 13 13 14 86 15 5 16 4 17 2 18 1 19 3 20 87 21 88 22 89 23
REMARK SMILES IDX 90 24 19 25 20 26 21 27 22 28 23 29 24 30 85 31 25 32 84 33
REMARK SMILES IDX 26 34 27 35 28 36 78 37 29 38 83 39 77 40 79 41 30 42 82 43
REMARK SMILES IDX 76 44 75 45 31 47 63 48 43 49 62 50 44 51 47 52 61 53 80 54
REMARK SMILES IDX 45 55 46 56 60 58 81 59 48 60 32 61 33 62 41 63 34 64 36 65
REMARK SMILES IDX 42 66 35 67 37 68 38 69 39 70 40 71 64 72 65 73 73 74 66 75
REMARK SMILES IDX 68 76 74 77 67 78 69 79 70 80 71 81 72 82 49 83 50 84 58 85
REMARK SMILES IDX 51 86 53 87 59 88 52 89 54 90 55 91 56 92 57 93
REMARK H PARENT 79 46 47 57
REMARK Flexibility Score: inf
ROOT
ATOM      1  C   UNL A   1      34.830  21.164  24.675  1.00  0.00     0.275 C 
ENDROOT
BRANCH   1   2
ATOM      2  O   UNL A   1      34.799  22.606  24.723  1.00  0.00    -0.459 OA
BRANCH   2   3
ATOM      3  C   UNL A   1      34.997  23.237  23.541  1.00  0.00     0.338 C 
ATOM      4  O   UNL A   1      35.809  22.928  22.682  1.00  0.00    -0.246 OA
BRANCH   3   5
ATOM      5  C   UNL A   1      34.054  24.363  23.392  1.00  0.00     0.087 C 
ATOM      6  C   UNL A   1      31.398  28.578  24.091  1.00  0.00    -0.026 A 
ATOM      7  C   UNL A   1      31.254  27.447  23.257  1.00  0.00     0.052 A 
ATOM      8  C   UNL A   1      32.589  28.719  24.822  1.00  0.00     0.045 A 
ATOM      9  C   UNL A   1      32.209  26.432  23.244  1.00  0.00     0.128 A 
ATOM     10  C   UNL A   1      33.554  27.713  24.792  1.00  0.00     0.032 A 
ATOM     11  Cl  UNL A   1      32.924  30.097  25.807  1.00  0.00    -0.084 Cl
ATOM     12  C   UNL A   1      33.343  26.558  24.034  1.00  0.00     0.019 A 
ATOM     13  O   UNL A   1      31.959  25.351  22.445  1.00  0.00    -0.475 OA
ATOM     14  C   UNL A   1      34.293  25.472  24.097  1.00  0.00     0.027 C 
ATOM     15  C   UNL A   1      32.815  24.177  22.565  1.00  0.00     0.316 C 
BRANCH   6  16
ATOM     16  C   UNL A   1      30.266  29.576  24.194  1.00  0.00     0.037 C 
BRANCH  16  17
ATOM     17  C   UNL A   1      29.838  30.186  22.847  1.00  0.00     0.008 C 
BRANCH  17  18
ATOM     18  C   UNL A   1      28.318  30.193  22.578  1.00  0.00    -0.017 C 
ATOM     19  C   UNL A   1      27.984  30.510  21.121  1.00  0.00     0.007 C 
ATOM     20  C   UNL A   1      27.720  28.841  22.972  1.00  0.00     0.007 C 
ENDBRANCH  17  18
ENDBRANCH  16  17
ENDBRANCH   6  16
BRANCH  15  21
ATOM     21  C   UNL A   1      31.974  23.005  23.101  1.00  0.00     0.430 C 
ATOM     22  F   UNL A   1      30.666  23.144  22.772  1.00  0.00    -0.167 F 
ATOM     23  F   UNL A   1      32.375  21.821  22.575  1.00  0.00    -0.167 F 
ATOM     24  F   UNL A   1      32.043  22.893  24.447  1.00  0.00    -0.167 F 
ENDBRANCH  15  21
ENDBRANCH   3   5
ENDBRANCH   2   3
ENDBRANCH   1   2
BRANCH   1  25
ATOM     25  C   UNL A   1      36.223  20.621  25.004  1.00  0.00     0.275 C 
BRANCH  25  26
ATOM     26  O   UNL A   1      36.954  21.553  25.820  1.00  0.00    -0.458 OA
BRANCH  26  27
ATOM     27  C   UNL A   1      38.294  21.371  25.836  1.00  0.00     0.338 C 
ATOM     28  O   UNL A   1      38.924  20.474  25.303  1.00  0.00    -0.246 OA
BRANCH  27  29
ATOM     29  C   UNL A   1      38.936  22.505  26.513  1.00  0.00     0.060 A 
ATOM     30  C   UNL A   1      40.099  22.353  27.254  1.00  0.00     0.016 A 
ATOM     31  C   UNL A   1      38.439  23.776  26.253  1.00  0.00     0.016 A 
ATOM     32  C   UNL A   1      40.750  23.498  27.734  1.00  0.00     0.010 A 
ATOM     33  C   UNL A   1      39.176  24.907  26.580  1.00  0.00     0.010 A 
ATOM     34  C   UNL A   1      40.325  24.794  27.365  1.00  0.00    -0.014 A 
BRANCH  34  35
ATOM     35  C   UNL A   1      41.072  26.015  27.790  1.00  0.00     0.031 A 
ATOM     36  C   UNL A   1      42.494  26.268  27.336  1.00  0.00     0.074 A 
ATOM     37  C   UNL A   1      40.484  26.891  28.632  1.00  0.00     0.049 A 
ATOM     38  N   UNL A   1      43.263  27.300  27.583  1.00  0.00    -0.248 NA
ATOM     39  C   UNL A   1      43.162  25.223  26.538  1.00  0.00     0.031 C 
ATOM     40  C   UNL A   1      39.176  26.709  29.266  1.00  0.00     0.029 A 
ATOM     41  N   UNL A   1      40.901  28.116  29.092  1.00  0.00    -0.354 N 
ATOM     42  C   UNL A   1      44.499  27.006  27.018  1.00  0.00     0.074 A 
ATOM     43  C   UNL A   1      44.404  25.680  26.458  1.00  0.00     0.031 C 
ATOM     44  C   UNL A   1      38.863  27.812  29.963  1.00  0.00     0.029 A 
ATOM     45  C   UNL A   1      39.961  28.766  29.859  1.00  0.00     0.049 A 
ATOM     46  H   UNL A   1      41.788  28.494  28.893  1.00  0.00     0.167 HD
ATOM     47  C   UNL A   1      45.601  27.786  26.920  1.00  0.00     0.034 A 
ATOM     48  C   UNL A   1      39.963  30.002  30.398  1.00  0.00     0.034 A 
ATOM     49  C   UNL A   1      45.665  29.144  27.379  1.00  0.00     0.049 A 
ATOM     50  C   UNL A   1      41.148  30.896  30.174  1.00  0.00     0.074 A 
ATOM     51  C   UNL A   1      46.690  30.057  27.213  1.00  0.00     0.029 A 
ATOM     52  N   UNL A   1      44.658  29.788  28.077  1.00  0.00    -0.354 N 
ATOM     53  N   UNL A   1      42.246  30.648  29.503  1.00  0.00    -0.248 NA
ATOM     54  C   UNL A   1      41.087  32.246  30.753  1.00  0.00     0.031 C 
ATOM     55  C   UNL A   1      46.303  31.258  27.813  1.00  0.00     0.029 A 
ATOM     56  C   UNL A   1      45.034  31.091  28.344  1.00  0.00     0.049 A 
ATOM     57  H   UNL A   1      43.803  29.379  28.343  1.00  0.00     0.167 HD
ATOM     58  C   UNL A   1      43.002  31.812  29.566  1.00  0.00     0.074 A 
ATOM     59  C   UNL A   1      42.229  32.774  30.324  1.00  0.00     0.031 C 
ATOM     60  C   UNL A   1      44.233  32.051  29.057  1.00  0.00     0.034 A 
BRANCH  47  61
ATOM     61  C   UNL A   1      46.800  27.239  26.190  1.00  0.00     0.023 A 
ATOM     62  C   UNL A   1      46.903  27.439  24.798  1.00  0.00     0.012 A 
ATOM     63  C   UNL A   1      47.864  26.631  26.884  1.00  0.00     0.148 A 
ATOM     64  C   UNL A   1      48.037  27.026  24.102  1.00  0.00     0.002 A 
ATOM     65  C   UNL A   1      49.008  26.253  26.189  1.00  0.00     0.091 A 
ATOM     66  F   UNL A   1      47.742  26.445  28.205  1.00  0.00    -0.205 F 
ATOM     67  C   UNL A   1      49.093  26.444  24.799  1.00  0.00     0.022 A 
BRANCH  65  68
ATOM     68  S   UNL A   1      50.454  25.551  26.991  1.00  0.00     0.127 S 
ATOM     69  O   UNL A   1      51.342  25.322  25.852  1.00  0.00    -0.237 OA
ATOM     70  O   UNL A   1      50.868  26.637  27.878  1.00  0.00    -0.237 OA
ATOM     71  O   UNL A   1      49.996  24.345  27.668  1.00  0.00    -0.744 OA
ENDBRANCH  65  68
ENDBRANCH  47  61
BRANCH  48  72
ATOM     72  C   UNL A   1      38.747  30.489  31.103  1.00  0.00     0.023 A 
ATOM     73  C   UNL A   1      38.691  30.404  32.509  1.00  0.00     0.012 A 
ATOM     74  C   UNL A   1      37.696  31.117  30.408  1.00  0.00     0.148 A 
ATOM     75  C   UNL A   1      37.606  30.931  33.210  1.00  0.00     0.002 A 
ATOM     76  C   UNL A   1      36.638  31.676  31.116  1.00  0.00     0.091 A 
ATOM     77  F   UNL A   1      37.774  31.185  29.072  1.00  0.00    -0.205 F 
ATOM     78  C   UNL A   1      36.587  31.576  32.515  1.00  0.00     0.022 A 
BRANCH  76  79
ATOM     79  S   UNL A   1      35.332  32.622  30.324  1.00  0.00     0.127 S 
ATOM     80  O   UNL A   1      34.381  32.793  31.419  1.00  0.00    -0.237 OA
ATOM     81  O   UNL A   1      36.043  33.838  29.928  1.00  0.00    -0.237 OA
ATOM     82  O   UNL A   1      34.867  31.803  29.212  1.00  0.00    -0.744 OA
ENDBRANCH  76  79
ENDBRANCH  48  72
BRANCH  60  83
ATOM     83  C   UNL A   1      44.843  33.405  29.280  1.00  0.00     0.023 A 
ATOM     84  C   UNL A   1      45.723  33.590  30.364  1.00  0.00     0.012 A 
ATOM     85  C   UNL A   1      44.663  34.436  28.339  1.00  0.00     0.148 A 
ATOM     86  C   UNL A   1      46.417  34.791  30.509  1.00  0.00     0.002 A 
ATOM     87  C   UNL A   1      45.382  35.617  28.472  1.00  0.00     0.091 A 
ATOM     88  F   UNL A   1      43.815  34.230  27.322  1.00  0.00    -0.205 F 
ATOM     89  C   UNL A   1      46.257  35.797  29.557  1.00  0.00     0.022 A 
BRANCH  87  90
ATOM     90  S   UNL A   1      45.305  36.938  27.259  1.00  0.00     0.127 S 
ATOM     91  O   UNL A   1      46.147  36.408  26.188  1.00  0.00    -0.237 OA
ATOM     92  O   UNL A   1      43.877  36.988  26.945  1.00  0.00    -0.237 OA
ATOM     93  O   UNL A   1      45.824  38.128  27.921  1.00  0.00    -0.744 OA
ENDBRANCH  87  90
ENDBRANCH  60  83
ENDBRANCH  34  35
ENDBRANCH  27  29
ENDBRANCH  26  27
ENDBRANCH  25  26
ENDBRANCH   1  25
TORSDOF 18
ENDMDL
MODEL 3
REMARK VINA RESULT:     -12.1      5.180     10.192
REMARK SMILES CC(C)CCc1cc2c(cc1Cl)C=C(C(=O)OCCOC(=O)c1ccc(-c3c4nc(c(-c5cccc(S(=O)(=O)[O-])c5F)c5ccc([nH]5)c(-c5cccc(S(=O)(=O)[O-])c5F)c5nc(c(-c6cccc(S(=O)(=O)[O-])c6F)c6ccc3[nH]6)C=C5)C=C4)cc1)[C@@H](C(F)(F)F)O2
REMARK SMILES IDX 18 1 17 2 15 3 16 4 14 5 6 6 7 7 11 8 8 9 10 10 12 11 9 12
REMARK SMILES IDX 91 13 13 14 86 15 5 16 4 17 2 18 1 19 3 20 87 21 88 22 89 23
REMARK SMILES IDX 90 24 19 25 20 26 21 27 22 28 23 29 24 30 85 31 25 32 84 33
REMARK SMILES IDX 26 34 27 35 28 36 78 37 29 38 83 39 77 40 79 41 30 42 82 43
REMARK SMILES IDX 76 44 75 45 31 47 63 48 43 49 62 50 44 51 47 52 61 53 80 54
REMARK SMILES IDX 45 55 46 56 60 58 81 59 48 60 32 61 33 62 41 63 34 64 36 65
REMARK SMILES IDX 42 66 35 67 37 68 38 69 39 70 40 71 64 72 65 73 73 74 66 75
REMARK SMILES IDX 68 76 74 77 67 78 69 79 70 80 71 81 72 82 49 83 50 84 58 85
REMARK SMILES IDX 51 86 53 87 59 88 52 89 54 90 55 91 56 92 57 93
REMARK H PARENT 79 46 47 57
REMARK Flexibility Score: inf
ROOT
ATOM      1  C   UNL A   1      35.281  20.066  25.002  1.00  0.00     0.275 C 
ENDROOT
BRANCH   1   2
ATOM      2  O   UNL A   1      34.080  20.250  24.222  1.00  0.00    -0.459 OA
BRANCH   2   3
ATOM      3  C   UNL A   1      32.918  20.212  24.917  1.00  0.00     0.338 C 
ATOM      4  O   UNL A   1      32.374  19.214  25.366  1.00  0.00    -0.246 OA
BRANCH   3   5
ATOM      5  C   UNL A   1      32.383  21.574  25.106  1.00  0.00     0.087 C 
ATOM      6  C   UNL A   1      31.201  26.432  24.544  1.00  0.00    -0.026 A 
ATOM      7  C   UNL A   1      31.187  25.533  25.632  1.00  0.00     0.052 A 
ATOM      8  C   UNL A   1      31.449  25.920  23.260  1.00  0.00     0.045 A 
ATOM      9  C   UNL A   1      31.528  24.191  25.466  1.00  0.00     0.128 A 
ATOM     10  C   UNL A   1      31.768  24.574  23.091  1.00  0.00     0.032 A 
ATOM     11  Cl  UNL A   1      31.406  26.900  21.838  1.00  0.00    -0.084 Cl
ATOM     12  C   UNL A   1      31.843  23.725  24.198  1.00  0.00     0.019 A 
ATOM     13  O   UNL A   1      31.537  23.407  26.586  1.00  0.00    -0.475 OA
ATOM     14  C   UNL A   1      32.285  22.360  24.029  1.00  0.00     0.027 C 
ATOM     15  C   UNL A   1      32.095  22.062  26.496  1.00  0.00     0.316 C 
BRANCH   6  16
ATOM     16  C   UNL A   1      30.982  27.908  24.795  1.00  0.00     0.037 C 
BRANCH  16  17
ATOM     17  C   UNL A   1      31.694  28.446  26.050  1.00  0.00     0.008 C 
BRANCH  17  18
ATOM     18  C   UNL A   1      32.910  29.357  25.780  1.00  0.00    -0.017 C 
ATOM     19  C   UNL A   1      34.049  29.119  26.770  1.00  0.00     0.007 C 
ATOM     20  C   UNL A   1      33.405  29.144  24.348  1.00  0.00     0.007 C 
ENDBRANCH  17  18
ENDBRANCH  16  17
ENDBRANCH   6  16
BRANCH  15  21
ATOM     21  C   UNL A   1      33.357  21.992  27.371  1.00  0.00     0.430 C 
ATOM     22  F   UNL A   1      34.401  22.628  26.786  1.00  0.00    -0.167 F 
ATOM     23  F   UNL A   1      33.167  22.595  28.571  1.00  0.00    -0.167 F 
ATOM     24  F   UNL A   1      33.745  20.720  27.616  1.00  0.00    -0.167 F 
ENDBRANCH  15  21
ENDBRANCH   3   5
ENDBRANCH   2   3
ENDBRANCH   1   2
BRANCH   1  25
ATOM     25  C   UNL A   1      36.384  21.036  24.572  1.00  0.00     0.275 C 
BRANCH  25  26
ATOM     26  O   UNL A   1      37.006  21.640  25.720  1.00  0.00    -0.458 OA
BRANCH  26  27
ATOM     27  C   UNL A   1      38.334  21.409  25.838  1.00  0.00     0.338 C 
ATOM     28  O   UNL A   1      38.961  20.462  25.396  1.00  0.00    -0.246 OA
BRANCH  27  29
ATOM     29  C   UNL A   1      38.974  22.553  26.500  1.00  0.00     0.060 A 
ATOM     30  C   UNL A   1      40.157  22.418  27.214  1.00  0.00     0.016 A 
ATOM     31  C   UNL A   1      38.453  23.816  26.253  1.00  0.00     0.016 A 
ATOM     32  C   UNL A   1      40.802  23.572  27.680  1.00  0.00     0.010 A 
ATOM     33  C   UNL A   1      39.181  24.957  26.563  1.00  0.00     0.010 A 
ATOM     34  C   UNL A   1      40.349  24.861  27.321  1.00  0.00    -0.014 A 
BRANCH  34  35
ATOM     35  C   UNL A   1      41.088  26.093  27.729  1.00  0.00     0.031 A 
ATOM     36  C   UNL A   1      42.497  26.364  27.247  1.00  0.00     0.074 A 
ATOM     37  C   UNL A   1      40.504  26.964  28.580  1.00  0.00     0.049 A 
ATOM     38  N   UNL A   1      43.257  27.407  27.478  1.00  0.00    -0.248 NA
ATOM     39  C   UNL A   1      43.164  25.326  26.439  1.00  0.00     0.031 C 
ATOM     40  C   UNL A   1      39.210  26.766  29.239  1.00  0.00     0.029 A 
ATOM     41  N   UNL A   1      40.913  28.195  29.029  1.00  0.00    -0.354 N 
ATOM     42  C   UNL A   1      44.486  27.128  26.890  1.00  0.00     0.074 A 
ATOM     43  C   UNL A   1      44.398  25.799  26.334  1.00  0.00     0.031 C 
ATOM     44  C   UNL A   1      38.896  27.866  29.939  1.00  0.00     0.029 A 
ATOM     45  C   UNL A   1      39.979  28.835  29.812  1.00  0.00     0.049 A 
ATOM     46  H   UNL A   1      41.791  28.584  28.812  1.00  0.00     0.167 HD
ATOM     47  C   UNL A   1      45.575  27.922  26.769  1.00  0.00     0.034 A 
ATOM     48  C   UNL A   1      39.975  30.071  30.348  1.00  0.00     0.034 A 
ATOM     49  C   UNL A   1      45.630  29.282  27.224  1.00  0.00     0.049 A 
ATOM     50  C   UNL A   1      41.144  30.981  30.099  1.00  0.00     0.074 A 
ATOM     51  C   UNL A   1      46.639  30.208  27.036  1.00  0.00     0.029 A 
ATOM     52  N   UNL A   1      44.628  29.915  27.939  1.00  0.00    -0.354 N 
ATOM     53  N   UNL A   1      42.231  30.746  29.409  1.00  0.00    -0.248 NA
ATOM     54  C   UNL A   1      41.076  32.332  30.677  1.00  0.00     0.031 C 
ATOM     55  C   UNL A   1      46.247  31.405  27.641  1.00  0.00     0.029 A 
ATOM     56  C   UNL A   1      44.991  31.223  28.196  1.00  0.00     0.049 A 
ATOM     57  H   UNL A   1      43.783  29.495  28.222  1.00  0.00     0.167 HD
ATOM     58  C   UNL A   1      42.973  31.920  29.455  1.00  0.00     0.074 A 
ATOM     59  C   UNL A   1      42.202  32.874  30.225  1.00  0.00     0.031 C 
ATOM     60  C   UNL A   1      44.192  32.174  28.922  1.00  0.00     0.034 A 
BRANCH  47  61
ATOM     61  C   UNL A   1      46.767  27.389  26.018  1.00  0.00     0.023 A 
ATOM     62  C   UNL A   1      46.852  27.606  24.627  1.00  0.00     0.012 A 
ATOM     63  C   UNL A   1      47.843  26.778  26.691  1.00  0.00     0.148 A 
ATOM     64  C   UNL A   1      47.979  27.207  23.912  1.00  0.00     0.002 A 
ATOM     65  C   UNL A   1      48.980  26.413  25.977  1.00  0.00     0.091 A 
ATOM     66  F   UNL A   1      47.738  26.576  28.011  1.00  0.00    -0.205 F 
ATOM     67  C   UNL A   1      49.046  26.621  24.589  1.00  0.00     0.022 A 
BRANCH  65  68
ATOM     68  S   UNL A   1      50.439  25.708  26.753  1.00  0.00     0.127 S 
ATOM     69  O   UNL A   1      51.343  25.571  25.612  1.00  0.00    -0.237 OA
ATOM     70  O   UNL A   1      50.813  26.754  27.704  1.00  0.00    -0.237 OA
ATOM     71  O   UNL A   1      50.011  24.454  27.355  1.00  0.00    -0.744 OA
ENDBRANCH  65  68
ENDBRANCH  47  61
BRANCH  48  72
ATOM     72  C   UNL A   1      38.766  30.545  31.075  1.00  0.00     0.023 A 
ATOM     73  C   UNL A   1      38.732  30.449  32.481  1.00  0.00     0.012 A 
ATOM     74  C   UNL A   1      37.700  31.169  30.401  1.00  0.00     0.148 A 
ATOM     75  C   UNL A   1      37.654  30.963  33.202  1.00  0.00     0.002 A 
ATOM     76  C   UNL A   1      36.649  31.715  31.128  1.00  0.00     0.091 A 
ATOM     77  F   UNL A   1      37.757  31.247  29.064  1.00  0.00    -0.205 F 
ATOM     78  C   UNL A   1      36.620  31.605  32.528  1.00  0.00     0.022 A 
BRANCH  76  79
ATOM     79  S   UNL A   1      35.324  32.656  30.363  1.00  0.00     0.127 S 
ATOM     80  O   UNL A   1      34.334  32.705  31.436  1.00  0.00    -0.237 OA
ATOM     81  O   UNL A   1      35.988  33.928  30.077  1.00  0.00    -0.237 OA
ATOM     82  O   UNL A   1      34.930  31.899  29.182  1.00  0.00    -0.744 OA
ENDBRANCH  76  79
ENDBRANCH  48  72
BRANCH  60  83
ATOM     83  C   UNL A   1      44.788  33.536  29.130  1.00  0.00     0.023 A 
ATOM     84  C   UNL A   1      45.799  33.702  30.095  1.00  0.00     0.012 A 
ATOM     85  C   UNL A   1      44.454  34.603  28.275  1.00  0.00     0.148 A 
ATOM     86  C   UNL A   1      46.472  34.918  30.208  1.00  0.00     0.002 A 
ATOM     87  C   UNL A   1      45.150  35.801  28.371  1.00  0.00     0.091 A 
ATOM     88  F   UNL A   1      43.483  34.415  27.370  1.00  0.00    -0.205 F 
ATOM     89  C   UNL A   1      46.157  35.961  29.338  1.00  0.00     0.022 A 
BRANCH  87  90
ATOM     90  S   UNL A   1      44.874  37.174  27.248  1.00  0.00     0.127 S 
ATOM     91  O   UNL A   1      46.031  37.070  26.361  1.00  0.00    -0.237 OA
ATOM     92  O   UNL A   1      43.597  36.816  26.629  1.00  0.00    -0.237 OA
ATOM     93  O   UNL A   1      44.834  38.373  28.074  1.00  0.00    -0.744 OA
ENDBRANCH  87  90
ENDBRANCH  60  83
ENDBRANCH  34  35
ENDBRANCH  27  29
ENDBRANCH  26  27
ENDBRANCH  25  26
ENDBRANCH   1  25
TORSDOF 18
ENDMDL
