MODEL 1
REMARK VINA RESULT:     -10.8      0.000      0.000
REMARK SMILES CC(C)CN(C)S(=O)(=O)c1cc(C(=O)OCCOC(=O)c2ccc(-c3c4nc(c(-c5cccc(S(=O)(=O)[O-])c5F)c5ccc([nH]5)c(-c5cccc(S(=O)(=O)[O-])c5F)c5nc(c(-c6cccc(S(=O)(=O)[O-])c6F)c6ccc3[nH]6)C=C5)C=C4)cc2)n(C)c1
REMARK SMILES IDX 16 1 15 2 13 3 14 4 12 5 10 6 11 7 86 8 84 9 85 10 7 11 8 12
REMARK SMILES IDX 9 13 5 14 6 15 4 16 2 17 1 18 3 19 17 20 18 21 19 22 20 23
REMARK SMILES IDX 21 24 22 25 83 26 23 27 82 28 24 29 25 30 26 31 76 32 27 33
REMARK SMILES IDX 81 34 75 35 77 36 28 37 80 38 74 39 73 40 29 42 61 43 41 44
REMARK SMILES IDX 60 45 42 46 45 47 59 48 78 49 43 50 44 51 58 53 79 54 46 55
REMARK SMILES IDX 30 56 31 57 39 58 32 59 34 60 40 61 33 62 35 63 36 64 37 65
REMARK SMILES IDX 38 66 62 67 63 68 71 69 64 70 66 71 72 72 65 73 67 74 68 75
REMARK SMILES IDX 69 76 70 77 47 78 48 79 56 80 49 81 51 82 57 83 50 84 52 85
REMARK SMILES IDX 53 86 54 87 55 88
REMARK H PARENT 77 41 45 52
REMARK Flexibility Score: inf
ROOT
ATOM      1  C   UNL A   1      35.142  20.340  25.248  1.00  0.00     0.275 C 
ENDROOT
BRANCH   1   2
ATOM      2  O   UNL A   1      34.259  20.799  24.203  1.00  0.00    -0.457 OA
BRANCH   2   3
ATOM      3  C   UNL A   1      32.982  21.083  24.571  1.00  0.00     0.355 C 
ATOM      4  O   UNL A   1      32.175  20.247  24.969  1.00  0.00    -0.244 OA
BRANCH   3   5
ATOM      5  C   UNL A   1      32.729  22.512  24.562  1.00  0.00     0.128 A 
ATOM      6  C   UNL A   1      32.493  24.654  23.797  1.00  0.00     0.101 A 
ATOM      7  C   UNL A   1      32.962  23.360  23.482  1.00  0.00     0.057 A 
ATOM      8  C   UNL A   1      32.057  24.602  25.105  1.00  0.00     0.107 A 
ATOM      9  N   UNL A   1      32.271  23.326  25.582  1.00  0.00    -0.344 N 
ATOM     10  C   UNL A   1      32.211  23.010  26.992  1.00  0.00     0.150 C 
BRANCH   6  11
ATOM     11  S   UNL A   1      32.611  26.048  22.769  1.00  0.00     0.244 S 
ATOM     12  O   UNL A   1      31.412  25.982  21.959  1.00  0.00    -0.207 OA
ATOM     13  O   UNL A   1      33.920  25.892  22.178  1.00  0.00    -0.207 OA
BRANCH  11  14
ATOM     14  N   UNL A   1      32.554  27.517  23.681  1.00  0.00    -0.201 NA
ATOM     15  C   UNL A   1      32.246  28.699  22.817  1.00  0.00     0.124 C 
BRANCH  14  16
ATOM     16  C   UNL A   1      33.832  27.800  24.442  1.00  0.00     0.105 C 
BRANCH  16  17
ATOM     17  C   UNL A   1      33.681  27.815  25.974  1.00  0.00    -0.002 C 
ATOM     18  C   UNL A   1      34.457  28.940  26.657  1.00  0.00     0.009 C 
ATOM     19  C   UNL A   1      32.194  27.978  26.329  1.00  0.00     0.009 C 
ENDBRANCH  16  17
ENDBRANCH  14  16
ENDBRANCH  11  14
ENDBRANCH   6  11
ENDBRANCH   3   5
ENDBRANCH   2   3
ENDBRANCH   1   2
BRANCH   1  20
ATOM     20  C   UNL A   1      35.953  21.500  25.829  1.00  0.00     0.275 C 
BRANCH  20  21
ATOM     21  O   UNL A   1      37.138  21.740  25.049  1.00  0.00    -0.458 OA
BRANCH  21  22
ATOM     22  C   UNL A   1      38.292  21.322  25.618  1.00  0.00     0.338 C 
ATOM     23  O   UNL A   1      38.816  20.226  25.512  1.00  0.00    -0.246 OA
BRANCH  22  24
ATOM     24  C   UNL A   1      38.929  22.439  26.325  1.00  0.00     0.060 A 
ATOM     25  C   UNL A   1      38.451  23.718  26.070  1.00  0.00     0.016 A 
ATOM     26  C   UNL A   1      40.071  22.260  27.098  1.00  0.00     0.016 A 
ATOM     27  C   UNL A   1      39.162  24.835  26.493  1.00  0.00     0.010 A 
ATOM     28  C   UNL A   1      40.735  23.387  27.606  1.00  0.00     0.010 A 
ATOM     29  C   UNL A   1      40.316  24.690  27.272  1.00  0.00    -0.014 A 
BRANCH  29  30
ATOM     30  C   UNL A   1      41.086  25.894  27.703  1.00  0.00     0.031 A 
ATOM     31  C   UNL A   1      40.427  26.963  28.539  1.00  0.00     0.074 A 
ATOM     32  C   UNL A   1      42.381  26.036  27.351  1.00  0.00     0.049 A 
ATOM     33  N   UNL A   1      40.878  28.143  28.880  1.00  0.00    -0.248 NA
ATOM     34  C   UNL A   1      39.075  26.675  29.049  1.00  0.00     0.031 C 
ATOM     35  C   UNL A   1      43.157  25.074  26.565  1.00  0.00     0.029 A 
ATOM     36  N   UNL A   1      43.273  27.053  27.595  1.00  0.00    -0.354 N 
ATOM     37  C   UNL A   1      39.844  28.767  29.568  1.00  0.00     0.074 A 
ATOM     38  C   UNL A   1      38.742  27.830  29.608  1.00  0.00     0.031 C 
ATOM     39  C   UNL A   1      44.407  25.533  26.410  1.00  0.00     0.029 A 
ATOM     40  C   UNL A   1      44.497  26.864  26.995  1.00  0.00     0.049 A 
ATOM     41  H   UNL A   1      43.056  27.841  28.145  1.00  0.00     0.167 HD
ATOM     42  C   UNL A   1      39.813  30.006  30.117  1.00  0.00     0.034 A 
ATOM     43  C   UNL A   1      45.559  27.684  26.874  1.00  0.00     0.034 A 
ATOM     44  C   UNL A   1      40.931  30.913  30.125  1.00  0.00     0.049 A 
ATOM     45  C   UNL A   1      45.496  29.055  27.481  1.00  0.00     0.074 A 
ATOM     46  C   UNL A   1      41.014  32.169  30.703  1.00  0.00     0.029 A 
ATOM     47  N   UNL A   1      42.158  30.667  29.530  1.00  0.00    -0.354 N 
ATOM     48  N   UNL A   1      44.526  29.610  28.165  1.00  0.00    -0.248 NA
ATOM     49  C   UNL A   1      46.679  29.911  27.312  1.00  0.00     0.031 C 
ATOM     50  C   UNL A   1      42.279  32.697  30.424  1.00  0.00     0.029 A 
ATOM     51  C   UNL A   1      43.001  31.751  29.716  1.00  0.00     0.049 A 
ATOM     52  H   UNL A   1      42.397  29.844  29.047  1.00  0.00     0.167 HD
ATOM     53  C   UNL A   1      44.992  30.865  28.538  1.00  0.00     0.074 A 
ATOM     54  C   UNL A   1      46.339  30.981  28.018  1.00  0.00     0.031 C 
ATOM     55  C   UNL A   1      44.356  31.837  29.236  1.00  0.00     0.034 A 
BRANCH  42  56
ATOM     56  C   UNL A   1      38.526  30.465  30.757  1.00  0.00     0.023 A 
ATOM     57  C   UNL A   1      38.287  30.223  32.126  1.00  0.00     0.012 A 
ATOM     58  C   UNL A   1      37.574  31.189  30.010  1.00  0.00     0.148 A 
ATOM     59  C   UNL A   1      37.107  30.660  32.729  1.00  0.00     0.002 A 
ATOM     60  C   UNL A   1      36.424  31.664  30.630  1.00  0.00     0.091 A 
ATOM     61  F   UNL A   1      37.808  31.395  28.706  1.00  0.00    -0.205 F 
ATOM     62  C   UNL A   1      36.182  31.388  31.985  1.00  0.00     0.022 A 
BRANCH  60  63
ATOM     63  S   UNL A   1      35.215  32.684  29.779  1.00  0.00     0.127 S 
ATOM     64  O   UNL A   1      34.700  31.755  28.774  1.00  0.00    -0.237 OA
ATOM     65  O   UNL A   1      34.273  33.004  30.852  1.00  0.00    -0.237 OA
ATOM     66  O   UNL A   1      35.949  33.827  29.253  1.00  0.00    -0.744 OA
ENDBRANCH  60  63
ENDBRANCH  42  56
BRANCH  43  67
ATOM     67  C   UNL A   1      46.770  27.226  26.134  1.00  0.00     0.023 A 
ATOM     68  C   UNL A   1      46.878  27.471  24.751  1.00  0.00     0.012 A 
ATOM     69  C   UNL A   1      47.831  26.581  26.800  1.00  0.00     0.148 A 
ATOM     70  C   UNL A   1      48.007  27.059  24.043  1.00  0.00     0.002 A 
ATOM     71  C   UNL A   1      48.980  26.232  26.102  1.00  0.00     0.091 A 
ATOM     72  F   UNL A   1      47.703  26.341  28.113  1.00  0.00    -0.205 F 
ATOM     73  C   UNL A   1      49.062  26.453  24.719  1.00  0.00     0.022 A 
BRANCH  71  74
ATOM     74  S   UNL A   1      50.440  25.575  26.917  1.00  0.00     0.127 S 
ATOM     75  O   UNL A   1      51.356  25.399  25.792  1.00  0.00    -0.237 OA
ATOM     76  O   UNL A   1      50.788  26.663  27.831  1.00  0.00    -0.237 OA
ATOM     77  O   UNL A   1      50.006  24.352  27.577  1.00  0.00    -0.744 OA
ENDBRANCH  71  74
ENDBRANCH  43  67
BRANCH  55  78
ATOM     78  C   UNL A   1      45.127  33.097  29.536  1.00  0.00     0.023 A 
ATOM     79  C   UNL A   1      45.991  33.152  30.647  1.00  0.00     0.012 A 
ATOM     80  C   UNL A   1      45.038  34.206  28.672  1.00  0.00     0.148 A 
ATOM     81  C   UNL A   1      46.730  34.305  30.911  1.00  0.00     0.002 A 
ATOM     82  C   UNL A   1      45.817  35.331  28.911  1.00  0.00     0.091 A 
ATOM     83  F   UNL A   1      44.194  34.140  27.631  1.00  0.00    -0.205 F 
ATOM     84  C   UNL A   1      46.652  35.388  30.038  1.00  0.00     0.022 A 
BRANCH  82  85
ATOM     85  S   UNL A   1      45.858  36.731  27.787  1.00  0.00     0.127 S 
ATOM     86  O   UNL A   1      46.270  36.096  26.535  1.00  0.00    -0.237 OA
ATOM     87  O   UNL A   1      44.469  37.187  27.812  1.00  0.00    -0.237 OA
ATOM     88  O   UNL A   1      46.815  37.673  28.351  1.00  0.00    -0.744 OA
ENDBRANCH  82  85
ENDBRANCH  55  78
ENDBRANCH  29  30
ENDBRANCH  22  24
ENDBRANCH  21  22
ENDBRANCH  20  21
ENDBRANCH   1  20
TORSDOF 18
ENDMDL
MODEL 2
REMARK VINA RESULT:     -10.7      5.170     10.057
REMARK SMILES CC(C)CN(C)S(=O)(=O)c1cc(C(=O)OCCOC(=O)c2ccc(-c3c4nc(c(-c5cccc(S(=O)(=O)[O-])c5F)c5ccc([nH]5)c(-c5cccc(S(=O)(=O)[O-])c5F)c5nc(c(-c6cccc(S(=O)(=O)[O-])c6F)c6ccc3[nH]6)C=C5)C=C4)cc2)n(C)c1
REMARK SMILES IDX 16 1 15 2 13 3 14 4 12 5 10 6 11 7 86 8 84 9 85 10 7 11 8 12
REMARK SMILES IDX 9 13 5 14 6 15 4 16 2 17 1 18 3 19 17 20 18 21 19 22 20 23
REMARK SMILES IDX 21 24 22 25 83 26 23 27 82 28 24 29 25 30 26 31 76 32 27 33
REMARK SMILES IDX 81 34 75 35 77 36 28 37 80 38 74 39 73 40 29 42 61 43 41 44
REMARK SMILES IDX 60 45 42 46 45 47 59 48 78 49 43 50 44 51 58 53 79 54 46 55
REMARK SMILES IDX 30 56 31 57 39 58 32 59 34 60 40 61 33 62 35 63 36 64 37 65
REMARK SMILES IDX 38 66 62 67 63 68 71 69 64 70 66 71 72 72 65 73 67 74 68 75
REMARK SMILES IDX 69 76 70 77 47 78 48 79 56 80 49 81 51 82 57 83 50 84 52 85
REMARK SMILES IDX 53 86 54 87 55 88
REMARK H PARENT 77 41 45 52
REMARK Flexibility Score: inf
ROOT
ATOM      1  C   UNL A   1      32.180  29.574  25.353  1.00  0.00     0.275 C 
ENDROOT
BRANCH   1   2
ATOM      2  O   UNL A   1      32.768  28.598  26.237  1.00  0.00    -0.457 OA
BRANCH   2   3
ATOM      3  C   UNL A   1      32.038  27.475  26.470  1.00  0.00     0.355 C 
ATOM      4  O   UNL A   1      31.092  27.415  27.252  1.00  0.00    -0.244 OA
BRANCH   3   5
ATOM      5  C   UNL A   1      32.428  26.391  25.586  1.00  0.00     0.128 A 
ATOM      6  C   UNL A   1      33.611  24.639  24.717  1.00  0.00     0.101 A 
ATOM      7  C   UNL A   1      33.629  25.691  25.658  1.00  0.00     0.057 A 
ATOM      8  C   UNL A   1      32.429  24.763  24.016  1.00  0.00     0.107 A 
ATOM      9  N   UNL A   1      31.756  25.866  24.497  1.00  0.00    -0.344 N 
ATOM     10  C   UNL A   1      30.640  26.457  23.791  1.00  0.00     0.150 C 
BRANCH   6  11
ATOM     11  S   UNL A   1      34.913  23.528  24.420  1.00  0.00     0.244 S 
ATOM     12  O   UNL A   1      36.036  24.119  25.119  1.00  0.00    -0.207 OA
ATOM     13  O   UNL A   1      34.905  23.414  22.980  1.00  0.00    -0.207 OA
BRANCH  11  14
ATOM     14  N   UNL A   1      34.602  21.982  25.130  1.00  0.00    -0.201 NA
ATOM     15  C   UNL A   1      35.770  21.487  25.924  1.00  0.00     0.124 C 
BRANCH  14  16
ATOM     16  C   UNL A   1      34.229  20.921  24.116  1.00  0.00     0.105 C 
BRANCH  16  17
ATOM     17  C   UNL A   1      32.720  20.639  24.004  1.00  0.00    -0.002 C 
ATOM     18  C   UNL A   1      32.078  21.221  22.746  1.00  0.00     0.009 C 
ATOM     19  C   UNL A   1      32.494  19.118  23.994  1.00  0.00     0.009 C 
ENDBRANCH  16  17
ENDBRANCH  14  16
ENDBRANCH  11  14
ENDBRANCH   6  11
ENDBRANCH   3   5
ENDBRANCH   2   3
ENDBRANCH   1   2
BRANCH   1  20
ATOM     20  C   UNL A   1      31.748  30.823  26.124  1.00  0.00     0.275 C 
BRANCH  20  21
ATOM     21  O   UNL A   1      32.482  30.945  27.355  1.00  0.00    -0.458 OA
BRANCH  21  22
ATOM     22  C   UNL A   1      33.250  32.054  27.456  1.00  0.00     0.338 C 
ATOM     23  O   UNL A   1      32.896  33.215  27.327  1.00  0.00    -0.246 OA
BRANCH  22  24
ATOM     24  C   UNL A   1      34.608  31.682  27.871  1.00  0.00     0.060 A 
ATOM     25  C   UNL A   1      34.820  30.370  28.275  1.00  0.00     0.016 A 
ATOM     26  C   UNL A   1      35.616  32.629  28.012  1.00  0.00     0.016 A 
ATOM     27  C   UNL A   1      35.997  30.012  28.921  1.00  0.00     0.010 A 
ATOM     28  C   UNL A   1      36.841  32.244  28.577  1.00  0.00     0.010 A 
ATOM     29  C   UNL A   1      37.031  30.942  29.081  1.00  0.00    -0.014 A 
BRANCH  29  30
ATOM     30  C   UNL A   1      38.283  30.555  29.795  1.00  0.00     0.031 A 
ATOM     31  C   UNL A   1      39.272  29.616  29.150  1.00  0.00     0.074 A 
ATOM     32  C   UNL A   1      38.544  31.044  31.026  1.00  0.00     0.049 A 
ATOM     33  N   UNL A   1      40.331  29.047  29.665  1.00  0.00    -0.248 NA
ATOM     34  C   UNL A   1      39.033  29.258  27.741  1.00  0.00     0.031 C 
ATOM     35  C   UNL A   1      37.692  31.979  31.765  1.00  0.00     0.029 A 
ATOM     36  N   UNL A   1      39.595  30.813  31.881  1.00  0.00    -0.354 N 
ATOM     37  C   UNL A   1      40.834  28.204  28.680  1.00  0.00     0.074 A 
ATOM     38  C   UNL A   1      39.971  28.345  27.528  1.00  0.00     0.031 C 
ATOM     39  C   UNL A   1      38.261  32.257  32.947  1.00  0.00     0.029 A 
ATOM     40  C   UNL A   1      39.462  31.447  33.096  1.00  0.00     0.049 A 
ATOM     41  H   UNL A   1      40.367  30.248  31.648  1.00  0.00     0.167 HD
ATOM     42  C   UNL A   1      41.916  27.389  28.729  1.00  0.00     0.034 A 
ATOM     43  C   UNL A   1      40.187  31.350  34.228  1.00  0.00     0.034 A 
ATOM     44  C   UNL A   1      42.806  27.295  29.856  1.00  0.00     0.049 A 
ATOM     45  C   UNL A   1      41.373  30.432  34.261  1.00  0.00     0.074 A 
ATOM     46  C   UNL A   1      43.958  26.537  29.981  1.00  0.00     0.029 A 
ATOM     47  N   UNL A   1      42.647  27.976  31.053  1.00  0.00    -0.354 N 
ATOM     48  N   UNL A   1      41.858  29.678  33.304  1.00  0.00    -0.248 NA
ATOM     49  C   UNL A   1      42.122  30.359  35.522  1.00  0.00     0.031 C 
ATOM     50  C   UNL A   1      44.474  26.731  31.266  1.00  0.00     0.029 A 
ATOM     51  C   UNL A   1      43.672  27.648  31.926  1.00  0.00     0.049 A 
ATOM     52  H   UNL A   1      41.914  28.601  31.254  1.00  0.00     0.167 HD
ATOM     53  C   UNL A   1      42.987  29.067  33.837  1.00  0.00     0.074 A 
ATOM     54  C   UNL A   1      43.124  29.555  35.194  1.00  0.00     0.031 C 
ATOM     55  C   UNL A   1      43.826  28.175  33.257  1.00  0.00     0.034 A 
BRANCH  42  56
ATOM     56  C   UNL A   1      42.204  26.523  27.527  1.00  0.00     0.023 A 
ATOM     57  C   UNL A   1      42.911  27.048  26.426  1.00  0.00     0.012 A 
ATOM     58  C   UNL A   1      41.821  25.166  27.515  1.00  0.00     0.148 A 
ATOM     59  C   UNL A   1      43.197  26.249  25.318  1.00  0.00     0.002 A 
ATOM     60  C   UNL A   1      42.154  24.363  26.430  1.00  0.00     0.091 A 
ATOM     61  F   UNL A   1      41.135  24.687  28.562  1.00  0.00    -0.205 F 
ATOM     62  C   UNL A   1      42.828  24.906  25.325  1.00  0.00     0.022 A 
BRANCH  60  63
ATOM     63  S   UNL A   1      41.799  22.603  26.382  1.00  0.00     0.127 S 
ATOM     64  O   UNL A   1      40.338  22.599  26.309  1.00  0.00    -0.237 OA
ATOM     65  O   UNL A   1      42.472  22.187  25.151  1.00  0.00    -0.237 OA
ATOM     66  O   UNL A   1      42.364  22.044  27.603  1.00  0.00    -0.744 OA
ENDBRANCH  60  63
ENDBRANCH  42  56
BRANCH  43  67
ATOM     67  C   UNL A   1      39.795  32.144  35.429  1.00  0.00     0.023 A 
ATOM     68  C   UNL A   1      40.263  33.463  35.577  1.00  0.00     0.012 A 
ATOM     69  C   UNL A   1      38.933  31.608  36.407  1.00  0.00     0.148 A 
ATOM     70  C   UNL A   1      39.900  34.224  36.689  1.00  0.00     0.002 A 
ATOM     71  C   UNL A   1      38.524  32.392  37.477  1.00  0.00     0.091 A 
ATOM     72  F   UNL A   1      38.512  30.344  36.257  1.00  0.00    -0.205 F 
ATOM     73  C   UNL A   1      39.022  33.696  37.630  1.00  0.00     0.022 A 
BRANCH  71  74
ATOM     74  S   UNL A   1      37.288  31.841  38.658  1.00  0.00     0.127 S 
ATOM     75  O   UNL A   1      37.110  30.442  38.274  1.00  0.00    -0.237 OA
ATOM     76  O   UNL A   1      37.978  32.047  39.932  1.00  0.00    -0.237 OA
ATOM     77  O   UNL A   1      36.134  32.704  38.453  1.00  0.00    -0.744 OA
ENDBRANCH  71  74
ENDBRANCH  43  67
BRANCH  55  78
ATOM     78  C   UNL A   1      45.009  27.705  34.064  1.00  0.00     0.023 A 
ATOM     79  C   UNL A   1      46.210  28.440  34.055  1.00  0.00     0.012 A 
ATOM     80  C   UNL A   1      44.901  26.564  34.883  1.00  0.00     0.148 A 
ATOM     81  C   UNL A   1      47.298  28.026  34.824  1.00  0.00     0.002 A 
ATOM     82  C   UNL A   1      45.969  26.189  35.687  1.00  0.00     0.091 A 
ATOM     83  F   UNL A   1      43.755  25.868  34.862  1.00  0.00    -0.205 F 
ATOM     84  C   UNL A   1      47.174  26.910  35.648  1.00  0.00     0.022 A 
BRANCH  82  85
ATOM     85  S   UNL A   1      45.866  24.827  36.853  1.00  0.00     0.127 S 
ATOM     86  O   UNL A   1      45.933  23.668  35.964  1.00  0.00    -0.237 OA
ATOM     87  O   UNL A   1      47.056  25.034  37.676  1.00  0.00    -0.237 OA
ATOM     88  O   UNL A   1      44.603  24.996  37.560  1.00  0.00    -0.744 OA
ENDBRANCH  82  85
ENDBRANCH  55  78
ENDBRANCH  29  30
ENDBRANCH  22  24
ENDBRANCH  21  22
ENDBRANCH  20  21
ENDBRANCH   1  20
TORSDOF 18
ENDMDL
MODEL 3
REMARK VINA RESULT:     -10.7      1.361      1.967
REMARK SMILES CC(C)CN(C)S(=O)(=O)c1cc(C(=O)OCCOC(=O)c2ccc(-c3c4nc(c(-c5cccc(S(=O)(=O)[O-])c5F)c5ccc([nH]5)c(-c5cccc(S(=O)(=O)[O-])c5F)c5nc(c(-c6cccc(S(=O)(=O)[O-])c6F)c6ccc3[nH]6)C=C5)C=C4)cc2)n(C)c1
REMARK SMILES IDX 16 1 15 2 13 3 14 4 12 5 10 6 11 7 86 8 84 9 85 10 7 11 8 12
REMARK SMILES IDX 9 13 5 14 6 15 4 16 2 17 1 18 3 19 17 20 18 21 19 22 20 23
REMARK SMILES IDX 21 24 22 25 83 26 23 27 82 28 24 29 25 30 26 31 76 32 27 33
REMARK SMILES IDX 81 34 75 35 77 36 28 37 80 38 74 39 73 40 29 42 61 43 41 44
REMARK SMILES IDX 60 45 42 46 45 47 59 48 78 49 43 50 44 51 58 53 79 54 46 55
REMARK SMILES IDX 30 56 31 57 39 58 32 59 34 60 40 61 33 62 35 63 36 64 37 65
REMARK SMILES IDX 38 66 62 67 63 68 71 69 64 70 66 71 72 72 65 73 67 74 68 75
REMARK SMILES IDX 69 76 70 77 47 78 48 79 56 80 49 81 51 82 57 83 50 84 52 85
REMARK SMILES IDX 53 86 54 87 55 88
REMARK H PARENT 77 41 45 52
REMARK Flexibility Score: inf
ROOT
ATOM      1  C   UNL A   1      35.402  20.261  25.377  1.00  0.00     0.275 C 
ENDROOT
BRANCH   1   2
ATOM      2  O   UNL A   1      34.493  21.368  25.214  1.00  0.00    -0.457 OA
BRANCH   2   3
ATOM      3  C   UNL A   1      33.993  21.915  26.353  1.00  0.00     0.355 C 
ATOM      4  O   UNL A   1      34.073  21.394  27.463  1.00  0.00    -0.244 OA
BRANCH   3   5
ATOM      5  C   UNL A   1      33.469  23.249  26.121  1.00  0.00     0.128 A 
ATOM      6  C   UNL A   1      32.021  25.016  26.070  1.00  0.00     0.101 A 
ATOM      7  C   UNL A   1      32.136  23.624  26.269  1.00  0.00     0.057 A 
ATOM      8  C   UNL A   1      33.276  25.465  25.714  1.00  0.00     0.107 A 
ATOM      9  N   UNL A   1      34.127  24.381  25.675  1.00  0.00    -0.344 N 
ATOM     10  C   UNL A   1      35.430  24.446  25.050  1.00  0.00     0.150 C 
BRANCH   6  11
ATOM     11  S   UNL A   1      30.539  25.922  26.113  1.00  0.00     0.244 S 
ATOM     12  O   UNL A   1      30.900  27.139  26.812  1.00  0.00    -0.207 OA
ATOM     13  O   UNL A   1      29.611  24.977  26.690  1.00  0.00    -0.207 OA
BRANCH  11  14
ATOM     14  N   UNL A   1      30.016  26.359  24.524  1.00  0.00    -0.201 NA
ATOM     15  C   UNL A   1      30.685  25.534  23.469  1.00  0.00     0.124 C 
BRANCH  14  16
ATOM     16  C   UNL A   1      30.239  27.821  24.200  1.00  0.00     0.105 C 
BRANCH  16  17
ATOM     17  C   UNL A   1      29.581  28.300  22.893  1.00  0.00    -0.002 C 
ATOM     18  C   UNL A   1      28.232  28.986  23.101  1.00  0.00     0.009 C 
ATOM     19  C   UNL A   1      30.520  29.297  22.196  1.00  0.00     0.009 C 
ENDBRANCH  16  17
ENDBRANCH  14  16
ENDBRANCH  11  14
ENDBRANCH   6  11
ENDBRANCH   3   5
ENDBRANCH   2   3
ENDBRANCH   1   2
BRANCH   1  20
ATOM     20  C   UNL A   1      36.703  20.501  24.609  1.00  0.00     0.275 C 
BRANCH  20  21
ATOM     21  O   UNL A   1      37.457  21.575  25.199  1.00  0.00    -0.458 OA
BRANCH  21  22
ATOM     22  C   UNL A   1      38.607  21.202  25.804  1.00  0.00     0.338 C 
ATOM     23  O   UNL A   1      39.150  20.110  25.755  1.00  0.00    -0.246 OA
BRANCH  22  24
ATOM     24  C   UNL A   1      39.215  22.359  26.472  1.00  0.00     0.060 A 
ATOM     25  C   UNL A   1      38.695  23.614  26.184  1.00  0.00     0.016 A 
ATOM     26  C   UNL A   1      40.368  22.238  27.241  1.00  0.00     0.016 A 
ATOM     27  C   UNL A   1      39.375  24.765  26.567  1.00  0.00     0.010 A 
ATOM     28  C   UNL A   1      41.000  23.399  27.710  1.00  0.00     0.010 A 
ATOM     29  C   UNL A   1      40.538  24.678  27.340  1.00  0.00    -0.014 A 
BRANCH  29  30
ATOM     30  C   UNL A   1      41.274  25.918  27.728  1.00  0.00     0.031 A 
ATOM     31  C   UNL A   1      40.595  26.981  28.557  1.00  0.00     0.074 A 
ATOM     32  C   UNL A   1      42.555  26.098  27.344  1.00  0.00     0.049 A 
ATOM     33  N   UNL A   1      41.012  28.183  28.862  1.00  0.00    -0.248 NA
ATOM     34  C   UNL A   1      39.266  26.656  29.103  1.00  0.00     0.031 C 
ATOM     35  C   UNL A   1      43.348  25.147  26.561  1.00  0.00     0.029 A 
ATOM     36  N   UNL A   1      43.415  27.151  27.547  1.00  0.00    -0.354 N 
ATOM     37  C   UNL A   1      39.971  28.785  29.560  1.00  0.00     0.074 A 
ATOM     38  C   UNL A   1      38.904  27.811  29.644  1.00  0.00     0.031 C 
ATOM     39  C   UNL A   1      44.577  25.646  26.369  1.00  0.00     0.029 A 
ATOM     40  C   UNL A   1      44.632  26.992  26.924  1.00  0.00     0.049 A 
ATOM     41  H   UNL A   1      43.183  27.942  28.085  1.00  0.00     0.167 HD
ATOM     42  C   UNL A   1      39.907  30.034  30.084  1.00  0.00     0.034 A 
ATOM     43  C   UNL A   1      45.661  27.847  26.762  1.00  0.00     0.034 A 
ATOM     44  C   UNL A   1      40.992  30.980  30.048  1.00  0.00     0.049 A 
ATOM     45  C   UNL A   1      45.563  29.227  27.341  1.00  0.00     0.074 A 
ATOM     46  C   UNL A   1      41.043  32.250  30.597  1.00  0.00     0.029 A 
ATOM     47  N   UNL A   1      42.215  30.765  29.431  1.00  0.00    -0.354 N 
ATOM     48  N   UNL A   1      44.588  29.763  28.035  1.00  0.00    -0.248 NA
ATOM     49  C   UNL A   1      46.710  30.120  27.128  1.00  0.00     0.031 C 
ATOM     50  C   UNL A   1      42.281  32.816  30.279  1.00  0.00     0.029 A 
ATOM     51  C   UNL A   1      43.022  31.881  29.574  1.00  0.00     0.049 A 
ATOM     52  H   UNL A   1      42.472  29.939  28.960  1.00  0.00     0.167 HD
ATOM     53  C   UNL A   1      45.017  31.041  28.371  1.00  0.00     0.074 A 
ATOM     54  C   UNL A   1      46.348  31.193  27.819  1.00  0.00     0.031 C 
ATOM     55  C   UNL A   1      44.363  32.005  29.062  1.00  0.00     0.034 A 
BRANCH  42  56
ATOM     56  C   UNL A   1      38.619  30.460  30.743  1.00  0.00     0.023 A 
ATOM     57  C   UNL A   1      38.418  30.239  32.121  1.00  0.00     0.012 A 
ATOM     58  C   UNL A   1      37.627  31.136  30.003  1.00  0.00     0.148 A 
ATOM     59  C   UNL A   1      37.236  30.647  32.742  1.00  0.00     0.002 A 
ATOM     60  C   UNL A   1      36.474  31.584  30.638  1.00  0.00     0.091 A 
ATOM     61  F   UNL A   1      37.825  31.323  28.690  1.00  0.00    -0.205 F 
ATOM     62  C   UNL A   1      36.271  31.327  32.003  1.00  0.00     0.022 A 
BRANCH  60  63
ATOM     63  S   UNL A   1      35.212  32.544  29.795  1.00  0.00     0.127 S 
ATOM     64  O   UNL A   1      34.226  32.733  30.858  1.00  0.00    -0.237 OA
ATOM     65  O   UNL A   1      35.945  33.754  29.422  1.00  0.00    -0.237 OA
ATOM     66  O   UNL A   1      34.770  31.730  28.671  1.00  0.00    -0.744 OA
ENDBRANCH  60  63
ENDBRANCH  42  56
BRANCH  43  67
ATOM     67  C   UNL A   1      46.872  27.415  26.004  1.00  0.00     0.023 A 
ATOM     68  C   UNL A   1      46.981  27.717  24.633  1.00  0.00     0.012 A 
ATOM     69  C   UNL A   1      47.930  26.740  26.644  1.00  0.00     0.148 A 
ATOM     70  C   UNL A   1      48.110  27.331  23.910  1.00  0.00     0.002 A 
ATOM     71  C   UNL A   1      49.078  26.416  25.933  1.00  0.00     0.091 A 
ATOM     72  F   UNL A   1      47.800  26.447  27.946  1.00  0.00    -0.205 F 
ATOM     73  C   UNL A   1      49.162  26.694  24.560  1.00  0.00     0.022 A 
BRANCH  71  74
ATOM     74  S   UNL A   1      50.535  25.721  26.722  1.00  0.00     0.127 S 
ATOM     75  O   UNL A   1      50.017  24.461  27.249  1.00  0.00    -0.237 OA
ATOM     76  O   UNL A   1      51.452  25.586  25.589  1.00  0.00    -0.237 OA
ATOM     77  O   UNL A   1      50.949  26.700  27.717  1.00  0.00    -0.744 OA
ENDBRANCH  71  74
ENDBRANCH  43  67
BRANCH  55  78
ATOM     78  C   UNL A   1      45.093  33.297  29.319  1.00  0.00     0.023 A 
ATOM     79  C   UNL A   1      45.937  33.424  30.441  1.00  0.00     0.012 A 
ATOM     80  C   UNL A   1      44.991  34.364  28.405  1.00  0.00     0.148 A 
ATOM     81  C   UNL A   1      46.640  34.608  30.665  1.00  0.00     0.002 A 
ATOM     82  C   UNL A   1      45.735  35.519  28.606  1.00  0.00     0.091 A 
ATOM     83  F   UNL A   1      44.167  34.229  27.355  1.00  0.00    -0.205 F 
ATOM     84  C   UNL A   1      46.549  35.649  29.744  1.00  0.00     0.022 A 
BRANCH  82  85
ATOM     85  S   UNL A   1      45.759  36.869  27.422  1.00  0.00     0.127 S 
ATOM     86  O   UNL A   1      44.368  37.319  27.456  1.00  0.00    -0.237 OA
ATOM     87  O   UNL A   1      46.714  37.794  28.028  1.00  0.00    -0.237 OA
ATOM     88  O   UNL A   1      46.195  36.289  26.158  1.00  0.00    -0.744 OA
ENDBRANCH  82  85
ENDBRANCH  55  78
ENDBRANCH  29  30
ENDBRANCH  22  24
ENDBRANCH  21  22
ENDBRANCH  20  21
ENDBRANCH   1  20
TORSDOF 18
ENDMDL
