MODEL 1
REMARK VINA RESULT:     -11.4      0.000      0.000
REMARK SMILES CC(C)(O)C#Cc1ccc(C(=O)N[C@@H](CCC(N)=O)C(=O)OCCOC(=O)c2ccc(-c3c4nc(c(-c5cccc(S(=O)(=O)[O-])c5F)c5ccc([nH]5)c(-c5cccc(S(=O)(=O)[O-])c5F)c5nc(c(-c6cccc(S(=O)(=O)[O-])c6F)c6ccc3[nH]6)C=C5)C=C4)cc2)s1
REMARK SMILES IDX 23 1 22 2 20 3 21 4 14 5 13 6 11 7 12 8 10 10 7 11 8 12
REMARK SMILES IDX 91 13 9 14 6 15 5 16 2 17 1 18 3 19 4 20 15 22 16 23 17 24
REMARK SMILES IDX 18 25 19 26 24 29 25 30 26 31 27 32 28 33 29 34 90 35 30 36
REMARK SMILES IDX 89 37 31 38 32 39 33 40 83 41 34 42 88 43 82 44 84 45 35 46
REMARK SMILES IDX 87 47 81 48 80 49 36 51 68 52 48 53 67 54 49 55 52 56 66 57
REMARK SMILES IDX 85 58 50 59 51 60 65 62 86 63 53 64 37 65 38 66 46 67 39 68
REMARK SMILES IDX 41 69 47 70 40 71 42 72 43 73 44 74 45 75 69 76 70 77 78 78
REMARK SMILES IDX 71 79 73 80 79 81 72 82 74 83 75 84 76 85 77 86 54 87 55 88
REMARK SMILES IDX 63 89 56 90 58 91 64 92 57 93 59 94 60 95 61 96 62 97
REMARK H PARENT 13 9 4 21 18 27 18 28 84 50 52 61
REMARK Flexibility Score: inf
ROOT
ATOM      1  C   UNL A   1      37.142  21.823  24.391  1.00  0.00     0.274 C 
ENDROOT
BRANCH   1   2
ATOM      2  O   UNL A   1      35.715  21.672  24.303  1.00  0.00    -0.461 OA
BRANCH   2   3
ATOM      3  C   UNL A   1      34.986  22.506  25.085  1.00  0.00     0.328 C 
ATOM      4  O   UNL A   1      35.244  22.772  26.257  1.00  0.00    -0.250 OA
BRANCH   3   5
ATOM      5  C   UNL A   1      33.681  22.954  24.419  1.00  0.00     0.193 C 
BRANCH   5   6
ATOM      6  N   UNL A   1      33.672  23.307  22.993  1.00  0.00    -0.338 N 
ATOM      7  C   UNL A   1      32.891  24.182  22.261  1.00  0.00     0.262 C 
ATOM      8  O   UNL A   1      33.136  24.253  21.054  1.00  0.00    -0.268 OA
ATOM      9  H   UNL A   1      34.349  22.831  22.460  1.00  0.00     0.164 HD
BRANCH   7  10
ATOM     10  C   UNL A   1      31.892  25.042  22.882  1.00  0.00     0.093 A 
ATOM     11  C   UNL A   1      30.419  26.944  23.307  1.00  0.00     0.078 A 
ATOM     12  C   UNL A   1      29.794  25.762  23.632  1.00  0.00     0.030 A 
ATOM     13  S   UNL A   1      32.104  26.714  23.175  1.00  0.00    -0.121 S 
ATOM     14  C   UNL A   1      30.673  24.649  23.425  1.00  0.00     0.027 A 
BRANCH  11  15
ATOM     15  C   UNL A   1      29.826  28.224  23.147  1.00  0.00    -0.053 C 
ATOM     16  C   UNL A   1      29.290  29.364  22.812  1.00  0.00    -0.063 C 
BRANCH  16  17
ATOM     17  C   UNL A   1      28.665  30.693  22.422  1.00  0.00     0.120 C 
ATOM     18  C   UNL A   1      27.727  31.167  23.529  1.00  0.00     0.056 C 
ATOM     19  C   UNL A   1      27.925  30.546  21.094  1.00  0.00     0.056 C 
BRANCH  17  20
ATOM     20  O   UNL A   1      29.712  31.650  22.259  1.00  0.00    -0.378 OA
ATOM     21  H   UNL A   1      30.180  31.762  23.102  1.00  0.00     0.212 HD
ENDBRANCH  17  20
ENDBRANCH  16  17
ENDBRANCH  11  15
ENDBRANCH   7  10
ENDBRANCH   5   6
BRANCH   5  22
ATOM     22  C   UNL A   1      32.616  21.876  24.689  1.00  0.00     0.047 C 
BRANCH  22  23
ATOM     23  C   UNL A   1      31.443  22.331  25.571  1.00  0.00     0.102 C 
BRANCH  23  24
ATOM     24  C   UNL A   1      31.796  22.884  26.937  1.00  0.00     0.217 C 
ATOM     25  N   UNL A   1      32.581  22.101  27.727  1.00  0.00    -0.370 N 
ATOM     26  O   UNL A   1      31.442  23.994  27.320  1.00  0.00    -0.275 OA
ATOM     27  H   UNL A   1      32.861  21.211  27.414  1.00  0.00     0.159 HD
ATOM     28  H   UNL A   1      32.868  22.425  28.611  1.00  0.00     0.159 HD
ENDBRANCH  23  24
ENDBRANCH  22  23
ENDBRANCH   5  22
ENDBRANCH   3   5
ENDBRANCH   2   3
ENDBRANCH   1   2
BRANCH   1  29
ATOM     29  C   UNL A   1      37.776  20.494  24.754  1.00  0.00     0.275 C 
BRANCH  29  30
ATOM     30  O   UNL A   1      38.588  20.622  25.922  1.00  0.00    -0.458 OA
BRANCH  30  31
ATOM     31  C   UNL A   1      39.793  20.019  25.819  1.00  0.00     0.338 C 
ATOM     32  O   UNL A   1      40.020  18.873  25.472  1.00  0.00    -0.246 OA
BRANCH  31  33
ATOM     33  C   UNL A   1      40.823  20.847  26.432  1.00  0.00     0.060 A 
ATOM     34  C   UNL A   1      40.857  20.843  27.831  1.00  0.00     0.016 A 
ATOM     35  C   UNL A   1      41.427  21.847  25.664  1.00  0.00     0.016 A 
ATOM     36  C   UNL A   1      41.337  21.956  28.475  1.00  0.00     0.010 A 
ATOM     37  C   UNL A   1      41.884  22.966  26.306  1.00  0.00     0.010 A 
ATOM     38  C   UNL A   1      41.763  23.030  27.695  1.00  0.00    -0.014 A 
BRANCH  38  39
ATOM     39  C   UNL A   1      42.169  24.233  28.380  1.00  0.00     0.031 A 
ATOM     40  C   UNL A   1      41.221  25.351  28.192  1.00  0.00     0.074 A 
ATOM     41  C   UNL A   1      43.212  24.231  29.228  1.00  0.00     0.049 A 
ATOM     42  N   UNL A   1      41.441  26.508  27.662  1.00  0.00    -0.248 NA
ATOM     43  C   UNL A   1      39.803  25.077  28.486  1.00  0.00     0.031 C 
ATOM     44  C   UNL A   1      43.963  23.061  29.700  1.00  0.00     0.029 A 
ATOM     45  N   UNL A   1      43.698  25.248  29.989  1.00  0.00    -0.354 N 
ATOM     46  C   UNL A   1      40.235  27.190  27.795  1.00  0.00     0.074 A 
ATOM     47  C   UNL A   1      39.228  26.206  28.081  1.00  0.00     0.031 C 
ATOM     48  C   UNL A   1      44.602  23.388  30.844  1.00  0.00     0.029 A 
ATOM     49  C   UNL A   1      44.400  24.803  31.102  1.00  0.00     0.049 A 
ATOM     50  H   UNL A   1      43.566  26.199  29.774  1.00  0.00     0.167 HD
ATOM     51  C   UNL A   1      40.204  28.535  27.981  1.00  0.00     0.034 A 
ATOM     52  C   UNL A   1      44.685  25.526  32.209  1.00  0.00     0.034 A 
ATOM     53  C   UNL A   1      41.433  29.159  27.566  1.00  0.00     0.049 A 
ATOM     54  C   UNL A   1      44.506  26.957  31.874  1.00  0.00     0.074 A 
ATOM     55  C   UNL A   1      42.151  29.225  26.390  1.00  0.00     0.029 A 
ATOM     56  N   UNL A   1      42.285  29.561  28.563  1.00  0.00    -0.354 N 
ATOM     57  N   UNL A   1      45.264  27.616  31.042  1.00  0.00    -0.248 NA
ATOM     58  C   UNL A   1      43.233  27.587  32.188  1.00  0.00     0.031 C 
ATOM     59  C   UNL A   1      43.518  29.275  26.787  1.00  0.00     0.029 A 
ATOM     60  C   UNL A   1      43.564  29.262  28.183  1.00  0.00     0.049 A 
ATOM     61  H   UNL A   1      42.020  29.992  29.408  1.00  0.00     0.167 HD
ATOM     62  C   UNL A   1      44.402  28.499  30.405  1.00  0.00     0.074 A 
ATOM     63  C   UNL A   1      43.214  28.538  31.250  1.00  0.00     0.031 C 
ATOM     64  C   UNL A   1      44.612  28.877  29.108  1.00  0.00     0.034 A 
BRANCH  51  65
ATOM     65  C   UNL A   1      39.236  29.228  28.912  1.00  0.00     0.023 A 
ATOM     66  C   UNL A   1      38.583  30.378  28.419  1.00  0.00     0.012 A 
ATOM     67  C   UNL A   1      39.144  28.991  30.306  1.00  0.00     0.148 A 
ATOM     68  C   UNL A   1      37.927  31.271  29.272  1.00  0.00     0.002 A 
ATOM     69  C   UNL A   1      38.412  29.832  31.134  1.00  0.00     0.091 A 
ATOM     70  F   UNL A   1      39.876  28.036  30.884  1.00  0.00    -0.205 F 
ATOM     71  C   UNL A   1      37.831  30.994  30.629  1.00  0.00     0.022 A 
BRANCH  69  72
ATOM     72  S   UNL A   1      38.212  29.463  32.882  1.00  0.00     0.127 S 
ATOM     73  O   UNL A   1      37.610  28.134  32.834  1.00  0.00    -0.237 OA
ATOM     74  O   UNL A   1      39.593  29.505  33.361  1.00  0.00    -0.237 OA
ATOM     75  O   UNL A   1      37.373  30.536  33.403  1.00  0.00    -0.744 OA
ENDBRANCH  69  72
ENDBRANCH  51  65
BRANCH  52  76
ATOM     76  C   UNL A   1      44.852  25.053  33.602  1.00  0.00     0.023 A 
ATOM     77  C   UNL A   1      43.716  24.817  34.396  1.00  0.00     0.012 A 
ATOM     78  C   UNL A   1      46.109  24.617  34.083  1.00  0.00     0.148 A 
ATOM     79  C   UNL A   1      43.823  24.153  35.624  1.00  0.00     0.002 A 
ATOM     80  C   UNL A   1      46.214  23.976  35.313  1.00  0.00     0.091 A 
ATOM     81  F   UNL A   1      47.186  24.752  33.297  1.00  0.00    -0.205 F 
ATOM     82  C   UNL A   1      45.069  23.732  36.082  1.00  0.00     0.022 A 
BRANCH  80  83
ATOM     83  S   UNL A   1      47.789  23.412  35.972  1.00  0.00     0.127 S 
ATOM     84  O   UNL A   1      48.169  24.526  36.844  1.00  0.00    -0.237 OA
ATOM     85  O   UNL A   1      47.405  22.191  36.673  1.00  0.00    -0.237 OA
ATOM     86  O   UNL A   1      48.662  23.233  34.818  1.00  0.00    -0.744 OA
ENDBRANCH  80  83
ENDBRANCH  52  76
BRANCH  64  87
ATOM     87  C   UNL A   1      45.964  28.603  28.498  1.00  0.00     0.023 A 
ATOM     88  C   UNL A   1      47.075  29.439  28.732  1.00  0.00     0.012 A 
ATOM     89  C   UNL A   1      46.161  27.384  27.826  1.00  0.00     0.148 A 
ATOM     90  C   UNL A   1      48.349  29.079  28.284  1.00  0.00     0.002 A 
ATOM     91  C   UNL A   1      47.438  27.007  27.425  1.00  0.00     0.091 A 
ATOM     92  F   UNL A   1      45.097  26.594  27.615  1.00  0.00    -0.205 F 
ATOM     93  C   UNL A   1      48.533  27.857  27.643  1.00  0.00     0.022 A 
BRANCH  91  94
ATOM     94  S   UNL A   1      47.757  25.385  26.724  1.00  0.00     0.127 S 
ATOM     95  O   UNL A   1      48.731  25.689  25.679  1.00  0.00    -0.237 OA
ATOM     96  O   UNL A   1      48.295  24.644  27.866  1.00  0.00    -0.237 OA
ATOM     97  O   UNL A   1      46.464  24.895  26.258  1.00  0.00    -0.744 OA
ENDBRANCH  91  94
ENDBRANCH  64  87
ENDBRANCH  38  39
ENDBRANCH  31  33
ENDBRANCH  30  31
ENDBRANCH  29  30
ENDBRANCH   1  29
TORSDOF 22
ENDMDL
MODEL 2
REMARK VINA RESULT:     -11.2      3.461      7.703
REMARK SMILES CC(C)(O)C#Cc1ccc(C(=O)N[C@@H](CCC(N)=O)C(=O)OCCOC(=O)c2ccc(-c3c4nc(c(-c5cccc(S(=O)(=O)[O-])c5F)c5ccc([nH]5)c(-c5cccc(S(=O)(=O)[O-])c5F)c5nc(c(-c6cccc(S(=O)(=O)[O-])c6F)c6ccc3[nH]6)C=C5)C=C4)cc2)s1
REMARK SMILES IDX 23 1 22 2 20 3 21 4 14 5 13 6 11 7 12 8 10 10 7 11 8 12
REMARK SMILES IDX 91 13 9 14 6 15 5 16 2 17 1 18 3 19 4 20 15 22 16 23 17 24
REMARK SMILES IDX 18 25 19 26 24 29 25 30 26 31 27 32 28 33 29 34 90 35 30 36
REMARK SMILES IDX 89 37 31 38 32 39 33 40 83 41 34 42 88 43 82 44 84 45 35 46
REMARK SMILES IDX 87 47 81 48 80 49 36 51 68 52 48 53 67 54 49 55 52 56 66 57
REMARK SMILES IDX 85 58 50 59 51 60 65 62 86 63 53 64 37 65 38 66 46 67 39 68
REMARK SMILES IDX 41 69 47 70 40 71 42 72 43 73 44 74 45 75 69 76 70 77 78 78
REMARK SMILES IDX 71 79 73 80 79 81 72 82 74 83 75 84 76 85 77 86 54 87 55 88
REMARK SMILES IDX 63 89 56 90 58 91 64 92 57 93 59 94 60 95 61 96 62 97
REMARK H PARENT 13 9 4 21 18 27 18 28 84 50 52 61
REMARK Flexibility Score: inf
ROOT
ATOM      1  C   UNL A   1      32.099  29.325  26.598  1.00  0.00     0.274 C 
ENDROOT
BRANCH   1   2
ATOM      2  O   UNL A   1      31.370  29.387  25.361  1.00  0.00    -0.461 OA
BRANCH   2   3
ATOM      3  C   UNL A   1      31.920  28.718  24.318  1.00  0.00     0.328 C 
ATOM      4  O   UNL A   1      33.124  28.518  24.171  1.00  0.00    -0.250 OA
BRANCH   3   5
ATOM      5  C   UNL A   1      30.901  28.384  23.223  1.00  0.00     0.193 C 
BRANCH   5   6
ATOM      6  N   UNL A   1      29.655  27.690  23.572  1.00  0.00    -0.338 N 
ATOM      7  C   UNL A   1      29.413  26.477  24.191  1.00  0.00     0.262 C 
ATOM      8  O   UNL A   1      28.228  26.168  24.341  1.00  0.00    -0.268 OA
ATOM      9  H   UNL A   1      28.840  28.180  23.318  1.00  0.00     0.164 HD
BRANCH   7  10
ATOM     10  C   UNL A   1      30.485  25.644  24.719  1.00  0.00     0.093 A 
ATOM     11  C   UNL A   1      32.626  24.487  24.931  1.00  0.00     0.078 A 
ATOM     12  C   UNL A   1      32.193  24.936  26.156  1.00  0.00     0.030 A 
ATOM     13  S   UNL A   1      31.341  24.477  23.809  1.00  0.00    -0.121 S 
ATOM     14  C   UNL A   1      30.916  25.577  26.040  1.00  0.00     0.027 A 
BRANCH  11  15
ATOM     15  C   UNL A   1      33.922  24.022  24.584  1.00  0.00    -0.053 C 
ATOM     16  C   UNL A   1      35.133  23.559  24.454  1.00  0.00    -0.063 C 
BRANCH  16  17
ATOM     17  C   UNL A   1      36.546  23.020  24.300  1.00  0.00     0.120 C 
ATOM     18  C   UNL A   1      36.544  21.504  24.486  1.00  0.00     0.056 C 
ATOM     19  C   UNL A   1      37.471  23.701  25.306  1.00  0.00     0.056 C 
BRANCH  17  20
ATOM     20  O   UNL A   1      37.001  23.324  22.981  1.00  0.00    -0.378 OA
ATOM     21  H   UNL A   1      37.130  22.500  22.487  1.00  0.00     0.212 HD
ENDBRANCH  17  20
ENDBRANCH  16  17
ENDBRANCH  11  15
ENDBRANCH   7  10
ENDBRANCH   5   6
BRANCH   5  22
ATOM     22  C   UNL A   1      30.573  29.684  22.468  1.00  0.00     0.047 C 
BRANCH  22  23
ATOM     23  C   UNL A   1      29.079  30.037  22.406  1.00  0.00     0.102 C 
BRANCH  23  24
ATOM     24  C   UNL A   1      28.590  31.092  23.378  1.00  0.00     0.217 C 
ATOM     25  N   UNL A   1      29.538  31.714  24.131  1.00  0.00    -0.370 N 
ATOM     26  O   UNL A   1      27.411  31.419  23.471  1.00  0.00    -0.275 OA
ATOM     27  H   UNL A   1      30.482  31.446  24.052  1.00  0.00     0.159 HD
ATOM     28  H   UNL A   1      29.279  32.430  24.755  1.00  0.00     0.159 HD
ENDBRANCH  23  24
ENDBRANCH  22  23
ENDBRANCH   5  22
ENDBRANCH   3   5
ENDBRANCH   2   3
ENDBRANCH   1   2
BRANCH   1  29
ATOM     29  C   UNL A   1      32.667  30.692  26.927  1.00  0.00     0.275 C 
BRANCH  29  30
ATOM     30  O   UNL A   1      34.084  30.625  27.091  1.00  0.00    -0.458 OA
BRANCH  30  31
ATOM     31  C   UNL A   1      34.608  31.682  27.751  1.00  0.00     0.338 C 
ATOM     32  O   UNL A   1      34.444  32.864  27.505  1.00  0.00    -0.246 OA
BRANCH  31  33
ATOM     33  C   UNL A   1      35.637  31.234  28.680  1.00  0.00     0.060 A 
ATOM     34  C   UNL A   1      36.658  32.153  28.950  1.00  0.00     0.016 A 
ATOM     35  C   UNL A   1      35.767  29.864  28.929  1.00  0.00     0.016 A 
ATOM     36  C   UNL A   1      37.895  31.669  29.295  1.00  0.00     0.010 A 
ATOM     37  C   UNL A   1      37.007  29.382  29.251  1.00  0.00     0.010 A 
ATOM     38  C   UNL A   1      38.064  30.287  29.356  1.00  0.00    -0.014 A 
BRANCH  38  39
ATOM     39  C   UNL A   1      39.392  29.788  29.619  1.00  0.00     0.031 A 
ATOM     40  C   UNL A   1      39.840  30.042  31.004  1.00  0.00     0.074 A 
ATOM     41  C   UNL A   1      40.039  29.026  28.719  1.00  0.00     0.049 A 
ATOM     42  N   UNL A   1      40.860  30.727  31.404  1.00  0.00    -0.248 NA
ATOM     43  C   UNL A   1      38.936  29.612  32.085  1.00  0.00     0.031 C 
ATOM     44  C   UNL A   1      39.488  28.470  27.477  1.00  0.00     0.029 A 
ATOM     45  N   UNL A   1      41.260  28.437  28.817  1.00  0.00    -0.354 N 
ATOM     46  C   UNL A   1      40.853  30.589  32.789  1.00  0.00     0.074 A 
ATOM     47  C   UNL A   1      39.549  30.110  33.155  1.00  0.00     0.031 C 
ATOM     48  C   UNL A   1      40.255  27.427  27.092  1.00  0.00     0.029 A 
ATOM     49  C   UNL A   1      41.395  27.332  27.986  1.00  0.00     0.049 A 
ATOM     50  H   UNL A   1      41.972  28.758  29.415  1.00  0.00     0.167 HD
ATOM     51  C   UNL A   1      42.010  30.571  33.499  1.00  0.00     0.034 A 
ATOM     52  C   UNL A   1      42.315  26.347  28.107  1.00  0.00     0.034 A 
ATOM     53  C   UNL A   1      43.100  31.150  32.760  1.00  0.00     0.049 A 
ATOM     54  C   UNL A   1      43.396  26.844  28.989  1.00  0.00     0.074 A 
ATOM     55  C   UNL A   1      43.347  32.376  32.177  1.00  0.00     0.029 A 
ATOM     56  N   UNL A   1      44.016  30.277  32.230  1.00  0.00    -0.354 N 
ATOM     57  N   UNL A   1      44.218  27.805  28.673  1.00  0.00    -0.248 NA
ATOM     58  C   UNL A   1      43.337  26.517  30.406  1.00  0.00     0.031 C 
ATOM     59  C   UNL A   1      44.136  32.091  31.025  1.00  0.00     0.029 A 
ATOM     60  C   UNL A   1      44.350  30.711  30.977  1.00  0.00     0.049 A 
ATOM     61  H   UNL A   1      44.372  29.475  32.676  1.00  0.00     0.167 HD
ATOM     62  C   UNL A   1      44.443  28.481  29.865  1.00  0.00     0.074 A 
ATOM     63  C   UNL A   1      44.001  27.561  30.907  1.00  0.00     0.031 C 
ATOM     64  C   UNL A   1      44.684  29.827  29.878  1.00  0.00     0.034 A 
BRANCH  51  65
ATOM     65  C   UNL A   1      42.247  29.663  34.685  1.00  0.00     0.023 A 
ATOM     66  C   UNL A   1      42.934  30.215  35.788  1.00  0.00     0.012 A 
ATOM     67  C   UNL A   1      42.094  28.254  34.669  1.00  0.00     0.148 A 
ATOM     68  C   UNL A   1      43.488  29.406  36.786  1.00  0.00     0.002 A 
ATOM     69  C   UNL A   1      42.563  27.465  35.711  1.00  0.00     0.091 A 
ATOM     70  F   UNL A   1      41.622  27.634  33.585  1.00  0.00    -0.205 F 
ATOM     71  C   UNL A   1      43.293  28.031  36.755  1.00  0.00     0.022 A 
BRANCH  69  72
ATOM     72  S   UNL A   1      42.267  25.693  35.734  1.00  0.00     0.127 S 
ATOM     73  O   UNL A   1      43.088  25.244  34.613  1.00  0.00    -0.237 OA
ATOM     74  O   UNL A   1      42.763  25.319  37.058  1.00  0.00    -0.237 OA
ATOM     75  O   UNL A   1      40.824  25.546  35.581  1.00  0.00    -0.744 OA
ENDBRANCH  69  72
ENDBRANCH  51  65
BRANCH  52  76
ATOM     76  C   UNL A   1      42.198  24.924  27.721  1.00  0.00     0.023 A 
ATOM     77  C   UNL A   1      41.059  24.193  28.100  1.00  0.00     0.012 A 
ATOM     78  C   UNL A   1      43.090  24.339  26.791  1.00  0.00     0.148 A 
ATOM     79  C   UNL A   1      40.804  22.926  27.560  1.00  0.00     0.002 A 
ATOM     80  C   UNL A   1      42.845  23.072  26.273  1.00  0.00     0.091 A 
ATOM     81  F   UNL A   1      44.130  25.060  26.350  1.00  0.00    -0.205 F 
ATOM     82  C   UNL A   1      41.695  22.366  26.647  1.00  0.00     0.022 A 
BRANCH  80  83
ATOM     83  S   UNL A   1      43.953  22.284  25.096  1.00  0.00     0.127 S 
ATOM     84  O   UNL A   1      43.528  20.884  25.171  1.00  0.00    -0.237 OA
ATOM     85  O   UNL A   1      43.606  22.962  23.851  1.00  0.00    -0.237 OA
ATOM     86  O   UNL A   1      45.301  22.525  25.595  1.00  0.00    -0.744 OA
ENDBRANCH  80  83
ENDBRANCH  52  76
BRANCH  64  87
ATOM     87  C   UNL A   1      45.043  30.497  28.575  1.00  0.00     0.023 A 
ATOM     88  C   UNL A   1      44.061  30.963  27.678  1.00  0.00     0.012 A 
ATOM     89  C   UNL A   1      46.390  30.825  28.338  1.00  0.00     0.148 A 
ATOM     90  C   UNL A   1      44.416  31.717  26.556  1.00  0.00     0.002 A 
ATOM     91  C   UNL A   1      46.734  31.616  27.249  1.00  0.00     0.091 A 
ATOM     92  F   UNL A   1      47.314  30.381  29.204  1.00  0.00    -0.205 F 
ATOM     93  C   UNL A   1      45.750  32.056  26.349  1.00  0.00     0.022 A 
BRANCH  91  94
ATOM     94  S   UNL A   1      48.414  32.200  27.011  1.00  0.00     0.127 S 
ATOM     95  O   UNL A   1      48.728  32.773  28.318  1.00  0.00    -0.237 OA
ATOM     96  O   UNL A   1      49.139  30.968  26.694  1.00  0.00    -0.237 OA
ATOM     97  O   UNL A   1      48.351  33.149  25.905  1.00  0.00    -0.744 OA
ENDBRANCH  91  94
ENDBRANCH  64  87
ENDBRANCH  38  39
ENDBRANCH  31  33
ENDBRANCH  30  31
ENDBRANCH  29  30
ENDBRANCH   1  29
TORSDOF 22
ENDMDL
MODEL 3
REMARK VINA RESULT:     -11.1      4.674     10.105
REMARK SMILES CC(C)(O)C#Cc1ccc(C(=O)N[C@@H](CCC(N)=O)C(=O)OCCOC(=O)c2ccc(-c3c4nc(c(-c5cccc(S(=O)(=O)[O-])c5F)c5ccc([nH]5)c(-c5cccc(S(=O)(=O)[O-])c5F)c5nc(c(-c6cccc(S(=O)(=O)[O-])c6F)c6ccc3[nH]6)C=C5)C=C4)cc2)s1
REMARK SMILES IDX 23 1 22 2 20 3 21 4 14 5 13 6 11 7 12 8 10 10 7 11 8 12
REMARK SMILES IDX 91 13 9 14 6 15 5 16 2 17 1 18 3 19 4 20 15 22 16 23 17 24
REMARK SMILES IDX 18 25 19 26 24 29 25 30 26 31 27 32 28 33 29 34 90 35 30 36
REMARK SMILES IDX 89 37 31 38 32 39 33 40 83 41 34 42 88 43 82 44 84 45 35 46
REMARK SMILES IDX 87 47 81 48 80 49 36 51 68 52 48 53 67 54 49 55 52 56 66 57
REMARK SMILES IDX 85 58 50 59 51 60 65 62 86 63 53 64 37 65 38 66 46 67 39 68
REMARK SMILES IDX 41 69 47 70 40 71 42 72 43 73 44 74 45 75 69 76 70 77 78 78
REMARK SMILES IDX 71 79 73 80 79 81 72 82 74 83 75 84 76 85 77 86 54 87 55 88
REMARK SMILES IDX 63 89 56 90 58 91 64 92 57 93 59 94 60 95 61 96 62 97
REMARK H PARENT 13 9 4 21 18 27 18 28 84 50 52 61
REMARK Flexibility Score: inf
ROOT
ATOM      1  C   UNL A   1      32.552  30.181  25.889  1.00  0.00     0.274 C 
ENDROOT
BRANCH   1   2
ATOM      2  O   UNL A   1      31.522  29.515  25.139  1.00  0.00    -0.461 OA
BRANCH   2   3
ATOM      3  C   UNL A   1      31.950  28.728  24.121  1.00  0.00     0.328 C 
ATOM      4  O   UNL A   1      32.853  29.022  23.341  1.00  0.00    -0.250 OA
BRANCH   3   5
ATOM      5  C   UNL A   1      31.067  27.493  23.915  1.00  0.00     0.193 C 
BRANCH   5   6
ATOM      6  N   UNL A   1      30.457  26.829  25.074  1.00  0.00    -0.338 N 
ATOM      7  C   UNL A   1      30.397  25.501  25.454  1.00  0.00     0.262 C 
ATOM      8  O   UNL A   1      29.796  25.261  26.504  1.00  0.00    -0.268 OA
ATOM      9  H   UNL A   1      30.006  27.445  25.695  1.00  0.00     0.164 HD
BRANCH   7  10
ATOM     10  C   UNL A   1      31.076  24.446  24.714  1.00  0.00     0.093 A 
ATOM     11  C   UNL A   1      32.145  22.316  24.175  1.00  0.00     0.078 A 
ATOM     12  C   UNL A   1      31.413  22.777  23.106  1.00  0.00     0.030 A 
ATOM     13  S   UNL A   1      32.427  23.573  25.294  1.00  0.00    -0.121 S 
ATOM     14  C   UNL A   1      30.822  24.048  23.405  1.00  0.00     0.027 A 
BRANCH  11  15
ATOM     15  C   UNL A   1      32.677  21.014  24.367  1.00  0.00    -0.053 C 
ATOM     16  C   UNL A   1      33.027  19.760  24.423  1.00  0.00    -0.063 C 
BRANCH  16  17
ATOM     17  C   UNL A   1      33.437  18.297  24.490  1.00  0.00     0.120 C 
ATOM     18  C   UNL A   1      33.163  17.623  23.147  1.00  0.00     0.056 C 
ATOM     19  C   UNL A   1      32.685  17.603  25.623  1.00  0.00     0.056 C 
BRANCH  17  20
ATOM     20  O   UNL A   1      34.836  18.236  24.763  1.00  0.00    -0.378 OA
ATOM     21  H   UNL A   1      35.013  17.509  25.380  1.00  0.00     0.212 HD
ENDBRANCH  17  20
ENDBRANCH  16  17
ENDBRANCH  11  15
ENDBRANCH   7  10
ENDBRANCH   5   6
BRANCH   5  22
ATOM     22  C   UNL A   1      29.974  27.857  22.895  1.00  0.00     0.047 C 
BRANCH  22  23
ATOM     23  C   UNL A   1      29.223  29.164  23.190  1.00  0.00     0.102 C 
BRANCH  23  24
ATOM     24  C   UNL A   1      27.932  29.392  22.429  1.00  0.00     0.217 C 
ATOM     25  N   UNL A   1      26.837  28.715  22.872  1.00  0.00    -0.370 N 
ATOM     26  O   UNL A   1      27.840  30.172  21.488  1.00  0.00    -0.275 OA
ATOM     27  H   UNL A   1      26.917  28.090  23.628  1.00  0.00     0.159 HD
ATOM     28  H   UNL A   1      25.965  28.851  22.435  1.00  0.00     0.159 HD
ENDBRANCH  23  24
ENDBRANCH  22  23
ENDBRANCH   5  22
ENDBRANCH   3   5
ENDBRANCH   2   3
ENDBRANCH   1   2
BRANCH   1  29
ATOM     29  C   UNL A   1      31.985  31.427  26.541  1.00  0.00     0.275 C 
BRANCH  29  30
ATOM     30  O   UNL A   1      32.666  31.713  27.764  1.00  0.00    -0.458 OA
BRANCH  30  31
ATOM     31  C   UNL A   1      32.838  33.032  27.998  1.00  0.00     0.338 C 
ATOM     32  O   UNL A   1      32.154  33.953  27.588  1.00  0.00    -0.246 OA
BRANCH  31  33
ATOM     33  C   UNL A   1      34.135  33.267  28.620  1.00  0.00     0.060 A 
ATOM     34  C   UNL A   1      35.162  33.666  27.757  1.00  0.00     0.016 A 
ATOM     35  C   UNL A   1      34.378  32.733  29.889  1.00  0.00     0.016 A 
ATOM     36  C   UNL A   1      36.455  33.350  28.093  1.00  0.00     0.010 A 
ATOM     37  C   UNL A   1      35.665  32.397  30.212  1.00  0.00     0.010 A 
ATOM     38  C   UNL A   1      36.670  32.646  29.277  1.00  0.00    -0.014 A 
BRANCH  38  39
ATOM     39  C   UNL A   1      38.020  32.229  29.568  1.00  0.00     0.031 A 
ATOM     40  C   UNL A   1      38.252  30.795  29.295  1.00  0.00     0.074 A 
ATOM     41  C   UNL A   1      38.971  33.124  29.885  1.00  0.00     0.049 A 
ATOM     42  N   UNL A   1      38.616  29.870  30.119  1.00  0.00    -0.248 NA
ATOM     43  C   UNL A   1      37.868  30.302  27.960  1.00  0.00     0.031 C 
ATOM     44  C   UNL A   1      38.858  34.587  29.831  1.00  0.00     0.029 A 
ATOM     45  N   UNL A   1      40.291  32.918  30.138  1.00  0.00    -0.354 N 
ATOM     46  C   UNL A   1      38.747  28.729  29.332  1.00  0.00     0.074 A 
ATOM     47  C   UNL A   1      38.060  28.993  28.098  1.00  0.00     0.031 C 
ATOM     48  C   UNL A   1      40.098  35.116  29.772  1.00  0.00     0.029 A 
ATOM     49  C   UNL A   1      41.069  34.045  29.907  1.00  0.00     0.049 A 
ATOM     50  H   UNL A   1      40.657  32.060  30.452  1.00  0.00     0.167 HD
ATOM     51  C   UNL A   1      39.675  27.781  29.617  1.00  0.00     0.034 A 
ATOM     52  C   UNL A   1      42.409  34.067  29.720  1.00  0.00     0.034 A 
ATOM     53  C   UNL A   1      40.120  27.863  30.984  1.00  0.00     0.049 A 
ATOM     54  C   UNL A   1      42.957  32.783  30.214  1.00  0.00     0.074 A 
ATOM     55  C   UNL A   1      39.509  27.797  32.219  1.00  0.00     0.029 A 
ATOM     56  N   UNL A   1      41.363  28.404  31.193  1.00  0.00    -0.354 N 
ATOM     57  N   UNL A   1      42.967  32.423  31.467  1.00  0.00    -0.248 NA
ATOM     58  C   UNL A   1      43.169  31.708  29.257  1.00  0.00     0.031 C 
ATOM     59  C   UNL A   1      40.257  28.675  33.055  1.00  0.00     0.029 A 
ATOM     60  C   UNL A   1      41.299  29.213  32.294  1.00  0.00     0.049 A 
ATOM     61  H   UNL A   1      42.163  28.238  30.645  1.00  0.00     0.167 HD
ATOM     62  C   UNL A   1      42.752  31.051  31.441  1.00  0.00     0.074 A 
ATOM     63  C   UNL A   1      43.034  30.655  30.066  1.00  0.00     0.031 C 
ATOM     64  C   UNL A   1      42.081  30.423  32.453  1.00  0.00     0.034 A 
BRANCH  51  65
ATOM     65  C   UNL A   1      40.477  27.053  28.562  1.00  0.00     0.023 A 
ATOM     66  C   UNL A   1      40.554  25.648  28.671  1.00  0.00     0.012 A 
ATOM     67  C   UNL A   1      41.374  27.673  27.658  1.00  0.00     0.148 A 
ATOM     68  C   UNL A   1      41.509  24.909  27.964  1.00  0.00     0.002 A 
ATOM     69  C   UNL A   1      42.256  26.925  26.889  1.00  0.00     0.091 A 
ATOM     70  F   UNL A   1      41.497  29.002  27.625  1.00  0.00    -0.205 F 
ATOM     71  C   UNL A   1      42.354  25.545  27.064  1.00  0.00     0.022 A 
BRANCH  69  72
ATOM     72  S   UNL A   1      43.314  27.711  25.667  1.00  0.00     0.127 S 
ATOM     73  O   UNL A   1      44.178  26.604  25.272  1.00  0.00    -0.237 OA
ATOM     74  O   UNL A   1      42.345  28.137  24.656  1.00  0.00    -0.237 OA
ATOM     75  O   UNL A   1      43.954  28.815  26.372  1.00  0.00    -0.744 OA
ENDBRANCH  69  72
ENDBRANCH  51  65
BRANCH  52  76
ATOM     76  C   UNL A   1      43.212  35.013  28.913  1.00  0.00     0.023 A 
ATOM     77  C   UNL A   1      42.937  35.163  27.543  1.00  0.00     0.012 A 
ATOM     78  C   UNL A   1      44.095  35.934  29.525  1.00  0.00     0.148 A 
ATOM     79  C   UNL A   1      43.510  36.207  26.805  1.00  0.00     0.002 A 
ATOM     80  C   UNL A   1      44.678  36.956  28.784  1.00  0.00     0.091 A 
ATOM     81  F   UNL A   1      44.294  35.859  30.848  1.00  0.00    -0.205 F 
ATOM     82  C   UNL A   1      44.378  37.103  27.424  1.00  0.00     0.022 A 
BRANCH  80  83
ATOM     83  S   UNL A   1      45.813  38.145  29.514  1.00  0.00     0.127 S 
ATOM     84  O   UNL A   1      44.968  38.791  30.521  1.00  0.00    -0.237 OA
ATOM     85  O   UNL A   1      46.855  37.277  30.055  1.00  0.00    -0.237 OA
ATOM     86  O   UNL A   1      46.223  39.024  28.426  1.00  0.00    -0.744 OA
ENDBRANCH  80  83
ENDBRANCH  52  76
BRANCH  64  87
ATOM     87  C   UNL A   1      41.885  31.172  33.748  1.00  0.00     0.023 A 
ATOM     88  C   UNL A   1      42.881  31.221  34.743  1.00  0.00     0.012 A 
ATOM     89  C   UNL A   1      40.748  31.989  33.884  1.00  0.00     0.148 A 
ATOM     90  C   UNL A   1      42.737  32.046  35.861  1.00  0.00     0.002 A 
ATOM     91  C   UNL A   1      40.631  32.845  34.973  1.00  0.00     0.091 A 
ATOM     92  F   UNL A   1      39.810  31.939  32.926  1.00  0.00    -0.205 F 
ATOM     93  C   UNL A   1      41.619  32.869  35.970  1.00  0.00     0.022 A 
BRANCH  91  94
ATOM     94  S   UNL A   1      39.285  34.027  35.092  1.00  0.00     0.127 S 
ATOM     95  O   UNL A   1      38.112  33.157  35.090  1.00  0.00    -0.237 OA
ATOM     96  O   UNL A   1      39.553  34.689  36.370  1.00  0.00    -0.237 OA
ATOM     97  O   UNL A   1      39.424  34.902  33.933  1.00  0.00    -0.744 OA
ENDBRANCH  91  94
ENDBRANCH  64  87
ENDBRANCH  38  39
ENDBRANCH  31  33
ENDBRANCH  30  31
ENDBRANCH  29  30
ENDBRANCH   1  29
TORSDOF 22
ENDMDL
