MODEL 1
REMARK VINA RESULT:      -8.8      0.000      0.000
REMARK SMILES C#CCN(CC(=O)OCCOC(=O)c1ccc(-c2c3nc(c(-c4cccc(S(=O)(=O)[O-])c4F)c4ccc([nH]4)c(-c4cccc(S(=O)(=O)[O-])c4F)c4nc(c(-c5cccc(S(=O)(=O)[O-])c5F)c5ccc2[nH]5)C=C4)C=C3)cc1)C(=O)[C@H](c1ccc(Cl)cc1)C(C)C
REMARK SMILES IDX 9 1 8 2 6 3 7 4 5 5 4 6 3 7 2 8 1 9 77 10 78 11 79 12 87 13
REMARK SMILES IDX 88 14 89 15 80 16 81 17 86 18 82 19 85 20 83 21 84 22 10 23
REMARK SMILES IDX 11 24 12 25 13 26 14 27 15 28 76 29 16 30 75 31 17 32 18 33
REMARK SMILES IDX 19 34 69 35 20 36 74 37 68 38 70 39 21 40 73 41 67 42 66 43
REMARK SMILES IDX 22 45 54 46 34 47 53 48 35 49 38 50 52 51 71 52 36 53 37 54
REMARK SMILES IDX 51 56 72 57 39 58 23 59 24 60 32 61 25 62 27 63 33 64 26 65
REMARK SMILES IDX 28 66 29 67 30 68 31 69 55 70 56 71 64 72 57 73 59 74 65 75
REMARK SMILES IDX 58 76 60 77 61 78 62 79 63 80 40 81 41 82 49 83 42 84 44 85
REMARK SMILES IDX 50 86 43 87 45 88 46 89 47 90 48 91
REMARK H PARENT 70 44 38 55
REMARK Flexibility Score: inf
ROOT
ATOM      1  C   UNL A   1      35.596  32.981  28.611  1.00  0.00     0.274 C 
ENDROOT
BRANCH   1   2
ATOM      2  O   UNL A   1      35.208  33.875  29.697  1.00  0.00    -0.461 OA
BRANCH   2   3
ATOM      3  C   UNL A   1      35.102  33.296  30.924  1.00  0.00     0.325 C 
ATOM      4  O   UNL A   1      34.023  33.034  31.456  1.00  0.00    -0.250 OA
BRANCH   3   5
ATOM      5  C   UNL A   1      36.426  32.850  31.592  1.00  0.00     0.243 C 
BRANCH   5   6
ATOM      6  N   UNL A   1      36.994  33.334  32.872  1.00  0.00    -0.320 N 
BRANCH   6   7
ATOM      7  C   UNL A   1      37.813  34.540  32.761  1.00  0.00     0.210 C 
BRANCH   7   8
ATOM      8  C   UNL A   1      38.950  34.302  31.850  1.00  0.00    -0.085 C 
ATOM      9  C   UNL A   1      39.895  34.274  31.103  1.00  0.00     0.006 C 
ENDBRANCH   7   8
ENDBRANCH   6   7
BRANCH   6  10
ATOM     10  C   UNL A   1      36.720  32.951  34.189  1.00  0.00     0.231 C 
ATOM     11  O   UNL A   1      35.628  33.271  34.695  1.00  0.00    -0.274 OA
BRANCH  10  12
ATOM     12  C   UNL A   1      37.701  32.216  35.139  1.00  0.00     0.111 C 
BRANCH  12  13
ATOM     13  C   UNL A   1      38.602  31.175  34.392  1.00  0.00    -0.000 C 
ATOM     14  C   UNL A   1      39.609  30.446  35.274  1.00  0.00     0.008 C 
ATOM     15  C   UNL A   1      37.791  30.061  33.696  1.00  0.00     0.008 C 
ENDBRANCH  12  13
BRANCH  12  16
ATOM     16  C   UNL A   1      38.205  33.187  36.239  1.00  0.00    -0.035 A 
ATOM     17  C   UNL A   1      39.024  34.289  35.896  1.00  0.00     0.006 A 
ATOM     18  C   UNL A   1      37.837  33.089  37.591  1.00  0.00     0.006 A 
ATOM     19  C   UNL A   1      39.498  35.198  36.845  1.00  0.00     0.021 A 
ATOM     20  C   UNL A   1      38.335  33.981  38.557  1.00  0.00     0.021 A 
ATOM     21  C   UNL A   1      39.165  35.030  38.179  1.00  0.00     0.041 A 
ATOM     22  Cl  UNL A   1      39.812  36.101  39.358  1.00  0.00    -0.084 Cl
ENDBRANCH  12  16
ENDBRANCH  10  12
ENDBRANCH   6  10
ENDBRANCH   5   6
ENDBRANCH   3   5
ENDBRANCH   2   3
ENDBRANCH   1   2
BRANCH   1  23
ATOM     23  C   UNL A   1      34.411  32.331  27.850  1.00  0.00     0.275 C 
BRANCH  23  24
ATOM     24  O   UNL A   1      34.122  30.943  28.153  1.00  0.00    -0.458 OA
BRANCH  24  25
ATOM     25  C   UNL A   1      35.060  30.109  27.676  1.00  0.00     0.338 C 
ATOM     26  O   UNL A   1      34.947  29.429  26.672  1.00  0.00    -0.246 OA
BRANCH  25  27
ATOM     27  C   UNL A   1      36.338  30.007  28.364  1.00  0.00     0.060 A 
ATOM     28  C   UNL A   1      37.446  30.041  27.511  1.00  0.00     0.016 A 
ATOM     29  C   UNL A   1      36.422  29.419  29.629  1.00  0.00     0.016 A 
ATOM     30  C   UNL A   1      38.624  29.417  27.893  1.00  0.00     0.010 A 
ATOM     31  C   UNL A   1      37.644  28.875  30.048  1.00  0.00     0.010 A 
ATOM     32  C   UNL A   1      38.749  28.857  29.179  1.00  0.00    -0.014 A 
BRANCH  32  33
ATOM     33  C   UNL A   1      40.094  28.452  29.654  1.00  0.00     0.031 A 
ATOM     34  C   UNL A   1      40.906  29.244  30.643  1.00  0.00     0.074 A 
ATOM     35  C   UNL A   1      40.588  27.325  29.105  1.00  0.00     0.049 A 
ATOM     36  N   UNL A   1      42.114  29.009  31.088  1.00  0.00    -0.248 NA
ATOM     37  C   UNL A   1      40.289  30.440  31.233  1.00  0.00     0.031 C 
ATOM     38  C   UNL A   1      39.874  26.480  28.138  1.00  0.00     0.029 A 
ATOM     39  N   UNL A   1      41.807  26.719  29.236  1.00  0.00    -0.354 N 
ATOM     40  C   UNL A   1      42.399  30.021  32.002  1.00  0.00     0.074 A 
ATOM     41  C   UNL A   1      41.223  30.857  32.079  1.00  0.00     0.031 C 
ATOM     42  C   UNL A   1      40.673  25.486  27.743  1.00  0.00     0.029 A 
ATOM     43  C   UNL A   1      41.979  25.686  28.347  1.00  0.00     0.049 A 
ATOM     44  H   UNL A   1      42.486  26.991  29.895  1.00  0.00     0.167 HD
ATOM     45  C   UNL A   1      43.552  30.249  32.678  1.00  0.00     0.034 A 
ATOM     46  C   UNL A   1      43.087  25.026  27.976  1.00  0.00     0.034 A 
ATOM     47  C   UNL A   1      44.744  29.460  32.500  1.00  0.00     0.049 A 
ATOM     48  C   UNL A   1      44.375  25.371  28.648  1.00  0.00     0.074 A 
ATOM     49  C   UNL A   1      45.972  29.600  33.123  1.00  0.00     0.029 A 
ATOM     50  N   UNL A   1      44.874  28.420  31.591  1.00  0.00    -0.354 N 
ATOM     51  N   UNL A   1      44.603  26.278  29.565  1.00  0.00    -0.248 NA
ATOM     52  C   UNL A   1      45.549  24.587  28.259  1.00  0.00     0.031 C 
ATOM     53  C   UNL A   1      46.861  28.692  32.542  1.00  0.00     0.029 A 
ATOM     54  C   UNL A   1      46.169  27.931  31.613  1.00  0.00     0.049 A 
ATOM     55  H   UNL A   1      44.152  28.080  31.015  1.00  0.00     0.167 HD
ATOM     56  C   UNL A   1      45.938  26.142  29.904  1.00  0.00     0.074 A 
ATOM     57  C   UNL A   1      46.465  25.064  29.089  1.00  0.00     0.031 C 
ATOM     58  C   UNL A   1      46.661  26.839  30.813  1.00  0.00     0.034 A 
BRANCH  45  59
ATOM     59  C   UNL A   1      43.614  31.421  33.631  1.00  0.00     0.023 A 
ATOM     60  C   UNL A   1      43.760  32.731  33.135  1.00  0.00     0.012 A 
ATOM     61  C   UNL A   1      43.431  31.229  35.017  1.00  0.00     0.148 A 
ATOM     62  C   UNL A   1      43.746  33.828  34.001  1.00  0.00     0.002 A 
ATOM     63  C   UNL A   1      43.377  32.328  35.870  1.00  0.00     0.091 A 
ATOM     64  F   UNL A   1      43.308  29.976  35.477  1.00  0.00    -0.205 F 
ATOM     65  C   UNL A   1      43.545  33.627  35.364  1.00  0.00     0.022 A 
BRANCH  63  66
ATOM     66  S   UNL A   1      43.051  32.179  37.630  1.00  0.00     0.127 S 
ATOM     67  O   UNL A   1      42.688  33.552  37.980  1.00  0.00    -0.237 OA
ATOM     68  O   UNL A   1      41.940  31.228  37.659  1.00  0.00    -0.237 OA
ATOM     69  O   UNL A   1      44.286  31.693  38.231  1.00  0.00    -0.744 OA
ENDBRANCH  63  66
ENDBRANCH  45  59
BRANCH  46  70
ATOM     70  C   UNL A   1      42.996  24.004  26.901  1.00  0.00     0.023 A 
ATOM     71  C   UNL A   1      43.617  24.241  25.663  1.00  0.00     0.012 A 
ATOM     72  C   UNL A   1      42.376  22.759  27.141  1.00  0.00     0.148 A 
ATOM     73  C   UNL A   1      43.602  23.262  24.670  1.00  0.00     0.002 A 
ATOM     74  C   UNL A   1      42.422  21.768  26.173  1.00  0.00     0.091 A 
ATOM     75  F   UNL A   1      41.796  22.557  28.333  1.00  0.00    -0.205 F 
ATOM     76  C   UNL A   1      43.019  22.024  24.928  1.00  0.00     0.022 A 
BRANCH  74  77
ATOM     77  S   UNL A   1      41.835  20.098  26.477  1.00  0.00     0.127 S 
ATOM     78  O   UNL A   1      42.342  19.387  25.306  1.00  0.00    -0.237 OA
ATOM     79  O   UNL A   1      42.502  19.768  27.736  1.00  0.00    -0.237 OA
ATOM     80  O   UNL A   1      40.385  20.200  26.576  1.00  0.00    -0.744 OA
ENDBRANCH  74  77
ENDBRANCH  46  70
BRANCH  58  81
ATOM     81  C   UNL A   1      48.082  26.405  31.034  1.00  0.00     0.023 A 
ATOM     82  C   UNL A   1      49.111  26.857  30.186  1.00  0.00     0.012 A 
ATOM     83  C   UNL A   1      48.395  25.586  32.136  1.00  0.00     0.148 A 
ATOM     84  C   UNL A   1      50.430  26.469  30.412  1.00  0.00     0.002 A 
ATOM     85  C   UNL A   1      49.716  25.255  32.390  1.00  0.00     0.091 A 
ATOM     86  F   UNL A   1      47.393  25.152  32.913  1.00  0.00    -0.205 F 
ATOM     87  C   UNL A   1      50.734  25.681  31.521  1.00  0.00     0.022 A 
BRANCH  85  88
ATOM     88  S   UNL A   1      50.210  24.333  33.849  1.00  0.00     0.127 S 
ATOM     89  O   UNL A   1      49.244  23.235  33.847  1.00  0.00    -0.237 OA
ATOM     90  O   UNL A   1      51.579  23.943  33.514  1.00  0.00    -0.237 OA
ATOM     91  O   UNL A   1      50.097  25.256  34.970  1.00  0.00    -0.744 OA
ENDBRANCH  85  88
ENDBRANCH  58  81
ENDBRANCH  32  33
ENDBRANCH  25  27
ENDBRANCH  24  25
ENDBRANCH  23  24
ENDBRANCH   1  23
TORSDOF 21
ENDMDL
MODEL 2
REMARK VINA RESULT:      -8.6      4.623      8.247
REMARK SMILES C#CCN(CC(=O)OCCOC(=O)c1ccc(-c2c3nc(c(-c4cccc(S(=O)(=O)[O-])c4F)c4ccc([nH]4)c(-c4cccc(S(=O)(=O)[O-])c4F)c4nc(c(-c5cccc(S(=O)(=O)[O-])c5F)c5ccc2[nH]5)C=C4)C=C3)cc1)C(=O)[C@H](c1ccc(Cl)cc1)C(C)C
REMARK SMILES IDX 9 1 8 2 6 3 7 4 5 5 4 6 3 7 2 8 1 9 77 10 78 11 79 12 87 13
REMARK SMILES IDX 88 14 89 15 80 16 81 17 86 18 82 19 85 20 83 21 84 22 10 23
REMARK SMILES IDX 11 24 12 25 13 26 14 27 15 28 76 29 16 30 75 31 17 32 18 33
REMARK SMILES IDX 19 34 69 35 20 36 74 37 68 38 70 39 21 40 73 41 67 42 66 43
REMARK SMILES IDX 22 45 54 46 34 47 53 48 35 49 38 50 52 51 71 52 36 53 37 54
REMARK SMILES IDX 51 56 72 57 39 58 23 59 24 60 32 61 25 62 27 63 33 64 26 65
REMARK SMILES IDX 28 66 29 67 30 68 31 69 55 70 56 71 64 72 57 73 59 74 65 75
REMARK SMILES IDX 58 76 60 77 61 78 62 79 63 80 40 81 41 82 49 83 42 84 44 85
REMARK SMILES IDX 50 86 43 87 45 88 46 89 47 90 48 91
REMARK H PARENT 70 44 38 55
REMARK Flexibility Score: inf
ROOT
ATOM      1  C   UNL A   1      31.873  31.482  27.021  1.00  0.00     0.274 C 
ENDROOT
BRANCH   1   2
ATOM      2  O   UNL A   1      32.479  30.502  26.127  1.00  0.00    -0.461 OA
BRANCH   2   3
ATOM      3  C   UNL A   1      33.609  29.904  26.594  1.00  0.00     0.325 C 
ATOM      4  O   UNL A   1      34.438  30.482  27.298  1.00  0.00    -0.250 OA
BRANCH   3   5
ATOM      5  C   UNL A   1      33.757  28.390  26.305  1.00  0.00     0.243 C 
BRANCH   5   6
ATOM      6  N   UNL A   1      32.844  27.532  25.514  1.00  0.00    -0.320 N 
BRANCH   6   7
ATOM      7  C   UNL A   1      33.476  26.828  24.400  1.00  0.00     0.210 C 
BRANCH   7   8
ATOM      8  C   UNL A   1      34.248  25.672  24.899  1.00  0.00    -0.085 C 
ATOM      9  C   UNL A   1      34.827  24.777  25.459  1.00  0.00     0.006 C 
ENDBRANCH   7   8
ENDBRANCH   6   7
BRANCH   6  10
ATOM     10  C   UNL A   1      31.529  27.129  25.769  1.00  0.00     0.231 C 
ATOM     11  O   UNL A   1      31.068  27.269  26.918  1.00  0.00    -0.274 OA
BRANCH  10  12
ATOM     12  C   UNL A   1      30.585  26.431  24.756  1.00  0.00     0.111 C 
BRANCH  12  13
ATOM     13  C   UNL A   1      30.160  27.369  23.577  1.00  0.00    -0.000 C 
ATOM     14  C   UNL A   1      30.323  28.860  23.850  1.00  0.00     0.008 C 
ATOM     15  C   UNL A   1      30.951  27.106  22.278  1.00  0.00     0.008 C 
ENDBRANCH  12  13
BRANCH  12  16
ATOM     16  C   UNL A   1      30.988  24.941  24.593  1.00  0.00    -0.035 A 
ATOM     17  C   UNL A   1      31.025  24.087  25.722  1.00  0.00     0.006 A 
ATOM     18  C   UNL A   1      31.261  24.339  23.354  1.00  0.00     0.006 A 
ATOM     19  C   UNL A   1      31.372  22.736  25.630  1.00  0.00     0.021 A 
ATOM     20  C   UNL A   1      31.642  22.989  23.258  1.00  0.00     0.021 A 
ATOM     21  C   UNL A   1      31.698  22.195  24.398  1.00  0.00     0.041 A 
ATOM     22  Cl  UNL A   1      32.203  20.555  24.296  1.00  0.00    -0.084 Cl
ENDBRANCH  12  16
ENDBRANCH  10  12
ENDBRANCH   6  10
ENDBRANCH   5   6
ENDBRANCH   3   5
ENDBRANCH   2   3
ENDBRANCH   1   2
BRANCH   1  23
ATOM     23  C   UNL A   1      32.288  32.952  26.751  1.00  0.00     0.275 C 
BRANCH  23  24
ATOM     24  O   UNL A   1      32.145  33.884  27.853  1.00  0.00    -0.458 OA
BRANCH  24  25
ATOM     25  C   UNL A   1      33.322  34.397  28.245  1.00  0.00     0.338 C 
ATOM     26  O   UNL A   1      33.580  35.585  28.313  1.00  0.00    -0.246 OA
BRANCH  25  27
ATOM     27  C   UNL A   1      34.386  33.498  28.663  1.00  0.00     0.060 A 
ATOM     28  C   UNL A   1      34.054  32.693  29.758  1.00  0.00     0.016 A 
ATOM     29  C   UNL A   1      35.721  33.783  28.361  1.00  0.00     0.016 A 
ATOM     30  C   UNL A   1      35.054  32.232  30.600  1.00  0.00     0.010 A 
ATOM     31  C   UNL A   1      36.734  33.235  29.160  1.00  0.00     0.010 A 
ATOM     32  C   UNL A   1      36.408  32.467  30.293  1.00  0.00    -0.014 A 
BRANCH  32  33
ATOM     33  C   UNL A   1      37.451  31.732  31.048  1.00  0.00     0.031 A 
ATOM     34  C   UNL A   1      37.823  32.036  32.474  1.00  0.00     0.074 A 
ATOM     35  C   UNL A   1      38.099  30.774  30.357  1.00  0.00     0.049 A 
ATOM     36  N   UNL A   1      38.755  31.489  33.213  1.00  0.00    -0.248 NA
ATOM     37  C   UNL A   1      37.046  33.064  33.179  1.00  0.00     0.031 C 
ATOM     38  C   UNL A   1      37.807  30.398  28.967  1.00  0.00     0.029 A 
ATOM     39  N   UNL A   1      39.157  29.977  30.698  1.00  0.00    -0.354 N 
ATOM     40  C   UNL A   1      38.677  32.104  34.460  1.00  0.00     0.074 A 
ATOM     41  C   UNL A   1      37.581  33.044  34.394  1.00  0.00     0.031 C 
ATOM     42  C   UNL A   1      38.678  29.469  28.566  1.00  0.00     0.029 A 
ATOM     43  C   UNL A   1      39.646  29.265  29.630  1.00  0.00     0.049 A 
ATOM     44  H   UNL A   1      39.528  29.920  31.608  1.00  0.00     0.167 HD
ATOM     45  C   UNL A   1      39.476  31.927  35.541  1.00  0.00     0.034 A 
ATOM     46  C   UNL A   1      40.798  28.594  29.479  1.00  0.00     0.034 A 
ATOM     47  C   UNL A   1      40.627  31.062  35.542  1.00  0.00     0.049 A 
ATOM     48  C   UNL A   1      41.725  28.507  30.646  1.00  0.00     0.074 A 
ATOM     49  C   UNL A   1      41.514  30.807  36.573  1.00  0.00     0.029 A 
ATOM     50  N   UNL A   1      41.085  30.355  34.439  1.00  0.00    -0.354 N 
ATOM     51  N   UNL A   1      41.591  29.031  31.839  1.00  0.00    -0.248 NA
ATOM     52  C   UNL A   1      42.943  27.715  30.460  1.00  0.00     0.031 C 
ATOM     53  C   UNL A   1      42.543  30.004  36.074  1.00  0.00     0.029 A 
ATOM     54  C   UNL A   1      42.257  29.691  34.754  1.00  0.00     0.049 A 
ATOM     55  H   UNL A   1      40.641  30.330  33.560  1.00  0.00     0.167 HD
ATOM     56  C   UNL A   1      42.683  28.591  32.567  1.00  0.00     0.074 A 
ATOM     57  C   UNL A   1      43.468  27.759  31.676  1.00  0.00     0.031 C 
ATOM     58  C   UNL A   1      43.004  28.846  33.858  1.00  0.00     0.034 A 
BRANCH  45  59
ATOM     59  C   UNL A   1      39.180  32.713  36.798  1.00  0.00     0.023 A 
ATOM     60  C   UNL A   1      38.265  32.214  37.746  1.00  0.00     0.012 A 
ATOM     61  C   UNL A   1      39.882  33.904  37.083  1.00  0.00     0.148 A 
ATOM     62  C   UNL A   1      38.036  32.896  38.944  1.00  0.00     0.002 A 
ATOM     63  C   UNL A   1      39.680  34.557  38.295  1.00  0.00     0.091 A 
ATOM     64  F   UNL A   1      40.738  34.374  36.165  1.00  0.00    -0.205 F 
ATOM     65  C   UNL A   1      38.750  34.059  39.222  1.00  0.00     0.022 A 
BRANCH  63  66
ATOM     66  S   UNL A   1      40.602  36.021  38.778  1.00  0.00     0.127 S 
ATOM     67  O   UNL A   1      40.181  36.190  40.168  1.00  0.00    -0.237 OA
ATOM     68  O   UNL A   1      41.987  35.582  38.610  1.00  0.00    -0.237 OA
ATOM     69  O   UNL A   1      40.183  37.080  37.870  1.00  0.00    -0.744 OA
ENDBRANCH  63  66
ENDBRANCH  45  59
BRANCH  46  70
ATOM     70  C   UNL A   1      41.117  27.991  28.159  1.00  0.00     0.023 A 
ATOM     71  C   UNL A   1      41.610  28.804  27.125  1.00  0.00     0.012 A 
ATOM     72  C   UNL A   1      41.024  26.597  27.962  1.00  0.00     0.148 A 
ATOM     73  C   UNL A   1      41.982  28.242  25.904  1.00  0.00     0.002 A 
ATOM     74  C   UNL A   1      41.457  26.038  26.769  1.00  0.00     0.091 A 
ATOM     75  F   UNL A   1      40.556  25.843  28.967  1.00  0.00    -0.205 F 
ATOM     76  C   UNL A   1      41.919  26.862  25.731  1.00  0.00     0.022 A 
BRANCH  74  77
ATOM     77  S   UNL A   1      41.557  24.262  26.518  1.00  0.00     0.127 S 
ATOM     78  O   UNL A   1      42.184  23.822  27.761  1.00  0.00    -0.237 OA
ATOM     79  O   UNL A   1      40.147  23.898  26.375  1.00  0.00    -0.237 OA
ATOM     80  O   UNL A   1      42.349  24.077  25.310  1.00  0.00    -0.744 OA
ENDBRANCH  74  77
ENDBRANCH  46  70
BRANCH  58  81
ATOM     81  C   UNL A   1      44.216  28.152  34.411  1.00  0.00     0.023 A 
ATOM     82  C   UNL A   1      45.481  28.767  34.361  1.00  0.00     0.012 A 
ATOM     83  C   UNL A   1      44.073  26.898  35.037  1.00  0.00     0.148 A 
ATOM     84  C   UNL A   1      46.596  28.126  34.898  1.00  0.00     0.002 A 
ATOM     85  C   UNL A   1      45.175  26.295  35.622  1.00  0.00     0.091 A 
ATOM     86  F   UNL A   1      42.862  26.325  35.049  1.00  0.00    -0.205 F 
ATOM     87  C   UNL A   1      46.441  26.899  35.540  1.00  0.00     0.022 A 
BRANCH  85  88
ATOM     88  S   UNL A   1      45.048  24.769  36.559  1.00  0.00     0.127 S 
ATOM     89  O   UNL A   1      46.437  24.554  36.965  1.00  0.00    -0.237 OA
ATOM     90  O   UNL A   1      44.146  25.152  37.645  1.00  0.00    -0.237 OA
ATOM     91  O   UNL A   1      44.510  23.774  35.643  1.00  0.00    -0.744 OA
ENDBRANCH  85  88
ENDBRANCH  58  81
ENDBRANCH  32  33
ENDBRANCH  25  27
ENDBRANCH  24  25
ENDBRANCH  23  24
ENDBRANCH   1  23
TORSDOF 21
ENDMDL
MODEL 3
REMARK VINA RESULT:      -8.2      4.272      7.468
REMARK SMILES C#CCN(CC(=O)OCCOC(=O)c1ccc(-c2c3nc(c(-c4cccc(S(=O)(=O)[O-])c4F)c4ccc([nH]4)c(-c4cccc(S(=O)(=O)[O-])c4F)c4nc(c(-c5cccc(S(=O)(=O)[O-])c5F)c5ccc2[nH]5)C=C4)C=C3)cc1)C(=O)[C@H](c1ccc(Cl)cc1)C(C)C
REMARK SMILES IDX 9 1 8 2 6 3 7 4 5 5 4 6 3 7 2 8 1 9 77 10 78 11 79 12 87 13
REMARK SMILES IDX 88 14 89 15 80 16 81 17 86 18 82 19 85 20 83 21 84 22 10 23
REMARK SMILES IDX 11 24 12 25 13 26 14 27 15 28 76 29 16 30 75 31 17 32 18 33
REMARK SMILES IDX 19 34 69 35 20 36 74 37 68 38 70 39 21 40 73 41 67 42 66 43
REMARK SMILES IDX 22 45 54 46 34 47 53 48 35 49 38 50 52 51 71 52 36 53 37 54
REMARK SMILES IDX 51 56 72 57 39 58 23 59 24 60 32 61 25 62 27 63 33 64 26 65
REMARK SMILES IDX 28 66 29 67 30 68 31 69 55 70 56 71 64 72 57 73 59 74 65 75
REMARK SMILES IDX 58 76 60 77 61 78 62 79 63 80 40 81 41 82 49 83 42 84 44 85
REMARK SMILES IDX 50 86 43 87 45 88 46 89 47 90 48 91
REMARK H PARENT 70 44 38 55
REMARK Flexibility Score: inf
ROOT
ATOM      1  C   UNL A   1      32.762  28.865  26.267  1.00  0.00     0.274 C 
ENDROOT
BRANCH   1   2
ATOM      2  O   UNL A   1      32.205  27.708  25.574  1.00  0.00    -0.461 OA
BRANCH   2   3
ATOM      3  C   UNL A   1      31.764  26.701  26.376  1.00  0.00     0.325 C 
ATOM      4  O   UNL A   1      30.685  26.735  26.971  1.00  0.00    -0.250 OA
BRANCH   3   5
ATOM      5  C   UNL A   1      32.633  25.420  26.415  1.00  0.00     0.243 C 
BRANCH   5   6
ATOM      6  N   UNL A   1      33.292  24.746  25.272  1.00  0.00    -0.320 N 
BRANCH   6   7
ATOM      7  C   UNL A   1      34.048  23.545  25.623  1.00  0.00     0.210 C 
BRANCH   7   8
ATOM      8  C   UNL A   1      35.491  23.769  25.407  1.00  0.00    -0.085 C 
ATOM      9  C   UNL A   1      36.687  23.790  25.265  1.00  0.00     0.006 C 
ENDBRANCH   7   8
ENDBRANCH   6   7
BRANCH   6  10
ATOM     10  C   UNL A   1      33.153  24.949  23.896  1.00  0.00     0.231 C 
ATOM     11  O   UNL A   1      34.070  25.520  23.276  1.00  0.00    -0.274 OA
BRANCH  10  12
ATOM     12  C   UNL A   1      31.901  24.597  23.052  1.00  0.00     0.111 C 
BRANCH  12  13
ATOM     13  C   UNL A   1      31.513  23.082  23.146  1.00  0.00    -0.000 C 
ATOM     14  C   UNL A   1      32.624  22.109  22.771  1.00  0.00     0.008 C 
ATOM     15  C   UNL A   1      31.064  22.659  24.562  1.00  0.00     0.008 C 
ENDBRANCH  12  13
BRANCH  12  16
ATOM     16  C   UNL A   1      30.885  25.769  23.092  1.00  0.00    -0.035 A 
ATOM     17  C   UNL A   1      31.138  26.955  22.360  1.00  0.00     0.006 A 
ATOM     18  C   UNL A   1      29.656  25.712  23.768  1.00  0.00     0.006 A 
ATOM     19  C   UNL A   1      30.254  28.037  22.354  1.00  0.00     0.021 A 
ATOM     20  C   UNL A   1      28.776  26.808  23.793  1.00  0.00     0.021 A 
ATOM     21  C   UNL A   1      29.081  27.966  23.086  1.00  0.00     0.041 A 
ATOM     22  Cl  UNL A   1      28.032  29.327  23.144  1.00  0.00    -0.084 Cl
ENDBRANCH  12  16
ENDBRANCH  10  12
ENDBRANCH   6  10
ENDBRANCH   5   6
ENDBRANCH   3   5
ENDBRANCH   2   3
ENDBRANCH   1   2
BRANCH   1  23
ATOM     23  C   UNL A   1      34.309  28.877  26.373  1.00  0.00     0.275 C 
BRANCH  23  24
ATOM     24  O   UNL A   1      34.944  30.172  26.516  1.00  0.00    -0.458 OA
BRANCH  24  25
ATOM     25  C   UNL A   1      34.991  30.581  27.794  1.00  0.00     0.338 C 
ATOM     26  O   UNL A   1      34.066  31.093  28.400  1.00  0.00    -0.246 OA
BRANCH  25  27
ATOM     27  C   UNL A   1      36.212  30.383  28.560  1.00  0.00     0.060 A 
ATOM     28  C   UNL A   1      37.381  30.463  27.797  1.00  0.00     0.016 A 
ATOM     29  C   UNL A   1      36.190  29.681  29.769  1.00  0.00     0.016 A 
ATOM     30  C   UNL A   1      38.515  29.776  28.205  1.00  0.00     0.010 A 
ATOM     31  C   UNL A   1      37.366  29.069  30.224  1.00  0.00     0.010 A 
ATOM     32  C   UNL A   1      38.532  29.100  29.439  1.00  0.00    -0.014 A 
BRANCH  32  33
ATOM     33  C   UNL A   1      39.829  28.619  29.972  1.00  0.00     0.031 A 
ATOM     34  C   UNL A   1      40.602  29.321  31.055  1.00  0.00     0.074 A 
ATOM     35  C   UNL A   1      40.319  27.507  29.388  1.00  0.00     0.049 A 
ATOM     36  N   UNL A   1      41.771  29.015  31.560  1.00  0.00    -0.248 NA
ATOM     37  C   UNL A   1      39.989  30.503  31.676  1.00  0.00     0.031 C 
ATOM     38  C   UNL A   1      39.640  26.747  28.330  1.00  0.00     0.029 A 
ATOM     39  N   UNL A   1      41.505  26.849  29.558  1.00  0.00    -0.354 N 
ATOM     40  C   UNL A   1      42.030  29.961  32.548  1.00  0.00     0.074 A 
ATOM     41  C   UNL A   1      40.881  30.835  32.602  1.00  0.00     0.031 C 
ATOM     42  C   UNL A   1      40.429  25.748  27.927  1.00  0.00     0.029 A 
ATOM     43  C   UNL A   1      41.699  25.863  28.621  1.00  0.00     0.049 A 
ATOM     44  H   UNL A   1      42.149  27.057  30.272  1.00  0.00     0.167 HD
ATOM     45  C   UNL A   1      43.145  30.107  33.307  1.00  0.00     0.034 A 
ATOM     46  C   UNL A   1      42.806  25.184  28.280  1.00  0.00     0.034 A 
ATOM     47  C   UNL A   1      44.319  29.285  33.156  1.00  0.00     0.049 A 
ATOM     48  C   UNL A   1      44.059  25.442  29.050  1.00  0.00     0.074 A 
ATOM     49  C   UNL A   1      45.508  29.343  33.862  1.00  0.00     0.029 A 
ATOM     50  N   UNL A   1      44.471  28.295  32.196  1.00  0.00    -0.354 N 
ATOM     51  N   UNL A   1      44.258  26.285  30.033  1.00  0.00    -0.248 NA
ATOM     52  C   UNL A   1      45.228  24.638  28.688  1.00  0.00     0.031 C 
ATOM     53  C   UNL A   1      46.401  28.437  33.283  1.00  0.00     0.029 A 
ATOM     54  C   UNL A   1      45.744  27.758  32.269  1.00  0.00     0.049 A 
ATOM     55  H   UNL A   1      43.776  28.016  31.557  1.00  0.00     0.167 HD
ATOM     56  C   UNL A   1      45.564  26.080  30.445  1.00  0.00     0.074 A 
ATOM     57  C   UNL A   1      46.105  25.031  29.601  1.00  0.00     0.031 C 
ATOM     58  C   UNL A   1      46.250  26.696  31.437  1.00  0.00     0.034 A 
BRANCH  45  59
ATOM     59  C   UNL A   1      43.185  31.218  34.331  1.00  0.00     0.023 A 
ATOM     60  C   UNL A   1      42.816  30.964  35.667  1.00  0.00     0.012 A 
ATOM     61  C   UNL A   1      43.679  32.495  33.987  1.00  0.00     0.148 A 
ATOM     62  C   UNL A   1      42.917  31.964  36.637  1.00  0.00     0.002 A 
ATOM     63  C   UNL A   1      43.815  33.474  34.966  1.00  0.00     0.091 A 
ATOM     64  F   UNL A   1      44.011  32.727  32.709  1.00  0.00    -0.205 F 
ATOM     65  C   UNL A   1      43.425  33.213  36.289  1.00  0.00     0.022 A 
BRANCH  63  66
ATOM     66  S   UNL A   1      44.525  35.091  34.634  1.00  0.00     0.127 S 
ATOM     67  O   UNL A   1      44.397  35.743  35.937  1.00  0.00    -0.237 OA
ATOM     68  O   UNL A   1      45.897  34.752  34.254  1.00  0.00    -0.237 OA
ATOM     69  O   UNL A   1      43.723  35.674  33.567  1.00  0.00    -0.744 OA
ENDBRANCH  63  66
ENDBRANCH  45  59
BRANCH  46  70
ATOM     70  C   UNL A   1      42.749  24.231  27.143  1.00  0.00     0.023 A 
ATOM     71  C   UNL A   1      43.371  24.561  25.927  1.00  0.00     0.012 A 
ATOM     72  C   UNL A   1      42.162  22.957  27.299  1.00  0.00     0.148 A 
ATOM     73  C   UNL A   1      43.389  23.648  24.874  1.00  0.00     0.002 A 
ATOM     74  C   UNL A   1      42.241  22.030  26.271  1.00  0.00     0.091 A 
ATOM     75  F   UNL A   1      41.580  22.665  28.471  1.00  0.00    -0.205 F 
ATOM     76  C   UNL A   1      42.838  22.380  25.049  1.00  0.00     0.022 A 
BRANCH  74  77
ATOM     77  S   UNL A   1      41.697  20.330  26.464  1.00  0.00     0.127 S 
ATOM     78  O   UNL A   1      42.275  19.978  27.758  1.00  0.00    -0.237 OA
ATOM     79  O   UNL A   1      40.241  20.476  26.457  1.00  0.00    -0.237 OA
ATOM     80  O   UNL A   1      42.232  19.610  25.316  1.00  0.00    -0.744 OA
ENDBRANCH  74  77
ENDBRANCH  46  70
BRANCH  58  81
ATOM     81  C   UNL A   1      47.638  26.197  31.719  1.00  0.00     0.023 A 
ATOM     82  C   UNL A   1      48.731  26.638  30.948  1.00  0.00     0.012 A 
ATOM     83  C   UNL A   1      47.856  25.324  32.803  1.00  0.00     0.148 A 
ATOM     84  C   UNL A   1      50.018  26.189  31.232  1.00  0.00     0.002 A 
ATOM     85  C   UNL A   1      49.147  24.931  33.117  1.00  0.00     0.091 A 
ATOM     86  F   UNL A   1      46.796  24.902  33.506  1.00  0.00    -0.205 F 
ATOM     87  C   UNL A   1      50.229  25.348  32.324  1.00  0.00     0.022 A 
BRANCH  85  88
ATOM     88  S   UNL A   1      49.521  23.936  34.564  1.00  0.00     0.127 S 
ATOM     89  O   UNL A   1      48.983  24.766  35.642  1.00  0.00    -0.237 OA
ATOM     90  O   UNL A   1      48.763  22.714  34.298  1.00  0.00    -0.237 OA
ATOM     91  O   UNL A   1      50.967  23.764  34.577  1.00  0.00    -0.744 OA
ENDBRANCH  85  88
ENDBRANCH  58  81
ENDBRANCH  32  33
ENDBRANCH  25  27
ENDBRANCH  24  25
ENDBRANCH  23  24
ENDBRANCH   1  23
TORSDOF 21
ENDMDL
