MODEL 1
REMARK VINA RESULT:     -12.0      0.000      0.000
REMARK SMILES Cc1ccccc1-c1nc(CC(=O)OCCOC(=O)c2ccc(-c3c4nc(c(-c5cccc(S(=O)(=O)[O-])c5F)c5ccc([nH]5)c(-c5cccc(S(=O)(=O)[O-])c5F)c5nc(c(-c6cccc(S(=O)(=O)[O-])c6F)c6ccc3[nH]6)C=C5)C=C4)cc2)cs1
REMARK SMILES IDX 16 1 15 2 14 3 12 4 13 5 11 6 10 7 8 8 9 9 84 10 83 11 7 12
REMARK SMILES IDX 1 13 2 14 3 15 4 16 6 17 5 18 17 19 18 20 19 21 20 22 21 23
REMARK SMILES IDX 82 24 22 25 81 26 23 27 24 28 25 29 75 30 26 31 80 32 74 33
REMARK SMILES IDX 76 34 27 35 79 36 73 37 72 38 28 40 60 41 40 42 59 43 41 44
REMARK SMILES IDX 44 45 58 46 77 47 42 48 43 49 57 51 78 52 45 53 29 54 30 55
REMARK SMILES IDX 38 56 31 57 33 58 39 59 32 60 34 61 35 62 36 63 37 64 61 65
REMARK SMILES IDX 62 66 70 67 63 68 65 69 71 70 64 71 66 72 67 73 68 74 69 75
REMARK SMILES IDX 46 76 47 77 55 78 48 79 50 80 56 81 49 82 51 83 52 84 53 85
REMARK SMILES IDX 54 86
REMARK H PARENT 76 39 44 50
REMARK Flexibility Score: inf
ROOT
ATOM      1  C   UNL A   1      33.281  30.576  27.117  1.00  0.00     0.275 C 
ENDROOT
BRANCH   1   2
ATOM      2  C   UNL A   1      32.433  30.059  25.950  1.00  0.00     0.274 C 
BRANCH   2   3
ATOM      3  O   UNL A   1      32.818  28.740  25.581  1.00  0.00    -0.462 OA
BRANCH   3   4
ATOM      4  C   UNL A   1      31.768  27.893  25.349  1.00  0.00     0.312 C 
ATOM      5  O   UNL A   1      31.191  27.810  24.283  1.00  0.00    -0.252 OA
BRANCH   4   6
ATOM      6  C   UNL A   1      31.483  27.024  26.552  1.00  0.00     0.179 C 
BRANCH   6   7
ATOM      7  C   UNL A   1      31.994  25.647  26.361  1.00  0.00     0.063 A 
ATOM      8  C   UNL A   1      33.577  24.318  25.621  1.00  0.00     0.123 A 
ATOM      9  N   UNL A   1      33.237  25.566  25.803  1.00  0.00    -0.240 NA
ATOM     10  S   UNL A   1      32.427  23.150  26.090  1.00  0.00    -0.122 S 
ATOM     11  C   UNL A   1      31.399  24.426  26.628  1.00  0.00     0.091 A 
BRANCH   8  12
ATOM     12  C   UNL A   1      34.862  24.018  25.020  1.00  0.00     0.013 A 
ATOM     13  C   UNL A   1      33.761  23.755  22.727  1.00  0.00     0.045 C 
ATOM     14  C   UNL A   1      34.924  23.605  23.675  1.00  0.00    -0.041 A 
ATOM     15  C   UNL A   1      36.055  22.899  23.245  1.00  0.00     0.004 A 
ATOM     16  C   UNL A   1      37.103  22.627  24.128  1.00  0.00     0.000 A 
ATOM     17  C   UNL A   1      35.942  23.789  25.886  1.00  0.00     0.011 A 
ATOM     18  C   UNL A   1      37.058  23.087  25.441  1.00  0.00     0.001 A 
ENDBRANCH   8  12
ENDBRANCH   6   7
ENDBRANCH   4   6
ENDBRANCH   3   4
ENDBRANCH   2   3
ENDBRANCH   1   2
BRANCH   1  19
ATOM     19  O   UNL A   1      34.723  30.343  27.108  1.00  0.00    -0.458 OA
BRANCH  19  20
ATOM     20  C   UNL A   1      35.738  30.932  27.797  1.00  0.00     0.338 C 
ATOM     21  O   UNL A   1      35.657  32.094  28.175  1.00  0.00    -0.246 OA
BRANCH  20  22
ATOM     22  C   UNL A   1      36.920  30.123  28.135  1.00  0.00     0.060 A 
ATOM     23  C   UNL A   1      36.971  29.389  29.333  1.00  0.00     0.016 A 
ATOM     24  C   UNL A   1      37.948  30.026  27.213  1.00  0.00     0.016 A 
ATOM     25  C   UNL A   1      37.988  28.444  29.532  1.00  0.00     0.010 A 
ATOM     26  C   UNL A   1      38.853  28.998  27.339  1.00  0.00     0.010 A 
ATOM     27  C   UNL A   1      38.898  28.210  28.503  1.00  0.00    -0.014 A 
BRANCH  27  28
ATOM     28  C   UNL A   1      40.124  27.420  28.620  1.00  0.00     0.031 A 
ATOM     29  C   UNL A   1      40.246  25.959  28.407  1.00  0.00     0.074 A 
ATOM     30  C   UNL A   1      41.213  28.194  28.846  1.00  0.00     0.049 A 
ATOM     31  N   UNL A   1      41.300  25.293  28.748  1.00  0.00    -0.248 NA
ATOM     32  C   UNL A   1      39.231  25.114  27.790  1.00  0.00     0.031 C 
ATOM     33  C   UNL A   1      42.627  27.877  28.759  1.00  0.00     0.029 A 
ATOM     34  N   UNL A   1      41.202  29.484  29.406  1.00  0.00    -0.354 N 
ATOM     35  C   UNL A   1      41.216  24.028  28.201  1.00  0.00     0.074 A 
ATOM     36  C   UNL A   1      39.884  23.949  27.654  1.00  0.00     0.031 C 
ATOM     37  C   UNL A   1      43.295  28.769  29.517  1.00  0.00     0.029 A 
ATOM     38  C   UNL A   1      42.286  29.501  30.278  1.00  0.00     0.049 A 
ATOM     39  H   UNL A   1      40.568  30.213  29.222  1.00  0.00     0.167 HD
ATOM     40  C   UNL A   1      42.336  23.250  28.165  1.00  0.00     0.034 A 
ATOM     41  C   UNL A   1      42.113  29.449  31.637  1.00  0.00     0.034 A 
ATOM     42  C   UNL A   1      43.444  23.905  28.873  1.00  0.00     0.049 A 
ATOM     43  C   UNL A   1      42.892  28.321  32.294  1.00  0.00     0.074 A 
ATOM     44  C   UNL A   1      44.516  24.684  28.466  1.00  0.00     0.029 A 
ATOM     45  N   UNL A   1      43.367  24.047  30.250  1.00  0.00    -0.354 N 
ATOM     46  N   UNL A   1      43.439  27.328  31.653  1.00  0.00    -0.248 NA
ATOM     47  C   UNL A   1      43.000  28.178  33.743  1.00  0.00     0.031 C 
ATOM     48  C   UNL A   1      45.067  25.319  29.615  1.00  0.00     0.029 A 
ATOM     49  C   UNL A   1      44.348  24.907  30.723  1.00  0.00     0.049 A 
ATOM     50  H   UNL A   1      42.701  23.597  30.818  1.00  0.00     0.167 HD
ATOM     51  C   UNL A   1      43.869  26.385  32.546  1.00  0.00     0.074 A 
ATOM     52  C   UNL A   1      43.558  26.961  33.844  1.00  0.00     0.031 C 
ATOM     53  C   UNL A   1      44.397  25.185  32.150  1.00  0.00     0.034 A 
BRANCH  40  54
ATOM     54  C   UNL A   1      42.544  22.033  27.270  1.00  0.00     0.023 A 
ATOM     55  C   UNL A   1      41.711  20.913  27.515  1.00  0.00     0.012 A 
ATOM     56  C   UNL A   1      43.512  21.873  26.251  1.00  0.00     0.148 A 
ATOM     57  C   UNL A   1      41.881  19.681  26.876  1.00  0.00     0.002 A 
ATOM     58  C   UNL A   1      43.714  20.624  25.641  1.00  0.00     0.091 A 
ATOM     59  F   UNL A   1      44.202  22.937  25.826  1.00  0.00    -0.205 F 
ATOM     60  C   UNL A   1      42.906  19.526  25.959  1.00  0.00     0.022 A 
BRANCH  58  61
ATOM     61  S   UNL A   1      45.057  20.289  24.483  1.00  0.00     0.127 S 
ATOM     62  O   UNL A   1      44.877  18.861  24.210  1.00  0.00    -0.237 OA
ATOM     63  O   UNL A   1      44.730  21.162  23.356  1.00  0.00    -0.237 OA
ATOM     64  O   UNL A   1      46.290  20.613  25.188  1.00  0.00    -0.744 OA
ENDBRANCH  58  61
ENDBRANCH  40  54
BRANCH  41  65
ATOM     65  C   UNL A   1      40.764  29.899  32.156  1.00  0.00     0.023 A 
ATOM     66  C   UNL A   1      39.777  28.928  32.459  1.00  0.00     0.012 A 
ATOM     67  C   UNL A   1      40.542  31.218  32.601  1.00  0.00     0.148 A 
ATOM     68  C   UNL A   1      38.678  29.235  33.271  1.00  0.00     0.002 A 
ATOM     69  C   UNL A   1      39.435  31.521  33.393  1.00  0.00     0.091 A 
ATOM     70  F   UNL A   1      41.424  32.174  32.288  1.00  0.00    -0.205 F 
ATOM     71  C   UNL A   1      38.515  30.529  33.752  1.00  0.00     0.022 A 
BRANCH  69  72
ATOM     72  S   UNL A   1      39.250  33.164  34.099  1.00  0.00     0.127 S 
ATOM     73  O   UNL A   1      39.316  34.030  32.921  1.00  0.00    -0.237 OA
ATOM     74  O   UNL A   1      37.938  33.132  34.728  1.00  0.00    -0.237 OA
ATOM     75  O   UNL A   1      40.407  33.237  34.987  1.00  0.00    -0.744 OA
ENDBRANCH  69  72
ENDBRANCH  41  65
BRANCH  53  76
ATOM     76  C   UNL A   1      44.963  24.149  33.103  1.00  0.00     0.023 A 
ATOM     77  C   UNL A   1      44.167  23.097  33.598  1.00  0.00     0.012 A 
ATOM     78  C   UNL A   1      46.283  24.237  33.618  1.00  0.00     0.148 A 
ATOM     79  C   UNL A   1      44.687  22.096  34.422  1.00  0.00     0.002 A 
ATOM     80  C   UNL A   1      46.784  23.269  34.484  1.00  0.00     0.091 A 
ATOM     81  F   UNL A   1      47.056  25.280  33.301  1.00  0.00    -0.205 F 
ATOM     82  C   UNL A   1      46.001  22.174  34.853  1.00  0.00     0.022 A 
BRANCH  80  83
ATOM     83  S   UNL A   1      48.421  23.381  35.219  1.00  0.00     0.127 S 
ATOM     84  O   UNL A   1      48.420  22.214  36.104  1.00  0.00    -0.237 OA
ATOM     85  O   UNL A   1      49.286  23.255  34.046  1.00  0.00    -0.237 OA
ATOM     86  O   UNL A   1      48.483  24.668  35.893  1.00  0.00    -0.744 OA
ENDBRANCH  80  83
ENDBRANCH  53  76
ENDBRANCH  27  28
ENDBRANCH  20  22
ENDBRANCH  19  20
ENDBRANCH   1  19
TORSDOF 16
ENDMDL
MODEL 2
REMARK VINA RESULT:     -11.8      4.407     10.805
REMARK SMILES Cc1ccccc1-c1nc(CC(=O)OCCOC(=O)c2ccc(-c3c4nc(c(-c5cccc(S(=O)(=O)[O-])c5F)c5ccc([nH]5)c(-c5cccc(S(=O)(=O)[O-])c5F)c5nc(c(-c6cccc(S(=O)(=O)[O-])c6F)c6ccc3[nH]6)C=C5)C=C4)cc2)cs1
REMARK SMILES IDX 16 1 15 2 14 3 12 4 13 5 11 6 10 7 8 8 9 9 84 10 83 11 7 12
REMARK SMILES IDX 1 13 2 14 3 15 4 16 6 17 5 18 17 19 18 20 19 21 20 22 21 23
REMARK SMILES IDX 82 24 22 25 81 26 23 27 24 28 25 29 75 30 26 31 80 32 74 33
REMARK SMILES IDX 76 34 27 35 79 36 73 37 72 38 28 40 60 41 40 42 59 43 41 44
REMARK SMILES IDX 44 45 58 46 77 47 42 48 43 49 57 51 78 52 45 53 29 54 30 55
REMARK SMILES IDX 38 56 31 57 33 58 39 59 32 60 34 61 35 62 36 63 37 64 61 65
REMARK SMILES IDX 62 66 70 67 63 68 65 69 71 70 64 71 66 72 67 73 68 74 69 75
REMARK SMILES IDX 46 76 47 77 55 78 48 79 50 80 56 81 49 82 51 83 52 84 53 85
REMARK SMILES IDX 54 86
REMARK H PARENT 76 39 44 50
REMARK Flexibility Score: inf
ROOT
ATOM      1  C   UNL A   1      37.580  23.594  25.960  1.00  0.00     0.275 C 
ENDROOT
BRANCH   1   2
ATOM      2  C   UNL A   1      37.010  22.833  24.757  1.00  0.00     0.274 C 
BRANCH   2   3
ATOM      3  O   UNL A   1      35.833  22.119  25.112  1.00  0.00    -0.462 OA
BRANCH   3   4
ATOM      4  C   UNL A   1      34.709  22.518  24.441  1.00  0.00     0.312 C 
ATOM      5  O   UNL A   1      33.581  22.211  24.772  1.00  0.00    -0.252 OA
BRANCH   4   6
ATOM      6  C   UNL A   1      35.048  23.450  23.300  1.00  0.00     0.179 C 
BRANCH   6   7
ATOM      7  C   UNL A   1      34.210  24.670  23.328  1.00  0.00     0.063 A 
ATOM      8  C   UNL A   1      33.397  26.365  24.463  1.00  0.00     0.123 A 
ATOM      9  N   UNL A   1      34.206  25.340  24.516  1.00  0.00    -0.240 NA
ATOM     10  S   UNL A   1      32.569  26.591  22.990  1.00  0.00    -0.122 S 
ATOM     11  C   UNL A   1      33.401  25.222  22.349  1.00  0.00     0.091 A 
BRANCH   8  12
ATOM     12  C   UNL A   1      33.238  27.200  25.637  1.00  0.00     0.013 A 
ATOM     13  C   UNL A   1      31.253  25.785  26.411  1.00  0.00     0.045 C 
ATOM     14  C   UNL A   1      32.127  27.012  26.482  1.00  0.00    -0.041 A 
ATOM     15  C   UNL A   1      31.736  28.068  27.316  1.00  0.00     0.004 A 
ATOM     16  C   UNL A   1      32.445  29.272  27.320  1.00  0.00     0.000 A 
ATOM     17  C   UNL A   1      33.977  28.392  25.687  1.00  0.00     0.011 A 
ATOM     18  C   UNL A   1      33.576  29.428  26.523  1.00  0.00     0.001 A 
ENDBRANCH   8  12
ENDBRANCH   6   7
ENDBRANCH   4   6
ENDBRANCH   3   4
ENDBRANCH   2   3
ENDBRANCH   1   2
BRANCH   1  19
ATOM     19  O   UNL A   1      38.878  23.200  26.502  1.00  0.00    -0.458 OA
BRANCH  19  20
ATOM     20  C   UNL A   1      39.940  23.936  26.928  1.00  0.00     0.338 C 
ATOM     21  O   UNL A   1      41.088  23.540  26.774  1.00  0.00    -0.246 OA
BRANCH  20  22
ATOM     22  C   UNL A   1      39.686  25.255  27.530  1.00  0.00     0.060 A 
ATOM     23  C   UNL A   1      39.075  25.363  28.791  1.00  0.00     0.016 A 
ATOM     24  C   UNL A   1      40.136  26.386  26.873  1.00  0.00     0.016 A 
ATOM     25  C   UNL A   1      39.053  26.599  29.454  1.00  0.00     0.010 A 
ATOM     26  C   UNL A   1      40.252  27.559  27.581  1.00  0.00     0.010 A 
ATOM     27  C   UNL A   1      39.696  27.688  28.868  1.00  0.00    -0.014 A 
BRANCH  27  28
ATOM     28  C   UNL A   1      39.595  29.076  29.318  1.00  0.00     0.031 A 
ATOM     29  C   UNL A   1      38.587  30.067  28.874  1.00  0.00     0.074 A 
ATOM     30  C   UNL A   1      40.477  29.361  30.306  1.00  0.00     0.049 A 
ATOM     31  N   UNL A   1      38.693  31.328  29.134  1.00  0.00    -0.248 NA
ATOM     32  C   UNL A   1      37.378  29.753  28.122  1.00  0.00     0.031 C 
ATOM     33  C   UNL A   1      40.542  30.493  31.212  1.00  0.00     0.029 A 
ATOM     34  N   UNL A   1      41.675  28.669  30.562  1.00  0.00    -0.354 N 
ATOM     35  C   UNL A   1      37.498  31.943  28.815  1.00  0.00     0.074 A 
ATOM     36  C   UNL A   1      36.726  30.927  28.141  1.00  0.00     0.031 C 
ATOM     37  C   UNL A   1      41.809  30.587  31.661  1.00  0.00     0.029 A 
ATOM     38  C   UNL A   1      42.603  29.663  30.854  1.00  0.00     0.049 A 
ATOM     39  H   UNL A   1      41.823  27.697  30.539  1.00  0.00     0.167 HD
ATOM     40  C   UNL A   1      37.261  33.204  29.280  1.00  0.00     0.034 A 
ATOM     41  C   UNL A   1      43.578  30.017  29.958  1.00  0.00     0.034 A 
ATOM     42  C   UNL A   1      38.449  33.735  29.963  1.00  0.00     0.049 A 
ATOM     43  C   UNL A   1      43.590  31.505  29.645  1.00  0.00     0.074 A 
ATOM     44  C   UNL A   1      38.843  33.802  31.290  1.00  0.00     0.029 A 
ATOM     45  N   UNL A   1      39.576  34.029  29.212  1.00  0.00    -0.354 N 
ATOM     46  N   UNL A   1      42.628  32.331  29.944  1.00  0.00    -0.248 NA
ATOM     47  C   UNL A   1      44.645  32.137  28.859  1.00  0.00     0.031 C 
ATOM     48  C   UNL A   1      40.231  34.115  31.327  1.00  0.00     0.029 A 
ATOM     49  C   UNL A   1      40.675  34.263  30.025  1.00  0.00     0.049 A 
ATOM     50  H   UNL A   1      39.594  34.066  28.228  1.00  0.00     0.167 HD
ATOM     51  C   UNL A   1      42.851  33.536  29.336  1.00  0.00     0.074 A 
ATOM     52  C   UNL A   1      44.124  33.357  28.657  1.00  0.00     0.031 C 
ATOM     53  C   UNL A   1      41.951  34.567  29.395  1.00  0.00     0.034 A 
BRANCH  40  54
ATOM     54  C   UNL A   1      35.893  33.871  29.382  1.00  0.00     0.023 A 
ATOM     55  C   UNL A   1      35.248  34.188  28.160  1.00  0.00     0.012 A 
ATOM     56  C   UNL A   1      35.212  34.259  30.559  1.00  0.00     0.148 A 
ATOM     57  C   UNL A   1      34.065  34.928  28.092  1.00  0.00     0.002 A 
ATOM     58  C   UNL A   1      34.047  35.041  30.492  1.00  0.00     0.091 A 
ATOM     59  F   UNL A   1      35.653  33.828  31.746  1.00  0.00    -0.205 F 
ATOM     60  C   UNL A   1      33.478  35.383  29.260  1.00  0.00     0.022 A 
BRANCH  58  61
ATOM     61  S   UNL A   1      33.237  35.742  31.944  1.00  0.00     0.127 S 
ATOM     62  O   UNL A   1      32.263  36.655  31.338  1.00  0.00    -0.237 OA
ATOM     63  O   UNL A   1      32.644  34.565  32.577  1.00  0.00    -0.237 OA
ATOM     64  O   UNL A   1      34.283  36.406  32.711  1.00  0.00    -0.744 OA
ENDBRANCH  58  61
ENDBRANCH  40  54
BRANCH  41  65
ATOM     65  C   UNL A   1      43.940  28.977  28.920  1.00  0.00     0.023 A 
ATOM     66  C   UNL A   1      43.435  29.108  27.602  1.00  0.00     0.012 A 
ATOM     67  C   UNL A   1      44.968  28.037  29.136  1.00  0.00     0.148 A 
ATOM     68  C   UNL A   1      44.012  28.416  26.529  1.00  0.00     0.002 A 
ATOM     69  C   UNL A   1      45.525  27.338  28.066  1.00  0.00     0.091 A 
ATOM     70  F   UNL A   1      45.433  27.846  30.376  1.00  0.00    -0.205 F 
ATOM     71  C   UNL A   1      45.068  27.542  26.759  1.00  0.00     0.022 A 
BRANCH  69  72
ATOM     72  S   UNL A   1      46.948  26.270  28.325  1.00  0.00     0.127 S 
ATOM     73  O   UNL A   1      47.940  27.187  28.888  1.00  0.00    -0.237 OA
ATOM     74  O   UNL A   1      46.471  25.270  29.269  1.00  0.00    -0.237 OA
ATOM     75  O   UNL A   1      47.226  25.814  26.965  1.00  0.00    -0.744 OA
ENDBRANCH  69  72
ENDBRANCH  41  65
BRANCH  53  76
ATOM     76  C   UNL A   1      42.196  35.945  28.810  1.00  0.00     0.023 A 
ATOM     77  C   UNL A   1      41.783  36.268  27.502  1.00  0.00     0.012 A 
ATOM     78  C   UNL A   1      42.933  36.941  29.502  1.00  0.00     0.148 A 
ATOM     79  C   UNL A   1      41.939  37.550  26.969  1.00  0.00     0.002 A 
ATOM     80  C   UNL A   1      43.137  38.201  28.949  1.00  0.00     0.091 A 
ATOM     81  F   UNL A   1      43.474  36.665  30.692  1.00  0.00    -0.205 F 
ATOM     82  C   UNL A   1      42.603  38.522  27.699  1.00  0.00     0.022 A 
BRANCH  80  83
ATOM     83  S   UNL A   1      44.126  39.466  29.757  1.00  0.00     0.127 S 
ATOM     84  O   UNL A   1      43.542  39.477  31.099  1.00  0.00    -0.237 OA
ATOM     85  O   UNL A   1      45.469  38.890  29.682  1.00  0.00    -0.237 OA
ATOM     86  O   UNL A   1      43.938  40.688  28.991  1.00  0.00    -0.744 OA
ENDBRANCH  80  83
ENDBRANCH  53  76
ENDBRANCH  27  28
ENDBRANCH  20  22
ENDBRANCH  19  20
ENDBRANCH   1  19
TORSDOF 16
ENDMDL
MODEL 3
REMARK VINA RESULT:     -11.8      1.922      2.354
REMARK SMILES Cc1ccccc1-c1nc(CC(=O)OCCOC(=O)c2ccc(-c3c4nc(c(-c5cccc(S(=O)(=O)[O-])c5F)c5ccc([nH]5)c(-c5cccc(S(=O)(=O)[O-])c5F)c5nc(c(-c6cccc(S(=O)(=O)[O-])c6F)c6ccc3[nH]6)C=C5)C=C4)cc2)cs1
REMARK SMILES IDX 16 1 15 2 14 3 12 4 13 5 11 6 10 7 8 8 9 9 84 10 83 11 7 12
REMARK SMILES IDX 1 13 2 14 3 15 4 16 6 17 5 18 17 19 18 20 19 21 20 22 21 23
REMARK SMILES IDX 82 24 22 25 81 26 23 27 24 28 25 29 75 30 26 31 80 32 74 33
REMARK SMILES IDX 76 34 27 35 79 36 73 37 72 38 28 40 60 41 40 42 59 43 41 44
REMARK SMILES IDX 44 45 58 46 77 47 42 48 43 49 57 51 78 52 45 53 29 54 30 55
REMARK SMILES IDX 38 56 31 57 33 58 39 59 32 60 34 61 35 62 36 63 37 64 61 65
REMARK SMILES IDX 62 66 70 67 63 68 65 69 71 70 64 71 66 72 67 73 68 74 69 75
REMARK SMILES IDX 46 76 47 77 55 78 48 79 50 80 56 81 49 82 51 83 52 84 53 85
REMARK SMILES IDX 54 86
REMARK H PARENT 76 39 44 50
REMARK Flexibility Score: inf
ROOT
ATOM      1  C   UNL A   1      32.587  30.565  26.982  1.00  0.00     0.275 C 
ENDROOT
BRANCH   1   2
ATOM      2  C   UNL A   1      31.843  29.341  26.437  1.00  0.00     0.274 C 
BRANCH   2   3
ATOM      3  O   UNL A   1      31.912  28.251  27.347  1.00  0.00    -0.462 OA
BRANCH   3   4
ATOM      4  C   UNL A   1      32.227  27.053  26.766  1.00  0.00     0.312 C 
ATOM      5  O   UNL A   1      31.503  26.078  26.794  1.00  0.00    -0.252 OA
BRANCH   4   6
ATOM      6  C   UNL A   1      33.541  27.128  26.021  1.00  0.00     0.179 C 
BRANCH   6   7
ATOM      7  C   UNL A   1      33.576  26.177  24.887  1.00  0.00     0.063 A 
ATOM      8  C   UNL A   1      34.335  24.303  24.031  1.00  0.00     0.123 A 
ATOM      9  N   UNL A   1      34.315  25.050  25.102  1.00  0.00    -0.240 NA
ATOM     10  S   UNL A   1      33.482  24.902  22.682  1.00  0.00    -0.122 S 
ATOM     11  C   UNL A   1      33.004  26.263  23.629  1.00  0.00     0.091 A 
BRANCH   8  12
ATOM     12  C   UNL A   1      35.086  23.062  24.050  1.00  0.00     0.013 A 
ATOM     13  C   UNL A   1      32.961  21.750  24.600  1.00  0.00     0.045 C 
ATOM     14  C   UNL A   1      34.458  21.872  24.468  1.00  0.00    -0.041 A 
ATOM     15  C   UNL A   1      35.262  20.815  24.914  1.00  0.00     0.004 A 
ATOM     16  C   UNL A   1      36.653  20.935  24.927  1.00  0.00     0.000 A 
ATOM     17  C   UNL A   1      36.486  23.155  24.015  1.00  0.00     0.011 A 
ATOM     18  C   UNL A   1      37.267  22.094  24.460  1.00  0.00     0.001 A 
ENDBRANCH   8  12
ENDBRANCH   6   7
ENDBRANCH   4   6
ENDBRANCH   3   4
ENDBRANCH   2   3
ENDBRANCH   1   2
BRANCH   1  19
ATOM     19  O   UNL A   1      34.014  30.459  27.275  1.00  0.00    -0.458 OA
BRANCH  19  20
ATOM     20  C   UNL A   1      34.782  31.023  28.247  1.00  0.00     0.338 C 
ATOM     21  O   UNL A   1      34.367  31.956  28.921  1.00  0.00    -0.246 OA
BRANCH  20  22
ATOM     22  C   UNL A   1      36.111  30.448  28.515  1.00  0.00     0.060 A 
ATOM     23  C   UNL A   1      36.376  29.784  29.724  1.00  0.00     0.016 A 
ATOM     24  C   UNL A   1      37.071  30.496  27.520  1.00  0.00     0.016 A 
ATOM     25  C   UNL A   1      37.557  29.041  29.871  1.00  0.00     0.010 A 
ATOM     26  C   UNL A   1      38.152  29.649  27.603  1.00  0.00     0.010 A 
ATOM     27  C   UNL A   1      38.419  28.929  28.782  1.00  0.00    -0.014 A 
BRANCH  27  28
ATOM     28  C   UNL A   1      39.772  28.373  28.826  1.00  0.00     0.031 A 
ATOM     29  C   UNL A   1      40.141  26.956  28.603  1.00  0.00     0.074 A 
ATOM     30  C   UNL A   1      40.716  29.331  28.988  1.00  0.00     0.049 A 
ATOM     31  N   UNL A   1      41.315  26.492  28.882  1.00  0.00    -0.248 NA
ATOM     32  C   UNL A   1      39.259  25.937  28.046  1.00  0.00     0.031 C 
ATOM     33  C   UNL A   1      42.156  29.271  28.819  1.00  0.00     0.029 A 
ATOM     34  N   UNL A   1      40.506  30.603  29.550  1.00  0.00    -0.354 N 
ATOM     35  C   UNL A   1      41.427  25.228  28.339  1.00  0.00     0.074 A 
ATOM     36  C   UNL A   1      40.101  24.906  27.870  1.00  0.00     0.031 C 
ATOM     37  C   UNL A   1      42.696  30.275  29.537  1.00  0.00     0.029 A 
ATOM     38  C   UNL A   1      41.618  30.822  30.357  1.00  0.00     0.049 A 
ATOM     39  H   UNL A   1      39.742  31.205  29.404  1.00  0.00     0.167 HD
ATOM     40  C   UNL A   1      42.665  24.662  28.236  1.00  0.00     0.034 A 
ATOM     41  C   UNL A   1      41.535  30.752  31.723  1.00  0.00     0.034 A 
ATOM     42  C   UNL A   1      43.676  25.511  28.879  1.00  0.00     0.049 A 
ATOM     43  C   UNL A   1      42.541  29.788  32.333  1.00  0.00     0.074 A 
ATOM     44  C   UNL A   1      44.566  26.466  28.411  1.00  0.00     0.029 A 
ATOM     45  N   UNL A   1      43.655  25.650  30.258  1.00  0.00    -0.354 N 
ATOM     46  N   UNL A   1      43.219  28.903  31.660  1.00  0.00    -0.248 NA
ATOM     47  C   UNL A   1      42.757  29.680  33.773  1.00  0.00     0.031 C 
ATOM     48  C   UNL A   1      45.060  27.199  29.527  1.00  0.00     0.029 A 
ATOM     49  C   UNL A   1      44.492  26.675  30.674  1.00  0.00     0.049 A 
ATOM     50  H   UNL A   1      43.115  25.093  30.864  1.00  0.00     0.167 HD
ATOM     51  C   UNL A   1      43.862  28.060  32.524  1.00  0.00     0.074 A 
ATOM     52  C   UNL A   1      43.528  28.584  33.838  1.00  0.00     0.031 C 
ATOM     53  C   UNL A   1      44.573  26.970  32.097  1.00  0.00     0.034 A 
BRANCH  40  54
ATOM     54  C   UNL A   1      43.036  23.494  27.329  1.00  0.00     0.023 A 
ATOM     55  C   UNL A   1      43.967  23.764  26.295  1.00  0.00     0.012 A 
ATOM     56  C   UNL A   1      42.517  22.179  27.366  1.00  0.00     0.148 A 
ATOM     57  C   UNL A   1      44.291  22.837  25.299  1.00  0.00     0.002 A 
ATOM     58  C   UNL A   1      42.806  21.261  26.342  1.00  0.00     0.091 A 
ATOM     59  F   UNL A   1      41.789  21.789  28.418  1.00  0.00    -0.205 F 
ATOM     60  C   UNL A   1      43.686  21.593  25.305  1.00  0.00     0.022 A 
BRANCH  58  61
ATOM     61  S   UNL A   1      42.028  19.639  26.212  1.00  0.00     0.127 S 
ATOM     62  O   UNL A   1      42.693  19.074  25.035  1.00  0.00    -0.237 OA
ATOM     63  O   UNL A   1      42.401  19.005  27.476  1.00  0.00    -0.237 OA
ATOM     64  O   UNL A   1      40.603  19.887  26.032  1.00  0.00    -0.744 OA
ENDBRANCH  58  61
ENDBRANCH  40  54
BRANCH  41  65
ATOM     65  C   UNL A   1      40.161  30.959  32.321  1.00  0.00     0.023 A 
ATOM     66  C   UNL A   1      39.423  29.835  32.771  1.00  0.00     0.012 A 
ATOM     67  C   UNL A   1      39.695  32.236  32.692  1.00  0.00     0.148 A 
ATOM     68  C   UNL A   1      38.341  29.978  33.649  1.00  0.00     0.002 A 
ATOM     69  C   UNL A   1      38.606  32.372  33.551  1.00  0.00     0.091 A 
ATOM     70  F   UNL A   1      40.332  33.323  32.241  1.00  0.00    -0.205 F 
ATOM     71  C   UNL A   1      37.942  31.246  34.052  1.00  0.00     0.022 A 
BRANCH  69  72
ATOM     72  S   UNL A   1      38.126  33.996  34.156  1.00  0.00     0.127 S 
ATOM     73  O   UNL A   1      39.368  34.501  34.742  1.00  0.00    -0.237 OA
ATOM     74  O   UNL A   1      37.711  34.710  32.957  1.00  0.00    -0.237 OA
ATOM     75  O   UNL A   1      37.080  33.656  35.117  1.00  0.00    -0.744 OA
ENDBRANCH  69  72
ENDBRANCH  41  65
BRANCH  53  76
ATOM     76  C   UNL A   1      45.370  26.062  33.013  1.00  0.00     0.023 A 
ATOM     77  C   UNL A   1      46.777  26.112  33.050  1.00  0.00     0.012 A 
ATOM     78  C   UNL A   1      44.754  25.056  33.803  1.00  0.00     0.148 A 
ATOM     79  C   UNL A   1      47.526  25.331  33.935  1.00  0.00     0.002 A 
ATOM     80  C   UNL A   1      45.504  24.240  34.644  1.00  0.00     0.091 A 
ATOM     81  F   UNL A   1      43.435  24.856  33.721  1.00  0.00    -0.205 F 
ATOM     82  C   UNL A   1      46.887  24.405  34.744  1.00  0.00     0.022 A 
BRANCH  80  83
ATOM     83  S   UNL A   1      44.776  22.906  35.603  1.00  0.00     0.127 S 
ATOM     84  O   UNL A   1      43.498  23.499  36.001  1.00  0.00    -0.237 OA
ATOM     85  O   UNL A   1      44.669  21.842  34.605  1.00  0.00    -0.237 OA
ATOM     86  O   UNL A   1      45.697  22.633  36.696  1.00  0.00    -0.744 OA
ENDBRANCH  80  83
ENDBRANCH  53  76
ENDBRANCH  27  28
ENDBRANCH  20  22
ENDBRANCH  19  20
ENDBRANCH   1  19
TORSDOF 16
ENDMDL
