MODEL 1
REMARK VINA RESULT:     -11.4      0.000      0.000
REMARK SMILES CC(=O)Nc1nc(C[N@@H+]2CCO[C@@H](CC(=O)OCCOC(=O)c3ccc(-c4c5nc(c(-c6cccc(S(=O)(=O)[O-])c6F)c6ccc([nH]6)c(-c6cccc(S(=O)(=O)[O-])c6F)c6nc(c(-c7cccc(S(=O)(=O)[O-])c7F)c7ccc4[nH]7)C=C6)C=C5)cc3)C2)cs1
REMARK SMILES IDX 18 1 17 2 15 3 16 4 14 5 13 6 9 7 10 8 86 9 11 11 12 12 8 13
REMARK SMILES IDX 7 14 5 15 6 16 88 17 87 18 4 19 1 20 2 21 3 22 19 24 20 25
REMARK SMILES IDX 21 26 22 27 23 28 24 29 85 30 25 31 84 32 26 33 27 34 28 35
REMARK SMILES IDX 78 36 29 37 83 38 77 39 79 40 30 41 82 42 76 43 75 44 31 46
REMARK SMILES IDX 63 47 43 48 62 49 44 50 47 51 61 52 80 53 45 54 46 55 60 57
REMARK SMILES IDX 81 58 48 59 32 60 33 61 41 62 34 63 36 64 42 65 35 66 37 67
REMARK SMILES IDX 38 68 39 69 40 70 64 71 65 72 73 73 66 74 68 75 74 76 67 77
REMARK SMILES IDX 69 78 70 79 71 80 72 81 49 82 50 83 58 84 51 85 53 86 59 87
REMARK SMILES IDX 52 88 54 89 55 90 56 91 57 92
REMARK H PARENT 9 10 4 23 79 45 47 56
REMARK Flexibility Score: inf
ROOT
ATOM      1  C   UNL A   1      32.177  29.120  24.996  1.00  0.00     0.274 C 
ENDROOT
BRANCH   1   2
ATOM      2  O   UNL A   1      31.368  27.933  25.120  1.00  0.00    -0.462 OA
BRANCH   2   3
ATOM      3  C   UNL A   1      31.698  27.093  26.135  1.00  0.00     0.308 C 
ATOM      4  O   UNL A   1      31.116  27.034  27.211  1.00  0.00    -0.252 OA
BRANCH   3   5
ATOM      5  C   UNL A   1      32.952  26.320  25.845  1.00  0.00     0.160 C 
BRANCH   5   6
ATOM      6  C   UNL A   1      32.822  24.873  25.368  1.00  0.00     0.184 C 
ATOM      7  N   UNL A   1      32.640  22.443  26.148  1.00  0.00    -0.326 N 
ATOM      8  C   UNL A   1      31.324  22.423  25.515  1.00  0.00     0.291 C 
ATOM      9  C   UNL A   1      33.099  23.808  26.458  1.00  0.00     0.295 C 
ATOM     10  H   UNL A   1      32.490  22.011  27.059  1.00  0.00     0.348 HD
ATOM     11  C   UNL A   1      31.106  23.502  24.447  1.00  0.00     0.222 C 
ATOM     12  O   UNL A   1      31.439  24.795  24.938  1.00  0.00    -0.366 OA
BRANCH   7  13
ATOM     13  C   UNL A   1      33.640  21.496  25.644  1.00  0.00     0.320 C 
BRANCH  13  14
ATOM     14  C   UNL A   1      33.115  20.291  24.921  1.00  0.00     0.108 A 
ATOM     15  C   UNL A   1      32.567  18.154  24.845  1.00  0.00     0.189 A 
ATOM     16  N   UNL A   1      32.945  19.119  25.642  1.00  0.00    -0.219 NA
ATOM     17  S   UNL A   1      32.331  18.569  23.213  1.00  0.00    -0.105 S 
ATOM     18  C   UNL A   1      32.640  20.209  23.623  1.00  0.00     0.098 A 
BRANCH  15  19
ATOM     19  N   UNL A   1      32.322  16.851  25.151  1.00  0.00    -0.302 N 
ATOM     20  C   UNL A   1      34.707  16.189  24.955  1.00  0.00     0.114 C 
ATOM     21  C   UNL A   1      33.247  15.853  25.085  1.00  0.00     0.223 C 
ATOM     22  O   UNL A   1      32.892  14.678  25.198  1.00  0.00    -0.275 OA
ATOM     23  H   UNL A   1      31.412  16.612  25.440  1.00  0.00     0.172 HD
ENDBRANCH  15  19
ENDBRANCH  13  14
ENDBRANCH   7  13
ENDBRANCH   5   6
ENDBRANCH   3   5
ENDBRANCH   2   3
ENDBRANCH   1   2
BRANCH   1  24
ATOM     24  C   UNL A   1      31.607  30.313  25.774  1.00  0.00     0.275 C 
BRANCH  24  25
ATOM     25  O   UNL A   1      32.205  30.466  27.074  1.00  0.00    -0.458 OA
BRANCH  25  26
ATOM     26  C   UNL A   1      33.001  31.553  27.204  1.00  0.00     0.338 C 
ATOM     27  O   UNL A   1      32.679  32.708  26.983  1.00  0.00    -0.246 OA
BRANCH  26  28
ATOM     28  C   UNL A   1      34.310  31.201  27.777  1.00  0.00     0.060 A 
ATOM     29  C   UNL A   1      34.543  29.855  28.087  1.00  0.00     0.016 A 
ATOM     30  C   UNL A   1      35.255  32.176  28.097  1.00  0.00     0.016 A 
ATOM     31  C   UNL A   1      35.718  29.481  28.733  1.00  0.00     0.010 A 
ATOM     32  C   UNL A   1      36.434  31.797  28.746  1.00  0.00     0.010 A 
ATOM     33  C   UNL A   1      36.666  30.453  29.081  1.00  0.00    -0.014 A 
BRANCH  33  34
ATOM     34  C   UNL A   1      37.907  30.055  29.785  1.00  0.00     0.031 A 
ATOM     35  C   UNL A   1      38.227  30.607  31.144  1.00  0.00     0.074 A 
ATOM     36  C   UNL A   1      38.758  29.209  29.179  1.00  0.00     0.049 A 
ATOM     37  N   UNL A   1      39.251  30.366  31.921  1.00  0.00    -0.248 NA
ATOM     38  C   UNL A   1      37.257  31.549  31.714  1.00  0.00     0.031 C 
ATOM     39  C   UNL A   1      38.562  28.626  27.852  1.00  0.00     0.029 A 
ATOM     40  N   UNL A   1      39.971  28.719  29.589  1.00  0.00    -0.354 N 
ATOM     41  C   UNL A   1      39.055  31.141  33.060  1.00  0.00     0.074 A 
ATOM     42  C   UNL A   1      37.813  31.858  32.876  1.00  0.00     0.031 C 
ATOM     43  C   UNL A   1      39.635  27.880  27.542  1.00  0.00     0.029 A 
ATOM     44  C   UNL A   1      40.598  27.952  28.637  1.00  0.00     0.049 A 
ATOM     45  H   UNL A   1      40.355  28.898  30.477  1.00  0.00     0.167 HD
ATOM     46  C   UNL A   1      39.837  31.242  34.160  1.00  0.00     0.034 A 
ATOM     47  C   UNL A   1      41.821  27.389  28.643  1.00  0.00     0.034 A 
ATOM     48  C   UNL A   1      41.083  30.543  34.325  1.00  0.00     0.049 A 
ATOM     49  C   UNL A   1      42.681  27.528  29.869  1.00  0.00     0.074 A 
ATOM     50  C   UNL A   1      41.939  30.549  35.411  1.00  0.00     0.029 A 
ATOM     51  N   UNL A   1      41.661  29.729  33.363  1.00  0.00    -0.354 N 
ATOM     52  N   UNL A   1      42.417  28.143  30.998  1.00  0.00    -0.248 NA
ATOM     53  C   UNL A   1      43.991  26.864  29.840  1.00  0.00     0.031 C 
ATOM     54  C   UNL A   1      43.045  29.751  35.099  1.00  0.00     0.029 A 
ATOM     55  C   UNL A   1      42.868  29.233  33.825  1.00  0.00     0.049 A 
ATOM     56  H   UNL A   1      41.271  29.533  32.481  1.00  0.00     0.167 HD
ATOM     57  C   UNL A   1      43.513  27.917  31.821  1.00  0.00     0.074 A 
ATOM     58  C   UNL A   1      44.435  27.089  31.070  1.00  0.00     0.031 C 
ATOM     59  C   UNL A   1      43.745  28.367  33.079  1.00  0.00     0.034 A 
BRANCH  46  60
ATOM     60  C   UNL A   1      39.353  32.115  35.288  1.00  0.00     0.023 A 
ATOM     61  C   UNL A   1      39.535  33.510  35.204  1.00  0.00     0.012 A 
ATOM     62  C   UNL A   1      38.668  31.573  36.394  1.00  0.00     0.148 A 
ATOM     63  C   UNL A   1      39.063  34.351  36.211  1.00  0.00     0.002 A 
ATOM     64  C   UNL A   1      38.170  32.421  37.377  1.00  0.00     0.091 A 
ATOM     65  F   UNL A   1      38.522  30.243  36.467  1.00  0.00    -0.205 F 
ATOM     66  C   UNL A   1      38.373  33.809  37.292  1.00  0.00     0.022 A 
BRANCH  64  67
ATOM     67  S   UNL A   1      37.208  31.828  38.774  1.00  0.00     0.127 S 
ATOM     68  O   UNL A   1      38.151  31.999  39.877  1.00  0.00    -0.237 OA
ATOM     69  O   UNL A   1      36.080  32.760  38.790  1.00  0.00    -0.237 OA
ATOM     70  O   UNL A   1      36.851  30.452  38.461  1.00  0.00    -0.744 OA
ENDBRANCH  64  67
ENDBRANCH  46  60
BRANCH  47  71
ATOM     71  C   UNL A   1      42.273  26.604  27.462  1.00  0.00     0.023 A 
ATOM     72  C   UNL A   1      43.054  27.230  26.472  1.00  0.00     0.012 A 
ATOM     73  C   UNL A   1      41.981  25.231  27.342  1.00  0.00     0.148 A 
ATOM     74  C   UNL A   1      43.516  26.508  25.372  1.00  0.00     0.002 A 
ATOM     75  C   UNL A   1      42.490  24.506  26.272  1.00  0.00     0.091 A 
ATOM     76  F   UNL A   1      41.219  24.657  28.285  1.00  0.00    -0.205 F 
ATOM     77  C   UNL A   1      43.246  25.145  25.278  1.00  0.00     0.022 A 
BRANCH  75  78
ATOM     78  S   UNL A   1      42.300  22.723  26.151  1.00  0.00     0.127 S 
ATOM     79  O   UNL A   1      40.848  22.572  26.194  1.00  0.00    -0.237 OA
ATOM     80  O   UNL A   1      42.911  22.436  24.852  1.00  0.00    -0.237 OA
ATOM     81  O   UNL A   1      43.033  22.178  27.285  1.00  0.00    -0.744 OA
ENDBRANCH  75  78
ENDBRANCH  47  71
BRANCH  59  82
ATOM     82  C   UNL A   1      45.035  27.958  33.738  1.00  0.00     0.023 A 
ATOM     83  C   UNL A   1      46.158  28.802  33.653  1.00  0.00     0.012 A 
ATOM     84  C   UNL A   1      45.110  26.779  34.505  1.00  0.00     0.148 A 
ATOM     85  C   UNL A   1      47.346  28.467  34.300  1.00  0.00     0.002 A 
ATOM     86  C   UNL A   1      46.283  26.474  35.184  1.00  0.00     0.091 A 
ATOM     87  F   UNL A   1      44.035  25.978  34.557  1.00  0.00    -0.205 F 
ATOM     88  C   UNL A   1      47.405  27.311  35.075  1.00  0.00     0.022 A 
BRANCH  86  89
ATOM     89  S   UNL A   1      46.413  25.054  36.277  1.00  0.00     0.127 S 
ATOM     90  O   UNL A   1      45.846  23.989  35.452  1.00  0.00    -0.237 OA
ATOM     91  O   UNL A   1      47.857  24.954  36.494  1.00  0.00    -0.237 OA
ATOM     92  O   UNL A   1      45.650  25.400  37.470  1.00  0.00    -0.744 OA
ENDBRANCH  86  89
ENDBRANCH  59  82
ENDBRANCH  33  34
ENDBRANCH  26  28
ENDBRANCH  25  26
ENDBRANCH  24  25
ENDBRANCH   1  24
TORSDOF 18
ENDMDL
MODEL 2
REMARK VINA RESULT:     -11.4      1.614      7.773
REMARK SMILES CC(=O)Nc1nc(C[N@@H+]2CCO[C@@H](CC(=O)OCCOC(=O)c3ccc(-c4c5nc(c(-c6cccc(S(=O)(=O)[O-])c6F)c6ccc([nH]6)c(-c6cccc(S(=O)(=O)[O-])c6F)c6nc(c(-c7cccc(S(=O)(=O)[O-])c7F)c7ccc4[nH]7)C=C6)C=C5)cc3)C2)cs1
REMARK SMILES IDX 18 1 17 2 15 3 16 4 14 5 13 6 9 7 10 8 86 9 11 11 12 12 8 13
REMARK SMILES IDX 7 14 5 15 6 16 88 17 87 18 4 19 1 20 2 21 3 22 19 24 20 25
REMARK SMILES IDX 21 26 22 27 23 28 24 29 85 30 25 31 84 32 26 33 27 34 28 35
REMARK SMILES IDX 78 36 29 37 83 38 77 39 79 40 30 41 82 42 76 43 75 44 31 46
REMARK SMILES IDX 63 47 43 48 62 49 44 50 47 51 61 52 80 53 45 54 46 55 60 57
REMARK SMILES IDX 81 58 48 59 32 60 33 61 41 62 34 63 36 64 42 65 35 66 37 67
REMARK SMILES IDX 38 68 39 69 40 70 64 71 65 72 73 73 66 74 68 75 74 76 67 77
REMARK SMILES IDX 69 78 70 79 71 80 72 81 49 82 50 83 58 84 51 85 53 86 59 87
REMARK SMILES IDX 52 88 54 89 55 90 56 91 57 92
REMARK H PARENT 9 10 4 23 79 45 47 56
REMARK Flexibility Score: inf
ROOT
ATOM      1  C   UNL A   1      31.225  29.707  24.150  1.00  0.00     0.274 C 
ENDROOT
BRANCH   1   2
ATOM      2  O   UNL A   1      31.302  28.269  24.067  1.00  0.00    -0.462 OA
BRANCH   2   3
ATOM      3  C   UNL A   1      30.441  27.677  23.198  1.00  0.00     0.308 C 
ATOM      4  O   UNL A   1      30.388  27.913  21.998  1.00  0.00    -0.252 OA
BRANCH   3   5
ATOM      5  C   UNL A   1      29.459  26.782  23.897  1.00  0.00     0.160 C 
BRANCH   5   6
ATOM      6  C   UNL A   1      29.956  25.444  24.446  1.00  0.00     0.184 C 
ATOM      7  N   UNL A   1      31.902  23.784  24.410  1.00  0.00    -0.326 N 
ATOM      8  C   UNL A   1      32.050  24.049  25.839  1.00  0.00     0.291 C 
ATOM      9  C   UNL A   1      31.183  24.859  23.705  1.00  0.00     0.295 C 
ATOM     10  H   UNL A   1      32.853  23.829  24.044  1.00  0.00     0.348 HD
ATOM     11  C   UNL A   1      30.805  24.632  26.518  1.00  0.00     0.222 C 
ATOM     12  O   UNL A   1      30.311  25.765  25.816  1.00  0.00    -0.366 OA
BRANCH   7  13
ATOM     13  C   UNL A   1      31.605  22.404  24.013  1.00  0.00     0.320 C 
BRANCH  13  14
ATOM     14  C   UNL A   1      32.613  21.364  24.403  1.00  0.00     0.108 A 
ATOM     15  C   UNL A   1      33.154  19.410  25.276  1.00  0.00     0.189 A 
ATOM     16  N   UNL A   1      32.148  20.159  24.908  1.00  0.00    -0.219 NA
ATOM     17  S   UNL A   1      34.709  20.041  25.001  1.00  0.00    -0.105 S 
ATOM     18  C   UNL A   1      33.984  21.383  24.208  1.00  0.00     0.098 A 
BRANCH  15  19
ATOM     19  N   UNL A   1      33.125  18.174  25.843  1.00  0.00    -0.302 N 
ATOM     20  C   UNL A   1      33.320  16.994  23.668  1.00  0.00     0.114 C 
ATOM     21  C   UNL A   1      33.058  17.004  25.148  1.00  0.00     0.223 C 
ATOM     22  O   UNL A   1      32.847  15.946  25.744  1.00  0.00    -0.275 OA
ATOM     23  H   UNL A   1      33.153  18.120  26.826  1.00  0.00     0.172 HD
ENDBRANCH  15  19
ENDBRANCH  13  14
ENDBRANCH   7  13
ENDBRANCH   5   6
ENDBRANCH   3   5
ENDBRANCH   2   3
ENDBRANCH   1   2
BRANCH   1  24
ATOM     24  C   UNL A   1      31.433  30.232  25.576  1.00  0.00     0.275 C 
BRANCH  24  25
ATOM     25  O   UNL A   1      32.820  30.258  25.963  1.00  0.00    -0.458 OA
BRANCH  25  26
ATOM     26  C   UNL A   1      33.130  31.197  26.886  1.00  0.00     0.338 C 
ATOM     27  O   UNL A   1      32.411  32.113  27.247  1.00  0.00    -0.246 OA
BRANCH  26  28
ATOM     28  C   UNL A   1      34.425  30.921  27.527  1.00  0.00     0.060 A 
ATOM     29  C   UNL A   1      34.679  29.606  27.939  1.00  0.00     0.016 A 
ATOM     30  C   UNL A   1      35.336  31.939  27.808  1.00  0.00     0.016 A 
ATOM     31  C   UNL A   1      35.838  29.309  28.650  1.00  0.00     0.010 A 
ATOM     32  C   UNL A   1      36.500  31.638  28.521  1.00  0.00     0.010 A 
ATOM     33  C   UNL A   1      36.751  30.327  28.959  1.00  0.00    -0.014 A 
BRANCH  33  34
ATOM     34  C   UNL A   1      37.976  30.012  29.731  1.00  0.00     0.031 A 
ATOM     35  C   UNL A   1      38.992  29.046  29.195  1.00  0.00     0.074 A 
ATOM     36  C   UNL A   1      38.155  30.588  30.933  1.00  0.00     0.049 A 
ATOM     37  N   UNL A   1      40.128  28.658  29.714  1.00  0.00    -0.248 NA
ATOM     38  C   UNL A   1      38.697  28.441  27.890  1.00  0.00     0.031 C 
ATOM     39  C   UNL A   1      37.227  31.525  31.563  1.00  0.00     0.029 A 
ATOM     40  N   UNL A   1      39.165  30.442  31.849  1.00  0.00    -0.354 N 
ATOM     41  C   UNL A   1      40.671  27.752  28.808  1.00  0.00     0.074 A 
ATOM     42  C   UNL A   1      39.743  27.649  27.704  1.00  0.00     0.031 C 
ATOM     43  C   UNL A   1      37.694  31.848  32.779  1.00  0.00     0.029 A 
ATOM     44  C   UNL A   1      38.939  31.125  33.019  1.00  0.00     0.049 A 
ATOM     45  H   UNL A   1      39.971  29.903  31.684  1.00  0.00     0.167 HD
ATOM     46  C   UNL A   1      41.839  27.072  28.887  1.00  0.00     0.034 A 
ATOM     47  C   UNL A   1      39.650  31.145  34.163  1.00  0.00     0.034 A 
ATOM     48  C   UNL A   1      42.745  27.163  30.000  1.00  0.00     0.049 A 
ATOM     49  C   UNL A   1      40.936  30.369  34.235  1.00  0.00     0.074 A 
ATOM     50  C   UNL A   1      43.969  26.542  30.169  1.00  0.00     0.029 A 
ATOM     51  N   UNL A   1      42.512  27.909  31.145  1.00  0.00    -0.354 N 
ATOM     52  N   UNL A   1      41.509  29.633  33.313  1.00  0.00    -0.248 NA
ATOM     53  C   UNL A   1      41.692  30.455  35.492  1.00  0.00     0.031 C 
ATOM     54  C   UNL A   1      44.469  26.899  31.426  1.00  0.00     0.029 A 
ATOM     55  C   UNL A   1      43.564  27.758  32.031  1.00  0.00     0.049 A 
ATOM     56  H   UNL A   1      41.715  28.464  31.305  1.00  0.00     0.167 HD
ATOM     57  C   UNL A   1      42.706  29.192  33.865  1.00  0.00     0.074 A 
ATOM     58  C   UNL A   1      42.785  29.762  35.196  1.00  0.00     0.031 C 
ATOM     59  C   UNL A   1      43.646  28.377  33.329  1.00  0.00     0.034 A 
BRANCH  46  60
ATOM     60  C   UNL A   1      42.220  26.194  27.724  1.00  0.00     0.023 A 
ATOM     61  C   UNL A   1      42.981  26.741  26.671  1.00  0.00     0.012 A 
ATOM     62  C   UNL A   1      41.886  24.825  27.697  1.00  0.00     0.148 A 
ATOM     63  C   UNL A   1      43.385  25.947  25.598  1.00  0.00     0.002 A 
ATOM     64  C   UNL A   1      42.322  24.031  26.641  1.00  0.00     0.091 A 
ATOM     65  F   UNL A   1      41.145  24.328  28.697  1.00  0.00    -0.205 F 
ATOM     66  C   UNL A   1      43.065  24.592  25.588  1.00  0.00     0.022 A 
BRANCH  64  67
ATOM     67  S   UNL A   1      42.021  22.262  26.568  1.00  0.00     0.127 S 
ATOM     68  O   UNL A   1      42.643  21.803  27.808  1.00  0.00    -0.237 OA
ATOM     69  O   UNL A   1      40.559  22.198  26.563  1.00  0.00    -0.237 OA
ATOM     70  O   UNL A   1      42.651  21.798  25.340  1.00  0.00    -0.744 OA
ENDBRANCH  64  67
ENDBRANCH  46  60
BRANCH  47  71
ATOM     71  C   UNL A   1      39.175  31.971  35.307  1.00  0.00     0.023 A 
ATOM     72  C   UNL A   1      38.282  31.414  36.240  1.00  0.00     0.012 A 
ATOM     73  C   UNL A   1      39.646  33.285  35.503  1.00  0.00     0.148 A 
ATOM     74  C   UNL A   1      37.848  32.157  37.338  1.00  0.00     0.002 A 
ATOM     75  C   UNL A   1      39.251  34.000  36.627  1.00  0.00     0.091 A 
ATOM     76  F   UNL A   1      40.480  33.807  34.592  1.00  0.00    -0.205 F 
ATOM     77  C   UNL A   1      38.341  33.444  37.539  1.00  0.00     0.022 A 
BRANCH  75  78
ATOM     78  S   UNL A   1      39.945  35.609  37.027  1.00  0.00     0.127 S 
ATOM     79  O   UNL A   1      39.239  35.943  38.261  1.00  0.00    -0.237 OA
ATOM     80  O   UNL A   1      41.366  35.298  37.196  1.00  0.00    -0.237 OA
ATOM     81  O   UNL A   1      39.655  36.453  35.876  1.00  0.00    -0.744 OA
ENDBRANCH  75  78
ENDBRANCH  47  71
BRANCH  59  82
ATOM     82  C   UNL A   1      44.858  28.065  34.167  1.00  0.00     0.023 A 
ATOM     83  C   UNL A   1      45.974  28.921  34.121  1.00  0.00     0.012 A 
ATOM     84  C   UNL A   1      44.857  26.973  35.057  1.00  0.00     0.148 A 
ATOM     85  C   UNL A   1      47.084  28.680  34.929  1.00  0.00     0.002 A 
ATOM     86  C   UNL A   1      45.949  26.765  35.890  1.00  0.00     0.091 A 
ATOM     87  F   UNL A   1      43.792  26.158  35.070  1.00  0.00    -0.205 F 
ATOM     88  C   UNL A   1      47.067  27.611  35.821  1.00  0.00     0.022 A 
BRANCH  86  89
ATOM     89  S   UNL A   1      45.968  25.467  37.133  1.00  0.00     0.127 S 
ATOM     90  O   UNL A   1      45.964  24.262  36.306  1.00  0.00    -0.237 OA
ATOM     91  O   UNL A   1      47.228  25.721  37.834  1.00  0.00    -0.237 OA
ATOM     92  O   UNL A   1      44.777  25.677  37.945  1.00  0.00    -0.744 OA
ENDBRANCH  86  89
ENDBRANCH  59  82
ENDBRANCH  33  34
ENDBRANCH  26  28
ENDBRANCH  25  26
ENDBRANCH  24  25
ENDBRANCH   1  24
TORSDOF 18
ENDMDL
MODEL 3
REMARK VINA RESULT:     -11.2      2.228      8.182
REMARK SMILES CC(=O)Nc1nc(C[N@@H+]2CCO[C@@H](CC(=O)OCCOC(=O)c3ccc(-c4c5nc(c(-c6cccc(S(=O)(=O)[O-])c6F)c6ccc([nH]6)c(-c6cccc(S(=O)(=O)[O-])c6F)c6nc(c(-c7cccc(S(=O)(=O)[O-])c7F)c7ccc4[nH]7)C=C6)C=C5)cc3)C2)cs1
REMARK SMILES IDX 18 1 17 2 15 3 16 4 14 5 13 6 9 7 10 8 86 9 11 11 12 12 8 13
REMARK SMILES IDX 7 14 5 15 6 16 88 17 87 18 4 19 1 20 2 21 3 22 19 24 20 25
REMARK SMILES IDX 21 26 22 27 23 28 24 29 85 30 25 31 84 32 26 33 27 34 28 35
REMARK SMILES IDX 78 36 29 37 83 38 77 39 79 40 30 41 82 42 76 43 75 44 31 46
REMARK SMILES IDX 63 47 43 48 62 49 44 50 47 51 61 52 80 53 45 54 46 55 60 57
REMARK SMILES IDX 81 58 48 59 32 60 33 61 41 62 34 63 36 64 42 65 35 66 37 67
REMARK SMILES IDX 38 68 39 69 40 70 64 71 65 72 73 73 66 74 68 75 74 76 67 77
REMARK SMILES IDX 69 78 70 79 71 80 72 81 49 82 50 83 58 84 51 85 53 86 59 87
REMARK SMILES IDX 52 88 54 89 55 90 56 91 57 92
REMARK H PARENT 9 10 4 23 79 45 47 56
REMARK Flexibility Score: inf
ROOT
ATOM      1  C   UNL A   1      33.156  31.584  27.461  1.00  0.00     0.274 C 
ENDROOT
BRANCH   1   2
ATOM      2  O   UNL A   1      32.131  30.605  27.199  1.00  0.00    -0.462 OA
BRANCH   2   3
ATOM      3  C   UNL A   1      32.490  29.566  26.400  1.00  0.00     0.308 C 
ATOM      4  O   UNL A   1      32.860  29.674  25.238  1.00  0.00    -0.252 OA
BRANCH   3   5
ATOM      5  C   UNL A   1      32.259  28.239  27.062  1.00  0.00     0.160 C 
BRANCH   5   6
ATOM      6  C   UNL A   1      31.963  27.026  26.178  1.00  0.00     0.184 C 
ATOM      7  N   UNL A   1      32.241  24.491  25.977  1.00  0.00    -0.326 N 
ATOM      8  C   UNL A   1      30.784  24.409  26.009  1.00  0.00     0.291 C 
ATOM      9  C   UNL A   1      32.752  25.747  26.553  1.00  0.00     0.295 C 
ATOM     10  H   UNL A   1      32.551  23.768  26.627  1.00  0.00     0.348 HD
ATOM     11  C   UNL A   1      30.057  25.705  25.632  1.00  0.00     0.222 C 
ATOM     12  O   UNL A   1      30.543  26.812  26.383  1.00  0.00    -0.366 OA
BRANCH   7  13
ATOM     13  C   UNL A   1      32.916  23.979  24.780  1.00  0.00     0.320 C 
BRANCH  13  14
ATOM     14  C   UNL A   1      33.586  22.643  24.911  1.00  0.00     0.108 A 
ATOM     15  C   UNL A   1      33.580  20.512  25.489  1.00  0.00     0.189 A 
ATOM     16  N   UNL A   1      32.825  21.570  25.349  1.00  0.00    -0.219 NA
ATOM     17  S   UNL A   1      35.217  20.689  25.062  1.00  0.00    -0.105 S 
ATOM     18  C   UNL A   1      34.867  22.284  24.524  1.00  0.00     0.098 A 
BRANCH  15  19
ATOM     19  N   UNL A   1      33.227  19.272  25.923  1.00  0.00    -0.302 N 
ATOM     20  C   UNL A   1      32.486  18.520  23.677  1.00  0.00     0.114 C 
ATOM     21  C   UNL A   1      32.583  18.341  25.166  1.00  0.00     0.223 C 
ATOM     22  O   UNL A   1      32.138  17.320  25.694  1.00  0.00    -0.275 OA
ATOM     23  H   UNL A   1      33.453  19.030  26.851  1.00  0.00     0.172 HD
ENDBRANCH  15  19
ENDBRANCH  13  14
ENDBRANCH   7  13
ENDBRANCH   5   6
ENDBRANCH   3   5
ENDBRANCH   2   3
ENDBRANCH   1   2
BRANCH   1  24
ATOM     24  C   UNL A   1      32.678  33.023  27.234  1.00  0.00     0.275 C 
BRANCH  24  25
ATOM     25  O   UNL A   1      32.381  33.711  28.463  1.00  0.00    -0.458 OA
BRANCH  25  26
ATOM     26  C   UNL A   1      33.259  34.689  28.788  1.00  0.00     0.338 C 
ATOM     27  O   UNL A   1      33.127  35.878  28.555  1.00  0.00    -0.246 OA
BRANCH  26  28
ATOM     28  C   UNL A   1      34.377  34.168  29.591  1.00  0.00     0.060 A 
ATOM     29  C   UNL A   1      35.677  34.431  29.141  1.00  0.00     0.016 A 
ATOM     30  C   UNL A   1      34.162  33.358  30.706  1.00  0.00     0.016 A 
ATOM     31  C   UNL A   1      36.770  33.870  29.798  1.00  0.00     0.010 A 
ATOM     32  C   UNL A   1      35.261  32.796  31.363  1.00  0.00     0.010 A 
ATOM     33  C   UNL A   1      36.568  33.036  30.906  1.00  0.00    -0.014 A 
BRANCH  33  34
ATOM     34  C   UNL A   1      37.730  32.425  31.592  1.00  0.00     0.031 A 
ATOM     35  C   UNL A   1      38.462  31.268  30.977  1.00  0.00     0.074 A 
ATOM     36  C   UNL A   1      38.108  32.907  32.789  1.00  0.00     0.049 A 
ATOM     37  N   UNL A   1      39.506  30.614  31.415  1.00  0.00    -0.248 NA
ATOM     38  C   UNL A   1      37.959  30.787  29.684  1.00  0.00     0.031 C 
ATOM     39  C   UNL A   1      37.460  34.013  33.493  1.00  0.00     0.029 A 
ATOM     40  N   UNL A   1      39.109  32.506  33.636  1.00  0.00    -0.354 N 
ATOM     41  C   UNL A   1      39.771  29.636  30.462  1.00  0.00     0.074 A 
ATOM     42  C   UNL A   1      38.781  29.782  29.418  1.00  0.00     0.031 C 
ATOM     43  C   UNL A   1      38.060  34.183  34.681  1.00  0.00     0.029 A 
ATOM     44  C   UNL A   1      39.117  33.186  34.829  1.00  0.00     0.049 A 
ATOM     45  H   UNL A   1      39.758  31.801  33.411  1.00  0.00     0.167 HD
ATOM     46  C   UNL A   1      40.752  28.703  30.455  1.00  0.00     0.034 A 
ATOM     47  C   UNL A   1      39.879  33.009  35.925  1.00  0.00     0.034 A 
ATOM     48  C   UNL A   1      41.719  28.550  31.508  1.00  0.00     0.049 A 
ATOM     49  C   UNL A   1      40.953  31.956  35.902  1.00  0.00     0.074 A 
ATOM     50  C   UNL A   1      42.774  27.659  31.589  1.00  0.00     0.029 A 
ATOM     51  N   UNL A   1      41.733  29.294  32.678  1.00  0.00    -0.354 N 
ATOM     52  N   UNL A   1      41.285  31.137  34.933  1.00  0.00    -0.248 NA
ATOM     53  C   UNL A   1      41.781  31.828  37.109  1.00  0.00     0.031 C 
ATOM     54  C   UNL A   1      43.417  27.854  32.816  1.00  0.00     0.029 A 
ATOM     55  C   UNL A   1      42.772  28.879  33.492  1.00  0.00     0.049 A 
ATOM     56  H   UNL A   1      41.096  30.012  32.897  1.00  0.00     0.167 HD
ATOM     57  C   UNL A   1      42.378  30.416  35.400  1.00  0.00     0.074 A 
ATOM     58  C   UNL A   1      42.665  30.912  36.732  1.00  0.00     0.031 C 
ATOM     59  C   UNL A   1      43.071  29.423  34.792  1.00  0.00     0.034 A 
BRANCH  46  60
ATOM     60  C   UNL A   1      40.851  27.797  29.256  1.00  0.00     0.023 A 
ATOM     61  C   UNL A   1      40.066  26.628  29.211  1.00  0.00     0.012 A 
ATOM     62  C   UNL A   1      41.664  28.126  28.152  1.00  0.00     0.148 A 
ATOM     63  C   UNL A   1      40.103  25.787  28.100  1.00  0.00     0.002 A 
ATOM     64  C   UNL A   1      41.670  27.301  27.032  1.00  0.00     0.091 A 
ATOM     65  F   UNL A   1      42.419  29.231  28.221  1.00  0.00    -0.205 F 
ATOM     66  C   UNL A   1      40.897  26.128  27.007  1.00  0.00     0.022 A 
BRANCH  64  67
ATOM     67  S   UNL A   1      42.605  27.687  25.548  1.00  0.00     0.127 S 
ATOM     68  O   UNL A   1      43.969  27.761  26.067  1.00  0.00    -0.237 OA
ATOM     69  O   UNL A   1      42.339  26.522  24.704  1.00  0.00    -0.237 OA
ATOM     70  O   UNL A   1      42.057  28.938  25.042  1.00  0.00    -0.744 OA
ENDBRANCH  64  67
ENDBRANCH  46  60
BRANCH  47  71
ATOM     71  C   UNL A   1      39.676  33.887  37.110  1.00  0.00     0.023 A 
ATOM     72  C   UNL A   1      40.101  35.227  37.059  1.00  0.00     0.012 A 
ATOM     73  C   UNL A   1      39.017  33.416  38.263  1.00  0.00     0.148 A 
ATOM     74  C   UNL A   1      39.893  36.078  38.145  1.00  0.00     0.002 A 
ATOM     75  C   UNL A   1      38.766  34.284  39.318  1.00  0.00     0.091 A 
ATOM     76  F   UNL A   1      38.638  32.130  38.300  1.00  0.00    -0.205 F 
ATOM     77  C   UNL A   1      39.215  35.611  39.268  1.00  0.00     0.022 A 
BRANCH  75  78
ATOM     78  S   UNL A   1      37.781  33.795  40.741  1.00  0.00     0.127 S 
ATOM     79  O   UNL A   1      38.687  32.885  41.435  1.00  0.00    -0.237 OA
ATOM     80  O   UNL A   1      37.558  35.075  41.415  1.00  0.00    -0.237 OA
ATOM     81  O   UNL A   1      36.574  33.197  40.188  1.00  0.00    -0.744 OA
ENDBRANCH  75  78
ENDBRANCH  47  71
BRANCH  59  82
ATOM     82  C   UNL A   1      44.225  28.816  35.545  1.00  0.00     0.023 A 
ATOM     83  C   UNL A   1      45.516  29.356  35.392  1.00  0.00     0.012 A 
ATOM     84  C   UNL A   1      44.015  27.767  36.462  1.00  0.00     0.148 A 
ATOM     85  C   UNL A   1      46.588  28.843  36.121  1.00  0.00     0.002 A 
ATOM     86  C   UNL A   1      45.080  27.292  37.217  1.00  0.00     0.091 A 
ATOM     87  F   UNL A   1      42.781  27.254  36.577  1.00  0.00    -0.205 F 
ATOM     88  C   UNL A   1      46.368  27.821  37.041  1.00  0.00     0.022 A 
BRANCH  86  89
ATOM     89  S   UNL A   1      44.865  26.042  38.489  1.00  0.00     0.127 S 
ATOM     90  O   UNL A   1      46.249  25.742  38.850  1.00  0.00    -0.237 OA
ATOM     91  O   UNL A   1      44.110  26.764  39.516  1.00  0.00    -0.237 OA
ATOM     92  O   UNL A   1      44.129  24.954  37.858  1.00  0.00    -0.744 OA
ENDBRANCH  86  89
ENDBRANCH  59  82
ENDBRANCH  33  34
ENDBRANCH  26  28
ENDBRANCH  25  26
ENDBRANCH  24  25
ENDBRANCH   1  24
TORSDOF 18
ENDMDL
