MODEL 1
REMARK VINA RESULT:     -11.9      0.000      0.000
REMARK SMILES C/C(=N\NC(N)=S)c1nnn(-c2ccc(C(=O)OCCOC(=O)c3ccc(-c4c5nc(c(-c6cccc(S(=O)(=O)[O-])c6F)c6ccc([nH]6)c(-c6cccc(S(=O)(=O)[O-])c6F)c6nc(c(-c7cccc(S(=O)(=O)[O-])c7F)c7ccc4[nH]7)C=C6)C=C5)cc3)cc2)c1C
REMARK SMILES IDX 19 1 18 2 16 3 17 4 15 5 12 6 13 7 88 8 14 9 87 10 11 11
REMARK SMILES IDX 8 12 9 13 89 14 10 15 90 16 2 17 1 18 3 19 4 20 5 22 7 23
REMARK SMILES IDX 6 24 20 27 21 28 22 29 23 30 24 31 25 32 86 33 26 34 85 35
REMARK SMILES IDX 27 36 28 37 29 38 79 39 30 40 84 41 78 42 80 43 31 44 83 45
REMARK SMILES IDX 77 46 76 47 32 49 64 50 44 51 63 52 45 53 48 54 62 55 81 56
REMARK SMILES IDX 46 57 47 58 61 60 82 61 49 62 33 63 34 64 42 65 35 66 37 67
REMARK SMILES IDX 43 68 36 69 38 70 39 71 40 72 41 73 65 74 66 75 74 76 67 77
REMARK SMILES IDX 69 78 75 79 68 80 70 81 71 82 72 83 73 84 50 85 51 86 59 87
REMARK SMILES IDX 52 88 54 89 60 90 53 91 55 92 56 93 57 94 58 95
REMARK H PARENT 4 21 6 25 6 26 80 48 48 59
REMARK Flexibility Score: inf
ROOT
ATOM      1  C   UNL A   1      37.857  19.976  24.970  1.00  0.00     0.275 C 
ENDROOT
BRANCH   1   2
ATOM      2  O   UNL A   1      36.755  20.849  25.256  1.00  0.00    -0.458 OA
BRANCH   2   3
ATOM      3  C   UNL A   1      35.515  20.314  25.073  1.00  0.00     0.338 C 
ATOM      4  O   UNL A   1      35.257  19.203  24.671  1.00  0.00    -0.246 OA
BRANCH   3   5
ATOM      5  C   UNL A   1      34.481  21.300  25.490  1.00  0.00     0.060 A 
ATOM      6  C   UNL A   1      32.671  23.334  26.003  1.00  0.00     0.067 A 
ATOM      7  C   UNL A   1      32.353  22.375  25.035  1.00  0.00     0.029 A 
ATOM      8  C   UNL A   1      33.802  23.195  26.814  1.00  0.00     0.029 A 
ATOM      9  C   UNL A   1      33.281  21.367  24.765  1.00  0.00     0.018 A 
ATOM     10  C   UNL A   1      34.706  22.171  26.560  1.00  0.00     0.018 A 
BRANCH   6  11
ATOM     11  N   UNL A   1      31.982  24.561  26.007  1.00  0.00    -0.217 N 
ATOM     12  C   UNL A   1      31.135  26.456  25.350  1.00  0.00     0.132 A 
ATOM     13  N   UNL A   1      30.321  25.922  26.311  1.00  0.00    -0.128 NA
ATOM     14  C   UNL A   1      32.200  25.609  25.122  1.00  0.00     0.071 A 
ATOM     15  N   UNL A   1      30.810  24.738  26.655  1.00  0.00    -0.061 NA
ATOM     16  C   UNL A   1      33.204  25.611  24.030  1.00  0.00     0.069 C 
BRANCH  12  17
ATOM     17  C   UNL A   1      30.727  27.574  24.522  1.00  0.00     0.087 C 
ATOM     18  C   UNL A   1      31.510  28.844  24.728  1.00  0.00     0.071 C 
ATOM     19  N   UNL A   1      29.744  27.349  23.702  1.00  0.00    -0.176 NA
BRANCH  19  20
ATOM     20  N   UNL A   1      29.311  28.300  22.825  1.00  0.00    -0.254 N 
ATOM     21  H   UNL A   1      29.926  28.509  22.084  1.00  0.00     0.193 HD
BRANCH  20  22
ATOM     22  C   UNL A   1      28.127  29.008  22.838  1.00  0.00     0.184 C 
ATOM     23  S   UNL A   1      27.841  30.614  22.522  1.00  0.00    -0.040 S 
BRANCH  22  24
ATOM     24  N   UNL A   1      27.061  28.215  23.170  1.00  0.00    -0.375 N 
ATOM     25  H   UNL A   1      27.201  27.263  23.377  1.00  0.00     0.159 HD
ATOM     26  H   UNL A   1      26.154  28.597  23.202  1.00  0.00     0.159 HD
ENDBRANCH  22  24
ENDBRANCH  20  22
ENDBRANCH  19  20
ENDBRANCH  12  17
ENDBRANCH   6  11
ENDBRANCH   3   5
ENDBRANCH   2   3
ENDBRANCH   1   2
BRANCH   1  27
ATOM     27  C   UNL A   1      39.151  20.544  25.527  1.00  0.00     0.275 C 
BRANCH  27  28
ATOM     28  O   UNL A   1      39.926  19.537  26.175  1.00  0.00    -0.458 OA
BRANCH  28  29
ATOM     29  C   UNL A   1      41.254  19.613  25.937  1.00  0.00     0.338 C 
ATOM     30  O   UNL A   1      41.966  18.770  25.415  1.00  0.00    -0.246 OA
BRANCH  29  31
ATOM     31  C   UNL A   1      41.797  20.766  26.649  1.00  0.00     0.060 A 
ATOM     32  C   UNL A   1      41.504  20.887  28.010  1.00  0.00     0.016 A 
ATOM     33  C   UNL A   1      42.323  21.827  25.898  1.00  0.00     0.016 A 
ATOM     34  C   UNL A   1      41.625  22.129  28.596  1.00  0.00     0.010 A 
ATOM     35  C   UNL A   1      42.421  23.066  26.476  1.00  0.00     0.010 A 
ATOM     36  C   UNL A   1      42.021  23.213  27.803  1.00  0.00    -0.014 A 
BRANCH  36  37
ATOM     37  C   UNL A   1      42.228  24.494  28.447  1.00  0.00     0.031 A 
ATOM     38  C   UNL A   1      41.127  25.436  28.138  1.00  0.00     0.074 A 
ATOM     39  C   UNL A   1      43.215  24.703  29.339  1.00  0.00     0.049 A 
ATOM     40  N   UNL A   1      41.189  26.516  27.433  1.00  0.00    -0.248 NA
ATOM     41  C   UNL A   1      39.751  25.008  28.455  1.00  0.00     0.031 C 
ATOM     42  C   UNL A   1      44.134  23.698  29.887  1.00  0.00     0.029 A 
ATOM     43  N   UNL A   1      43.507  25.817  30.067  1.00  0.00    -0.354 N 
ATOM     44  C   UNL A   1      39.902  27.044  27.484  1.00  0.00     0.074 A 
ATOM     45  C   UNL A   1      39.036  25.965  27.863  1.00  0.00     0.031 C 
ATOM     46  C   UNL A   1      44.685  24.179  31.023  1.00  0.00     0.029 A 
ATOM     47  C   UNL A   1      44.253  25.552  31.214  1.00  0.00     0.049 A 
ATOM     48  H   UNL A   1      43.218  26.721  29.808  1.00  0.00     0.167 HD
ATOM     49  C   UNL A   1      39.722  28.388  27.589  1.00  0.00     0.034 A 
ATOM     50  C   UNL A   1      44.413  26.371  32.283  1.00  0.00     0.034 A 
ATOM     51  C   UNL A   1      40.909  29.096  27.172  1.00  0.00     0.049 A 
ATOM     52  C   UNL A   1      44.061  27.739  31.843  1.00  0.00     0.074 A 
ATOM     53  C   UNL A   1      41.683  29.145  26.030  1.00  0.00     0.029 A 
ATOM     54  N   UNL A   1      41.679  29.611  28.185  1.00  0.00    -0.354 N 
ATOM     55  N   UNL A   1      44.759  28.427  30.987  1.00  0.00    -0.248 NA
ATOM     56  C   UNL A   1      42.699  28.202  32.057  1.00  0.00     0.031 C 
ATOM     57  C   UNL A   1      43.021  29.321  26.490  1.00  0.00     0.029 A 
ATOM     58  C   UNL A   1      42.999  29.439  27.881  1.00  0.00     0.049 A 
ATOM     59  H   UNL A   1      41.333  30.037  29.002  1.00  0.00     0.167 HD
ATOM     60  C   UNL A   1      43.806  29.075  30.215  1.00  0.00     0.074 A 
ATOM     61  C   UNL A   1      42.581  29.023  31.010  1.00  0.00     0.031 C 
ATOM     62  C   UNL A   1      44.030  29.308  28.888  1.00  0.00     0.034 A 
BRANCH  49  63
ATOM     63  C   UNL A   1      38.708  29.038  28.522  1.00  0.00     0.023 A 
ATOM     64  C   UNL A   1      37.931  30.083  27.972  1.00  0.00     0.012 A 
ATOM     65  C   UNL A   1      38.694  28.917  29.934  1.00  0.00     0.148 A 
ATOM     66  C   UNL A   1      37.264  31.010  28.781  1.00  0.00     0.002 A 
ATOM     67  C   UNL A   1      37.970  29.795  30.731  1.00  0.00     0.091 A 
ATOM     68  F   UNL A   1      39.474  28.031  30.551  1.00  0.00    -0.205 F 
ATOM     69  C   UNL A   1      37.283  30.868  30.162  1.00  0.00     0.022 A 
BRANCH  67  70
ATOM     70  S   UNL A   1      37.932  29.634  32.523  1.00  0.00     0.127 S 
ATOM     71  O   UNL A   1      39.332  29.867  32.864  1.00  0.00    -0.237 OA
ATOM     72  O   UNL A   1      37.013  30.710  32.895  1.00  0.00    -0.237 OA
ATOM     73  O   UNL A   1      37.424  28.296  32.794  1.00  0.00    -0.744 OA
ENDBRANCH  67  70
ENDBRANCH  49  63
BRANCH  50  74
ATOM     74  C   UNL A   1      44.589  26.052  33.721  1.00  0.00     0.023 A 
ATOM     75  C   UNL A   1      45.890  26.020  34.270  1.00  0.00     0.012 A 
ATOM     76  C   UNL A   1      43.496  26.063  34.615  1.00  0.00     0.148 A 
ATOM     77  C   UNL A   1      46.093  26.043  35.654  1.00  0.00     0.002 A 
ATOM     78  C   UNL A   1      43.703  26.074  35.991  1.00  0.00     0.091 A 
ATOM     79  F   UNL A   1      42.256  26.162  34.119  1.00  0.00    -0.205 F 
ATOM     80  C   UNL A   1      45.001  26.080  36.515  1.00  0.00     0.022 A 
BRANCH  78  81
ATOM     81  S   UNL A   1      42.340  26.141  37.162  1.00  0.00     0.127 S 
ATOM     82  O   UNL A   1      41.692  24.846  36.947  1.00  0.00    -0.237 OA
ATOM     83  O   UNL A   1      43.039  26.271  38.437  1.00  0.00    -0.237 OA
ATOM     84  O   UNL A   1      41.529  27.287  36.766  1.00  0.00    -0.744 OA
ENDBRANCH  78  81
ENDBRANCH  50  74
BRANCH  62  85
ATOM     85  C   UNL A   1      45.448  29.212  28.388  1.00  0.00     0.023 A 
ATOM     86  C   UNL A   1      46.058  27.995  28.020  1.00  0.00     0.012 A 
ATOM     87  C   UNL A   1      46.137  30.414  28.159  1.00  0.00     0.148 A 
ATOM     88  C   UNL A   1      47.341  27.979  27.466  1.00  0.00     0.002 A 
ATOM     89  C   UNL A   1      47.390  30.399  27.562  1.00  0.00     0.091 A 
ATOM     90  F   UNL A   1      45.544  31.563  28.517  1.00  0.00    -0.205 F 
ATOM     91  C   UNL A   1      48.002  29.182  27.224  1.00  0.00     0.022 A 
BRANCH  89  92
ATOM     92  S   UNL A   1      48.227  31.922  27.122  1.00  0.00     0.127 S 
ATOM     93  O   UNL A   1      49.481  31.429  26.557  1.00  0.00    -0.237 OA
ATOM     94  O   UNL A   1      47.309  32.519  26.151  1.00  0.00    -0.237 OA
ATOM     95  O   UNL A   1      48.352  32.680  28.362  1.00  0.00    -0.744 OA
ENDBRANCH  89  92
ENDBRANCH  62  85
ENDBRANCH  36  37
ENDBRANCH  29  31
ENDBRANCH  28  29
ENDBRANCH  27  28
ENDBRANCH   1  27
TORSDOF 19
ENDMDL
MODEL 2
REMARK VINA RESULT:     -11.7      3.479      7.825
REMARK SMILES C/C(=N\NC(N)=S)c1nnn(-c2ccc(C(=O)OCCOC(=O)c3ccc(-c4c5nc(c(-c6cccc(S(=O)(=O)[O-])c6F)c6ccc([nH]6)c(-c6cccc(S(=O)(=O)[O-])c6F)c6nc(c(-c7cccc(S(=O)(=O)[O-])c7F)c7ccc4[nH]7)C=C6)C=C5)cc3)cc2)c1C
REMARK SMILES IDX 19 1 18 2 16 3 17 4 15 5 12 6 13 7 88 8 14 9 87 10 11 11
REMARK SMILES IDX 8 12 9 13 89 14 10 15 90 16 2 17 1 18 3 19 4 20 5 22 7 23
REMARK SMILES IDX 6 24 20 27 21 28 22 29 23 30 24 31 25 32 86 33 26 34 85 35
REMARK SMILES IDX 27 36 28 37 29 38 79 39 30 40 84 41 78 42 80 43 31 44 83 45
REMARK SMILES IDX 77 46 76 47 32 49 64 50 44 51 63 52 45 53 48 54 62 55 81 56
REMARK SMILES IDX 46 57 47 58 61 60 82 61 49 62 33 63 34 64 42 65 35 66 37 67
REMARK SMILES IDX 43 68 36 69 38 70 39 71 40 72 41 73 65 74 66 75 74 76 67 77
REMARK SMILES IDX 69 78 75 79 68 80 70 81 71 82 72 83 73 84 50 85 51 86 59 87
REMARK SMILES IDX 52 88 54 89 60 90 53 91 55 92 56 93 57 94 58 95
REMARK H PARENT 4 21 6 25 6 26 80 48 48 59
REMARK Flexibility Score: inf
ROOT
ATOM      1  C   UNL A   1      32.079  30.613  26.462  1.00  0.00     0.275 C 
ENDROOT
BRANCH   1   2
ATOM      2  O   UNL A   1      32.456  30.097  25.178  1.00  0.00    -0.458 OA
BRANCH   2   3
ATOM      3  C   UNL A   1      31.569  29.235  24.605  1.00  0.00     0.338 C 
ATOM      4  O   UNL A   1      30.469  29.502  24.181  1.00  0.00    -0.246 OA
BRANCH   3   5
ATOM      5  C   UNL A   1      32.174  27.877  24.529  1.00  0.00     0.060 A 
ATOM      6  C   UNL A   1      33.175  25.300  24.710  1.00  0.00     0.067 A 
ATOM      7  C   UNL A   1      31.847  25.482  24.309  1.00  0.00     0.029 A 
ATOM      8  C   UNL A   1      34.038  26.389  24.868  1.00  0.00     0.029 A 
ATOM      9  C   UNL A   1      31.343  26.782  24.243  1.00  0.00     0.018 A 
ATOM     10  C   UNL A   1      33.537  27.680  24.771  1.00  0.00     0.018 A 
BRANCH   6  11
ATOM     11  N   UNL A   1      33.584  24.038  25.181  1.00  0.00    -0.217 N 
ATOM     12  C   UNL A   1      34.535  22.084  25.290  1.00  0.00     0.132 A 
ATOM     13  N   UNL A   1      34.450  22.600  26.555  1.00  0.00    -0.128 NA
ATOM     14  C   UNL A   1      34.001  22.979  24.387  1.00  0.00     0.071 A 
ATOM     15  N   UNL A   1      33.931  23.818  26.468  1.00  0.00    -0.061 NA
ATOM     16  C   UNL A   1      34.077  23.000  22.905  1.00  0.00     0.069 C 
BRANCH  12  17
ATOM     17  C   UNL A   1      35.345  20.922  24.980  1.00  0.00     0.087 C 
ATOM     18  C   UNL A   1      36.800  21.205  24.717  1.00  0.00     0.071 C 
ATOM     19  N   UNL A   1      34.725  19.780  24.971  1.00  0.00    -0.176 NA
BRANCH  19  20
ATOM     20  N   UNL A   1      35.388  18.606  24.759  1.00  0.00    -0.254 N 
ATOM     21  H   UNL A   1      36.371  18.663  24.770  1.00  0.00     0.193 HD
BRANCH  20  22
ATOM     22  C   UNL A   1      34.863  17.351  24.531  1.00  0.00     0.184 C 
ATOM     23  S   UNL A   1      33.899  16.807  23.291  1.00  0.00    -0.040 S 
BRANCH  22  24
ATOM     24  N   UNL A   1      35.223  16.460  25.508  1.00  0.00    -0.375 N 
ATOM     25  H   UNL A   1      35.712  15.641  25.270  1.00  0.00     0.159 HD
ATOM     26  H   UNL A   1      34.991  16.640  26.447  1.00  0.00     0.159 HD
ENDBRANCH  22  24
ENDBRANCH  20  22
ENDBRANCH  19  20
ENDBRANCH  12  17
ENDBRANCH   6  11
ENDBRANCH   3   5
ENDBRANCH   2   3
ENDBRANCH   1   2
BRANCH   1  27
ATOM     27  C   UNL A   1      33.044  30.139  27.536  1.00  0.00     0.275 C 
BRANCH  27  28
ATOM     28  O   UNL A   1      34.391  30.479  27.212  1.00  0.00    -0.458 OA
BRANCH  28  29
ATOM     29  C   UNL A   1      34.970  31.349  28.069  1.00  0.00     0.338 C 
ATOM     30  O   UNL A   1      34.678  32.521  28.250  1.00  0.00    -0.246 OA
BRANCH  29  31
ATOM     31  C   UNL A   1      36.205  30.761  28.579  1.00  0.00     0.060 A 
ATOM     32  C   UNL A   1      37.188  31.630  29.060  1.00  0.00     0.016 A 
ATOM     33  C   UNL A   1      36.468  29.413  28.298  1.00  0.00     0.016 A 
ATOM     34  C   UNL A   1      38.484  31.167  29.144  1.00  0.00     0.010 A 
ATOM     35  C   UNL A   1      37.761  28.961  28.360  1.00  0.00     0.010 A 
ATOM     36  C   UNL A   1      38.761  29.857  28.731  1.00  0.00    -0.014 A 
BRANCH  36  37
ATOM     37  C   UNL A   1      40.108  29.354  28.903  1.00  0.00     0.031 A 
ATOM     38  C   UNL A   1      40.472  29.270  30.337  1.00  0.00     0.074 A 
ATOM     39  C   UNL A   1      40.836  28.875  27.877  1.00  0.00     0.049 A 
ATOM     40  N   UNL A   1      41.353  29.973  30.967  1.00  0.00    -0.248 NA
ATOM     41  C   UNL A   1      39.597  28.477  31.220  1.00  0.00     0.031 C 
ATOM     42  C   UNL A   1      40.384  28.669  26.496  1.00  0.00     0.029 A 
ATOM     43  N   UNL A   1      42.081  28.320  27.879  1.00  0.00    -0.354 N 
ATOM     44  C   UNL A   1      41.331  29.478  32.269  1.00  0.00     0.074 A 
ATOM     45  C   UNL A   1      40.079  28.795  32.422  1.00  0.00     0.031 C 
ATOM     46  C   UNL A   1      41.227  27.813  25.879  1.00  0.00     0.029 A 
ATOM     47  C   UNL A   1      42.329  27.508  26.774  1.00  0.00     0.049 A 
ATOM     48  H   UNL A   1      42.740  28.478  28.592  1.00  0.00     0.167 HD
ATOM     49  C   UNL A   1      42.492  29.343  32.964  1.00  0.00     0.034 A 
ATOM     50  C   UNL A   1      43.313  26.582  26.655  1.00  0.00     0.034 A 
ATOM     51  C   UNL A   1      43.529  30.168  32.392  1.00  0.00     0.049 A 
ATOM     52  C   UNL A   1      44.336  26.895  27.677  1.00  0.00     0.074 A 
ATOM     53  C   UNL A   1      43.686  31.511  32.115  1.00  0.00     0.029 A 
ATOM     54  N   UNL A   1      44.469  29.505  31.643  1.00  0.00    -0.354 N 
ATOM     55  N   UNL A   1      45.087  27.957  27.648  1.00  0.00    -0.248 NA
ATOM     56  C   UNL A   1      44.252  26.221  28.962  1.00  0.00     0.031 C 
ATOM     57  C   UNL A   1      44.450  31.560  30.912  1.00  0.00     0.029 A 
ATOM     58  C   UNL A   1      44.782  30.254  30.546  1.00  0.00     0.049 A 
ATOM     59  H   UNL A   1      44.856  28.627  31.863  1.00  0.00     0.167 HD
ATOM     60  C   UNL A   1      45.167  28.352  28.975  1.00  0.00     0.074 A 
ATOM     61  C   UNL A   1      44.771  27.173  29.742  1.00  0.00     0.031 C 
ATOM     62  C   UNL A   1      45.241  29.677  29.301  1.00  0.00     0.034 A 
BRANCH  49  63
ATOM     63  C   UNL A   1      42.838  28.123  33.810  1.00  0.00     0.023 A 
ATOM     64  C   UNL A   1      43.544  27.087  33.156  1.00  0.00     0.012 A 
ATOM     65  C   UNL A   1      42.260  27.800  35.063  1.00  0.00     0.148 A 
ATOM     66  C   UNL A   1      43.584  25.785  33.668  1.00  0.00     0.002 A 
ATOM     67  C   UNL A   1      42.365  26.524  35.604  1.00  0.00     0.091 A 
ATOM     68  F   UNL A   1      41.490  28.676  35.706  1.00  0.00    -0.205 F 
ATOM     69  C   UNL A   1      42.993  25.502  34.893  1.00  0.00     0.022 A 
BRANCH  67  70
ATOM     70  S   UNL A   1      41.649  26.113  37.203  1.00  0.00     0.127 S 
ATOM     71  O   UNL A   1      42.783  26.338  38.095  1.00  0.00    -0.237 OA
ATOM     72  O   UNL A   1      40.573  27.098  37.304  1.00  0.00    -0.237 OA
ATOM     73  O   UNL A   1      41.189  24.735  37.093  1.00  0.00    -0.744 OA
ENDBRANCH  67  70
ENDBRANCH  49  63
BRANCH  50  74
ATOM     74  C   UNL A   1      43.337  25.294  25.918  1.00  0.00     0.023 A 
ATOM     75  C   UNL A   1      44.373  25.044  24.992  1.00  0.00     0.012 A 
ATOM     76  C   UNL A   1      42.532  24.205  26.319  1.00  0.00     0.148 A 
ATOM     77  C   UNL A   1      44.625  23.752  24.518  1.00  0.00     0.002 A 
ATOM     78  C   UNL A   1      42.780  22.923  25.836  1.00  0.00     0.091 A 
ATOM     79  F   UNL A   1      41.589  24.405  27.247  1.00  0.00    -0.205 F 
ATOM     80  C   UNL A   1      43.835  22.690  24.947  1.00  0.00     0.022 A 
BRANCH  78  81
ATOM     81  S   UNL A   1      41.812  21.501  26.360  1.00  0.00     0.127 S 
ATOM     82  O   UNL A   1      42.417  20.419  25.581  1.00  0.00    -0.237 OA
ATOM     83  O   UNL A   1      42.092  21.453  27.792  1.00  0.00    -0.237 OA
ATOM     84  O   UNL A   1      40.433  21.800  25.994  1.00  0.00    -0.744 OA
ENDBRANCH  78  81
ENDBRANCH  50  74
BRANCH  62  85
ATOM     85  C   UNL A   1      45.629  30.646  28.214  1.00  0.00     0.023 A 
ATOM     86  C   UNL A   1      44.689  31.342  27.427  1.00  0.00     0.012 A 
ATOM     87  C   UNL A   1      46.992  30.957  28.080  1.00  0.00     0.148 A 
ATOM     88  C   UNL A   1      45.106  32.306  26.504  1.00  0.00     0.002 A 
ATOM     89  C   UNL A   1      47.399  31.949  27.199  1.00  0.00     0.091 A 
ATOM     90  F   UNL A   1      47.874  30.283  28.834  1.00  0.00    -0.205 F 
ATOM     91  C   UNL A   1      46.460  32.619  26.399  1.00  0.00     0.022 A 
BRANCH  89  92
ATOM     92  S   UNL A   1      49.113  32.471  27.116  1.00  0.00     0.127 S 
ATOM     93  O   UNL A   1      49.772  31.271  26.605  1.00  0.00    -0.237 OA
ATOM     94  O   UNL A   1      49.058  33.589  26.173  1.00  0.00    -0.237 OA
ATOM     95  O   UNL A   1      49.477  32.859  28.473  1.00  0.00    -0.744 OA
ENDBRANCH  89  92
ENDBRANCH  62  85
ENDBRANCH  36  37
ENDBRANCH  29  31
ENDBRANCH  28  29
ENDBRANCH  27  28
ENDBRANCH   1  27
TORSDOF 19
ENDMDL
MODEL 3
REMARK VINA RESULT:     -11.4      3.708      7.774
REMARK SMILES C/C(=N\NC(N)=S)c1nnn(-c2ccc(C(=O)OCCOC(=O)c3ccc(-c4c5nc(c(-c6cccc(S(=O)(=O)[O-])c6F)c6ccc([nH]6)c(-c6cccc(S(=O)(=O)[O-])c6F)c6nc(c(-c7cccc(S(=O)(=O)[O-])c7F)c7ccc4[nH]7)C=C6)C=C5)cc3)cc2)c1C
REMARK SMILES IDX 19 1 18 2 16 3 17 4 15 5 12 6 13 7 88 8 14 9 87 10 11 11
REMARK SMILES IDX 8 12 9 13 89 14 10 15 90 16 2 17 1 18 3 19 4 20 5 22 7 23
REMARK SMILES IDX 6 24 20 27 21 28 22 29 23 30 24 31 25 32 86 33 26 34 85 35
REMARK SMILES IDX 27 36 28 37 29 38 79 39 30 40 84 41 78 42 80 43 31 44 83 45
REMARK SMILES IDX 77 46 76 47 32 49 64 50 44 51 63 52 45 53 48 54 62 55 81 56
REMARK SMILES IDX 46 57 47 58 61 60 82 61 49 62 33 63 34 64 42 65 35 66 37 67
REMARK SMILES IDX 43 68 36 69 38 70 39 71 40 72 41 73 65 74 66 75 74 76 67 77
REMARK SMILES IDX 69 78 75 79 68 80 70 81 71 82 72 83 73 84 50 85 51 86 59 87
REMARK SMILES IDX 52 88 54 89 60 90 53 91 55 92 56 93 57 94 58 95
REMARK H PARENT 4 21 6 25 6 26 80 48 48 59
REMARK Flexibility Score: inf
ROOT
ATOM      1  C   UNL A   1      31.725  30.516  25.471  1.00  0.00     0.275 C 
ENDROOT
BRANCH   1   2
ATOM      2  O   UNL A   1      30.609  29.718  25.052  1.00  0.00    -0.458 OA
BRANCH   2   3
ATOM      3  C   UNL A   1      30.425  29.621  23.706  1.00  0.00     0.338 C 
ATOM      4  O   UNL A   1      29.783  30.370  23.006  1.00  0.00    -0.246 OA
BRANCH   3   5
ATOM      5  C   UNL A   1      31.181  28.450  23.183  1.00  0.00     0.060 A 
ATOM      6  C   UNL A   1      32.616  26.169  22.542  1.00  0.00     0.067 A 
ATOM      7  C   UNL A   1      31.230  26.070  22.709  1.00  0.00     0.029 A 
ATOM      8  C   UNL A   1      33.257  27.412  22.539  1.00  0.00     0.029 A 
ATOM      9  C   UNL A   1      30.518  27.219  23.056  1.00  0.00     0.018 A 
ATOM     10  C   UNL A   1      32.536  28.555  22.855  1.00  0.00     0.018 A 
BRANCH   6  11
ATOM     11  N   UNL A   1      33.401  25.002  22.608  1.00  0.00    -0.217 N 
ATOM     12  C   UNL A   1      34.350  23.192  23.356  1.00  0.00     0.132 A 
ATOM     13  N   UNL A   1      34.143  23.054  22.010  1.00  0.00    -0.128 NA
ATOM     14  C   UNL A   1      33.878  24.419  23.774  1.00  0.00     0.071 A 
ATOM     15  N   UNL A   1      33.505  24.134  21.578  1.00  0.00    -0.061 NA
ATOM     16  C   UNL A   1      33.647  24.936  25.145  1.00  0.00     0.069 C 
BRANCH  12  17
ATOM     17  C   UNL A   1      34.720  22.074  24.201  1.00  0.00     0.087 C 
ATOM     18  C   UNL A   1      36.176  22.010  24.580  1.00  0.00     0.071 C 
ATOM     19  N   UNL A   1      33.757  21.266  24.534  1.00  0.00    -0.176 NA
BRANCH  19  20
ATOM     20  N   UNL A   1      33.964  20.215  25.379  1.00  0.00    -0.254 N 
ATOM     21  H   UNL A   1      34.509  20.409  26.176  1.00  0.00     0.193 HD
BRANCH  20  22
ATOM     22  C   UNL A   1      33.512  18.917  25.264  1.00  0.00     0.184 C 
ATOM     23  S   UNL A   1      33.668  17.841  24.007  1.00  0.00    -0.040 S 
BRANCH  22  24
ATOM     24  N   UNL A   1      32.838  18.508  26.384  1.00  0.00    -0.375 N 
ATOM     25  H   UNL A   1      33.177  17.752  26.914  1.00  0.00     0.159 HD
ATOM     26  H   UNL A   1      32.013  18.971  26.659  1.00  0.00     0.159 HD
ENDBRANCH  22  24
ENDBRANCH  20  22
ENDBRANCH  19  20
ENDBRANCH  12  17
ENDBRANCH   6  11
ENDBRANCH   3   5
ENDBRANCH   2   3
ENDBRANCH   1   2
BRANCH   1  27
ATOM     27  C   UNL A   1      32.038  30.274  26.938  1.00  0.00     0.275 C 
BRANCH  27  28
ATOM     28  O   UNL A   1      33.433  30.061  27.144  1.00  0.00    -0.458 OA
BRANCH  28  29
ATOM     29  C   UNL A   1      34.090  31.121  27.665  1.00  0.00     0.338 C 
ATOM     30  O   UNL A   1      33.659  32.249  27.844  1.00  0.00    -0.246 OA
BRANCH  29  31
ATOM     31  C   UNL A   1      35.513  30.803  27.747  1.00  0.00     0.060 A 
ATOM     32  C   UNL A   1      35.879  29.454  27.742  1.00  0.00     0.016 A 
ATOM     33  C   UNL A   1      36.404  31.820  28.116  1.00  0.00     0.016 A 
ATOM     34  C   UNL A   1      37.120  29.113  28.234  1.00  0.00     0.010 A 
ATOM     35  C   UNL A   1      37.629  31.478  28.626  1.00  0.00     0.010 A 
ATOM     36  C   UNL A   1      37.952  30.126  28.728  1.00  0.00    -0.014 A 
BRANCH  36  37
ATOM     37  C   UNL A   1      39.286  29.767  29.162  1.00  0.00     0.031 A 
ATOM     38  C   UNL A   1      39.515  30.154  30.574  1.00  0.00     0.074 A 
ATOM     39  C   UNL A   1      40.117  29.025  28.404  1.00  0.00     0.049 A 
ATOM     40  N   UNL A   1      40.320  31.059  31.021  1.00  0.00    -0.248 NA
ATOM     41  C   UNL A   1      38.575  29.637  31.586  1.00  0.00     0.031 C 
ATOM     42  C   UNL A   1      39.800  28.376  27.127  1.00  0.00     0.029 A 
ATOM     43  N   UNL A   1      41.366  28.559  28.686  1.00  0.00    -0.354 N 
ATOM     44  C   UNL A   1      40.184  30.997  32.405  1.00  0.00     0.074 A 
ATOM     45  C   UNL A   1      38.936  30.338  32.661  1.00  0.00     0.031 C 
ATOM     46  C   UNL A   1      40.714  27.410  26.885  1.00  0.00     0.029 A 
ATOM     47  C   UNL A   1      41.732  27.454  27.920  1.00  0.00     0.049 A 
ATOM     48  H   UNL A   1      41.952  28.963  29.366  1.00  0.00     0.167 HD
ATOM     49  C   UNL A   1      41.276  31.142  33.202  1.00  0.00     0.034 A 
ATOM     50  C   UNL A   1      42.740  26.584  28.183  1.00  0.00     0.034 A 
ATOM     51  C   UNL A   1      42.348  31.794  32.487  1.00  0.00     0.049 A 
ATOM     52  C   UNL A   1      43.656  27.251  29.135  1.00  0.00     0.074 A 
ATOM     53  C   UNL A   1      42.505  32.989  31.813  1.00  0.00     0.029 A 
ATOM     54  N   UNL A   1      43.366  30.976  32.068  1.00  0.00    -0.354 N 
ATOM     55  N   UNL A   1      44.387  28.285  28.834  1.00  0.00    -0.248 NA
ATOM     56  C   UNL A   1      43.464  27.010  30.556  1.00  0.00     0.031 C 
ATOM     57  C   UNL A   1      43.378  32.694  30.725  1.00  0.00     0.029 A 
ATOM     58  C   UNL A   1      43.768  31.357  30.820  1.00  0.00     0.049 A 
ATOM     59  H   UNL A   1      43.747  30.230  32.586  1.00  0.00     0.167 HD
ATOM     60  C   UNL A   1      44.334  29.079  29.970  1.00  0.00     0.074 A 
ATOM     61  C   UNL A   1      43.889  28.183  31.035  1.00  0.00     0.031 C 
ATOM     62  C   UNL A   1      44.352  30.441  29.864  1.00  0.00     0.034 A 
BRANCH  49  63
ATOM     63  C   UNL A   1      41.564  30.267  34.416  1.00  0.00     0.023 A 
ATOM     64  C   UNL A   1      42.025  30.934  35.574  1.00  0.00     0.012 A 
ATOM     65  C   UNL A   1      41.715  28.858  34.398  1.00  0.00     0.148 A 
ATOM     66  C   UNL A   1      42.686  30.254  36.603  1.00  0.00     0.002 A 
ATOM     67  C   UNL A   1      42.305  28.177  35.455  1.00  0.00     0.091 A 
ATOM     68  F   UNL A   1      41.406  28.153  33.311  1.00  0.00    -0.205 F 
ATOM     69  C   UNL A   1      42.828  28.874  36.544  1.00  0.00     0.022 A 
BRANCH  67  70
ATOM     70  S   UNL A   1      42.482  26.385  35.445  1.00  0.00     0.127 S 
ATOM     71  O   UNL A   1      43.203  26.159  36.694  1.00  0.00    -0.237 OA
ATOM     72  O   UNL A   1      41.085  25.953  35.446  1.00  0.00    -0.237 OA
ATOM     73  O   UNL A   1      43.207  26.062  34.224  1.00  0.00    -0.744 OA
ENDBRANCH  67  70
ENDBRANCH  49  63
BRANCH  50  74
ATOM     74  C   UNL A   1      42.857  25.133  27.896  1.00  0.00     0.023 A 
ATOM     75  C   UNL A   1      41.852  24.253  28.353  1.00  0.00     0.012 A 
ATOM     76  C   UNL A   1      43.779  24.646  26.944  1.00  0.00     0.148 A 
ATOM     77  C   UNL A   1      41.743  22.952  27.848  1.00  0.00     0.002 A 
ATOM     78  C   UNL A   1      43.673  23.348  26.453  1.00  0.00     0.091 A 
ATOM     79  F   UNL A   1      44.697  25.483  26.446  1.00  0.00    -0.205 F 
ATOM     80  C   UNL A   1      42.647  22.503  26.892  1.00  0.00     0.022 A 
BRANCH  78  81
ATOM     81  S   UNL A   1      44.794  22.705  25.202  1.00  0.00     0.127 S 
ATOM     82  O   UNL A   1      45.928  22.256  26.013  1.00  0.00    -0.237 OA
ATOM     83  O   UNL A   1      44.004  21.631  24.608  1.00  0.00    -0.237 OA
ATOM     84  O   UNL A   1      45.097  23.828  24.323  1.00  0.00    -0.744 OA
ENDBRANCH  78  81
ENDBRANCH  50  74
BRANCH  62  85
ATOM     85  C   UNL A   1      44.823  31.038  28.563  1.00  0.00     0.023 A 
ATOM     86  C   UNL A   1      43.947  31.563  27.591  1.00  0.00     0.012 A 
ATOM     87  C   UNL A   1      46.207  31.189  28.383  1.00  0.00     0.148 A 
ATOM     88  C   UNL A   1      44.445  32.197  26.449  1.00  0.00     0.002 A 
ATOM     89  C   UNL A   1      46.699  31.864  27.274  1.00  0.00     0.091 A 
ATOM     90  F   UNL A   1      47.027  30.682  29.316  1.00  0.00    -0.205 F 
ATOM     91  C   UNL A   1      45.821  32.360  26.297  1.00  0.00     0.022 A 
BRANCH  89  92
ATOM     92  S   UNL A   1      48.450  32.203  27.094  1.00  0.00     0.127 S 
ATOM     93  O   UNL A   1      48.995  30.869  26.849  1.00  0.00    -0.237 OA
ATOM     94  O   UNL A   1      48.481  33.100  25.938  1.00  0.00    -0.237 OA
ATOM     95  O   UNL A   1      48.864  32.831  28.343  1.00  0.00    -0.744 OA
ENDBRANCH  89  92
ENDBRANCH  62  85
ENDBRANCH  36  37
ENDBRANCH  29  31
ENDBRANCH  28  29
ENDBRANCH  27  28
ENDBRANCH   1  27
TORSDOF 19
ENDMDL
