MODEL 1
REMARK VINA RESULT:      -9.6      0.000      0.000
REMARK SMILES C[N@@H+](CCCCC(=O)OCCOC(=O)c1ccc(-c2c3nc(c(-c4cccc(S(=O)(=O)[O-])c4F)c4ccc([nH]4)c(-c4cccc(S(=O)(=O)[O-])c4F)c4nc(c(-c5cccc(S(=O)(=O)[O-])c5F)c5ccc2[nH]5)C=C4)C=C3)cc1)CC(C)(C)O
REMARK SMILES IDX 7 1 8 2 6 3 5 4 4 5 3 6 2 7 1 8 78 10 79 11 80 12 81 13
REMARK SMILES IDX 82 14 9 16 10 17 11 18 12 19 13 20 14 21 15 22 16 23 77 24
REMARK SMILES IDX 17 25 76 26 18 27 19 28 20 29 70 30 21 31 75 32 69 33 71 34
REMARK SMILES IDX 22 35 74 36 68 37 67 38 23 40 55 41 35 42 54 43 36 44 39 45
REMARK SMILES IDX 53 46 72 47 37 48 38 49 52 51 73 52 40 53 24 54 25 55 33 56
REMARK SMILES IDX 26 57 28 58 34 59 27 60 29 61 30 62 31 63 32 64 56 65 57 66
REMARK SMILES IDX 65 67 58 68 60 69 66 70 59 71 61 72 62 73 63 74 64 75 41 76
REMARK SMILES IDX 42 77 50 78 43 79 45 80 51 81 44 82 46 83 47 84 48 85 49 86
REMARK H PARENT 2 9 82 15 71 39 39 50
REMARK Flexibility Score: inf
ROOT
ATOM      1  C   UNL A   1      33.020  22.711  26.506  1.00  0.00     0.305 C 
ATOM      2  O   UNL A   1      32.571  23.076  27.583  1.00  0.00    -0.252 OA
ENDROOT
BRANCH   1   3
ATOM      3  C   UNL A   1      32.179  22.090  25.422  1.00  0.00     0.123 C 
BRANCH   3   4
ATOM      4  C   UNL A   1      31.638  23.130  24.435  1.00  0.00     0.017 C 
BRANCH   4   5
ATOM      5  C   UNL A   1      30.660  24.144  25.040  1.00  0.00     0.062 C 
BRANCH   5   6
ATOM      6  C   UNL A   1      30.303  25.346  24.152  1.00  0.00     0.262 C 
BRANCH   6   7
ATOM      7  N   UNL A   1      31.264  26.439  23.969  1.00  0.00    -0.335 N 
ATOM      8  C   UNL A   1      31.093  27.521  24.916  1.00  0.00     0.332 C 
ATOM      9  H   UNL A   1      32.155  26.014  24.224  1.00  0.00     0.347 HD
BRANCH   7  10
ATOM     10  C   UNL A   1      31.572  26.829  22.585  1.00  0.00     0.296 C 
BRANCH  10  11
ATOM     11  C   UNL A   1      32.896  26.394  21.851  1.00  0.00     0.108 C 
ATOM     12  C   UNL A   1      33.814  25.541  22.732  1.00  0.00     0.048 C 
ATOM     13  C   UNL A   1      32.526  25.578  20.600  1.00  0.00     0.048 C 
BRANCH  11  14
ATOM     14  O   UNL A   1      33.651  27.530  21.423  1.00  0.00    -0.385 OA
ATOM     15  H   UNL A   1      34.585  27.400  21.648  1.00  0.00     0.211 HD
ENDBRANCH  11  14
ENDBRANCH  10  11
ENDBRANCH   7  10
ENDBRANCH   6   7
ENDBRANCH   5   6
ENDBRANCH   4   5
ENDBRANCH   3   4
ENDBRANCH   1   3
BRANCH   1  16
ATOM     16  O   UNL A   1      34.318  22.812  26.115  1.00  0.00    -0.462 OA
BRANCH  16  17
ATOM     17  C   UNL A   1      35.157  21.709  26.496  1.00  0.00     0.274 C 
BRANCH  17  18
ATOM     18  C   UNL A   1      35.802  21.135  25.234  1.00  0.00     0.275 C 
BRANCH  18  19
ATOM     19  O   UNL A   1      37.004  21.870  24.944  1.00  0.00    -0.458 OA
BRANCH  19  20
ATOM     20  C   UNL A   1      38.145  21.366  25.470  1.00  0.00     0.338 C 
ATOM     21  O   UNL A   1      38.508  20.204  25.470  1.00  0.00    -0.246 OA
BRANCH  20  22
ATOM     22  C   UNL A   1      38.881  22.464  26.124  1.00  0.00     0.060 A 
ATOM     23  C   UNL A   1      40.015  22.209  26.904  1.00  0.00     0.016 A 
ATOM     24  C   UNL A   1      38.421  23.768  25.953  1.00  0.00     0.016 A 
ATOM     25  C   UNL A   1      40.699  23.270  27.507  1.00  0.00     0.010 A 
ATOM     26  C   UNL A   1      39.133  24.828  26.516  1.00  0.00     0.010 A 
ATOM     27  C   UNL A   1      40.280  24.591  27.296  1.00  0.00    -0.014 A 
BRANCH  27  28
ATOM     28  C   UNL A   1      41.047  25.752  27.823  1.00  0.00     0.031 A 
ATOM     29  C   UNL A   1      40.347  26.836  28.594  1.00  0.00     0.074 A 
ATOM     30  C   UNL A   1      42.347  25.895  27.490  1.00  0.00     0.049 A 
ATOM     31  N   UNL A   1      40.784  28.020  28.938  1.00  0.00    -0.248 NA
ATOM     32  C   UNL A   1      38.967  26.557  29.027  1.00  0.00     0.031 C 
ATOM     33  C   UNL A   1      43.135  24.926  26.726  1.00  0.00     0.029 A 
ATOM     34  N   UNL A   1      43.216  26.939  27.698  1.00  0.00    -0.354 N 
ATOM     35  C   UNL A   1      39.718  28.652  29.567  1.00  0.00     0.074 A 
ATOM     36  C   UNL A   1      38.618  27.712  29.579  1.00  0.00     0.031 C 
ATOM     37  C   UNL A   1      44.354  25.437  26.492  1.00  0.00     0.029 A 
ATOM     38  C   UNL A   1      44.416  26.789  27.039  1.00  0.00     0.049 A 
ATOM     39  H   UNL A   1      43.003  27.717  28.263  1.00  0.00     0.167 HD
ATOM     40  C   UNL A   1      39.665  29.902  30.086  1.00  0.00     0.034 A 
ATOM     41  C   UNL A   1      45.428  27.658  26.840  1.00  0.00     0.034 A 
ATOM     42  C   UNL A   1      40.777  30.814  30.116  1.00  0.00     0.049 A 
ATOM     43  C   UNL A   1      45.334  29.042  27.424  1.00  0.00     0.074 A 
ATOM     44  C   UNL A   1      40.848  32.061  30.715  1.00  0.00     0.029 A 
ATOM     45  N   UNL A   1      42.002  30.594  29.507  1.00  0.00    -0.354 N 
ATOM     46  N   UNL A   1      44.377  29.570  28.147  1.00  0.00    -0.248 NA
ATOM     47  C   UNL A   1      46.469  29.946  27.179  1.00  0.00     0.031 C 
ATOM     48  C   UNL A   1      42.105  32.608  30.440  1.00  0.00     0.029 A 
ATOM     49  C   UNL A   1      42.824  31.693  29.690  1.00  0.00     0.049 A 
ATOM     50  H   UNL A   1      42.249  29.777  29.015  1.00  0.00     0.167 HD
ATOM     51  C   UNL A   1      44.801  30.857  28.460  1.00  0.00     0.074 A 
ATOM     52  C   UNL A   1      46.116  31.019  27.875  1.00  0.00     0.031 C 
ATOM     53  C   UNL A   1      44.152  31.825  29.149  1.00  0.00     0.034 A 
BRANCH  40  54
ATOM     54  C   UNL A   1      38.370  30.371  30.691  1.00  0.00     0.023 A 
ATOM     55  C   UNL A   1      38.129  30.176  32.065  1.00  0.00     0.012 A 
ATOM     56  C   UNL A   1      37.446  31.106  29.921  1.00  0.00     0.148 A 
ATOM     57  C   UNL A   1      36.981  30.695  32.662  1.00  0.00     0.002 A 
ATOM     58  C   UNL A   1      36.323  31.652  30.531  1.00  0.00     0.091 A 
ATOM     59  F   UNL A   1      37.689  31.263  28.613  1.00  0.00    -0.205 F 
ATOM     60  C   UNL A   1      36.086  31.442  31.900  1.00  0.00     0.022 A 
BRANCH  58  61
ATOM     61  S   UNL A   1      35.150  32.693  29.655  1.00  0.00     0.127 S 
ATOM     62  O   UNL A   1      34.210  33.038  30.721  1.00  0.00    -0.237 OA
ATOM     63  O   UNL A   1      35.996  33.799  29.207  1.00  0.00    -0.237 OA
ATOM     64  O   UNL A   1      34.600  31.871  28.586  1.00  0.00    -0.744 OA
ENDBRANCH  58  61
ENDBRANCH  40  54
BRANCH  41  65
ATOM     65  C   UNL A   1      46.618  27.251  26.038  1.00  0.00     0.023 A 
ATOM     66  C   UNL A   1      46.626  27.473  24.649  1.00  0.00     0.012 A 
ATOM     67  C   UNL A   1      47.738  26.649  26.645  1.00  0.00     0.148 A 
ATOM     68  C   UNL A   1      47.716  27.074  23.872  1.00  0.00     0.002 A 
ATOM     69  C   UNL A   1      48.844  26.308  25.874  1.00  0.00     0.091 A 
ATOM     70  F   UNL A   1      47.703  26.421  27.966  1.00  0.00    -0.205 F 
ATOM     71  C   UNL A   1      48.828  26.504  24.485  1.00  0.00     0.022 A 
BRANCH  69  72
ATOM     72  S   UNL A   1      50.364  25.694  26.609  1.00  0.00     0.127 S 
ATOM     73  O   UNL A   1      51.228  25.558  25.441  1.00  0.00    -0.237 OA
ATOM     74  O   UNL A   1      50.727  26.780  27.521  1.00  0.00    -0.237 OA
ATOM     75  O   UNL A   1      49.994  24.454  27.279  1.00  0.00    -0.744 OA
ENDBRANCH  69  72
ENDBRANCH  41  65
BRANCH  53  76
ATOM     76  C   UNL A   1      44.851  33.146  29.334  1.00  0.00     0.023 A 
ATOM     77  C   UNL A   1      45.681  33.342  30.455  1.00  0.00     0.012 A 
ATOM     78  C   UNL A   1      44.754  34.157  28.358  1.00  0.00     0.148 A 
ATOM     79  C   UNL A   1      46.383  34.535  30.617  1.00  0.00     0.002 A 
ATOM     80  C   UNL A   1      45.494  35.325  28.501  1.00  0.00     0.091 A 
ATOM     81  F   UNL A   1      43.946  33.956  27.307  1.00  0.00    -0.205 F 
ATOM     82  C   UNL A   1      46.301  35.520  29.634  1.00  0.00     0.022 A 
BRANCH  80  83
ATOM     83  S   UNL A   1      45.523  36.610  27.247  1.00  0.00     0.127 S 
ATOM     84  O   UNL A   1      44.122  37.022  27.208  1.00  0.00    -0.237 OA
ATOM     85  O   UNL A   1      46.434  37.595  27.832  1.00  0.00    -0.237 OA
ATOM     86  O   UNL A   1      46.019  35.975  26.033  1.00  0.00    -0.744 OA
ENDBRANCH  80  83
ENDBRANCH  53  76
ENDBRANCH  27  28
ENDBRANCH  20  22
ENDBRANCH  19  20
ENDBRANCH  18  19
ENDBRANCH  17  18
ENDBRANCH  16  17
ENDBRANCH   1  16
TORSDOF 21
ENDMDL
MODEL 2
REMARK VINA RESULT:      -9.3      4.803      9.954
REMARK SMILES C[N@@H+](CCCCC(=O)OCCOC(=O)c1ccc(-c2c3nc(c(-c4cccc(S(=O)(=O)[O-])c4F)c4ccc([nH]4)c(-c4cccc(S(=O)(=O)[O-])c4F)c4nc(c(-c5cccc(S(=O)(=O)[O-])c5F)c5ccc2[nH]5)C=C4)C=C3)cc1)CC(C)(C)O
REMARK SMILES IDX 7 1 8 2 6 3 5 4 4 5 3 6 2 7 1 8 78 10 79 11 80 12 81 13
REMARK SMILES IDX 82 14 9 16 10 17 11 18 12 19 13 20 14 21 15 22 16 23 77 24
REMARK SMILES IDX 17 25 76 26 18 27 19 28 20 29 70 30 21 31 75 32 69 33 71 34
REMARK SMILES IDX 22 35 74 36 68 37 67 38 23 40 55 41 35 42 54 43 36 44 39 45
REMARK SMILES IDX 53 46 72 47 37 48 38 49 52 51 73 52 40 53 24 54 25 55 33 56
REMARK SMILES IDX 26 57 28 58 34 59 27 60 29 61 30 62 31 63 32 64 56 65 57 66
REMARK SMILES IDX 65 67 58 68 60 69 66 70 59 71 61 72 62 73 63 74 64 75 41 76
REMARK SMILES IDX 42 77 50 78 43 79 45 80 51 81 44 82 46 83 47 84 48 85 49 86
REMARK H PARENT 2 9 82 15 71 39 39 50
REMARK Flexibility Score: inf
ROOT
ATOM      1  C   UNL A   1      33.379  28.359  24.543  1.00  0.00     0.305 C 
ATOM      2  O   UNL A   1      33.288  28.220  23.331  1.00  0.00    -0.252 OA
ENDROOT
BRANCH   1   3
ATOM      3  C   UNL A   1      33.719  27.236  25.486  1.00  0.00     0.123 C 
BRANCH   3   4
ATOM      4  C   UNL A   1      33.913  25.901  24.759  1.00  0.00     0.017 C 
BRANCH   4   5
ATOM      5  C   UNL A   1      34.398  24.749  25.647  1.00  0.00     0.062 C 
BRANCH   5   6
ATOM      6  C   UNL A   1      35.647  24.001  25.156  1.00  0.00     0.262 C 
BRANCH   6   7
ATOM      7  N   UNL A   1      35.584  22.562  24.882  1.00  0.00    -0.335 N 
ATOM      8  C   UNL A   1      36.814  22.026  24.336  1.00  0.00     0.332 C 
ATOM      9  H   UNL A   1      35.515  22.148  25.811  1.00  0.00     0.347 HD
BRANCH   7  10
ATOM     10  C   UNL A   1      34.337  22.048  24.297  1.00  0.00     0.296 C 
BRANCH  10  11
ATOM     11  C   UNL A   1      33.377  21.065  25.066  1.00  0.00     0.108 C 
ATOM     12  C   UNL A   1      32.195  21.781  25.727  1.00  0.00     0.048 C 
ATOM     13  C   UNL A   1      32.824  20.029  24.071  1.00  0.00     0.048 C 
BRANCH  11  14
ATOM     14  O   UNL A   1      34.074  20.355  26.093  1.00  0.00    -0.385 OA
ATOM     15  H   UNL A   1      34.502  20.989  26.689  1.00  0.00     0.211 HD
ENDBRANCH  11  14
ENDBRANCH  10  11
ENDBRANCH   7  10
ENDBRANCH   6   7
ENDBRANCH   5   6
ENDBRANCH   4   5
ENDBRANCH   3   4
ENDBRANCH   1   3
BRANCH   1  16
ATOM     16  O   UNL A   1      33.202  29.525  25.220  1.00  0.00    -0.462 OA
BRANCH  16  17
ATOM     17  C   UNL A   1      31.832  29.918  25.410  1.00  0.00     0.274 C 
BRANCH  17  18
ATOM     18  C   UNL A   1      31.790  31.025  26.465  1.00  0.00     0.275 C 
BRANCH  18  19
ATOM     19  O   UNL A   1      32.918  30.879  27.345  1.00  0.00    -0.458 OA
BRANCH  19  20
ATOM     20  C   UNL A   1      33.549  32.025  27.690  1.00  0.00     0.338 C 
ATOM     21  O   UNL A   1      33.126  33.161  27.586  1.00  0.00    -0.246 OA
BRANCH  20  22
ATOM     22  C   UNL A   1      34.903  31.686  28.169  1.00  0.00     0.060 A 
ATOM     23  C   UNL A   1      35.950  32.611  28.089  1.00  0.00     0.016 A 
ATOM     24  C   UNL A   1      35.121  30.417  28.702  1.00  0.00     0.016 A 
ATOM     25  C   UNL A   1      37.222  32.265  28.557  1.00  0.00     0.010 A 
ATOM     26  C   UNL A   1      36.379  30.093  29.212  1.00  0.00     0.010 A 
ATOM     27  C   UNL A   1      37.441  31.013  29.148  1.00  0.00    -0.014 A 
BRANCH  27  28
ATOM     28  C   UNL A   1      38.747  30.652  29.763  1.00  0.00     0.031 A 
ATOM     29  C   UNL A   1      39.618  29.602  29.131  1.00  0.00     0.074 A 
ATOM     30  C   UNL A   1      39.084  31.174  30.960  1.00  0.00     0.049 A 
ATOM     31  N   UNL A   1      40.666  28.993  29.622  1.00  0.00    -0.248 NA
ATOM     32  C   UNL A   1      39.253  29.168  27.772  1.00  0.00     0.031 C 
ATOM     33  C   UNL A   1      38.314  32.185  31.689  1.00  0.00     0.029 A 
ATOM     34  N   UNL A   1      40.129  30.881  31.804  1.00  0.00    -0.354 N 
ATOM     35  C   UNL A   1      41.049  28.062  28.664  1.00  0.00     0.074 A 
ATOM     36  C   UNL A   1      40.134  28.199  27.551  1.00  0.00     0.031 C 
ATOM     37  C   UNL A   1      38.886  32.396  32.885  1.00  0.00     0.029 A 
ATOM     38  C   UNL A   1      40.027  31.497  33.032  1.00  0.00     0.049 A 
ATOM     39  H   UNL A   1      40.877  30.291  31.556  1.00  0.00     0.167 HD
ATOM     40  C   UNL A   1      42.070  27.173  28.712  1.00  0.00     0.034 A 
ATOM     41  C   UNL A   1      40.729  31.319  34.169  1.00  0.00     0.034 A 
ATOM     42  C   UNL A   1      43.008  27.074  29.798  1.00  0.00     0.049 A 
ATOM     43  C   UNL A   1      41.853  30.320  34.190  1.00  0.00     0.074 A 
ATOM     44  C   UNL A   1      44.137  26.278  29.886  1.00  0.00     0.029 A 
ATOM     45  N   UNL A   1      42.917  27.772  30.991  1.00  0.00    -0.354 N 
ATOM     46  N   UNL A   1      42.296  29.554  33.222  1.00  0.00    -0.248 NA
ATOM     47  C   UNL A   1      42.587  30.169  35.456  1.00  0.00     0.031 C 
ATOM     48  C   UNL A   1      44.711  26.471  31.146  1.00  0.00     0.029 A 
ATOM     49  C   UNL A   1      43.953  27.404  31.834  1.00  0.00     0.049 A 
ATOM     50  H   UNL A   1      42.219  28.432  31.208  1.00  0.00     0.167 HD
ATOM     51  C   UNL A   1      43.370  28.849  33.755  1.00  0.00     0.074 A 
ATOM     52  C   UNL A   1      43.532  29.301  35.121  1.00  0.00     0.031 C 
ATOM     53  C   UNL A   1      44.138  27.897  33.173  1.00  0.00     0.034 A 
BRANCH  40  54
ATOM     54  C   UNL A   1      42.260  26.238  27.548  1.00  0.00     0.023 A 
ATOM     55  C   UNL A   1      43.083  26.619  26.471  1.00  0.00     0.012 A 
ATOM     56  C   UNL A   1      41.715  24.938  27.580  1.00  0.00     0.148 A 
ATOM     57  C   UNL A   1      43.351  25.725  25.435  1.00  0.00     0.002 A 
ATOM     58  C   UNL A   1      42.017  24.041  26.563  1.00  0.00     0.091 A 
ATOM     59  F   UNL A   1      40.921  24.605  28.607  1.00  0.00    -0.205 F 
ATOM     60  C   UNL A   1      42.830  24.435  25.487  1.00  0.00     0.022 A 
BRANCH  58  61
ATOM     61  S   UNL A   1      41.457  22.333  26.575  1.00  0.00     0.127 S 
ATOM     62  O   UNL A   1      42.081  21.812  25.359  1.00  0.00    -0.237 OA
ATOM     63  O   UNL A   1      42.037  21.830  27.821  1.00  0.00    -0.237 OA
ATOM     64  O   UNL A   1      40.003  22.384  26.553  1.00  0.00    -0.744 OA
ENDBRANCH  58  61
ENDBRANCH  40  54
BRANCH  41  65
ATOM     65  C   UNL A   1      40.381  32.097  35.393  1.00  0.00     0.023 A 
ATOM     66  C   UNL A   1      41.160  33.215  35.748  1.00  0.00     0.012 A 
ATOM     67  C   UNL A   1      39.285  31.739  36.202  1.00  0.00     0.148 A 
ATOM     68  C   UNL A   1      40.873  33.942  36.905  1.00  0.00     0.002 A 
ATOM     69  C   UNL A   1      38.969  32.503  37.320  1.00  0.00     0.091 A 
ATOM     70  F   UNL A   1      38.569  30.657  35.864  1.00  0.00    -0.205 F 
ATOM     71  C   UNL A   1      39.772  33.595  37.683  1.00  0.00     0.022 A 
BRANCH  69  72
ATOM     72  S   UNL A   1      37.490  32.199  38.295  1.00  0.00     0.127 S 
ATOM     73  O   UNL A   1      36.488  32.969  37.565  1.00  0.00    -0.237 OA
ATOM     74  O   UNL A   1      37.346  30.746  38.192  1.00  0.00    -0.237 OA
ATOM     75  O   UNL A   1      37.810  32.673  39.635  1.00  0.00    -0.744 OA
ENDBRANCH  69  72
ENDBRANCH  41  65
BRANCH  53  76
ATOM     76  C   UNL A   1      45.241  27.285  33.995  1.00  0.00     0.023 A 
ATOM     77  C   UNL A   1      44.990  26.110  34.729  1.00  0.00     0.012 A 
ATOM     78  C   UNL A   1      46.542  27.824  33.974  1.00  0.00     0.148 A 
ATOM     79  C   UNL A   1      46.011  25.493  35.451  1.00  0.00     0.002 A 
ATOM     80  C   UNL A   1      47.566  27.178  34.657  1.00  0.00     0.091 A 
ATOM     81  F   UNL A   1      46.755  28.952  33.282  1.00  0.00    -0.205 F 
ATOM     82  C   UNL A   1      47.300  26.019  35.404  1.00  0.00     0.022 A 
BRANCH  80  83
ATOM     83  S   UNL A   1      49.275  27.727  34.582  1.00  0.00     0.127 S 
ATOM     84  O   UNL A   1      49.944  26.736  35.421  1.00  0.00    -0.237 OA
ATOM     85  O   UNL A   1      49.573  27.620  33.153  1.00  0.00    -0.237 OA
ATOM     86  O   UNL A   1      49.283  29.089  35.100  1.00  0.00    -0.744 OA
ENDBRANCH  80  83
ENDBRANCH  53  76
ENDBRANCH  27  28
ENDBRANCH  20  22
ENDBRANCH  19  20
ENDBRANCH  18  19
ENDBRANCH  17  18
ENDBRANCH  16  17
ENDBRANCH   1  16
TORSDOF 21
ENDMDL
MODEL 3
REMARK VINA RESULT:      -9.2      5.246     10.325
REMARK SMILES C[N@@H+](CCCCC(=O)OCCOC(=O)c1ccc(-c2c3nc(c(-c4cccc(S(=O)(=O)[O-])c4F)c4ccc([nH]4)c(-c4cccc(S(=O)(=O)[O-])c4F)c4nc(c(-c5cccc(S(=O)(=O)[O-])c5F)c5ccc2[nH]5)C=C4)C=C3)cc1)CC(C)(C)O
REMARK SMILES IDX 7 1 8 2 6 3 5 4 4 5 3 6 2 7 1 8 78 10 79 11 80 12 81 13
REMARK SMILES IDX 82 14 9 16 10 17 11 18 12 19 13 20 14 21 15 22 16 23 77 24
REMARK SMILES IDX 17 25 76 26 18 27 19 28 20 29 70 30 21 31 75 32 69 33 71 34
REMARK SMILES IDX 22 35 74 36 68 37 67 38 23 40 55 41 35 42 54 43 36 44 39 45
REMARK SMILES IDX 53 46 72 47 37 48 38 49 52 51 73 52 40 53 24 54 25 55 33 56
REMARK SMILES IDX 26 57 28 58 34 59 27 60 29 61 30 62 31 63 32 64 56 65 57 66
REMARK SMILES IDX 65 67 58 68 60 69 66 70 59 71 61 72 62 73 63 74 64 75 41 76
REMARK SMILES IDX 42 77 50 78 43 79 45 80 51 81 44 82 46 83 47 84 48 85 49 86
REMARK H PARENT 2 9 82 15 71 39 39 50
REMARK Flexibility Score: inf
ROOT
ATOM      1  C   UNL A   1      31.548  28.890  24.227  1.00  0.00     0.305 C 
ATOM      2  O   UNL A   1      30.487  28.847  23.622  1.00  0.00    -0.252 OA
ENDROOT
BRANCH   1   3
ATOM      3  C   UNL A   1      32.529  27.748  24.269  1.00  0.00     0.123 C 
BRANCH   3   4
ATOM      4  C   UNL A   1      33.148  27.560  25.659  1.00  0.00     0.017 C 
BRANCH   4   5
ATOM      5  C   UNL A   1      33.730  26.166  25.919  1.00  0.00     0.062 C 
BRANCH   5   6
ATOM      6  C   UNL A   1      32.712  25.018  26.006  1.00  0.00     0.262 C 
BRANCH   6   7
ATOM      7  N   UNL A   1      33.166  23.624  25.959  1.00  0.00    -0.335 N 
ATOM      8  C   UNL A   1      32.557  22.786  26.970  1.00  0.00     0.332 C 
ATOM      9  H   UNL A   1      32.783  23.282  25.078  1.00  0.00     0.347 HD
BRANCH   7  10
ATOM     10  C   UNL A   1      34.596  23.398  25.702  1.00  0.00     0.296 C 
BRANCH  10  11
ATOM     11  C   UNL A   1      35.188  21.976  25.374  1.00  0.00     0.108 C 
ATOM     12  C   UNL A   1      34.214  21.088  24.594  1.00  0.00     0.048 C 
ATOM     13  C   UNL A   1      36.467  22.150  24.535  1.00  0.00     0.048 C 
BRANCH  11  14
ATOM     14  O   UNL A   1      35.543  21.273  26.567  1.00  0.00    -0.385 OA
ATOM     15  H   UNL A   1      34.806  21.313  27.197  1.00  0.00     0.211 HD
ENDBRANCH  11  14
ENDBRANCH  10  11
ENDBRANCH   7  10
ENDBRANCH   6   7
ENDBRANCH   5   6
ENDBRANCH   4   5
ENDBRANCH   3   4
ENDBRANCH   1   3
BRANCH   1  16
ATOM     16  O   UNL A   1      32.011  29.954  24.936  1.00  0.00    -0.462 OA
BRANCH  16  17
ATOM     17  C   UNL A   1      31.154  30.396  26.002  1.00  0.00     0.274 C 
BRANCH  17  18
ATOM     18  C   UNL A   1      31.698  31.721  26.541  1.00  0.00     0.275 C 
BRANCH  18  19
ATOM     19  O   UNL A   1      32.925  31.471  27.248  1.00  0.00    -0.458 OA
BRANCH  19  20
ATOM     20  C   UNL A   1      33.593  32.568  27.675  1.00  0.00     0.338 C 
ATOM     21  O   UNL A   1      33.220  33.725  27.627  1.00  0.00    -0.246 OA
BRANCH  20  22
ATOM     22  C   UNL A   1      34.918  32.145  28.165  1.00  0.00     0.060 A 
ATOM     23  C   UNL A   1      36.015  33.014  28.125  1.00  0.00     0.016 A 
ATOM     24  C   UNL A   1      35.060  30.854  28.670  1.00  0.00     0.016 A 
ATOM     25  C   UNL A   1      37.258  32.590  28.603  1.00  0.00     0.010 A 
ATOM     26  C   UNL A   1      36.290  30.451  29.191  1.00  0.00     0.010 A 
ATOM     27  C   UNL A   1      37.401  31.314  29.166  1.00  0.00    -0.014 A 
BRANCH  27  28
ATOM     28  C   UNL A   1      38.676  30.869  29.792  1.00  0.00     0.031 A 
ATOM     29  C   UNL A   1      39.493  29.780  29.154  1.00  0.00     0.074 A 
ATOM     30  C   UNL A   1      39.026  31.352  31.001  1.00  0.00     0.049 A 
ATOM     31  N   UNL A   1      40.498  29.104  29.647  1.00  0.00    -0.248 NA
ATOM     32  C   UNL A   1      39.123  29.389  27.783  1.00  0.00     0.031 C 
ATOM     33  C   UNL A   1      38.306  32.393  31.737  1.00  0.00     0.029 A 
ATOM     34  N   UNL A   1      40.041  30.986  31.853  1.00  0.00    -0.354 N 
ATOM     35  C   UNL A   1      40.839  28.167  28.680  1.00  0.00     0.074 A 
ATOM     36  C   UNL A   1      39.949  28.374  27.558  1.00  0.00     0.031 C 
ATOM     37  C   UNL A   1      38.872  32.553  32.943  1.00  0.00     0.029 A 
ATOM     38  C   UNL A   1      39.958  31.588  33.089  1.00  0.00     0.049 A 
ATOM     39  H   UNL A   1      40.756  30.357  31.604  1.00  0.00     0.167 HD
ATOM     40  C   UNL A   1      41.807  27.221  28.726  1.00  0.00     0.034 A 
ATOM     41  C   UNL A   1      40.633  31.352  34.233  1.00  0.00     0.034 A 
ATOM     42  C   UNL A   1      42.722  27.050  29.822  1.00  0.00     0.049 A 
ATOM     43  C   UNL A   1      41.697  30.289  34.251  1.00  0.00     0.074 A 
ATOM     44  C   UNL A   1      43.803  26.189  29.911  1.00  0.00     0.029 A 
ATOM     45  N   UNL A   1      42.656  27.734  31.025  1.00  0.00    -0.354 N 
ATOM     46  N   UNL A   1      42.108  29.514  33.277  1.00  0.00    -0.248 NA
ATOM     47  C   UNL A   1      42.404  30.076  35.524  1.00  0.00     0.031 C 
ATOM     48  C   UNL A   1      44.370  26.329  31.182  1.00  0.00     0.029 A 
ATOM     49  C   UNL A   1      43.658  27.294  31.874  1.00  0.00     0.049 A 
ATOM     50  H   UNL A   1      41.994  28.429  31.244  1.00  0.00     0.167 HD
ATOM     51  C   UNL A   1      43.132  28.740  33.812  1.00  0.00     0.074 A 
ATOM     52  C   UNL A   1      43.302  29.160  35.187  1.00  0.00     0.031 C 
ATOM     53  C   UNL A   1      43.852  27.755  33.224  1.00  0.00     0.034 A 
BRANCH  40  54
ATOM     54  C   UNL A   1      41.958  26.294  27.549  1.00  0.00     0.023 A 
ATOM     55  C   UNL A   1      42.704  26.703  26.427  1.00  0.00     0.012 A 
ATOM     56  C   UNL A   1      41.458  24.977  27.608  1.00  0.00     0.148 A 
ATOM     57  C   UNL A   1      42.940  25.821  25.374  1.00  0.00     0.002 A 
ATOM     58  C   UNL A   1      41.730  24.092  26.572  1.00  0.00     0.091 A 
ATOM     59  F   UNL A   1      40.737  24.616  28.678  1.00  0.00    -0.205 F 
ATOM     60  C   UNL A   1      42.465  24.514  25.452  1.00  0.00     0.022 A 
BRANCH  58  61
ATOM     61  S   UNL A   1      41.227  22.367  26.610  1.00  0.00     0.127 S 
ATOM     62  O   UNL A   1      41.973  21.819  25.478  1.00  0.00    -0.237 OA
ATOM     63  O   UNL A   1      41.710  21.937  27.923  1.00  0.00    -0.237 OA
ATOM     64  O   UNL A   1      39.779  22.364  26.460  1.00  0.00    -0.744 OA
ENDBRANCH  58  61
ENDBRANCH  40  54
BRANCH  41  65
ATOM     65  C   UNL A   1      40.314  32.130  35.465  1.00  0.00     0.023 A 
ATOM     66  C   UNL A   1      41.147  33.198  35.844  1.00  0.00     0.012 A 
ATOM     67  C   UNL A   1      39.192  31.819  36.257  1.00  0.00     0.148 A 
ATOM     68  C   UNL A   1      40.887  33.923  37.009  1.00  0.00     0.002 A 
ATOM     69  C   UNL A   1      38.904  32.582  37.383  1.00  0.00     0.091 A 
ATOM     70  F   UNL A   1      38.423  30.781  35.896  1.00  0.00    -0.205 F 
ATOM     71  C   UNL A   1      39.761  33.624  37.770  1.00  0.00     0.022 A 
BRANCH  69  72
ATOM     72  S   UNL A   1      37.401  32.344  38.338  1.00  0.00     0.127 S 
ATOM     73  O   UNL A   1      37.744  32.987  39.602  1.00  0.00    -0.237 OA
ATOM     74  O   UNL A   1      36.408  33.057  37.533  1.00  0.00    -0.237 OA
ATOM     75  O   UNL A   1      37.202  30.901  38.387  1.00  0.00    -0.744 OA
ENDBRANCH  69  72
ENDBRANCH  41  65
BRANCH  53  76
ATOM     76  C   UNL A   1      44.908  27.067  34.050  1.00  0.00     0.023 A 
ATOM     77  C   UNL A   1      46.221  27.576  34.063  1.00  0.00     0.012 A 
ATOM     78  C   UNL A   1      44.580  25.973  34.874  1.00  0.00     0.148 A 
ATOM     79  C   UNL A   1      47.200  26.991  34.864  1.00  0.00     0.002 A 
ATOM     80  C   UNL A   1      45.549  25.424  35.706  1.00  0.00     0.091 A 
ATOM     81  F   UNL A   1      43.328  25.494  34.834  1.00  0.00    -0.205 F 
ATOM     82  C   UNL A   1      46.861  25.925  35.695  1.00  0.00     0.022 A 
BRANCH  80  83
ATOM     83  S   UNL A   1      45.186  24.110  36.876  1.00  0.00     0.127 S 
ATOM     84  O   UNL A   1      44.699  23.051  35.995  1.00  0.00    -0.237 OA
ATOM     85  O   UNL A   1      46.498  23.854  37.472  1.00  0.00    -0.237 OA
ATOM     86  O   UNL A   1      44.198  24.655  37.799  1.00  0.00    -0.744 OA
ENDBRANCH  80  83
ENDBRANCH  53  76
ENDBRANCH  27  28
ENDBRANCH  20  22
ENDBRANCH  19  20
ENDBRANCH  18  19
ENDBRANCH  17  18
ENDBRANCH  16  17
ENDBRANCH   1  16
TORSDOF 21
ENDMDL
