MODEL 1
REMARK VINA RESULT:     -12.1      0.000      0.000
REMARK SMILES Cc1cccc(S(=O)(=O)Nc2cnc(N(C)Cc3ccccc3)c(C(=O)OCCOC(=O)c3ccc(-c4c5nc(c(-c6cccc(S(=O)(=O)[O-])c6F)c6ccc([nH]6)c(-c6cccc(S(=O)(=O)[O-])c6F)c6nc(c(-c7cccc(S(=O)(=O)[O-])c7F)c7ccc4[nH]7)C=C6)C=C5)cc3)c2)c1
REMARK SMILES IDX 28 1 27 2 25 3 26 4 24 5 11 6 12 7 96 8 13 9 14 10 10 11
REMARK SMILES IDX 7 13 8 14 9 15 6 16 1 17 2 18 3 19 97 20 4 21 5 22 15 23
REMARK SMILES IDX 16 24 17 25 18 26 19 27 23 28 20 29 22 30 21 31 29 32 30 33
REMARK SMILES IDX 31 34 32 35 33 36 34 37 95 38 35 39 94 40 36 41 37 42 38 43
REMARK SMILES IDX 88 44 39 45 93 46 87 47 89 48 40 49 92 50 86 51 85 52 41 54
REMARK SMILES IDX 73 55 53 56 72 57 54 58 57 59 71 60 90 61 55 62 56 63 70 65
REMARK SMILES IDX 91 66 58 67 42 68 43 69 51 70 44 71 46 72 52 73 45 74 47 75
REMARK SMILES IDX 48 76 49 77 50 78 74 79 75 80 83 81 76 82 78 83 84 84 77 85
REMARK SMILES IDX 79 86 80 87 81 88 82 89 59 90 60 91 68 92 61 93 63 94 69 95
REMARK SMILES IDX 62 96 64 97 65 98 66 99 67 100
REMARK H PARENT 10 12 89 53 57 64
REMARK Flexibility Score: inf
ROOT
ATOM      1  C   UNL A   1      33.275  25.632  21.930  1.00  0.00     0.275 C 
ENDROOT
BRANCH   1   2
ATOM      2  O   UNL A   1      33.496  26.952  22.554  1.00  0.00    -0.458 OA
BRANCH   2   3
ATOM      3  C   UNL A   1      32.708  28.082  22.585  1.00  0.00     0.342 C 
ATOM      4  O   UNL A   1      33.110  29.181  22.253  1.00  0.00    -0.246 OA
BRANCH   3   5
ATOM      5  C   UNL A   1      31.274  27.746  23.158  1.00  0.00     0.104 A 
ATOM      6  C   UNL A   1      30.049  25.859  24.067  1.00  0.00     0.068 A 
ATOM      7  C   UNL A   1      28.909  26.596  23.810  1.00  0.00     0.140 A 
ATOM      8  C   UNL A   1      31.229  26.390  23.602  1.00  0.00     0.048 A 
ATOM      9  N   UNL A   1      28.912  27.883  23.418  1.00  0.00    -0.236 NA
ATOM     10  C   UNL A   1      30.073  28.583  23.373  1.00  0.00     0.143 A 
BRANCH   6  11
ATOM     11  N   UNL A   1      29.912  24.718  24.896  1.00  0.00    -0.278 N 
ATOM     12  H   UNL A   1      29.282  24.037  24.566  1.00  0.00     0.180 HD
BRANCH  11  13
ATOM     13  S   UNL A   1      30.650  24.353  26.337  1.00  0.00     0.261 S 
ATOM     14  O   UNL A   1      29.628  23.852  27.232  1.00  0.00    -0.201 OA
ATOM     15  O   UNL A   1      31.298  25.621  26.635  1.00  0.00    -0.201 OA
BRANCH  13  16
ATOM     16  C   UNL A   1      31.971  23.139  26.315  1.00  0.00     0.088 A 
ATOM     17  C   UNL A   1      34.260  20.454  24.587  1.00  0.00     0.044 C 
ATOM     18  C   UNL A   1      33.490  21.367  25.515  1.00  0.00    -0.050 A 
ATOM     19  C   UNL A   1      33.976  21.215  26.806  1.00  0.00     0.003 A 
ATOM     20  C   UNL A   1      32.430  22.314  25.271  1.00  0.00     0.025 A 
ATOM     21  C   UNL A   1      33.510  22.009  27.823  1.00  0.00     0.002 A 
ATOM     22  C   UNL A   1      32.552  22.978  27.578  1.00  0.00     0.022 A 
ENDBRANCH  13  16
ENDBRANCH  11  13
ENDBRANCH   6  11
BRANCH  10  23
ATOM     23  N   UNL A   1      29.849  29.938  23.797  1.00  0.00    -0.355 N 
ATOM     24  C   UNL A   1      28.630  30.440  23.088  1.00  0.00     0.145 C 
BRANCH  23  25
ATOM     25  C   UNL A   1      30.329  31.146  24.957  1.00  0.00     0.153 C 
BRANCH  25  26
ATOM     26  C   UNL A   1      31.573  31.317  26.169  1.00  0.00    -0.029 A 
ATOM     27  C   UNL A   1      31.741  32.972  27.006  1.00  0.00     0.005 A 
ATOM     28  C   UNL A   1      32.892  30.074  26.477  1.00  0.00     0.005 A 
ATOM     29  C   UNL A   1      33.323  33.513  27.841  1.00  0.00     0.000 A 
ATOM     30  C   UNL A   1      34.408  30.479  27.469  1.00  0.00     0.000 A 
ATOM     31  C   UNL A   1      34.698  32.260  28.051  1.00  0.00     0.000 A 
ENDBRANCH  25  26
ENDBRANCH  23  25
ENDBRANCH  10  23
ENDBRANCH   3   5
ENDBRANCH   2   3
ENDBRANCH   1   2
BRANCH   1  32
ATOM     32  C   UNL A   1      33.846  24.235  22.363  1.00  0.00     0.275 C 
BRANCH  32  33
ATOM     33  O   UNL A   1      34.939  23.997  23.260  1.00  0.00    -0.458 OA
BRANCH  33  34
ATOM     34  C   UNL A   1      35.078  24.560  24.460  1.00  0.00     0.338 C 
ATOM     35  O   UNL A   1      34.275  25.354  24.930  1.00  0.00    -0.246 OA
BRANCH  34  36
ATOM     36  C   UNL A   1      36.241  24.090  25.197  1.00  0.00     0.060 A 
ATOM     37  C   UNL A   1      36.058  23.959  26.554  1.00  0.00     0.016 A 
ATOM     38  C   UNL A   1      37.462  23.734  24.703  1.00  0.00     0.016 A 
ATOM     39  C   UNL A   1      37.056  23.600  27.498  1.00  0.00     0.010 A 
ATOM     40  C   UNL A   1      38.354  23.255  25.655  1.00  0.00     0.010 A 
ATOM     41  C   UNL A   1      38.287  23.704  26.997  1.00  0.00    -0.014 A 
BRANCH  41  42
ATOM     42  C   UNL A   1      39.242  24.962  27.601  1.00  0.00     0.031 A 
ATOM     43  C   UNL A   1      40.700  23.825  27.808  1.00  0.00     0.074 A 
ATOM     44  C   UNL A   1      39.172  26.844  27.660  1.00  0.00     0.049 A 
ATOM     45  N   UNL A   1      41.847  24.056  27.236  1.00  0.00    -0.248 NA
ATOM     46  C   UNL A   1      40.835  22.535  28.519  1.00  0.00     0.031 C 
ATOM     47  C   UNL A   1      40.045  28.054  26.665  1.00  0.00     0.029 A 
ATOM     48  N   UNL A   1      38.274  27.966  28.055  1.00  0.00    -0.354 N 
ATOM     49  C   UNL A   1      42.777  23.074  27.351  1.00  0.00     0.074 A 
ATOM     50  C   UNL A   1      42.054  22.075  28.099  1.00  0.00     0.031 C 
ATOM     51  C   UNL A   1      39.779  29.313  26.967  1.00  0.00     0.029 A 
ATOM     52  C   UNL A   1      38.985  29.204  28.115  1.00  0.00     0.049 A 
ATOM     53  H   UNL A   1      37.314  27.866  28.250  1.00  0.00     0.167 HD
ATOM     54  C   UNL A   1      43.924  23.356  26.651  1.00  0.00     0.034 A 
ATOM     55  C   UNL A   1      39.410  29.668  29.311  1.00  0.00     0.034 A 
ATOM     56  C   UNL A   1      44.110  24.854  26.647  1.00  0.00     0.049 A 
ATOM     57  C   UNL A   1      40.919  29.360  29.532  1.00  0.00     0.074 A 
ATOM     58  C   UNL A   1      44.085  25.882  25.716  1.00  0.00     0.029 A 
ATOM     59  N   UNL A   1      44.119  25.494  27.890  1.00  0.00    -0.354 N 
ATOM     60  N   UNL A   1      41.763  28.715  28.742  1.00  0.00    -0.248 NA
ATOM     61  C   UNL A   1      41.590  29.897  30.705  1.00  0.00     0.031 C 
ATOM     62  C   UNL A   1      43.953  27.132  26.434  1.00  0.00     0.029 A 
ATOM     63  C   UNL A   1      43.964  26.878  27.800  1.00  0.00     0.049 A 
ATOM     64  H   UNL A   1      44.225  25.015  28.744  1.00  0.00     0.167 HD
ATOM     65  C   UNL A   1      42.989  28.568  29.371  1.00  0.00     0.074 A 
ATOM     66  C   UNL A   1      42.849  29.490  30.497  1.00  0.00     0.031 C 
ATOM     67  C   UNL A   1      44.006  27.676  29.047  1.00  0.00     0.034 A 
BRANCH  54  68
ATOM     68  C   UNL A   1      44.889  22.440  25.869  1.00  0.00     0.023 A 
ATOM     69  C   UNL A   1      45.931  23.097  25.158  1.00  0.00     0.012 A 
ATOM     70  C   UNL A   1      44.773  21.046  25.617  1.00  0.00     0.148 A 
ATOM     71  C   UNL A   1      46.763  22.459  24.228  1.00  0.00     0.002 A 
ATOM     72  C   UNL A   1      45.614  20.400  24.675  1.00  0.00     0.091 A 
ATOM     73  F   UNL A   1      43.851  20.347  26.288  1.00  0.00    -0.205 F 
ATOM     74  C   UNL A   1      46.598  21.112  23.976  1.00  0.00     0.022 A 
BRANCH  72  75
ATOM     75  S   UNL A   1      45.525  18.651  24.203  1.00  0.00     0.127 S 
ATOM     76  O   UNL A   1      46.472  18.029  25.132  1.00  0.00    -0.237 OA
ATOM     77  O   UNL A   1      44.124  18.317  24.461  1.00  0.00    -0.237 OA
ATOM     78  O   UNL A   1      45.918  18.578  22.806  1.00  0.00    -0.744 OA
ENDBRANCH  72  75
ENDBRANCH  54  68
BRANCH  55  79
ATOM     79  C   UNL A   1      38.232  29.522  30.236  1.00  0.00     0.023 A 
ATOM     80  C   UNL A   1      38.290  28.405  31.144  1.00  0.00     0.012 A 
ATOM     81  C   UNL A   1      37.501  30.650  30.600  1.00  0.00     0.148 A 
ATOM     82  C   UNL A   1      37.911  28.561  32.475  1.00  0.00     0.002 A 
ATOM     83  C   UNL A   1      37.042  30.770  31.906  1.00  0.00     0.091 A 
ATOM     84  F   UNL A   1      37.388  31.645  29.712  1.00  0.00    -0.205 F 
ATOM     85  C   UNL A   1      37.269  29.737  32.851  1.00  0.00     0.022 A 
BRANCH  83  86
ATOM     86  S   UNL A   1      36.208  32.299  32.412  1.00  0.00     0.127 S 
ATOM     87  O   UNL A   1      37.134  33.315  31.917  1.00  0.00    -0.237 OA
ATOM     88  O   UNL A   1      34.927  32.268  31.720  1.00  0.00    -0.237 OA
ATOM     89  O   UNL A   1      36.115  32.205  33.862  1.00  0.00    -0.744 OA
ENDBRANCH  83  86
ENDBRANCH  55  79
BRANCH  67  90
ATOM     90  C   UNL A   1      45.218  27.428  29.982  1.00  0.00     0.023 A 
ATOM     91  C   UNL A   1      46.427  28.134  29.834  1.00  0.00     0.012 A 
ATOM     92  C   UNL A   1      45.167  26.546  31.100  1.00  0.00     0.148 A 
ATOM     93  C   UNL A   1      47.579  27.822  30.556  1.00  0.00     0.002 A 
ATOM     94  C   UNL A   1      46.270  26.373  31.936  1.00  0.00     0.091 A 
ATOM     95  F   UNL A   1      44.057  25.846  31.363  1.00  0.00    -0.205 F 
ATOM     96  C   UNL A   1      47.501  26.943  31.616  1.00  0.00     0.022 A 
BRANCH  94  97
ATOM     97  S   UNL A   1      46.161  25.532  33.523  1.00  0.00     0.127 S 
ATOM     98  O   UNL A   1      45.454  24.306  33.160  1.00  0.00    -0.237 OA
ATOM     99  O   UNL A   1      47.574  25.343  33.864  1.00  0.00    -0.237 OA
ATOM    100  O   UNL A   1      45.449  26.445  34.405  1.00  0.00    -0.744 OA
ENDBRANCH  94  97
ENDBRANCH  67  90
ENDBRANCH  41  42
ENDBRANCH  34  36
ENDBRANCH  33  34
ENDBRANCH  32  33
ENDBRANCH   1  32
TORSDOF 20
ENDMDL
MODEL 2
REMARK VINA RESULT:     -11.8     10.422     14.713
REMARK SMILES Cc1cccc(S(=O)(=O)Nc2cnc(N(C)Cc3ccccc3)c(C(=O)OCCOC(=O)c3ccc(-c4c5nc(c(-c6cccc(S(=O)(=O)[O-])c6F)c6ccc([nH]6)c(-c6cccc(S(=O)(=O)[O-])c6F)c6nc(c(-c7cccc(S(=O)(=O)[O-])c7F)c7ccc4[nH]7)C=C6)C=C5)cc3)c2)c1
REMARK SMILES IDX 28 1 27 2 25 3 26 4 24 5 11 6 12 7 96 8 13 9 14 10 10 11
REMARK SMILES IDX 7 13 8 14 9 15 6 16 1 17 2 18 3 19 97 20 4 21 5 22 15 23
REMARK SMILES IDX 16 24 17 25 18 26 19 27 23 28 20 29 22 30 21 31 29 32 30 33
REMARK SMILES IDX 31 34 32 35 33 36 34 37 95 38 35 39 94 40 36 41 37 42 38 43
REMARK SMILES IDX 88 44 39 45 93 46 87 47 89 48 40 49 92 50 86 51 85 52 41 54
REMARK SMILES IDX 73 55 53 56 72 57 54 58 57 59 71 60 90 61 55 62 56 63 70 65
REMARK SMILES IDX 91 66 58 67 42 68 43 69 51 70 44 71 46 72 52 73 45 74 47 75
REMARK SMILES IDX 48 76 49 77 50 78 74 79 75 80 83 81 76 82 78 83 84 84 77 85
REMARK SMILES IDX 79 86 80 87 81 88 82 89 59 90 60 91 68 92 61 93 63 94 69 95
REMARK SMILES IDX 62 96 64 97 65 98 66 99 67 100
REMARK H PARENT 10 12 89 53 57 64
REMARK Flexibility Score: inf
ROOT
ATOM      1  C   UNL A   1      42.903  41.371  24.900  1.00  0.00     0.275 C 
ENDROOT
BRANCH   1   2
ATOM      2  O   UNL A   1      42.713  42.607  24.113  1.00  0.00    -0.458 OA
BRANCH   2   3
ATOM      3  C   UNL A   1      41.907  42.875  23.029  1.00  0.00     0.342 C 
ATOM      4  O   UNL A   1      40.691  42.827  23.077  1.00  0.00    -0.246 OA
BRANCH   3   5
ATOM      5  C   UNL A   1      42.780  43.183  21.748  1.00  0.00     0.104 A 
ATOM      6  C   UNL A   1      42.523  43.350  19.341  1.00  0.00     0.068 A 
ATOM      7  C   UNL A   1      43.899  43.231  19.282  1.00  0.00     0.140 A 
ATOM      8  C   UNL A   1      41.957  43.181  20.582  1.00  0.00     0.048 A 
ATOM      9  N   UNL A   1      44.709  43.258  20.356  1.00  0.00    -0.236 NA
ATOM     10  C   UNL A   1      44.207  43.537  21.585  1.00  0.00     0.143 A 
BRANCH   6  11
ATOM     11  N   UNL A   1      41.855  43.769  18.164  1.00  0.00    -0.278 N 
ATOM     12  H   UNL A   1      40.934  43.437  18.068  1.00  0.00     0.180 HD
BRANCH  11  13
ATOM     13  S   UNL A   1      42.389  44.732  16.922  1.00  0.00     0.261 S 
ATOM     14  O   UNL A   1      41.231  45.106  16.136  1.00  0.00    -0.201 OA
ATOM     15  O   UNL A   1      43.402  43.872  16.333  1.00  0.00    -0.201 OA
BRANCH  13  16
ATOM     16  C   UNL A   1      43.245  46.249  17.351  1.00  0.00     0.088 A 
ATOM     17  C   UNL A   1      43.412  49.961  18.627  1.00  0.00     0.044 C 
ATOM     18  C   UNL A   1      43.637  48.587  18.037  1.00  0.00    -0.050 A 
ATOM     19  C   UNL A   1      44.978  48.446  17.714  1.00  0.00     0.003 A 
ATOM     20  C   UNL A   1      42.739  47.482  17.805  1.00  0.00     0.025 A 
ATOM     21  C   UNL A   1      45.462  47.248  17.254  1.00  0.00     0.002 A 
ATOM     22  C   UNL A   1      44.621  46.158  17.108  1.00  0.00     0.022 A 
ENDBRANCH  13  16
ENDBRANCH  11  13
ENDBRANCH   6  11
BRANCH  10  23
ATOM     23  N   UNL A   1      45.141  44.337  22.329  1.00  0.00    -0.355 N 
ATOM     24  C   UNL A   1      45.251  45.663  21.642  1.00  0.00     0.145 C 
BRANCH  23  25
ATOM     25  C   UNL A   1      46.037  44.430  23.819  1.00  0.00     0.153 C 
BRANCH  25  26
ATOM     26  C   UNL A   1      46.153  43.499  25.291  1.00  0.00    -0.029 A 
ATOM     27  C   UNL A   1      46.778  41.749  25.159  1.00  0.00     0.005 A 
ATOM     28  C   UNL A   1      45.449  44.027  26.905  1.00  0.00     0.005 A 
ATOM     29  C   UNL A   1      46.411  40.457  26.458  1.00  0.00     0.000 A 
ATOM     30  C   UNL A   1      45.236  42.841  28.317  1.00  0.00     0.000 A 
ATOM     31  C   UNL A   1      45.596  40.999  28.055  1.00  0.00     0.000 A 
ENDBRANCH  25  26
ENDBRANCH  23  25
ENDBRANCH  10  23
ENDBRANCH   3   5
ENDBRANCH   2   3
ENDBRANCH   1   2
BRANCH   1  32
ATOM     32  C   UNL A   1      42.633  41.130  26.427  1.00  0.00     0.275 C 
BRANCH  32  33
ATOM     33  O   UNL A   1      41.619  40.290  26.995  1.00  0.00    -0.458 OA
BRANCH  33  34
ATOM     34  C   UNL A   1      41.692  39.708  28.192  1.00  0.00     0.338 C 
ATOM     35  O   UNL A   1      41.074  40.099  29.172  1.00  0.00    -0.246 OA
BRANCH  34  36
ATOM     36  C   UNL A   1      42.526  38.515  28.214  1.00  0.00     0.060 A 
ATOM     37  C   UNL A   1      42.522  37.780  27.050  1.00  0.00     0.016 A 
ATOM     38  C   UNL A   1      43.326  38.067  29.223  1.00  0.00     0.016 A 
ATOM     39  C   UNL A   1      43.182  36.540  26.847  1.00  0.00     0.010 A 
ATOM     40  C   UNL A   1      44.059  36.926  28.917  1.00  0.00     0.010 A 
ATOM     41  C   UNL A   1      43.559  35.974  27.994  1.00  0.00    -0.014 A 
BRANCH  41  42
ATOM     42  C   UNL A   1      42.716  34.585  28.461  1.00  0.00     0.031 A 
ATOM     43  C   UNL A   1      43.779  33.512  27.374  1.00  0.00     0.074 A 
ATOM     44  C   UNL A   1      41.516  34.090  29.827  1.00  0.00     0.049 A 
ATOM     45  N   UNL A   1      44.462  32.507  27.845  1.00  0.00    -0.248 NA
ATOM     46  C   UNL A   1      44.097  33.600  25.933  1.00  0.00     0.031 C 
ATOM     47  C   UNL A   1      41.811  33.152  31.326  1.00  0.00     0.029 A 
ATOM     48  N   UNL A   1      40.235  34.511  30.462  1.00  0.00    -0.354 N 
ATOM     49  C   UNL A   1      45.307  31.901  26.973  1.00  0.00     0.074 A 
ATOM     50  C   UNL A   1      45.114  32.695  25.783  1.00  0.00     0.031 C 
ATOM     51  C   UNL A   1      40.742  32.967  32.081  1.00  0.00     0.029 A 
ATOM     52  C   UNL A   1      39.703  33.477  31.294  1.00  0.00     0.049 A 
ATOM     53  H   UNL A   1      39.810  35.389  30.326  1.00  0.00     0.167 HD
ATOM     54  C   UNL A   1      46.049  30.912  27.567  1.00  0.00     0.034 A 
ATOM     55  C   UNL A   1      38.726  32.677  30.814  1.00  0.00     0.034 A 
ATOM     56  C   UNL A   1      45.217  30.305  28.671  1.00  0.00     0.049 A 
ATOM     57  C   UNL A   1      39.298  31.313  30.331  1.00  0.00     0.074 A 
ATOM     58  C   UNL A   1      45.253  30.240  30.056  1.00  0.00     0.029 A 
ATOM     59  N   UNL A   1      43.950  29.830  28.320  1.00  0.00    -0.354 N 
ATOM     60  N   UNL A   1      40.554  30.894  30.316  1.00  0.00    -0.248 NA
ATOM     61  C   UNL A   1      38.381  30.269  29.903  1.00  0.00     0.031 C 
ATOM     62  C   UNL A   1      43.941  29.838  30.518  1.00  0.00     0.029 A 
ATOM     63  C   UNL A   1      43.124  29.593  29.421  1.00  0.00     0.049 A 
ATOM     64  H   UNL A   1      43.668  29.677  27.389  1.00  0.00     0.167 HD
ATOM     65  C   UNL A   1      40.637  29.654  29.703  1.00  0.00     0.074 A 
ATOM     66  C   UNL A   1      39.229  29.262  29.650  1.00  0.00     0.031 C 
ATOM     67  C   UNL A   1      41.772  29.041  29.183  1.00  0.00     0.034 A 
BRANCH  54  68
ATOM     68  C   UNL A   1      47.505  30.457  27.336  1.00  0.00     0.023 A 
ATOM     69  C   UNL A   1      48.496  31.475  27.416  1.00  0.00     0.012 A 
ATOM     70  C   UNL A   1      47.974  29.195  26.880  1.00  0.00     0.148 A 
ATOM     71  C   UNL A   1      49.830  31.297  27.027  1.00  0.00     0.002 A 
ATOM     72  C   UNL A   1      49.325  29.014  26.485  1.00  0.00     0.091 A 
ATOM     73  F   UNL A   1      47.115  28.171  26.829  1.00  0.00    -0.205 F 
ATOM     74  C   UNL A   1      50.244  30.071  26.549  1.00  0.00     0.022 A 
BRANCH  72  75
ATOM     75  S   UNL A   1      50.036  27.486  25.816  1.00  0.00     0.127 S 
ATOM     76  O   UNL A   1      51.444  27.849  25.636  1.00  0.00    -0.237 OA
ATOM     77  O   UNL A   1      49.797  26.522  26.889  1.00  0.00    -0.237 OA
ATOM     78  O   UNL A   1      49.325  27.205  24.580  1.00  0.00    -0.744 OA
ENDBRANCH  72  75
ENDBRANCH  54  68
BRANCH  55  79
ATOM     79  C   UNL A   1      37.730  33.606  30.174  1.00  0.00     0.023 A 
ATOM     80  C   UNL A   1      37.567  33.456  28.751  1.00  0.00     0.012 A 
ATOM     81  C   UNL A   1      36.666  34.096  30.927  1.00  0.00     0.148 A 
ATOM     82  C   UNL A   1      36.295  33.484  28.182  1.00  0.00     0.002 A 
ATOM     83  C   UNL A   1      35.412  34.210  30.338  1.00  0.00     0.091 A 
ATOM     84  F   UNL A   1      36.860  34.308  32.234  1.00  0.00    -0.205 F 
ATOM     85  C   UNL A   1      35.220  33.880  28.973  1.00  0.00     0.022 A 
BRANCH  83  86
ATOM     86  S   UNL A   1      34.001  34.721  31.357  1.00  0.00     0.127 S 
ATOM     87  O   UNL A   1      33.821  33.552  32.216  1.00  0.00    -0.237 OA
ATOM     88  O   UNL A   1      34.462  35.912  32.057  1.00  0.00    -0.237 OA
ATOM     89  O   UNL A   1      32.926  34.956  30.405  1.00  0.00    -0.744 OA
ENDBRANCH  83  86
ENDBRANCH  55  79
BRANCH  67  90
ATOM     90  C   UNL A   1      41.692  27.774  28.291  1.00  0.00     0.023 A 
ATOM     91  C   UNL A   1      41.143  27.811  26.996  1.00  0.00     0.012 A 
ATOM     92  C   UNL A   1      42.245  26.519  28.677  1.00  0.00     0.148 A 
ATOM     93  C   UNL A   1      40.917  26.662  26.236  1.00  0.00     0.002 A 
ATOM     94  C   UNL A   1      42.181  25.409  27.834  1.00  0.00     0.091 A 
ATOM     95  F   UNL A   1      42.825  26.371  29.874  1.00  0.00    -0.205 F 
ATOM     96  C   UNL A   1      41.443  25.457  26.653  1.00  0.00     0.022 A 
BRANCH  94  97
ATOM     97  S   UNL A   1      43.129  23.910  28.131  1.00  0.00     0.127 S 
ATOM     98  O   UNL A   1      42.303  23.228  29.125  1.00  0.00    -0.237 OA
ATOM     99  O   UNL A   1      43.130  23.284  26.806  1.00  0.00    -0.237 OA
ATOM    100  O   UNL A   1      44.439  24.355  28.583  1.00  0.00    -0.744 OA
ENDBRANCH  94  97
ENDBRANCH  67  90
ENDBRANCH  41  42
ENDBRANCH  34  36
ENDBRANCH  33  34
ENDBRANCH  32  33
ENDBRANCH   1  32
TORSDOF 20
ENDMDL
MODEL 3
REMARK VINA RESULT:     -11.2     10.654     15.448
REMARK SMILES Cc1cccc(S(=O)(=O)Nc2cnc(N(C)Cc3ccccc3)c(C(=O)OCCOC(=O)c3ccc(-c4c5nc(c(-c6cccc(S(=O)(=O)[O-])c6F)c6ccc([nH]6)c(-c6cccc(S(=O)(=O)[O-])c6F)c6nc(c(-c7cccc(S(=O)(=O)[O-])c7F)c7ccc4[nH]7)C=C6)C=C5)cc3)c2)c1
REMARK SMILES IDX 28 1 27 2 25 3 26 4 24 5 11 6 12 7 96 8 13 9 14 10 10 11
REMARK SMILES IDX 7 13 8 14 9 15 6 16 1 17 2 18 3 19 97 20 4 21 5 22 15 23
REMARK SMILES IDX 16 24 17 25 18 26 19 27 23 28 20 29 22 30 21 31 29 32 30 33
REMARK SMILES IDX 31 34 32 35 33 36 34 37 95 38 35 39 94 40 36 41 37 42 38 43
REMARK SMILES IDX 88 44 39 45 93 46 87 47 89 48 40 49 92 50 86 51 85 52 41 54
REMARK SMILES IDX 73 55 53 56 72 57 54 58 57 59 71 60 90 61 55 62 56 63 70 65
REMARK SMILES IDX 91 66 58 67 42 68 43 69 51 70 44 71 46 72 52 73 45 74 47 75
REMARK SMILES IDX 48 76 49 77 50 78 74 79 75 80 83 81 76 82 78 83 84 84 77 85
REMARK SMILES IDX 79 86 80 87 81 88 82 89 59 90 60 91 68 92 61 93 63 94 69 95
REMARK SMILES IDX 62 96 64 97 65 98 66 99 67 100
REMARK H PARENT 10 12 89 53 57 64
REMARK Flexibility Score: inf
ROOT
ATOM      1  C   UNL A   1      44.962  42.254  28.360  1.00  0.00     0.275 C 
ENDROOT
BRANCH   1   2
ATOM      2  O   UNL A   1      44.705  41.551  27.086  1.00  0.00    -0.458 OA
BRANCH   2   3
ATOM      3  C   UNL A   1      43.709  41.712  26.149  1.00  0.00     0.342 C 
ATOM      4  O   UNL A   1      42.595  41.238  26.276  1.00  0.00    -0.246 OA
BRANCH   3   5
ATOM      5  C   UNL A   1      44.241  42.525  24.903  1.00  0.00     0.104 A 
ATOM      6  C   UNL A   1      43.479  43.258  22.719  1.00  0.00     0.068 A 
ATOM      7  C   UNL A   1      44.815  43.458  22.425  1.00  0.00     0.140 A 
ATOM      8  C   UNL A   1      43.212  42.651  23.924  1.00  0.00     0.048 A 
ATOM      9  N   UNL A   1      45.810  43.376  23.327  1.00  0.00    -0.236 NA
ATOM     10  C   UNL A   1      45.528  43.208  24.643  1.00  0.00     0.143 A 
BRANCH   6  11
ATOM     11  N   UNL A   1      42.527  43.817  21.831  1.00  0.00    -0.278 N 
ATOM     12  H   UNL A   1      41.996  44.557  22.203  1.00  0.00     0.180 HD
BRANCH  11  13
ATOM     13  S   UNL A   1      42.170  43.414  20.261  1.00  0.00     0.261 S 
ATOM     14  O   UNL A   1      40.728  43.325  20.155  1.00  0.00    -0.201 OA
ATOM     15  O   UNL A   1      42.971  42.211  20.104  1.00  0.00    -0.201 OA
BRANCH  13  16
ATOM     16  C   UNL A   1      42.725  44.526  18.968  1.00  0.00     0.088 A 
ATOM     17  C   UNL A   1      45.389  46.778  17.160  1.00  0.00     0.044 C 
ATOM     18  C   UNL A   1      44.160  46.063  17.676  1.00  0.00    -0.050 A 
ATOM     19  C   UNL A   1      43.080  46.373  16.864  1.00  0.00     0.003 A 
ATOM     20  C   UNL A   1      43.969  45.158  18.783  1.00  0.00     0.025 A 
ATOM     21  C   UNL A   1      41.864  45.769  17.060  1.00  0.00     0.002 A 
ATOM     22  C   UNL A   1      41.696  44.836  18.070  1.00  0.00     0.022 A 
ENDBRANCH  13  16
ENDBRANCH  11  13
ENDBRANCH   6  11
BRANCH  10  23
ATOM     23  N   UNL A   1      46.449  43.967  25.445  1.00  0.00    -0.355 N 
ATOM     24  C   UNL A   1      45.706  45.143  25.999  1.00  0.00     0.145 C 
BRANCH  23  25
ATOM     25  C   UNL A   1      48.029  43.940  26.176  1.00  0.00     0.153 C 
BRANCH  25  26
ATOM     26  C   UNL A   1      49.192  45.118  26.728  1.00  0.00    -0.029 A 
ATOM     27  C   UNL A   1      48.709  46.204  28.162  1.00  0.00     0.005 A 
ATOM     28  C   UNL A   1      50.737  45.543  25.827  1.00  0.00     0.005 A 
ATOM     29  C   UNL A   1      49.526  47.853  28.487  1.00  0.00     0.000 A 
ATOM     30  C   UNL A   1      51.717  47.068  26.227  1.00  0.00     0.000 A 
ATOM     31  C   UNL A   1      51.038  48.315  27.484  1.00  0.00     0.000 A 
ENDBRANCH  25  26
ENDBRANCH  23  25
ENDBRANCH  10  23
ENDBRANCH   3   5
ENDBRANCH   2   3
ENDBRANCH   1   2
BRANCH   1  32
ATOM     32  C   UNL A   1      44.122  42.220  29.685  1.00  0.00     0.275 C 
BRANCH  32  33
ATOM     33  O   UNL A   1      42.982  41.393  29.956  1.00  0.00    -0.458 OA
BRANCH  33  34
ATOM     34  C   UNL A   1      43.037  40.156  30.448  1.00  0.00     0.338 C 
ATOM     35  O   UNL A   1      42.925  39.896  31.638  1.00  0.00    -0.246 OA
BRANCH  34  36
ATOM     36  C   UNL A   1      43.171  39.126  29.428  1.00  0.00     0.060 A 
ATOM     37  C   UNL A   1      42.078  38.973  28.607  1.00  0.00     0.016 A 
ATOM     38  C   UNL A   1      44.250  38.332  29.173  1.00  0.00     0.016 A 
ATOM     39  C   UNL A   1      41.928  37.987  27.596  1.00  0.00     0.010 A 
ATOM     40  C   UNL A   1      44.099  37.485  28.081  1.00  0.00     0.010 A 
ATOM     41  C   UNL A   1      42.819  37.002  27.714  1.00  0.00    -0.014 A 
BRANCH  41  42
ATOM     42  C   UNL A   1      42.218  35.500  28.207  1.00  0.00     0.031 A 
ATOM     43  C   UNL A   1      43.374  34.603  27.057  1.00  0.00     0.074 A 
ATOM     44  C   UNL A   1      41.178  34.826  29.626  1.00  0.00     0.049 A 
ATOM     45  N   UNL A   1      44.224  33.711  27.483  1.00  0.00    -0.248 NA
ATOM     46  C   UNL A   1      43.602  34.743  25.602  1.00  0.00     0.031 C 
ATOM     47  C   UNL A   1      41.687  33.938  31.098  1.00  0.00     0.029 A 
ATOM     48  N   UNL A   1      39.882  35.046  30.328  1.00  0.00    -0.354 N 
ATOM     49  C   UNL A   1      45.104  33.242  26.563  1.00  0.00     0.074 A 
ATOM     50  C   UNL A   1      44.734  34.002  25.393  1.00  0.00     0.031 C 
ATOM     51  C   UNL A   1      40.698  33.591  31.903  1.00  0.00     0.029 A 
ATOM     52  C   UNL A   1      39.555  33.942  31.174  1.00  0.00     0.049 A 
ATOM     53  H   UNL A   1      39.324  35.851  30.223  1.00  0.00     0.167 HD
ATOM     54  C   UNL A   1      46.016  32.374  27.108  1.00  0.00     0.034 A 
ATOM     55  C   UNL A   1      38.686  33.005  30.735  1.00  0.00     0.034 A 
ATOM     56  C   UNL A   1      45.343  31.645  28.245  1.00  0.00     0.049 A 
ATOM     57  C   UNL A   1      39.431  31.744  30.209  1.00  0.00     0.074 A 
ATOM     58  C   UNL A   1      45.458  31.582  29.626  1.00  0.00     0.029 A 
ATOM     59  N   UNL A   1      44.145  30.986  27.953  1.00  0.00    -0.354 N 
ATOM     60  N   UNL A   1      40.733  31.519  30.127  1.00  0.00    -0.248 NA
ATOM     61  C   UNL A   1      38.661  30.575  29.817  1.00  0.00     0.031 C 
ATOM     62  C   UNL A   1      44.247  30.986  30.148  1.00  0.00     0.029 A 
ATOM     63  C   UNL A   1      43.421  30.623  29.091  1.00  0.00     0.049 A 
ATOM     64  H   UNL A   1      43.842  30.795  27.036  1.00  0.00     0.167 HD
ATOM     65  C   UNL A   1      40.970  30.308  29.497  1.00  0.00     0.074 A 
ATOM     66  C   UNL A   1      39.636  29.709  29.511  1.00  0.00     0.031 C 
ATOM     67  C   UNL A   1      42.157  29.874  28.914  1.00  0.00     0.034 A 
BRANCH  54  68
ATOM     68  C   UNL A   1      47.511  32.144  26.801  1.00  0.00     0.023 A 
ATOM     69  C   UNL A   1      48.036  30.877  27.177  1.00  0.00     0.012 A 
ATOM     70  C   UNL A   1      48.476  33.089  26.357  1.00  0.00     0.148 A 
ATOM     71  C   UNL A   1      49.403  30.568  27.176  1.00  0.00     0.002 A 
ATOM     72  C   UNL A   1      49.860  32.777  26.358  1.00  0.00     0.091 A 
ATOM     73  F   UNL A   1      48.056  34.286  25.934  1.00  0.00    -0.205 F 
ATOM     74  C   UNL A   1      50.318  31.521  26.779  1.00  0.00     0.022 A 
BRANCH  72  75
ATOM     75  S   UNL A   1      51.199  33.908  25.891  1.00  0.00     0.127 S 
ATOM     76  O   UNL A   1      51.038  34.998  26.857  1.00  0.00    -0.237 OA
ATOM     77  O   UNL A   1      52.396  33.094  26.097  1.00  0.00    -0.237 OA
ATOM     78  O   UNL A   1      50.956  34.289  24.509  1.00  0.00    -0.744 OA
ENDBRANCH  72  75
ENDBRANCH  54  68
BRANCH  55  79
ATOM     79  C   UNL A   1      37.530  33.776  30.155  1.00  0.00     0.023 A 
ATOM     80  C   UNL A   1      37.205  33.469  28.786  1.00  0.00     0.012 A 
ATOM     81  C   UNL A   1      36.527  34.245  30.999  1.00  0.00     0.148 A 
ATOM     82  C   UNL A   1      35.875  33.330  28.394  1.00  0.00     0.002 A 
ATOM     83  C   UNL A   1      35.203  34.190  30.576  1.00  0.00     0.091 A 
ATOM     84  F   UNL A   1      36.861  34.602  32.244  1.00  0.00    -0.205 F 
ATOM     85  C   UNL A   1      34.875  33.709  29.284  1.00  0.00     0.022 A 
BRANCH  83  86
ATOM     86  S   UNL A   1      33.888  34.676  31.728  1.00  0.00     0.127 S 
ATOM     87  O   UNL A   1      33.821  33.510  32.605  1.00  0.00    -0.237 OA
ATOM     88  O   UNL A   1      34.389  35.882  32.373  1.00  0.00    -0.237 OA
ATOM     89  O   UNL A   1      32.719  34.881  30.885  1.00  0.00    -0.744 OA
ENDBRANCH  83  86
ENDBRANCH  55  79
BRANCH  67  90
ATOM     90  C   UNL A   1      42.224  28.613  28.015  1.00  0.00     0.023 A 
ATOM     91  C   UNL A   1      41.730  28.615  26.696  1.00  0.00     0.012 A 
ATOM     92  C   UNL A   1      42.863  27.405  28.418  1.00  0.00     0.148 A 
ATOM     93  C   UNL A   1      41.635  27.457  25.922  1.00  0.00     0.002 A 
ATOM     94  C   UNL A   1      42.929  26.302  27.568  1.00  0.00     0.091 A 
ATOM     95  F   UNL A   1      43.401  27.297  29.639  1.00  0.00    -0.205 F 
ATOM     96  C   UNL A   1      42.243  26.297  26.355  1.00  0.00     0.022 A 
BRANCH  94  97
ATOM     97  S   UNL A   1      43.987  24.885  27.899  1.00  0.00     0.127 S 
ATOM     98  O   UNL A   1      43.327  24.286  29.056  1.00  0.00    -0.237 OA
ATOM     99  O   UNL A   1      43.861  24.116  26.658  1.00  0.00    -0.237 OA
ATOM    100  O   UNL A   1      45.316  25.431  28.132  1.00  0.00    -0.744 OA
ENDBRANCH  94  97
ENDBRANCH  67  90
ENDBRANCH  41  42
ENDBRANCH  34  36
ENDBRANCH  33  34
ENDBRANCH  32  33
ENDBRANCH   1  32
TORSDOF 20
ENDMDL
