MODEL 1
REMARK VINA RESULT:     -12.0      0.000      0.000
REMARK SMILES C[C@@H](C(=O)OCCOC(=O)c1ccc(-c2c3nc(c(-c4cccc(S(=O)(=O)[O-])c4F)c4ccc([nH]4)c(-c4cccc(S(=O)(=O)[O-])c4F)c4nc(c(-c5cccc(S(=O)(=O)[O-])c5F)c5ccc2[nH]5)C=C4)C=C3)cc1)c1ccc(NC2CCCC2)cc1F
REMARK SMILES IDX 6 1 5 2 3 3 4 4 2 5 1 6 74 7 75 8 85 9 76 10 84 11 86 12
REMARK SMILES IDX 77 13 78 14 79 16 80 17 83 18 81 19 82 20 7 21 8 22 9 23
REMARK SMILES IDX 10 24 11 25 12 26 73 27 13 28 72 29 14 30 15 31 16 32 66 33
REMARK SMILES IDX 17 34 71 35 65 36 67 37 18 38 70 39 64 40 63 41 19 43 51 44
REMARK SMILES IDX 31 45 50 46 32 47 35 48 49 49 68 50 33 51 34 52 48 54 69 55
REMARK SMILES IDX 36 56 20 57 21 58 29 59 22 60 24 61 30 62 23 63 25 64 26 65
REMARK SMILES IDX 27 66 28 67 52 68 53 69 61 70 54 71 56 72 62 73 55 74 57 75
REMARK SMILES IDX 58 76 59 77 60 78 37 79 38 80 46 81 39 82 41 83 47 84 40 85
REMARK SMILES IDX 42 86 43 87 44 88 45 89
REMARK H PARENT 78 15 67 42 35 53
REMARK Flexibility Score: inf
ROOT
ATOM      1  C   UNL A   1      30.783  27.716  24.118  1.00  0.00     0.274 C 
ENDROOT
BRANCH   1   2
ATOM      2  O   UNL A   1      31.788  27.136  24.970  1.00  0.00    -0.462 OA
BRANCH   2   3
ATOM      3  C   UNL A   1      31.313  26.335  25.967  1.00  0.00     0.313 C 
ATOM      4  O   UNL A   1      31.047  26.724  27.097  1.00  0.00    -0.252 OA
BRANCH   3   5
ATOM      5  C   UNL A   1      31.031  24.929  25.457  1.00  0.00     0.129 C 
ATOM      6  C   UNL A   1      30.216  24.141  26.503  1.00  0.00     0.025 C 
BRANCH   5   7
ATOM      7  C   UNL A   1      32.285  24.154  25.087  1.00  0.00     0.002 A 
ATOM      8  C   UNL A   1      33.418  24.087  25.913  1.00  0.00     0.010 A 
ATOM      9  C   UNL A   1      32.262  23.345  23.952  1.00  0.00     0.129 A 
ATOM     10  C   UNL A   1      34.364  23.077  25.733  1.00  0.00     0.026 A 
ATOM     11  C   UNL A   1      33.200  22.344  23.775  1.00  0.00     0.065 A 
ATOM     12  F   UNL A   1      31.249  23.436  23.077  1.00  0.00    -0.207 F 
ATOM     13  C   UNL A   1      34.191  22.128  24.738  1.00  0.00     0.037 A 
BRANCH  13  14
ATOM     14  N   UNL A   1      34.809  20.914  24.731  1.00  0.00    -0.382 N 
ATOM     15  H   UNL A   1      35.790  20.992  24.747  1.00  0.00     0.160 HD
BRANCH  14  16
ATOM     16  C   UNL A   1      34.352  19.505  24.705  1.00  0.00     0.079 C 
ATOM     17  C   UNL A   1      35.616  17.928  24.652  1.00  0.00     0.025 C 
ATOM     18  C   UNL A   1      32.573  18.851  25.415  1.00  0.00     0.025 C 
ATOM     19  C   UNL A   1      34.533  16.240  24.833  1.00  0.00     0.002 C 
ATOM     20  C   UNL A   1      32.694  16.781  25.565  1.00  0.00     0.002 C 
ENDBRANCH  14  16
ENDBRANCH  13  14
ENDBRANCH   5   7
ENDBRANCH   3   5
ENDBRANCH   2   3
ENDBRANCH   1   2
BRANCH   1  21
ATOM     21  C   UNL A   1      30.878  29.235  24.245  1.00  0.00     0.275 C 
BRANCH  21  22
ATOM     22  O   UNL A   1      32.050  29.502  25.026  1.00  0.00    -0.458 OA
BRANCH  22  23
ATOM     23  C   UNL A   1      31.948  30.502  25.930  1.00  0.00     0.338 C 
ATOM     24  O   UNL A   1      31.006  31.251  26.107  1.00  0.00    -0.246 OA
BRANCH  23  25
ATOM     25  C   UNL A   1      33.204  30.486  26.696  1.00  0.00     0.060 A 
ATOM     26  C   UNL A   1      34.001  29.363  26.698  1.00  0.00     0.016 A 
ATOM     27  C   UNL A   1      33.581  31.534  27.485  1.00  0.00     0.016 A 
ATOM     28  C   UNL A   1      35.240  29.318  27.410  1.00  0.00     0.010 A 
ATOM     29  C   UNL A   1      34.826  31.465  28.176  1.00  0.00     0.010 A 
ATOM     30  C   UNL A   1      35.967  30.374  28.217  1.00  0.00    -0.014 A 
BRANCH  30  31
ATOM     31  C   UNL A   1      37.837  30.384  29.240  1.00  0.00     0.031 A 
ATOM     32  C   UNL A   1      39.354  29.431  28.766  1.00  0.00     0.074 A 
ATOM     33  C   UNL A   1      38.435  31.050  30.423  1.00  0.00     0.049 A 
ATOM     34  N   UNL A   1      40.250  28.816  29.537  1.00  0.00    -0.248 NA
ATOM     35  C   UNL A   1      39.643  29.088  27.306  1.00  0.00     0.031 C 
ATOM     36  C   UNL A   1      38.045  32.362  31.058  1.00  0.00     0.029 A 
ATOM     37  N   UNL A   1      39.410  30.645  31.356  1.00  0.00    -0.354 N 
ATOM     38  C   UNL A   1      41.022  27.973  28.697  1.00  0.00     0.074 A 
ATOM     39  C   UNL A   1      40.508  28.105  27.371  1.00  0.00     0.031 C 
ATOM     40  C   UNL A   1      38.484  32.462  32.303  1.00  0.00     0.029 A 
ATOM     41  C   UNL A   1      39.313  31.319  32.581  1.00  0.00     0.049 A 
ATOM     42  H   UNL A   1      40.090  29.958  31.168  1.00  0.00     0.167 HD
ATOM     43  C   UNL A   1      42.082  27.145  28.903  1.00  0.00     0.034 A 
ATOM     44  C   UNL A   1      39.794  31.166  33.835  1.00  0.00     0.034 A 
ATOM     45  C   UNL A   1      42.842  27.065  30.106  1.00  0.00     0.049 A 
ATOM     46  C   UNL A   1      40.971  30.296  34.080  1.00  0.00     0.074 A 
ATOM     47  C   UNL A   1      43.956  26.287  30.371  1.00  0.00     0.029 A 
ATOM     48  N   UNL A   1      42.624  27.857  31.210  1.00  0.00    -0.354 N 
ATOM     49  N   UNL A   1      41.561  29.484  33.250  1.00  0.00    -0.248 NA
ATOM     50  C   UNL A   1      41.655  30.455  35.374  1.00  0.00     0.031 C 
ATOM     51  C   UNL A   1      44.440  26.639  31.633  1.00  0.00     0.029 A 
ATOM     52  C   UNL A   1      43.617  27.626  32.143  1.00  0.00     0.049 A 
ATOM     53  H   UNL A   1      41.878  28.490  31.319  1.00  0.00     0.167 HD
ATOM     54  C   UNL A   1      42.742  29.119  33.873  1.00  0.00     0.074 A 
ATOM     55  C   UNL A   1      42.770  29.768  35.164  1.00  0.00     0.031 C 
ATOM     56  C   UNL A   1      43.721  28.330  33.383  1.00  0.00     0.034 A 
BRANCH  43  57
ATOM     57  C   UNL A   1      42.531  26.269  27.737  1.00  0.00     0.023 A 
ATOM     58  C   UNL A   1      43.374  26.792  26.732  1.00  0.00     0.012 A 
ATOM     59  C   UNL A   1      42.069  24.940  27.620  1.00  0.00     0.148 A 
ATOM     60  C   UNL A   1      43.670  26.045  25.589  1.00  0.00     0.002 A 
ATOM     61  C   UNL A   1      42.423  24.180  26.508  1.00  0.00     0.091 A 
ATOM     62  F   UNL A   1      41.266  24.453  28.576  1.00  0.00    -0.205 F 
ATOM     63  C   UNL A   1      43.198  24.740  25.479  1.00  0.00     0.022 A 
BRANCH  61  64
ATOM     64  S   UNL A   1      41.950  22.455  26.323  1.00  0.00     0.127 S 
ATOM     65  O   UNL A   1      40.492  22.549  26.272  1.00  0.00    -0.237 OA
ATOM     66  O   UNL A   1      42.581  22.096  25.052  1.00  0.00    -0.237 OA
ATOM     67  O   UNL A   1      42.498  21.767  27.483  1.00  0.00    -0.744 OA
ENDBRANCH  61  64
ENDBRANCH  43  57
BRANCH  44  68
ATOM     68  C   UNL A   1      39.242  32.032  34.936  1.00  0.00     0.023 A 
ATOM     69  C   UNL A   1      38.274  31.514  35.820  1.00  0.00     0.012 A 
ATOM     70  C   UNL A   1      39.775  33.317  35.179  1.00  0.00     0.148 A 
ATOM     71  C   UNL A   1      37.839  32.262  36.915  1.00  0.00     0.002 A 
ATOM     72  C   UNL A   1      39.355  34.045  36.289  1.00  0.00     0.091 A 
ATOM     73  F   UNL A   1      40.693  33.797  34.328  1.00  0.00    -0.205 F 
ATOM     74  C   UNL A   1      38.384  33.520  37.155  1.00  0.00     0.022 A 
BRANCH  72  75
ATOM     75  S   UNL A   1      40.078  35.634  36.731  1.00  0.00     0.127 S 
ATOM     76  O   UNL A   1      39.443  35.904  38.018  1.00  0.00    -0.237 OA
ATOM     77  O   UNL A   1      41.505  35.317  36.806  1.00  0.00    -0.237 OA
ATOM     78  O   UNL A   1      39.723  36.535  35.642  1.00  0.00    -0.744 OA
ENDBRANCH  72  75
ENDBRANCH  44  68
BRANCH  56  79
ATOM     79  C   UNL A   1      44.971  28.170  34.182  1.00  0.00     0.023 A 
ATOM     80  C   UNL A   1      46.045  29.055  33.981  1.00  0.00     0.012 A 
ATOM     81  C   UNL A   1      45.044  27.189  35.188  1.00  0.00     0.148 A 
ATOM     82  C   UNL A   1      47.190  28.953  34.767  1.00  0.00     0.002 A 
ATOM     83  C   UNL A   1      46.173  27.118  35.991  1.00  0.00     0.091 A 
ATOM     84  F   UNL A   1      44.015  26.341  35.335  1.00  0.00    -0.205 F 
ATOM     85  C   UNL A   1      47.250  27.995  35.777  1.00  0.00     0.022 A 
BRANCH  83  86
ATOM     86  S   UNL A   1      46.297  25.967  37.364  1.00  0.00     0.127 S 
ATOM     87  O   UNL A   1      45.141  26.345  38.174  1.00  0.00    -0.237 OA
ATOM     88  O   UNL A   1      46.177  24.670  36.694  1.00  0.00    -0.237 OA
ATOM     89  O   UNL A   1      47.599  26.211  37.971  1.00  0.00    -0.744 OA
ENDBRANCH  83  86
ENDBRANCH  56  79
ENDBRANCH  30  31
ENDBRANCH  23  25
ENDBRANCH  22  23
ENDBRANCH  21  22
ENDBRANCH   1  21
TORSDOF 17
ENDMDL
MODEL 2
REMARK VINA RESULT:     -11.7      1.328      1.695
REMARK SMILES C[C@@H](C(=O)OCCOC(=O)c1ccc(-c2c3nc(c(-c4cccc(S(=O)(=O)[O-])c4F)c4ccc([nH]4)c(-c4cccc(S(=O)(=O)[O-])c4F)c4nc(c(-c5cccc(S(=O)(=O)[O-])c5F)c5ccc2[nH]5)C=C4)C=C3)cc1)c1ccc(NC2CCCC2)cc1F
REMARK SMILES IDX 6 1 5 2 3 3 4 4 2 5 1 6 74 7 75 8 85 9 76 10 84 11 86 12
REMARK SMILES IDX 77 13 78 14 79 16 80 17 83 18 81 19 82 20 7 21 8 22 9 23
REMARK SMILES IDX 10 24 11 25 12 26 73 27 13 28 72 29 14 30 15 31 16 32 66 33
REMARK SMILES IDX 17 34 71 35 65 36 67 37 18 38 70 39 64 40 63 41 19 43 51 44
REMARK SMILES IDX 31 45 50 46 32 47 35 48 49 49 68 50 33 51 34 52 48 54 69 55
REMARK SMILES IDX 36 56 20 57 21 58 29 59 22 60 24 61 30 62 23 63 25 64 26 65
REMARK SMILES IDX 27 66 28 67 52 68 53 69 61 70 54 71 56 72 62 73 55 74 57 75
REMARK SMILES IDX 58 76 59 77 60 78 37 79 38 80 46 81 39 82 41 83 47 84 40 85
REMARK SMILES IDX 42 86 43 87 44 88 45 89
REMARK H PARENT 78 15 67 42 35 53
REMARK Flexibility Score: inf
ROOT
ATOM      1  C   UNL A   1      30.224  27.875  24.226  1.00  0.00     0.274 C 
ENDROOT
BRANCH   1   2
ATOM      2  O   UNL A   1      31.166  26.854  24.604  1.00  0.00    -0.462 OA
BRANCH   2   3
ATOM      3  C   UNL A   1      30.861  26.178  25.748  1.00  0.00     0.313 C 
ATOM      4  O   UNL A   1      30.654  26.712  26.831  1.00  0.00    -0.252 OA
BRANCH   3   5
ATOM      5  C   UNL A   1      30.683  24.690  25.480  1.00  0.00     0.129 C 
ATOM      6  C   UNL A   1      30.089  23.997  26.723  1.00  0.00     0.025 C 
BRANCH   5   7
ATOM      7  C   UNL A   1      31.965  23.991  25.060  1.00  0.00     0.002 A 
ATOM      8  C   UNL A   1      33.141  24.019  25.824  1.00  0.00     0.010 A 
ATOM      9  C   UNL A   1      31.936  23.154  23.945  1.00  0.00     0.129 A 
ATOM     10  C   UNL A   1      34.141  23.069  25.615  1.00  0.00     0.026 A 
ATOM     11  C   UNL A   1      32.929  22.213  23.739  1.00  0.00     0.065 A 
ATOM     12  F   UNL A   1      30.875  23.156  23.124  1.00  0.00    -0.207 F 
ATOM     13  C   UNL A   1      33.981  22.087  24.652  1.00  0.00     0.037 A 
BRANCH  13  14
ATOM     14  N   UNL A   1      34.678  20.916  24.637  1.00  0.00    -0.382 N 
ATOM     15  H   UNL A   1      35.605  21.034  24.330  1.00  0.00     0.160 HD
BRANCH  14  16
ATOM     16  C   UNL A   1      34.368  19.507  24.975  1.00  0.00     0.079 C 
ATOM     17  C   UNL A   1      32.483  18.797  25.151  1.00  0.00     0.025 C 
ATOM     18  C   UNL A   1      35.593  17.935  24.622  1.00  0.00     0.025 C 
ATOM     19  C   UNL A   1      32.579  16.803  25.414  1.00  0.00     0.002 C 
ATOM     20  C   UNL A   1      34.455  16.209  24.833  1.00  0.00     0.002 C 
ENDBRANCH  14  16
ENDBRANCH  13  14
ENDBRANCH   5   7
ENDBRANCH   3   5
ENDBRANCH   2   3
ENDBRANCH   1   2
BRANCH   1  21
ATOM     21  C   UNL A   1      31.001  29.168  23.992  1.00  0.00     0.275 C 
BRANCH  21  22
ATOM     22  O   UNL A   1      31.986  29.242  25.031  1.00  0.00    -0.458 OA
BRANCH  22  23
ATOM     23  C   UNL A   1      31.949  30.346  25.809  1.00  0.00     0.338 C 
ATOM     24  O   UNL A   1      31.059  31.171  25.887  1.00  0.00    -0.246 OA
BRANCH  23  25
ATOM     25  C   UNL A   1      33.202  30.341  26.581  1.00  0.00     0.060 A 
ATOM     26  C   UNL A   1      34.027  29.238  26.556  1.00  0.00     0.016 A 
ATOM     27  C   UNL A   1      33.548  31.374  27.403  1.00  0.00     0.016 A 
ATOM     28  C   UNL A   1      35.263  29.204  27.273  1.00  0.00     0.010 A 
ATOM     29  C   UNL A   1      34.790  31.317  28.099  1.00  0.00     0.010 A 
ATOM     30  C   UNL A   1      35.959  30.254  28.115  1.00  0.00    -0.014 A 
BRANCH  30  31
ATOM     31  C   UNL A   1      37.823  30.281  29.149  1.00  0.00     0.031 A 
ATOM     32  C   UNL A   1      39.350  29.340  28.685  1.00  0.00     0.074 A 
ATOM     33  C   UNL A   1      38.408  30.954  30.334  1.00  0.00     0.049 A 
ATOM     34  N   UNL A   1      40.247  28.734  29.463  1.00  0.00    -0.248 NA
ATOM     35  C   UNL A   1      39.650  28.996  27.228  1.00  0.00     0.031 C 
ATOM     36  C   UNL A   1      38.003  32.265  30.964  1.00  0.00     0.029 A 
ATOM     37  N   UNL A   1      39.381  30.560  31.274  1.00  0.00    -0.354 N 
ATOM     38  C   UNL A   1      41.030  27.896  28.630  1.00  0.00     0.074 A 
ATOM     39  C   UNL A   1      40.523  28.021  27.300  1.00  0.00     0.031 C 
ATOM     40  C   UNL A   1      38.434  32.371  32.211  1.00  0.00     0.029 A 
ATOM     41  C   UNL A   1      39.271  31.235  32.497  1.00  0.00     0.049 A 
ATOM     42  H   UNL A   1      40.068  29.878  31.091  1.00  0.00     0.167 HD
ATOM     43  C   UNL A   1      42.096  27.077  28.843  1.00  0.00     0.034 A 
ATOM     44  C   UNL A   1      39.746  31.089  33.754  1.00  0.00     0.034 A 
ATOM     45  C   UNL A   1      42.849  27.006  30.051  1.00  0.00     0.049 A 
ATOM     46  C   UNL A   1      40.929  30.229  34.008  1.00  0.00     0.074 A 
ATOM     47  C   UNL A   1      43.968  26.237  30.324  1.00  0.00     0.029 A 
ATOM     48  N   UNL A   1      42.619  27.798  31.152  1.00  0.00    -0.354 N 
ATOM     49  N   UNL A   1      41.530  29.421  33.183  1.00  0.00    -0.248 NA
ATOM     50  C   UNL A   1      41.604  30.396  35.305  1.00  0.00     0.031 C 
ATOM     51  C   UNL A   1      44.442  26.596  31.589  1.00  0.00     0.029 A 
ATOM     52  C   UNL A   1      43.608  27.577  32.091  1.00  0.00     0.049 A 
ATOM     53  H   UNL A   1      41.867  28.425  31.255  1.00  0.00     0.167 HD
ATOM     54  C   UNL A   1      42.710  29.067  33.813  1.00  0.00     0.074 A 
ATOM     55  C   UNL A   1      42.726  29.718  35.103  1.00  0.00     0.031 C 
ATOM     56  C   UNL A   1      43.698  28.285  33.331  1.00  0.00     0.034 A 
BRANCH  43  57
ATOM     57  C   UNL A   1      42.559  26.202  27.682  1.00  0.00     0.023 A 
ATOM     58  C   UNL A   1      43.414  26.726  26.688  1.00  0.00     0.012 A 
ATOM     59  C   UNL A   1      42.098  24.874  27.557  1.00  0.00     0.148 A 
ATOM     60  C   UNL A   1      43.724  25.981  25.547  1.00  0.00     0.002 A 
ATOM     61  C   UNL A   1      42.465  24.115  26.449  1.00  0.00     0.091 A 
ATOM     62  F   UNL A   1      41.283  24.386  28.503  1.00  0.00    -0.205 F 
ATOM     63  C   UNL A   1      43.253  24.676  25.430  1.00  0.00     0.022 A 
BRANCH  61  64
ATOM     64  S   UNL A   1      41.994  22.391  26.256  1.00  0.00     0.127 S 
ATOM     65  O   UNL A   1      42.653  22.040  24.999  1.00  0.00    -0.237 OA
ATOM     66  O   UNL A   1      42.584  21.774  27.445  1.00  0.00    -0.237 OA
ATOM     67  O   UNL A   1      40.539  22.378  26.230  1.00  0.00    -0.744 OA
ENDBRANCH  61  64
ENDBRANCH  43  57
BRANCH  44  68
ATOM     68  C   UNL A   1      39.180  31.952  34.849  1.00  0.00     0.023 A 
ATOM     69  C   UNL A   1      38.202  31.432  35.720  1.00  0.00     0.012 A 
ATOM     70  C   UNL A   1      39.710  33.237  35.102  1.00  0.00     0.148 A 
ATOM     71  C   UNL A   1      37.753  32.178  36.812  1.00  0.00     0.002 A 
ATOM     72  C   UNL A   1      39.276  33.963  36.208  1.00  0.00     0.091 A 
ATOM     73  F   UNL A   1      40.639  33.719  34.263  1.00  0.00    -0.205 F 
ATOM     74  C   UNL A   1      38.295  33.436  37.061  1.00  0.00     0.022 A 
BRANCH  72  75
ATOM     75  S   UNL A   1      39.993  35.550  36.662  1.00  0.00     0.127 S 
ATOM     76  O   UNL A   1      39.339  35.821  37.939  1.00  0.00    -0.237 OA
ATOM     77  O   UNL A   1      41.419  35.233  36.759  1.00  0.00    -0.237 OA
ATOM     78  O   UNL A   1      39.657  36.453  35.569  1.00  0.00    -0.744 OA
ENDBRANCH  72  75
ENDBRANCH  44  68
BRANCH  56  79
ATOM     79  C   UNL A   1      44.945  28.137  34.137  1.00  0.00     0.023 A 
ATOM     80  C   UNL A   1      45.066  27.070  35.046  1.00  0.00     0.012 A 
ATOM     81  C   UNL A   1      46.027  29.013  33.931  1.00  0.00     0.148 A 
ATOM     82  C   UNL A   1      46.250  26.887  35.754  1.00  0.00     0.002 A 
ATOM     83  C   UNL A   1      47.216  28.802  34.614  1.00  0.00     0.091 A 
ATOM     84  F   UNL A   1      45.870  30.039  33.080  1.00  0.00    -0.205 F 
ATOM     85  C   UNL A   1      47.327  27.743  35.530  1.00  0.00     0.022 A 
BRANCH  83  86
ATOM     86  S   UNL A   1      48.674  29.809  34.324  1.00  0.00     0.127 S 
ATOM     87  O   UNL A   1      49.673  29.130  35.147  1.00  0.00    -0.237 OA
ATOM     88  O   UNL A   1      48.870  29.666  32.880  1.00  0.00    -0.237 OA
ATOM     89  O   UNL A   1      48.318  31.156  34.751  1.00  0.00    -0.744 OA
ENDBRANCH  83  86
ENDBRANCH  56  79
ENDBRANCH  30  31
ENDBRANCH  23  25
ENDBRANCH  22  23
ENDBRANCH  21  22
ENDBRANCH   1  21
TORSDOF 17
ENDMDL
MODEL 3
REMARK VINA RESULT:     -11.6      2.675      8.969
REMARK SMILES C[C@@H](C(=O)OCCOC(=O)c1ccc(-c2c3nc(c(-c4cccc(S(=O)(=O)[O-])c4F)c4ccc([nH]4)c(-c4cccc(S(=O)(=O)[O-])c4F)c4nc(c(-c5cccc(S(=O)(=O)[O-])c5F)c5ccc2[nH]5)C=C4)C=C3)cc1)c1ccc(NC2CCCC2)cc1F
REMARK SMILES IDX 6 1 5 2 3 3 4 4 2 5 1 6 74 7 75 8 85 9 76 10 84 11 86 12
REMARK SMILES IDX 77 13 78 14 79 16 80 17 83 18 81 19 82 20 7 21 8 22 9 23
REMARK SMILES IDX 10 24 11 25 12 26 73 27 13 28 72 29 14 30 15 31 16 32 66 33
REMARK SMILES IDX 17 34 71 35 65 36 67 37 18 38 70 39 64 40 63 41 19 43 51 44
REMARK SMILES IDX 31 45 50 46 32 47 35 48 49 49 68 50 33 51 34 52 48 54 69 55
REMARK SMILES IDX 36 56 20 57 21 58 29 59 22 60 24 61 30 62 23 63 25 64 26 65
REMARK SMILES IDX 27 66 28 67 52 68 53 69 61 70 54 71 56 72 62 73 55 74 57 75
REMARK SMILES IDX 58 76 59 77 60 78 37 79 38 80 46 81 39 82 41 83 47 84 40 85
REMARK SMILES IDX 42 86 43 87 44 88 45 89
REMARK H PARENT 78 15 67 42 35 53
REMARK Flexibility Score: inf
ROOT
ATOM      1  C   UNL A   1      43.072  19.435  25.848  1.00  0.00     0.274 C 
ENDROOT
BRANCH   1   2
ATOM      2  O   UNL A   1      41.833  20.105  25.549  1.00  0.00    -0.462 OA
BRANCH   2   3
ATOM      3  C   UNL A   1      41.066  20.419  26.632  1.00  0.00     0.313 C 
ATOM      4  O   UNL A   1      40.836  19.653  27.559  1.00  0.00    -0.252 OA
BRANCH   3   5
ATOM      5  C   UNL A   1      40.644  21.881  26.604  1.00  0.00     0.129 C 
ATOM      6  C   UNL A   1      40.719  22.480  28.024  1.00  0.00     0.025 C 
BRANCH   5   7
ATOM      7  C   UNL A   1      39.258  22.102  26.022  1.00  0.00     0.002 A 
ATOM      8  C   UNL A   1      38.459  21.061  25.526  1.00  0.00     0.010 A 
ATOM      9  C   UNL A   1      38.685  23.369  26.122  1.00  0.00     0.129 A 
ATOM     10  C   UNL A   1      37.083  21.240  25.373  1.00  0.00     0.026 A 
ATOM     11  C   UNL A   1      37.321  23.544  25.970  1.00  0.00     0.065 A 
ATOM     12  F   UNL A   1      39.428  24.420  26.499  1.00  0.00    -0.207 F 
ATOM     13  C   UNL A   1      36.494  22.446  25.713  1.00  0.00     0.037 A 
BRANCH  13  14
ATOM     14  N   UNL A   1      35.166  22.594  25.979  1.00  0.00    -0.382 N 
ATOM     15  H   UNL A   1      34.723  21.737  26.173  1.00  0.00     0.160 HD
BRANCH  14  16
ATOM     16  C   UNL A   1      34.231  23.743  26.043  1.00  0.00     0.079 C 
ATOM     17  C   UNL A   1      34.299  25.303  24.760  1.00  0.00     0.025 C 
ATOM     18  C   UNL A   1      32.374  23.681  26.847  1.00  0.00     0.025 C 
ATOM     19  C   UNL A   1      32.715  26.492  25.122  1.00  0.00     0.002 C 
ATOM     20  C   UNL A   1      31.375  25.391  26.217  1.00  0.00     0.002 C 
ENDBRANCH  14  16
ENDBRANCH  13  14
ENDBRANCH   5   7
ENDBRANCH   3   5
ENDBRANCH   2   3
ENDBRANCH   1   2
BRANCH   1  21
ATOM     21  C   UNL A   1      44.121  19.919  24.850  1.00  0.00     0.275 C 
BRANCH  21  22
ATOM     22  O   UNL A   1      44.557  21.203  25.313  1.00  0.00    -0.458 OA
BRANCH  22  23
ATOM     23  C   UNL A   1      44.238  22.258  24.531  1.00  0.00     0.338 C 
ATOM     24  O   UNL A   1      44.292  22.327  23.318  1.00  0.00    -0.246 OA
BRANCH  23  25
ATOM     25  C   UNL A   1      43.774  23.315  25.443  1.00  0.00     0.060 A 
ATOM     26  C   UNL A   1      44.121  23.282  26.776  1.00  0.00     0.016 A 
ATOM     27  C   UNL A   1      42.929  24.304  25.031  1.00  0.00     0.016 A 
ATOM     28  C   UNL A   1      43.710  24.303  27.688  1.00  0.00     0.010 A 
ATOM     29  C   UNL A   1      42.542  25.313  25.960  1.00  0.00     0.010 A 
ATOM     30  C   UNL A   1      42.922  25.578  27.471  1.00  0.00    -0.014 A 
BRANCH  30  31
ATOM     31  C   UNL A   1      42.338  27.161  28.774  1.00  0.00     0.031 A 
ATOM     32  C   UNL A   1      43.130  27.603  30.390  1.00  0.00     0.074 A 
ATOM     33  C   UNL A   1      41.320  28.240  28.799  1.00  0.00     0.049 A 
ATOM     34  N   UNL A   1      42.573  28.013  31.528  1.00  0.00    -0.248 NA
ATOM     35  C   UNL A   1      44.616  27.346  30.633  1.00  0.00     0.031 C 
ATOM     36  C   UNL A   1      40.622  28.899  27.634  1.00  0.00     0.029 A 
ATOM     37  N   UNL A   1      40.623  28.872  29.848  1.00  0.00    -0.354 N 
ATOM     38  C   UNL A   1      43.557  27.905  32.543  1.00  0.00     0.074 A 
ATOM     39  C   UNL A   1      44.738  27.375  31.937  1.00  0.00     0.031 C 
ATOM     40  C   UNL A   1      39.506  29.507  28.003  1.00  0.00     0.029 A 
ATOM     41  C   UNL A   1      39.411  29.443  29.438  1.00  0.00     0.049 A 
ATOM     42  H   UNL A   1      40.954  28.908  30.775  1.00  0.00     0.167 HD
ATOM     43  C   UNL A   1      43.587  28.204  33.870  1.00  0.00     0.034 A 
ATOM     44  C   UNL A   1      38.293  29.923  30.029  1.00  0.00     0.034 A 
ATOM     45  C   UNL A   1      42.581  28.929  34.572  1.00  0.00     0.049 A 
ATOM     46  C   UNL A   1      38.310  30.289  31.467  1.00  0.00     0.074 A 
ATOM     47  C   UNL A   1      42.564  29.310  35.903  1.00  0.00     0.029 A 
ATOM     48  N   UNL A   1      41.460  29.465  33.980  1.00  0.00    -0.354 N 
ATOM     49  N   UNL A   1      39.245  30.066  32.345  1.00  0.00    -0.248 NA
ATOM     50  C   UNL A   1      37.200  31.126  31.951  1.00  0.00     0.031 C 
ATOM     51  C   UNL A   1      41.443  30.117  36.109  1.00  0.00     0.029 A 
ATOM     52  C   UNL A   1      40.769  30.222  34.907  1.00  0.00     0.049 A 
ATOM     53  H   UNL A   1      41.193  29.331  33.042  1.00  0.00     0.167 HD
ATOM     54  C   UNL A   1      38.897  30.823  33.450  1.00  0.00     0.074 A 
ATOM     55  C   UNL A   1      37.648  31.484  33.147  1.00  0.00     0.031 C 
ATOM     56  C   UNL A   1      39.586  30.966  34.601  1.00  0.00     0.034 A 
BRANCH  43  57
ATOM     57  C   UNL A   1      44.818  27.776  34.664  1.00  0.00     0.023 A 
ATOM     58  C   UNL A   1      45.935  28.633  34.769  1.00  0.00     0.012 A 
ATOM     59  C   UNL A   1      44.878  26.498  35.260  1.00  0.00     0.148 A 
ATOM     60  C   UNL A   1      47.119  28.193  35.367  1.00  0.00     0.002 A 
ATOM     61  C   UNL A   1      46.040  26.092  35.912  1.00  0.00     0.091 A 
ATOM     62  F   UNL A   1      43.814  25.689  35.152  1.00  0.00    -0.205 F 
ATOM     63  C   UNL A   1      47.169  26.926  35.941  1.00  0.00     0.022 A 
BRANCH  61  64
ATOM     64  S   UNL A   1      46.169  24.519  36.772  1.00  0.00     0.127 S 
ATOM     65  O   UNL A   1      47.237  24.790  37.732  1.00  0.00    -0.237 OA
ATOM     66  O   UNL A   1      44.838  24.380  37.366  1.00  0.00    -0.237 OA
ATOM     67  O   UNL A   1      46.477  23.531  35.748  1.00  0.00    -0.744 OA
ENDBRANCH  61  64
ENDBRANCH  43  57
BRANCH  44  68
ATOM     68  C   UNL A   1      37.103  30.255  29.170  1.00  0.00     0.023 A 
ATOM     69  C   UNL A   1      36.339  29.219  28.596  1.00  0.00     0.012 A 
ATOM     70  C   UNL A   1      36.660  31.589  29.036  1.00  0.00     0.148 A 
ATOM     71  C   UNL A   1      35.166  29.506  27.895  1.00  0.00     0.002 A 
ATOM     72  C   UNL A   1      35.474  31.864  28.359  1.00  0.00     0.091 A 
ATOM     73  F   UNL A   1      37.399  32.564  29.586  1.00  0.00    -0.205 F 
ATOM     74  C   UNL A   1      34.729  30.823  27.785  1.00  0.00     0.022 A 
BRANCH  72  75
ATOM     75  S   UNL A   1      34.785  33.523  28.254  1.00  0.00     0.127 S 
ATOM     76  O   UNL A   1      33.390  33.248  27.921  1.00  0.00    -0.237 OA
ATOM     77  O   UNL A   1      35.002  34.037  29.608  1.00  0.00    -0.237 OA
ATOM     78  O   UNL A   1      35.564  34.201  27.227  1.00  0.00    -0.744 OA
ENDBRANCH  72  75
ENDBRANCH  44  68
BRANCH  56  79
ATOM     79  C   UNL A   1      39.083  31.937  35.616  1.00  0.00     0.023 A 
ATOM     80  C   UNL A   1      38.131  31.524  36.564  1.00  0.00     0.012 A 
ATOM     81  C   UNL A   1      39.619  33.236  35.675  1.00  0.00     0.148 A 
ATOM     82  C   UNL A   1      37.704  32.405  37.555  1.00  0.00     0.002 A 
ATOM     83  C   UNL A   1      39.216  34.097  36.686  1.00  0.00     0.091 A 
ATOM     84  F   UNL A   1      40.503  33.611  34.737  1.00  0.00    -0.205 F 
ATOM     85  C   UNL A   1      38.254  33.684  37.623  1.00  0.00     0.022 A 
BRANCH  83  86
ATOM     86  S   UNL A   1      39.932  35.730  36.892  1.00  0.00     0.127 S 
ATOM     87  O   UNL A   1      39.244  36.207  38.091  1.00  0.00    -0.237 OA
ATOM     88  O   UNL A   1      41.352  35.425  37.082  1.00  0.00    -0.237 OA
ATOM     89  O   UNL A   1      39.632  36.453  35.664  1.00  0.00    -0.744 OA
ENDBRANCH  83  86
ENDBRANCH  56  79
ENDBRANCH  30  31
ENDBRANCH  23  25
ENDBRANCH  22  23
ENDBRANCH  21  22
ENDBRANCH   1  21
TORSDOF 17
ENDMDL
