MODEL 1
REMARK VINA RESULT:     -12.2      0.000      0.000
REMARK SMILES O=C(OCCOC(=O)[C@H]1Cc2[nH]cnc2CN1C(=O)C[C@]12C[C@H]3C[C@H](C[C@H](C3)C1)C2)c1ccc(-c2c3nc(c(-c4cccc(S(=O)(=O)[O-])c4F)c4ccc([nH]4)c(-c4cccc(S(=O)(=O)[O-])c4F)c4nc(c(-c5cccc(S(=O)(=O)[O-])c5F)c5ccc2[nH]5)C=C4)C=C3)cc1
REMARK SMILES IDX 4 1 3 2 2 3 1 4 31 5 32 6 93 7 33 8 92 9 34 10 35 11 36 12
REMARK SMILES IDX 86 13 37 14 91 15 85 16 87 17 38 18 90 19 84 20 83 21 39 23
REMARK SMILES IDX 71 24 51 25 70 26 52 27 55 28 69 29 88 30 53 31 54 32 68 34
REMARK SMILES IDX 89 35 56 36 40 37 41 38 49 39 42 40 44 41 50 42 43 43 45 44
REMARK SMILES IDX 46 45 47 46 48 47 72 48 73 49 81 50 74 51 76 52 82 53 75 54
REMARK SMILES IDX 77 55 78 56 79 57 80 58 57 59 58 60 66 61 59 62 61 63 67 64
REMARK SMILES IDX 60 65 62 66 63 67 64 68 65 69 5 70 6 71 7 72 8 73 9 74 10 75
REMARK SMILES IDX 17 76 11 77 16 78 12 79 15 80 13 81 14 83 18 84 19 85 20 86
REMARK SMILES IDX 21 87 22 88 29 89 30 90 23 91 27 92 25 93 24 94 28 95 26 96
REMARK H PARENT 87 22 55 33 12 82
REMARK Flexibility Score: inf
ROOT
ATOM      1  C   UNL A   1      38.602  20.825  25.667  1.00  0.00     0.275 C 
ENDROOT
BRANCH   1   2
ATOM      2  O   UNL A   1      39.611  19.807  25.517  1.00  0.00    -0.458 OA
BRANCH   2   3
ATOM      3  C   UNL A   1      40.915  19.820  25.868  1.00  0.00     0.338 C 
ATOM      4  O   UNL A   1      41.621  18.841  25.631  1.00  0.00    -0.246 OA
BRANCH   3   5
ATOM      5  C   UNL A   1      41.503  20.916  26.670  1.00  0.00     0.060 A 
ATOM      6  C   UNL A   1      41.593  20.951  28.064  1.00  0.00     0.016 A 
ATOM      7  C   UNL A   1      41.901  22.039  25.929  1.00  0.00     0.016 A 
ATOM      8  C   UNL A   1      42.001  22.117  28.699  1.00  0.00     0.010 A 
ATOM      9  C   UNL A   1      42.427  23.150  26.546  1.00  0.00     0.010 A 
ATOM     10  C   UNL A   1      42.330  23.231  27.927  1.00  0.00    -0.014 A 
BRANCH  10  11
ATOM     11  C   UNL A   1      42.386  24.546  28.545  1.00  0.00     0.031 A 
ATOM     12  C   UNL A   1      41.225  25.432  28.297  1.00  0.00     0.074 A 
ATOM     13  C   UNL A   1      43.386  24.841  29.405  1.00  0.00     0.049 A 
ATOM     14  N   UNL A   1      41.119  26.424  27.471  1.00  0.00    -0.248 NA
ATOM     15  C   UNL A   1      39.958  25.049  28.925  1.00  0.00     0.031 C 
ATOM     16  C   UNL A   1      44.425  23.956  29.955  1.00  0.00     0.029 A 
ATOM     17  N   UNL A   1      43.589  25.988  30.092  1.00  0.00    -0.354 N 
ATOM     18  C   UNL A   1      39.832  26.929  27.680  1.00  0.00     0.074 A 
ATOM     19  C   UNL A   1      39.099  25.878  28.331  1.00  0.00     0.031 C 
ATOM     20  C   UNL A   1      44.932  24.506  31.080  1.00  0.00     0.029 A 
ATOM     21  C   UNL A   1      44.397  25.845  31.213  1.00  0.00     0.049 A 
ATOM     22  H   UNL A   1      43.199  26.850  29.821  1.00  0.00     0.167 HD
ATOM     23  C   UNL A   1      39.554  28.263  27.607  1.00  0.00     0.034 A 
ATOM     24  C   UNL A   1      44.538  26.749  32.211  1.00  0.00     0.034 A 
ATOM     25  C   UNL A   1      40.650  28.995  27.024  1.00  0.00     0.049 A 
ATOM     26  C   UNL A   1      44.108  28.059  31.660  1.00  0.00     0.074 A 
ATOM     27  C   UNL A   1      41.323  28.965  25.820  1.00  0.00     0.029 A 
ATOM     28  N   UNL A   1      41.477  29.664  27.898  1.00  0.00    -0.354 N 
ATOM     29  N   UNL A   1      44.721  28.650  30.669  1.00  0.00    -0.248 NA
ATOM     30  C   UNL A   1      42.722  28.453  31.860  1.00  0.00     0.031 C 
ATOM     31  C   UNL A   1      42.695  29.149  26.171  1.00  0.00     0.029 A 
ATOM     32  C   UNL A   1      42.767  29.361  27.550  1.00  0.00     0.049 A 
ATOM     33  H   UNL A   1      41.193  30.250  28.636  1.00  0.00     0.167 HD
ATOM     34  C   UNL A   1      43.699  29.130  29.858  1.00  0.00     0.074 A 
ATOM     35  C   UNL A   1      42.495  29.064  30.692  1.00  0.00     0.031 C 
ATOM     36  C   UNL A   1      43.852  29.241  28.503  1.00  0.00     0.034 A 
BRANCH  23  37
ATOM     37  C   UNL A   1      38.479  28.984  28.399  1.00  0.00     0.023 A 
ATOM     38  C   UNL A   1      37.625  29.855  27.683  1.00  0.00     0.012 A 
ATOM     39  C   UNL A   1      38.429  29.070  29.811  1.00  0.00     0.148 A 
ATOM     40  C   UNL A   1      36.812  30.792  28.334  1.00  0.00     0.002 A 
ATOM     41  C   UNL A   1      37.563  29.946  30.453  1.00  0.00     0.091 A 
ATOM     42  F   UNL A   1      39.318  28.409  30.556  1.00  0.00    -0.205 F 
ATOM     43  C   UNL A   1      36.775  30.834  29.720  1.00  0.00     0.022 A 
BRANCH  41  44
ATOM     44  S   UNL A   1      37.447  30.014  32.247  1.00  0.00     0.127 S 
ATOM     45  O   UNL A   1      36.333  30.940  32.429  1.00  0.00    -0.237 OA
ATOM     46  O   UNL A   1      37.156  28.619  32.580  1.00  0.00    -0.237 OA
ATOM     47  O   UNL A   1      38.751  30.477  32.700  1.00  0.00    -0.744 OA
ENDBRANCH  41  44
ENDBRANCH  23  37
BRANCH  24  48
ATOM     48  C   UNL A   1      44.678  26.478  33.661  1.00  0.00     0.023 A 
ATOM     49  C   UNL A   1      45.934  26.598  34.285  1.00  0.00     0.012 A 
ATOM     50  C   UNL A   1      43.534  26.346  34.486  1.00  0.00     0.148 A 
ATOM     51  C   UNL A   1      46.046  26.602  35.682  1.00  0.00     0.002 A 
ATOM     52  C   UNL A   1      43.653  26.340  35.873  1.00  0.00     0.091 A 
ATOM     53  F   UNL A   1      42.325  26.314  33.910  1.00  0.00    -0.205 F 
ATOM     54  C   UNL A   1      44.908  26.480  36.475  1.00  0.00     0.022 A 
BRANCH  52  55
ATOM     55  S   UNL A   1      42.227  26.195  36.962  1.00  0.00     0.127 S 
ATOM     56  O   UNL A   1      42.841  26.347  38.282  1.00  0.00    -0.237 OA
ATOM     57  O   UNL A   1      41.408  27.326  36.538  1.00  0.00    -0.237 OA
ATOM     58  O   UNL A   1      41.670  24.874  36.711  1.00  0.00    -0.744 OA
ENDBRANCH  52  55
ENDBRANCH  24  48
BRANCH  36  59
ATOM     59  C   UNL A   1      45.220  28.966  27.913  1.00  0.00     0.023 A 
ATOM     60  C   UNL A   1      46.281  29.893  28.016  1.00  0.00     0.012 A 
ATOM     61  C   UNL A   1      45.502  27.679  27.434  1.00  0.00     0.148 A 
ATOM     62  C   UNL A   1      47.583  29.555  27.633  1.00  0.00     0.002 A 
ATOM     63  C   UNL A   1      46.805  27.329  27.092  1.00  0.00     0.091 A 
ATOM     64  F   UNL A   1      44.493  26.798  27.363  1.00  0.00    -0.205 F 
ATOM     65  C   UNL A   1      47.847  28.267  27.180  1.00  0.00     0.022 A 
BRANCH  63  66
ATOM     66  S   UNL A   1      47.241  25.653  26.626  1.00  0.00     0.127 S 
ATOM     67  O   UNL A   1      48.659  25.786  26.299  1.00  0.00    -0.237 OA
ATOM     68  O   UNL A   1      46.964  24.906  27.854  1.00  0.00    -0.237 OA
ATOM     69  O   UNL A   1      46.372  25.306  25.509  1.00  0.00    -0.744 OA
ENDBRANCH  63  66
ENDBRANCH  36  59
ENDBRANCH  10  11
ENDBRANCH   3   5
ENDBRANCH   2   3
ENDBRANCH   1   2
BRANCH   1  70
ATOM     70  C   UNL A   1      37.417  20.719  24.696  1.00  0.00     0.274 C 
BRANCH  70  71
ATOM     71  O   UNL A   1      37.158  21.903  23.895  1.00  0.00    -0.461 OA
BRANCH  71  72
ATOM     72  C   UNL A   1      36.471  22.856  24.580  1.00  0.00     0.329 C 
ATOM     73  O   UNL A   1      37.086  23.795  25.077  1.00  0.00    -0.250 OA
BRANCH  72  74
ATOM     74  C   UNL A   1      34.964  22.592  24.753  1.00  0.00     0.201 C 
ATOM     75  C   UNL A   1      34.438  22.919  26.211  1.00  0.00     0.093 C 
ATOM     76  N   UNL A   1      33.962  23.014  23.682  1.00  0.00    -0.322 N 
ATOM     77  C   UNL A   1      32.940  22.928  26.229  1.00  0.00     0.042 A 
ATOM     78  C   UNL A   1      32.685  22.268  23.811  1.00  0.00     0.178 C 
ATOM     79  N   UNL A   1      32.071  23.334  27.203  1.00  0.00    -0.348 N 
ATOM     80  C   UNL A   1      32.138  22.622  25.150  1.00  0.00     0.081 A 
ATOM     81  C   UNL A   1      30.804  23.195  26.697  1.00  0.00     0.197 A 
ATOM     82  H   UNL A   1      32.311  23.664  28.099  1.00  0.00     0.167 HD
ATOM     83  N   UNL A   1      30.818  22.753  25.462  1.00  0.00    -0.240 NA
BRANCH  76  84
ATOM     84  C   UNL A   1      33.812  24.217  22.983  1.00  0.00     0.224 C 
ATOM     85  O   UNL A   1      33.321  24.236  21.847  1.00  0.00    -0.275 OA
BRANCH  84  86
ATOM     86  C   UNL A   1      34.325  25.553  23.488  1.00  0.00     0.107 C 
BRANCH  86  87
ATOM     87  C   UNL A   1      33.366  26.462  24.269  1.00  0.00    -0.020 C 
ATOM     88  C   UNL A   1      33.706  26.458  25.777  1.00  0.00     0.011 C 
ATOM     89  C   UNL A   1      31.915  25.919  24.121  1.00  0.00     0.011 C 
ATOM     90  C   UNL A   1      33.419  27.923  23.794  1.00  0.00     0.011 C 
ATOM     91  C   UNL A   1      32.724  27.366  26.545  1.00  0.00    -0.010 C 
ATOM     92  C   UNL A   1      30.922  26.826  24.862  1.00  0.00    -0.010 C 
ATOM     93  C   UNL A   1      32.426  28.814  24.522  1.00  0.00    -0.010 C 
ATOM     94  C   UNL A   1      32.806  28.802  26.001  1.00  0.00     0.007 C 
ATOM     95  C   UNL A   1      31.288  26.848  26.353  1.00  0.00     0.007 C 
ATOM     96  C   UNL A   1      31.015  28.250  24.295  1.00  0.00     0.007 C 
ENDBRANCH  86  87
ENDBRANCH  84  86
ENDBRANCH  76  84
ENDBRANCH  72  74
ENDBRANCH  71  72
ENDBRANCH  70  71
ENDBRANCH   1  70
TORSDOF 17
ENDMDL
MODEL 2
REMARK VINA RESULT:     -12.1      2.841      7.683
REMARK SMILES O=C(OCCOC(=O)[C@H]1Cc2[nH]cnc2CN1C(=O)C[C@]12C[C@H]3C[C@H](C[C@H](C3)C1)C2)c1ccc(-c2c3nc(c(-c4cccc(S(=O)(=O)[O-])c4F)c4ccc([nH]4)c(-c4cccc(S(=O)(=O)[O-])c4F)c4nc(c(-c5cccc(S(=O)(=O)[O-])c5F)c5ccc2[nH]5)C=C4)C=C3)cc1
REMARK SMILES IDX 4 1 3 2 2 3 1 4 31 5 32 6 93 7 33 8 92 9 34 10 35 11 36 12
REMARK SMILES IDX 86 13 37 14 91 15 85 16 87 17 38 18 90 19 84 20 83 21 39 23
REMARK SMILES IDX 71 24 51 25 70 26 52 27 55 28 69 29 88 30 53 31 54 32 68 34
REMARK SMILES IDX 89 35 56 36 40 37 41 38 49 39 42 40 44 41 50 42 43 43 45 44
REMARK SMILES IDX 46 45 47 46 48 47 72 48 73 49 81 50 74 51 76 52 82 53 75 54
REMARK SMILES IDX 77 55 78 56 79 57 80 58 57 59 58 60 66 61 59 62 61 63 67 64
REMARK SMILES IDX 60 65 62 66 63 67 64 68 65 69 5 70 6 71 7 72 8 73 9 74 10 75
REMARK SMILES IDX 17 76 11 77 16 78 12 79 15 80 13 81 14 83 18 84 19 85 20 86
REMARK SMILES IDX 21 87 22 88 29 89 30 90 23 91 27 92 25 93 24 94 28 95 26 96
REMARK H PARENT 87 22 55 33 12 82
REMARK Flexibility Score: inf
ROOT
ATOM      1  C   UNL A   1      33.875  31.367  27.357  1.00  0.00     0.275 C 
ENDROOT
BRANCH   1   2
ATOM      2  O   UNL A   1      33.966  31.828  28.719  1.00  0.00    -0.458 OA
BRANCH   2   3
ATOM      3  C   UNL A   1      35.021  31.838  29.563  1.00  0.00     0.338 C 
ATOM      4  O   UNL A   1      35.025  32.602  30.527  1.00  0.00    -0.246 OA
BRANCH   3   5
ATOM      5  C   UNL A   1      36.255  31.068  29.288  1.00  0.00     0.060 A 
ATOM      6  C   UNL A   1      36.338  29.682  29.142  1.00  0.00     0.016 A 
ATOM      7  C   UNL A   1      37.433  31.830  29.280  1.00  0.00     0.016 A 
ATOM      8  C   UNL A   1      37.583  29.069  29.067  1.00  0.00     0.010 A 
ATOM      9  C   UNL A   1      38.660  31.242  29.077  1.00  0.00     0.010 A 
ATOM     10  C   UNL A   1      38.731  29.858  29.123  1.00  0.00    -0.014 A 
BRANCH  10  11
ATOM     11  C   UNL A   1      40.013  29.244  29.429  1.00  0.00     0.031 A 
ATOM     12  C   UNL A   1      40.419  29.259  30.855  1.00  0.00     0.074 A 
ATOM     13  C   UNL A   1      40.688  28.583  28.464  1.00  0.00     0.049 A 
ATOM     14  N   UNL A   1      41.262  30.038  31.454  1.00  0.00    -0.248 NA
ATOM     15  C   UNL A   1      39.648  28.410  31.767  1.00  0.00     0.031 C 
ATOM     16  C   UNL A   1      40.258  28.249  27.097  1.00  0.00     0.029 A 
ATOM     17  N   UNL A   1      41.869  27.932  28.563  1.00  0.00    -0.354 N 
ATOM     18  C   UNL A   1      41.292  29.585  32.776  1.00  0.00     0.074 A 
ATOM     19  C   UNL A   1      40.088  28.822  32.957  1.00  0.00     0.031 C 
ATOM     20  C   UNL A   1      41.012  27.231  26.626  1.00  0.00     0.029 A 
ATOM     21  C   UNL A   1      42.081  26.983  27.570  1.00  0.00     0.049 A 
ATOM     22  H   UNL A   1      42.522  28.114  29.277  1.00  0.00     0.167 HD
ATOM     23  C   UNL A   1      42.436  29.587  33.519  1.00  0.00     0.034 A 
ATOM     24  C   UNL A   1      43.030  26.018  27.583  1.00  0.00     0.034 A 
ATOM     25  C   UNL A   1      43.475  30.356  32.880  1.00  0.00     0.049 A 
ATOM     26  C   UNL A   1      44.073  26.461  28.544  1.00  0.00     0.074 A 
ATOM     27  C   UNL A   1      43.618  31.664  32.468  1.00  0.00     0.029 A 
ATOM     28  N   UNL A   1      44.439  29.643  32.204  1.00  0.00    -0.354 N 
ATOM     29  N   UNL A   1      44.786  27.543  28.370  1.00  0.00    -0.248 NA
ATOM     30  C   UNL A   1      43.963  26.001  29.919  1.00  0.00     0.031 C 
ATOM     31  C   UNL A   1      44.293  31.574  31.213  1.00  0.00     0.029 A 
ATOM     32  C   UNL A   1      44.591  30.230  30.975  1.00  0.00     0.049 A 
ATOM     33  H   UNL A   1      44.927  28.858  32.540  1.00  0.00     0.167 HD
ATOM     34  C   UNL A   1      44.830  28.141  29.624  1.00  0.00     0.074 A 
ATOM     35  C   UNL A   1      44.390  27.098  30.554  1.00  0.00     0.031 C 
ATOM     36  C   UNL A   1      44.914  29.499  29.766  1.00  0.00     0.034 A 
BRANCH  23  37
ATOM     37  C   UNL A   1      42.775  28.598  34.620  1.00  0.00     0.023 A 
ATOM     38  C   UNL A   1      43.249  29.130  35.842  1.00  0.00     0.012 A 
ATOM     39  C   UNL A   1      42.914  27.201  34.443  1.00  0.00     0.148 A 
ATOM     40  C   UNL A   1      43.874  28.327  36.804  1.00  0.00     0.002 A 
ATOM     41  C   UNL A   1      43.463  26.396  35.434  1.00  0.00     0.091 A 
ATOM     42  F   UNL A   1      42.650  26.645  33.259  1.00  0.00    -0.205 F 
ATOM     43  C   UNL A   1      43.975  26.958  36.604  1.00  0.00     0.022 A 
BRANCH  41  44
ATOM     44  S   UNL A   1      43.583  24.612  35.243  1.00  0.00     0.127 S 
ATOM     45  O   UNL A   1      44.416  24.505  34.050  1.00  0.00    -0.237 OA
ATOM     46  O   UNL A   1      44.236  24.222  36.493  1.00  0.00    -0.237 OA
ATOM     47  O   UNL A   1      42.210  24.145  35.116  1.00  0.00    -0.744 OA
ENDBRANCH  41  44
ENDBRANCH  23  37
BRANCH  24  48
ATOM     48  C   UNL A   1      42.906  24.624  27.098  1.00  0.00     0.023 A 
ATOM     49  C   UNL A   1      41.671  23.954  27.179  1.00  0.00     0.012 A 
ATOM     50  C   UNL A   1      43.935  24.031  26.326  1.00  0.00     0.148 A 
ATOM     51  C   UNL A   1      41.462  22.746  26.501  1.00  0.00     0.002 A 
ATOM     52  C   UNL A   1      43.725  22.825  25.664  1.00  0.00     0.091 A 
ATOM     53  F   UNL A   1      45.089  24.696  26.173  1.00  0.00    -0.205 F 
ATOM     54  C   UNL A   1      42.484  22.184  25.740  1.00  0.00     0.022 A 
BRANCH  52  55
ATOM     55  S   UNL A   1      44.995  22.045  24.655  1.00  0.00     0.127 S 
ATOM     56  O   UNL A   1      44.346  20.789  24.273  1.00  0.00    -0.237 OA
ATOM     57  O   UNL A   1      45.148  23.006  23.567  1.00  0.00    -0.237 OA
ATOM     58  O   UNL A   1      46.148  21.880  25.528  1.00  0.00    -0.744 OA
ENDBRANCH  52  55
ENDBRANCH  24  48
BRANCH  36  59
ATOM     59  C   UNL A   1      45.107  30.338  28.520  1.00  0.00     0.023 A 
ATOM     60  C   UNL A   1      44.018  30.774  27.733  1.00  0.00     0.012 A 
ATOM     61  C   UNL A   1      46.377  30.870  28.253  1.00  0.00     0.148 A 
ATOM     62  C   UNL A   1      44.191  31.696  26.696  1.00  0.00     0.002 A 
ATOM     63  C   UNL A   1      46.543  31.818  27.248  1.00  0.00     0.091 A 
ATOM     64  F   UNL A   1      47.401  30.469  29.021  1.00  0.00    -0.205 F 
ATOM     65  C   UNL A   1      45.454  32.226  26.460  1.00  0.00     0.022 A 
BRANCH  63  66
ATOM     66  S   UNL A   1      48.112  32.640  26.975  1.00  0.00     0.127 S 
ATOM     67  O   UNL A   1      48.960  31.538  26.525  1.00  0.00    -0.237 OA
ATOM     68  O   UNL A   1      47.777  33.617  25.938  1.00  0.00    -0.237 OA
ATOM     69  O   UNL A   1      48.485  33.234  28.254  1.00  0.00    -0.744 OA
ENDBRANCH  63  66
ENDBRANCH  36  59
ENDBRANCH  10  11
ENDBRANCH   3   5
ENDBRANCH   2   3
ENDBRANCH   1   2
BRANCH   1  70
ATOM     70  C   UNL A   1      32.715  30.402  27.069  1.00  0.00     0.274 C 
BRANCH  70  71
ATOM     71  O   UNL A   1      33.049  28.990  27.123  1.00  0.00    -0.461 OA
BRANCH  71  72
ATOM     72  C   UNL A   1      31.952  28.191  27.025  1.00  0.00     0.329 C 
ATOM     73  O   UNL A   1      31.309  27.932  28.038  1.00  0.00    -0.250 OA
BRANCH  72  74
ATOM     74  C   UNL A   1      31.687  27.597  25.629  1.00  0.00     0.201 C 
ATOM     75  C   UNL A   1      32.908  27.774  24.635  1.00  0.00     0.093 C 
ATOM     76  N   UNL A   1      31.018  26.235  25.467  1.00  0.00    -0.322 N 
ATOM     77  C   UNL A   1      32.707  26.927  23.417  1.00  0.00     0.042 A 
ATOM     78  C   UNL A   1      30.440  26.074  24.109  1.00  0.00     0.178 C 
ATOM     79  N   UNL A   1      33.569  26.626  22.399  1.00  0.00    -0.348 N 
ATOM     80  C   UNL A   1      31.587  26.165  23.164  1.00  0.00     0.081 A 
ATOM     81  C   UNL A   1      32.916  25.760  21.560  1.00  0.00     0.197 A 
ATOM     82  H   UNL A   1      34.487  26.967  22.290  1.00  0.00     0.167 HD
ATOM     83  N   UNL A   1      31.711  25.477  21.993  1.00  0.00    -0.240 NA
BRANCH  76  84
ATOM     84  C   UNL A   1      31.260  25.009  26.096  1.00  0.00     0.224 C 
ATOM     85  O   UNL A   1      30.354  24.178  26.241  1.00  0.00    -0.275 OA
BRANCH  84  86
ATOM     86  C   UNL A   1      32.583  24.640  26.740  1.00  0.00     0.107 C 
BRANCH  86  87
ATOM     87  C   UNL A   1      33.607  23.847  25.916  1.00  0.00    -0.020 C 
ATOM     88  C   UNL A   1      32.949  23.236  24.658  1.00  0.00     0.011 C 
ATOM     89  C   UNL A   1      34.148  22.667  26.774  1.00  0.00     0.011 C 
ATOM     90  C   UNL A   1      34.781  24.716  25.438  1.00  0.00     0.011 C 
ATOM     91  C   UNL A   1      33.990  22.433  23.850  1.00  0.00    -0.010 C 
ATOM     92  C   UNL A   1      35.203  21.871  25.991  1.00  0.00    -0.010 C 
ATOM     93  C   UNL A   1      35.829  23.921  24.676  1.00  0.00    -0.010 C 
ATOM     94  C   UNL A   1      35.149  23.354  23.432  1.00  0.00     0.007 C 
ATOM     95  C   UNL A   1      34.554  21.298  24.724  1.00  0.00     0.007 C 
ATOM     96  C   UNL A   1      36.353  22.808  25.594  1.00  0.00     0.007 C 
ENDBRANCH  86  87
ENDBRANCH  84  86
ENDBRANCH  76  84
ENDBRANCH  72  74
ENDBRANCH  71  72
ENDBRANCH  70  71
ENDBRANCH   1  70
TORSDOF 17
ENDMDL
MODEL 3
REMARK VINA RESULT:     -12.1      3.049      7.607
REMARK SMILES O=C(OCCOC(=O)[C@H]1Cc2[nH]cnc2CN1C(=O)C[C@]12C[C@H]3C[C@H](C[C@H](C3)C1)C2)c1ccc(-c2c3nc(c(-c4cccc(S(=O)(=O)[O-])c4F)c4ccc([nH]4)c(-c4cccc(S(=O)(=O)[O-])c4F)c4nc(c(-c5cccc(S(=O)(=O)[O-])c5F)c5ccc2[nH]5)C=C4)C=C3)cc1
REMARK SMILES IDX 4 1 3 2 2 3 1 4 31 5 32 6 93 7 33 8 92 9 34 10 35 11 36 12
REMARK SMILES IDX 86 13 37 14 91 15 85 16 87 17 38 18 90 19 84 20 83 21 39 23
REMARK SMILES IDX 71 24 51 25 70 26 52 27 55 28 69 29 88 30 53 31 54 32 68 34
REMARK SMILES IDX 89 35 56 36 40 37 41 38 49 39 42 40 44 41 50 42 43 43 45 44
REMARK SMILES IDX 46 45 47 46 48 47 72 48 73 49 81 50 74 51 76 52 82 53 75 54
REMARK SMILES IDX 77 55 78 56 79 57 80 58 57 59 58 60 66 61 59 62 61 63 67 64
REMARK SMILES IDX 60 65 62 66 63 67 64 68 65 69 5 70 6 71 7 72 8 73 9 74 10 75
REMARK SMILES IDX 17 76 11 77 16 78 12 79 15 80 13 81 14 83 18 84 19 85 20 86
REMARK SMILES IDX 21 87 22 88 29 89 30 90 23 91 27 92 25 93 24 94 28 95 26 96
REMARK H PARENT 87 22 55 33 12 82
REMARK Flexibility Score: inf
ROOT
ATOM      1  C   UNL A   1      33.102  31.603  27.588  1.00  0.00     0.275 C 
ENDROOT
BRANCH   1   2
ATOM      2  O   UNL A   1      34.494  31.233  27.608  1.00  0.00    -0.458 OA
BRANCH   2   3
ATOM      3  C   UNL A   1      35.578  31.953  27.973  1.00  0.00     0.338 C 
ATOM      4  O   UNL A   1      35.668  33.134  27.639  1.00  0.00    -0.246 OA
BRANCH   3   5
ATOM      5  C   UNL A   1      36.746  31.334  28.637  1.00  0.00     0.060 A 
ATOM      6  C   UNL A   1      37.780  32.020  29.279  1.00  0.00     0.016 A 
ATOM      7  C   UNL A   1      36.830  29.941  28.499  1.00  0.00     0.016 A 
ATOM      8  C   UNL A   1      38.908  31.328  29.702  1.00  0.00     0.010 A 
ATOM      9  C   UNL A   1      37.886  29.234  29.029  1.00  0.00     0.010 A 
ATOM     10  C   UNL A   1      38.979  29.951  29.491  1.00  0.00    -0.014 A 
BRANCH  10  11
ATOM     11  C   UNL A   1      40.264  29.276  29.565  1.00  0.00     0.031 A 
ATOM     12  C   UNL A   1      40.814  29.069  30.926  1.00  0.00     0.074 A 
ATOM     13  C   UNL A   1      40.813  28.754  28.447  1.00  0.00     0.049 A 
ATOM     14  N   UNL A   1      41.740  29.734  31.540  1.00  0.00    -0.248 NA
ATOM     15  C   UNL A   1      40.113  28.109  31.781  1.00  0.00     0.031 C 
ATOM     16  C   UNL A   1      40.234  28.635  27.099  1.00  0.00     0.029 A 
ATOM     17  N   UNL A   1      41.975  28.073  28.323  1.00  0.00    -0.354 N 
ATOM     18  C   UNL A   1      41.890  29.089  32.770  1.00  0.00     0.074 A 
ATOM     19  C   UNL A   1      40.686  28.329  32.965  1.00  0.00     0.031 C 
ATOM     20  C   UNL A   1      40.901  27.686  26.407  1.00  0.00     0.029 A 
ATOM     21  C   UNL A   1      42.052  27.280  27.185  1.00  0.00     0.049 A 
ATOM     22  H   UNL A   1      42.704  28.135  28.982  1.00  0.00     0.167 HD
ATOM     23  C   UNL A   1      43.104  28.959  33.379  1.00  0.00     0.034 A 
ATOM     24  C   UNL A   1      42.964  26.307  26.955  1.00  0.00     0.034 A 
ATOM     25  C   UNL A   1      44.097  29.795  32.753  1.00  0.00     0.049 A 
ATOM     26  C   UNL A   1      44.114  26.582  27.854  1.00  0.00     0.074 A 
ATOM     27  C   UNL A   1      44.242  31.148  32.524  1.00  0.00     0.029 A 
ATOM     28  N   UNL A   1      44.962  29.174  31.880  1.00  0.00    -0.354 N 
ATOM     29  N   UNL A   1      44.842  27.664  27.765  1.00  0.00    -0.248 NA
ATOM     30  C   UNL A   1      44.130  25.923  29.150  1.00  0.00     0.031 C 
ATOM     31  C   UNL A   1      44.780  31.234  31.205  1.00  0.00     0.029 A 
ATOM     32  C   UNL A   1      45.007  29.935  30.742  1.00  0.00     0.049 A 
ATOM     33  H   UNL A   1      45.455  28.338  32.044  1.00  0.00     0.167 HD
ATOM     34  C   UNL A   1      45.035  28.068  29.081  1.00  0.00     0.074 A 
ATOM     35  C   UNL A   1      44.657  26.905  29.890  1.00  0.00     0.031 C 
ATOM     36  C   UNL A   1      45.179  29.387  29.412  1.00  0.00     0.034 A 
BRANCH  23  37
ATOM     37  C   UNL A   1      43.521  27.811  34.281  1.00  0.00     0.023 A 
ATOM     38  C   UNL A   1      44.048  28.145  35.550  1.00  0.00     0.012 A 
ATOM     39  C   UNL A   1      43.677  26.467  33.865  1.00  0.00     0.148 A 
ATOM     40  C   UNL A   1      44.739  27.211  36.332  1.00  0.00     0.002 A 
ATOM     41  C   UNL A   1      44.293  25.524  34.680  1.00  0.00     0.091 A 
ATOM     42  F   UNL A   1      43.361  26.108  32.619  1.00  0.00    -0.205 F 
ATOM     43  C   UNL A   1      44.856  25.897  35.901  1.00  0.00     0.022 A 
BRANCH  41  44
ATOM     44  S   UNL A   1      44.438  23.801  34.187  1.00  0.00     0.127 S 
ATOM     45  O   UNL A   1      43.037  23.435  34.001  1.00  0.00    -0.237 OA
ATOM     46  O   UNL A   1      45.221  23.908  32.955  1.00  0.00    -0.237 OA
ATOM     47  O   UNL A   1      45.137  23.144  35.283  1.00  0.00    -0.744 OA
ENDBRANCH  41  44
ENDBRANCH  23  37
BRANCH  24  48
ATOM     48  C   UNL A   1      42.744  25.002  26.287  1.00  0.00     0.023 A 
ATOM     49  C   UNL A   1      43.670  24.527  25.340  1.00  0.00     0.012 A 
ATOM     50  C   UNL A   1      41.755  24.105  26.759  1.00  0.00     0.148 A 
ATOM     51  C   UNL A   1      43.624  23.200  24.892  1.00  0.00     0.002 A 
ATOM     52  C   UNL A   1      41.707  22.791  26.302  1.00  0.00     0.091 A 
ATOM     53  F   UNL A   1      40.917  24.518  27.721  1.00  0.00    -0.205 F 
ATOM     54  C   UNL A   1      42.649  22.331  25.375  1.00  0.00     0.022 A 
BRANCH  52  55
ATOM     55  S   UNL A   1      40.483  21.610  26.888  1.00  0.00     0.127 S 
ATOM     56  O   UNL A   1      40.856  20.400  26.152  1.00  0.00    -0.237 OA
ATOM     57  O   UNL A   1      40.770  21.564  28.319  1.00  0.00    -0.237 OA
ATOM     58  O   UNL A   1      39.189  22.162  26.514  1.00  0.00    -0.744 OA
ENDBRANCH  52  55
ENDBRANCH  24  48
BRANCH  36  59
ATOM     59  C   UNL A   1      45.271  30.399  28.288  1.00  0.00     0.023 A 
ATOM     60  C   UNL A   1      44.123  30.929  27.661  1.00  0.00     0.012 A 
ATOM     61  C   UNL A   1      46.516  30.980  28.003  1.00  0.00     0.148 A 
ATOM     62  C   UNL A   1      44.212  31.993  26.757  1.00  0.00     0.002 A 
ATOM     63  C   UNL A   1      46.600  32.065  27.136  1.00  0.00     0.091 A 
ATOM     64  F   UNL A   1      47.598  30.486  28.623  1.00  0.00    -0.205 F 
ATOM     65  C   UNL A   1      45.452  32.569  26.503  1.00  0.00     0.022 A 
BRANCH  63  66
ATOM     66  S   UNL A   1      48.142  32.938  26.863  1.00  0.00     0.127 S 
ATOM     67  O   UNL A   1      47.782  33.867  25.794  1.00  0.00    -0.237 OA
ATOM     68  O   UNL A   1      48.380  33.566  28.164  1.00  0.00    -0.237 OA
ATOM     69  O   UNL A   1      49.123  31.921  26.504  1.00  0.00    -0.744 OA
ENDBRANCH  63  66
ENDBRANCH  36  59
ENDBRANCH  10  11
ENDBRANCH   3   5
ENDBRANCH   2   3
ENDBRANCH   1   2
BRANCH   1  70
ATOM     70  C   UNL A   1      32.194  30.686  26.753  1.00  0.00     0.274 C 
BRANCH  70  71
ATOM     71  O   UNL A   1      32.123  29.305  27.197  1.00  0.00    -0.461 OA
BRANCH  71  72
ATOM     72  C   UNL A   1      32.935  28.484  26.479  1.00  0.00     0.329 C 
ATOM     73  O   UNL A   1      34.040  28.192  26.929  1.00  0.00    -0.250 OA
BRANCH  72  74
ATOM     74  C   UNL A   1      32.408  28.080  25.090  1.00  0.00     0.201 C 
ATOM     75  C   UNL A   1      33.559  27.649  24.089  1.00  0.00     0.093 C 
ATOM     76  N   UNL A   1      31.171  27.199  24.942  1.00  0.00    -0.322 N 
ATOM     77  C   UNL A   1      32.970  26.994  22.878  1.00  0.00     0.042 A 
ATOM     78  C   UNL A   1      30.576  27.325  23.588  1.00  0.00     0.178 C 
ATOM     79  N   UNL A   1      33.577  26.315  21.859  1.00  0.00    -0.348 N 
ATOM     80  C   UNL A   1      31.620  26.855  22.637  1.00  0.00     0.081 A 
ATOM     81  C   UNL A   1      32.585  25.858  21.030  1.00  0.00     0.197 A 
ATOM     82  H   UNL A   1      34.545  26.177  21.743  1.00  0.00     0.167 HD
ATOM     83  N   UNL A   1      31.393  26.185  21.472  1.00  0.00    -0.240 NA
BRANCH  76  84
ATOM     84  C   UNL A   1      30.806  26.008  25.580  1.00  0.00     0.224 C 
ATOM     85  O   UNL A   1      29.652  25.569  25.494  1.00  0.00    -0.275 OA
BRANCH  84  86
ATOM     86  C   UNL A   1      31.727  25.230  26.500  1.00  0.00     0.107 C 
BRANCH  86  87
ATOM     87  C   UNL A   1      32.724  24.241  25.879  1.00  0.00    -0.020 C 
ATOM     88  C   UNL A   1      32.257  23.795  24.475  1.00  0.00     0.011 C 
ATOM     89  C   UNL A   1      32.797  22.965  26.768  1.00  0.00     0.011 C 
ATOM     90  C   UNL A   1      34.130  24.840  25.723  1.00  0.00     0.011 C 
ATOM     91  C   UNL A   1      33.264  22.793  23.873  1.00  0.00    -0.010 C 
ATOM     92  C   UNL A   1      33.813  21.967  26.195  1.00  0.00    -0.010 C 
ATOM     93  C   UNL A   1      35.135  23.844  25.167  1.00  0.00    -0.010 C 
ATOM     94  C   UNL A   1      34.653  23.445  23.774  1.00  0.00     0.007 C 
ATOM     95  C   UNL A   1      33.364  21.557  24.785  1.00  0.00     0.007 C 
ATOM     96  C   UNL A   1      35.193  22.637  26.115  1.00  0.00     0.007 C 
ENDBRANCH  86  87
ENDBRANCH  84  86
ENDBRANCH  76  84
ENDBRANCH  72  74
ENDBRANCH  71  72
ENDBRANCH  70  71
ENDBRANCH   1  70
TORSDOF 17
ENDMDL
