MODEL 1
REMARK VINA RESULT:     -12.7      0.000      0.000
REMARK SMILES O=C(OCCOC(=O)c1ccccc1Nc1cccc(S(F)(F)(F)(F)F)c1)c1ccc(-c2c3nc(c(-c4cccc(S(=O)(=O)[O-])c4F)c4ccc([nH]4)c(-c4cccc(S(=O)(=O)[O-])c4F)c4nc(c(-c5cccc(S(=O)(=O)[O-])c5F)c5ccc2[nH]5)C=C4)C=C3)cc1
REMARK SMILES IDX 4 1 3 2 2 3 1 4 28 5 29 6 90 7 30 8 89 9 31 10 32 11 33 12
REMARK SMILES IDX 83 13 34 14 88 15 82 16 84 17 35 18 87 19 81 20 80 21 36 23
REMARK SMILES IDX 68 24 48 25 67 26 49 27 52 28 66 29 85 30 50 31 51 32 65 34
REMARK SMILES IDX 86 35 53 36 37 37 38 38 46 39 39 40 41 41 47 42 40 43 42 44
REMARK SMILES IDX 43 45 44 46 45 47 69 48 70 49 78 50 71 51 73 52 79 53 72 54
REMARK SMILES IDX 74 55 75 56 76 57 77 58 54 59 55 60 63 61 56 62 58 63 64 64
REMARK SMILES IDX 57 65 59 66 60 67 61 68 62 69 5 70 6 71 7 72 8 73 9 74 10 75
REMARK SMILES IDX 14 76 11 77 13 78 12 79 15 80 16 82 17 83 27 84 18 85 20 86
REMARK SMILES IDX 19 87 21 88 22 89 23 90 24 91 25 92 26 93
REMARK H PARENT 84 22 52 33 15 81
REMARK Flexibility Score: inf
ROOT
ATOM      1  C   UNL A   1      36.279  21.475  24.519  1.00  0.00     0.275 C 
ENDROOT
BRANCH   1   2
ATOM      2  O   UNL A   1      36.918  21.249  25.767  1.00  0.00    -0.458 OA
BRANCH   2   3
ATOM      3  C   UNL A   1      38.332  21.137  25.831  1.00  0.00     0.338 C 
ATOM      4  O   UNL A   1      38.892  20.019  25.602  1.00  0.00    -0.246 OA
BRANCH   3   5
ATOM      5  C   UNL A   1      39.176  22.353  26.173  1.00  0.00     0.060 A 
ATOM      6  C   UNL A   1      40.306  22.169  26.952  1.00  0.00     0.016 A 
ATOM      7  C   UNL A   1      38.782  23.569  25.809  1.00  0.00     0.016 A 
ATOM      8  C   UNL A   1      40.796  23.357  27.544  1.00  0.00     0.010 A 
ATOM      9  C   UNL A   1      39.394  24.686  26.323  1.00  0.00     0.010 A 
ATOM     10  C   UNL A   1      40.480  24.576  27.146  1.00  0.00    -0.014 A 
BRANCH  10  11
ATOM     11  C   UNL A   1      41.280  25.793  27.581  1.00  0.00     0.031 A 
ATOM     12  C   UNL A   1      42.600  25.944  27.150  1.00  0.00     0.074 A 
ATOM     13  C   UNL A   1      40.597  26.739  28.326  1.00  0.00     0.049 A 
ATOM     14  N   UNL A   1      43.401  26.993  27.335  1.00  0.00    -0.248 NA
ATOM     15  C   UNL A   1      43.338  24.926  26.388  1.00  0.00     0.031 C 
ATOM     16  C   UNL A   1      39.263  26.599  28.758  1.00  0.00     0.029 A 
ATOM     17  N   UNL A   1      41.060  27.955  28.777  1.00  0.00    -0.354 N 
ATOM     18  C   UNL A   1      44.586  26.776  26.759  1.00  0.00     0.074 A 
ATOM     19  C   UNL A   1      44.564  25.440  26.147  1.00  0.00     0.031 C 
ATOM     20  C   UNL A   1      38.931  27.708  29.468  1.00  0.00     0.029 A 
ATOM     21  C   UNL A   1      40.051  28.562  29.493  1.00  0.00     0.049 A 
ATOM     22  H   UNL A   1      41.957  28.327  28.616  1.00  0.00     0.167 HD
ATOM     23  C   UNL A   1      45.681  27.639  26.719  1.00  0.00     0.034 A 
ATOM     24  C   UNL A   1      40.087  29.788  30.137  1.00  0.00     0.034 A 
ATOM     25  C   UNL A   1      45.702  28.884  27.328  1.00  0.00     0.049 A 
ATOM     26  C   UNL A   1      41.203  30.626  30.147  1.00  0.00     0.074 A 
ATOM     27  C   UNL A   1      46.796  29.770  27.290  1.00  0.00     0.029 A 
ATOM     28  N   UNL A   1      44.702  29.479  28.063  1.00  0.00    -0.354 N 
ATOM     29  N   UNL A   1      42.373  30.426  29.538  1.00  0.00    -0.248 NA
ATOM     30  C   UNL A   1      41.263  31.912  30.855  1.00  0.00     0.031 C 
ATOM     31  C   UNL A   1      46.464  30.879  28.002  1.00  0.00     0.029 A 
ATOM     32  C   UNL A   1      45.157  30.705  28.496  1.00  0.00     0.049 A 
ATOM     33  H   UNL A   1      43.815  29.094  28.250  1.00  0.00     0.167 HD
ATOM     34  C   UNL A   1      43.190  31.458  29.759  1.00  0.00     0.074 A 
ATOM     35  C   UNL A   1      42.490  32.426  30.616  1.00  0.00     0.031 C 
ATOM     36  C   UNL A   1      44.488  31.634  29.279  1.00  0.00     0.034 A 
BRANCH  23  37
ATOM     37  C   UNL A   1      46.922  27.189  25.964  1.00  0.00     0.023 A 
ATOM     38  C   UNL A   1      47.839  26.460  26.703  1.00  0.00     0.012 A 
ATOM     39  C   UNL A   1      47.101  27.409  24.667  1.00  0.00     0.148 A 
ATOM     40  C   UNL A   1      49.071  26.248  26.039  1.00  0.00     0.002 A 
ATOM     41  C   UNL A   1      48.278  27.054  24.053  1.00  0.00     0.091 A 
ATOM     42  F   UNL A   1      46.133  27.980  23.956  1.00  0.00    -0.205 F 
ATOM     43  C   UNL A   1      49.253  26.383  24.737  1.00  0.00     0.022 A 
BRANCH  41  44
ATOM     44  S   UNL A   1      48.540  27.478  22.313  1.00  0.00     0.127 S 
ATOM     45  O   UNL A   1      49.755  28.400  22.190  1.00  0.00    -0.237 OA
ATOM     46  O   UNL A   1      48.786  26.199  21.508  1.00  0.00    -0.237 OA
ATOM     47  O   UNL A   1      47.155  28.276  21.706  1.00  0.00    -0.744 OA
ENDBRANCH  41  44
ENDBRANCH  23  37
BRANCH  24  48
ATOM     48  C   UNL A   1      38.841  30.245  30.878  1.00  0.00     0.023 A 
ATOM     49  C   UNL A   1      38.559  29.792  32.156  1.00  0.00     0.012 A 
ATOM     50  C   UNL A   1      37.987  31.019  30.218  1.00  0.00     0.148 A 
ATOM     51  C   UNL A   1      37.210  29.974  32.544  1.00  0.00     0.002 A 
ATOM     52  C   UNL A   1      36.733  31.266  30.722  1.00  0.00     0.091 A 
ATOM     53  F   UNL A   1      38.350  31.559  29.058  1.00  0.00    -0.205 F 
ATOM     54  C   UNL A   1      36.366  30.799  31.953  1.00  0.00     0.022 A 
BRANCH  52  55
ATOM     55  S   UNL A   1      35.550  32.223  29.741  1.00  0.00     0.127 S 
ATOM     56  O   UNL A   1      35.087  31.390  28.544  1.00  0.00    -0.237 OA
ATOM     57  O   UNL A   1      34.342  32.584  30.609  1.00  0.00    -0.237 OA
ATOM     58  O   UNL A   1      36.300  33.655  29.184  1.00  0.00    -0.744 OA
ENDBRANCH  52  55
ENDBRANCH  24  48
BRANCH  36  59
ATOM     59  C   UNL A   1      45.214  32.921  29.635  1.00  0.00     0.023 A 
ATOM     60  C   UNL A   1      45.929  32.969  30.819  1.00  0.00     0.012 A 
ATOM     61  C   UNL A   1      45.101  33.990  28.853  1.00  0.00     0.148 A 
ATOM     62  C   UNL A   1      46.254  34.280  31.241  1.00  0.00     0.002 A 
ATOM     63  C   UNL A   1      45.564  35.213  29.273  1.00  0.00     0.091 A 
ATOM     64  F   UNL A   1      44.538  33.874  27.655  1.00  0.00    -0.205 F 
ATOM     65  C   UNL A   1      46.228  35.346  30.460  1.00  0.00     0.022 A 
BRANCH  63  66
ATOM     66  S   UNL A   1      45.287  36.673  28.239  1.00  0.00     0.127 S 
ATOM     67  O   UNL A   1      45.784  37.920  28.974  1.00  0.00    -0.237 OA
ATOM     68  O   UNL A   1      46.052  36.519  26.923  1.00  0.00    -0.237 OA
ATOM     69  O   UNL A   1      43.615  36.833  27.913  1.00  0.00    -0.744 OA
ENDBRANCH  63  66
ENDBRANCH  36  59
ENDBRANCH  10  11
ENDBRANCH   3   5
ENDBRANCH   2   3
ENDBRANCH   1   2
BRANCH   1  70
ATOM     70  C   UNL A   1      35.389  22.701  24.620  1.00  0.00     0.275 C 
BRANCH  70  71
ATOM     71  O   UNL A   1      35.443  23.218  25.942  1.00  0.00    -0.458 OA
BRANCH  71  72
ATOM     72  C   UNL A   1      34.300  23.143  26.781  1.00  0.00     0.340 C 
ATOM     73  O   UNL A   1      34.379  22.564  27.910  1.00  0.00    -0.246 OA
BRANCH  72  74
ATOM     74  C   UNL A   1      32.984  23.754  26.330  1.00  0.00     0.083 A 
ATOM     75  C   UNL A   1      32.886  25.117  26.108  1.00  0.00     0.018 A 
ATOM     76  C   UNL A   1      31.913  22.970  26.285  1.00  0.00     0.053 A 
ATOM     77  C   UNL A   1      31.559  25.608  26.132  1.00  0.00     0.001 A 
ATOM     78  C   UNL A   1      30.655  23.510  26.170  1.00  0.00     0.027 A 
ATOM     79  C   UNL A   1      30.480  24.857  26.007  1.00  0.00     0.002 A 
BRANCH  76  80
ATOM     80  N   UNL A   1      32.075  21.511  26.360  1.00  0.00    -0.355 N 
ATOM     81  H   UNL A   1      31.930  21.042  27.213  1.00  0.00     0.167 HD
BRANCH  80  82
ATOM     82  C   UNL A   1      32.456  20.752  25.159  1.00  0.00     0.040 A 
ATOM     83  C   UNL A   1      32.045  21.180  23.908  1.00  0.00     0.026 A 
ATOM     84  C   UNL A   1      33.130  19.618  25.312  1.00  0.00     0.050 A 
ATOM     85  C   UNL A   1      32.144  20.190  22.902  1.00  0.00     0.004 A 
ATOM     86  C   UNL A   1      33.307  18.761  24.254  1.00  0.00     0.109 A 
ATOM     87  C   UNL A   1      32.873  19.093  23.000  1.00  0.00     0.024 A 
BRANCH  86  88
ATOM     88  S   UNL A   1      34.123  17.168  24.523  1.00  0.00     0.310 S 
ATOM     89  F   UNL A   1      34.121  17.046  22.941  1.00  0.00    -0.094 F 
ATOM     90  F   UNL A   1      32.753  16.389  24.516  1.00  0.00    -0.094 F 
ATOM     91  F   UNL A   1      34.914  15.830  24.563  1.00  0.00    -0.094 F 
ATOM     92  F   UNL A   1      35.483  17.960  24.388  1.00  0.00    -0.094 F 
ATOM     93  F   UNL A   1      33.333  18.528  24.368  1.00  0.00    -0.094 F 
ENDBRANCH  86  88
ENDBRANCH  80  82
ENDBRANCH  76  80
ENDBRANCH  72  74
ENDBRANCH  71  72
ENDBRANCH  70  71
ENDBRANCH   1  70
TORSDOF 17
ENDMDL
MODEL 2
REMARK VINA RESULT:     -12.3      2.458      7.581
REMARK SMILES O=C(OCCOC(=O)c1ccccc1Nc1cccc(S(F)(F)(F)(F)F)c1)c1ccc(-c2c3nc(c(-c4cccc(S(=O)(=O)[O-])c4F)c4ccc([nH]4)c(-c4cccc(S(=O)(=O)[O-])c4F)c4nc(c(-c5cccc(S(=O)(=O)[O-])c5F)c5ccc2[nH]5)C=C4)C=C3)cc1
REMARK SMILES IDX 4 1 3 2 2 3 1 4 28 5 29 6 90 7 30 8 89 9 31 10 32 11 33 12
REMARK SMILES IDX 83 13 34 14 88 15 82 16 84 17 35 18 87 19 81 20 80 21 36 23
REMARK SMILES IDX 68 24 48 25 67 26 49 27 52 28 66 29 85 30 50 31 51 32 65 34
REMARK SMILES IDX 86 35 53 36 37 37 38 38 46 39 39 40 41 41 47 42 40 43 42 44
REMARK SMILES IDX 43 45 44 46 45 47 69 48 70 49 78 50 71 51 73 52 79 53 72 54
REMARK SMILES IDX 74 55 75 56 76 57 77 58 54 59 55 60 63 61 56 62 58 63 64 64
REMARK SMILES IDX 57 65 59 66 60 67 61 68 62 69 5 70 6 71 7 72 8 73 9 74 10 75
REMARK SMILES IDX 14 76 11 77 13 78 12 79 15 80 16 82 17 83 27 84 18 85 20 86
REMARK SMILES IDX 19 87 21 88 22 89 23 90 24 91 25 92 26 93
REMARK H PARENT 84 22 52 33 15 81
REMARK Flexibility Score: inf
ROOT
ATOM      1  C   UNL A   1      37.755  20.764  25.384  1.00  0.00     0.275 C 
ENDROOT
BRANCH   1   2
ATOM      2  O   UNL A   1      38.538  21.947  25.443  1.00  0.00    -0.458 OA
BRANCH   2   3
ATOM      3  C   UNL A   1      39.443  22.146  26.519  1.00  0.00     0.338 C 
ATOM      4  O   UNL A   1      39.990  21.147  27.083  1.00  0.00    -0.246 OA
BRANCH   3   5
ATOM      5  C   UNL A   1      39.756  23.555  26.997  1.00  0.00     0.060 A 
ATOM      6  C   UNL A   1      39.397  24.617  26.184  1.00  0.00     0.016 A 
ATOM      7  C   UNL A   1      40.439  23.747  28.120  1.00  0.00     0.016 A 
ATOM      8  C   UNL A   1      40.060  25.828  26.496  1.00  0.00     0.010 A 
ATOM      9  C   UNL A   1      40.943  24.987  28.429  1.00  0.00     0.010 A 
ATOM     10  C   UNL A   1      40.677  26.070  27.639  1.00  0.00    -0.014 A 
BRANCH  10  11
ATOM     11  C   UNL A   1      41.071  27.479  28.052  1.00  0.00     0.031 A 
ATOM     12  C   UNL A   1      40.092  28.367  28.504  1.00  0.00     0.074 A 
ATOM     13  C   UNL A   1      42.425  27.764  28.035  1.00  0.00     0.049 A 
ATOM     14  N   UNL A   1      40.272  29.586  29.013  1.00  0.00    -0.248 NA
ATOM     15  C   UNL A   1      38.650  28.079  28.492  1.00  0.00     0.031 C 
ATOM     16  C   UNL A   1      43.420  26.871  27.590  1.00  0.00     0.029 A 
ATOM     17  N   UNL A   1      43.049  28.926  28.432  1.00  0.00    -0.354 N 
ATOM     18  C   UNL A   1      39.098  30.123  29.350  1.00  0.00     0.074 A 
ATOM     19  C   UNL A   1      38.037  29.163  29.014  1.00  0.00     0.031 C 
ATOM     20  C   UNL A   1      44.624  27.490  27.704  1.00  0.00     0.029 A 
ATOM     21  C   UNL A   1      44.404  28.780  28.224  1.00  0.00     0.049 A 
ATOM     22  H   UNL A   1      42.605  29.724  28.799  1.00  0.00     0.167 HD
ATOM     23  C   UNL A   1      38.870  31.373  29.927  1.00  0.00     0.034 A 
ATOM     24  C   UNL A   1      45.404  29.708  28.468  1.00  0.00     0.034 A 
ATOM     25  C   UNL A   1      39.875  32.284  30.210  1.00  0.00     0.049 A 
ATOM     26  C   UNL A   1      45.171  30.981  28.990  1.00  0.00     0.074 A 
ATOM     27  C   UNL A   1      39.664  33.545  30.798  1.00  0.00     0.029 A 
ATOM     28  N   UNL A   1      41.226  32.146  29.980  1.00  0.00    -0.354 N 
ATOM     29  N   UNL A   1      44.001  31.502  29.364  1.00  0.00    -0.248 NA
ATOM     30  C   UNL A   1      46.219  31.983  29.221  1.00  0.00     0.031 C 
ATOM     31  C   UNL A   1      40.868  34.165  30.912  1.00  0.00     0.029 A 
ATOM     32  C   UNL A   1      41.853  33.300  30.397  1.00  0.00     0.049 A 
ATOM     33  H   UNL A   1      41.668  31.360  29.585  1.00  0.00     0.167 HD
ATOM     34  C   UNL A   1      44.177  32.738  29.834  1.00  0.00     0.074 A 
ATOM     35  C   UNL A   1      45.606  33.069  29.742  1.00  0.00     0.031 C 
ATOM     36  C   UNL A   1      43.205  33.603  30.339  1.00  0.00     0.034 A 
BRANCH  23  37
ATOM     37  C   UNL A   1      37.438  31.757  30.264  1.00  0.00     0.023 A 
ATOM     38  C   UNL A   1      37.044  31.509  31.567  1.00  0.00     0.012 A 
ATOM     39  C   UNL A   1      36.626  32.356  29.400  1.00  0.00     0.148 A 
ATOM     40  C   UNL A   1      35.655  31.671  31.787  1.00  0.00     0.002 A 
ATOM     41  C   UNL A   1      35.316  32.606  29.730  1.00  0.00     0.091 A 
ATOM     42  F   UNL A   1      37.085  32.715  28.204  1.00  0.00    -0.205 F 
ATOM     43  C   UNL A   1      34.841  32.331  30.982  1.00  0.00     0.022 A 
BRANCH  41  44
ATOM     44  S   UNL A   1      34.202  33.311  28.489  1.00  0.00     0.127 S 
ATOM     45  O   UNL A   1      34.994  34.229  27.555  1.00  0.00    -0.237 OA
ATOM     46  O   UNL A   1      33.565  32.181  27.676  1.00  0.00    -0.237 OA
ATOM     47  O   UNL A   1      32.977  34.213  29.270  1.00  0.00    -0.744 OA
ENDBRANCH  41  44
ENDBRANCH  23  37
BRANCH  24  48
ATOM     48  C   UNL A   1      46.837  29.316  28.146  1.00  0.00     0.023 A 
ATOM     49  C   UNL A   1      47.389  29.573  26.902  1.00  0.00     0.012 A 
ATOM     50  C   UNL A   1      47.508  28.637  29.070  1.00  0.00     0.148 A 
ATOM     51  C   UNL A   1      48.551  28.815  26.623  1.00  0.00     0.002 A 
ATOM     52  C   UNL A   1      48.704  28.036  28.765  1.00  0.00     0.091 A 
ATOM     53  F   UNL A   1      47.014  28.538  30.301  1.00  0.00    -0.205 F 
ATOM     54  C   UNL A   1      49.279  28.198  27.535  1.00  0.00     0.022 A 
BRANCH  52  55
ATOM     55  S   UNL A   1      49.533  27.015  30.010  1.00  0.00     0.127 S 
ATOM     56  O   UNL A   1      49.980  27.896  31.177  1.00  0.00    -0.237 OA
ATOM     57  O   UNL A   1      48.564  25.945  30.519  1.00  0.00    -0.237 OA
ATOM     58  O   UNL A   1      50.898  26.260  29.310  1.00  0.00    -0.744 OA
ENDBRANCH  52  55
ENDBRANCH  24  48
BRANCH  36  59
ATOM     59  C   UNL A   1      43.655  34.959  30.858  1.00  0.00     0.023 A 
ATOM     60  C   UNL A   1      43.955  35.084  32.204  1.00  0.00     0.012 A 
ATOM     61  C   UNL A   1      43.691  36.008  30.044  1.00  0.00     0.148 A 
ATOM     62  C   UNL A   1      44.004  36.422  32.660  1.00  0.00     0.002 A 
ATOM     63  C   UNL A   1      43.879  37.274  30.543  1.00  0.00     0.091 A 
ATOM     64  F   UNL A   1      43.545  35.831  28.734  1.00  0.00    -0.205 F 
ATOM     65  C   UNL A   1      44.122  37.477  31.873  1.00  0.00     0.022 A 
BRANCH  63  66
ATOM     66  S   UNL A   1      43.801  38.694  29.424  1.00  0.00     0.127 S 
ATOM     67  O   UNL A   1      43.859  39.989  30.238  1.00  0.00    -0.237 OA
ATOM     68  O   UNL A   1      44.986  38.647  28.457  1.00  0.00    -0.237 OA
ATOM     69  O   UNL A   1      42.339  38.643  28.538  1.00  0.00    -0.744 OA
ENDBRANCH  63  66
ENDBRANCH  36  59
ENDBRANCH  10  11
ENDBRANCH   3   5
ENDBRANCH   2   3
ENDBRANCH   1   2
BRANCH   1  70
ATOM     70  C   UNL A   1      36.301  21.131  25.142  1.00  0.00     0.275 C 
BRANCH  70  71
ATOM     71  O   UNL A   1      35.932  22.200  26.001  1.00  0.00    -0.458 OA
BRANCH  71  72
ATOM     72  C   UNL A   1      34.637  22.229  26.582  1.00  0.00     0.340 C 
ATOM     73  O   UNL A   1      34.399  21.564  27.639  1.00  0.00    -0.246 OA
BRANCH  72  74
ATOM     74  C   UNL A   1      33.534  23.055  25.940  1.00  0.00     0.083 A 
ATOM     75  C   UNL A   1      33.754  24.384  25.618  1.00  0.00     0.018 A 
ATOM     76  C   UNL A   1      32.330  22.507  25.821  1.00  0.00     0.053 A 
ATOM     77  C   UNL A   1      32.567  25.138  25.453  1.00  0.00     0.001 A 
ATOM     78  C   UNL A   1      31.235  23.282  25.523  1.00  0.00     0.027 A 
ATOM     79  C   UNL A   1      31.370  24.616  25.252  1.00  0.00     0.002 A 
BRANCH  76  80
ATOM     80  N   UNL A   1      32.168  21.059  26.010  1.00  0.00    -0.355 N 
ATOM     81  H   UNL A   1      31.789  20.711  26.850  1.00  0.00     0.167 HD
BRANCH  80  82
ATOM     82  C   UNL A   1      32.573  20.129  24.945  1.00  0.00     0.040 A 
ATOM     83  C   UNL A   1      32.199  20.370  23.633  1.00  0.00     0.026 A 
ATOM     84  C   UNL A   1      33.231  19.026  25.282  1.00  0.00     0.050 A 
ATOM     85  C   UNL A   1      32.315  19.242  22.788  1.00  0.00     0.004 A 
ATOM     86  C   UNL A   1      33.427  18.021  24.367  1.00  0.00     0.109 A 
ATOM     87  C   UNL A   1      33.030  18.167  23.066  1.00  0.00     0.024 A 
BRANCH  86  88
ATOM     88  S   UNL A   1      34.219  16.480  24.889  1.00  0.00     0.310 S 
ATOM     89  F   UNL A   1      34.328  16.161  23.339  1.00  0.00    -0.094 F 
ATOM     90  F   UNL A   1      32.852  15.697  24.885  1.00  0.00    -0.094 F 
ATOM     91  F   UNL A   1      35.004  15.164  25.152  1.00  0.00    -0.094 F 
ATOM     92  F   UNL A   1      35.588  17.258  24.751  1.00  0.00    -0.094 F 
ATOM     93  F   UNL A   1      33.445  17.805  24.511  1.00  0.00    -0.094 F 
ENDBRANCH  86  88
ENDBRANCH  80  82
ENDBRANCH  76  80
ENDBRANCH  72  74
ENDBRANCH  71  72
ENDBRANCH  70  71
ENDBRANCH   1  70
TORSDOF 17
ENDMDL
MODEL 3
REMARK VINA RESULT:     -12.3      6.171     10.534
REMARK SMILES O=C(OCCOC(=O)c1ccccc1Nc1cccc(S(F)(F)(F)(F)F)c1)c1ccc(-c2c3nc(c(-c4cccc(S(=O)(=O)[O-])c4F)c4ccc([nH]4)c(-c4cccc(S(=O)(=O)[O-])c4F)c4nc(c(-c5cccc(S(=O)(=O)[O-])c5F)c5ccc2[nH]5)C=C4)C=C3)cc1
REMARK SMILES IDX 4 1 3 2 2 3 1 4 28 5 29 6 90 7 30 8 89 9 31 10 32 11 33 12
REMARK SMILES IDX 83 13 34 14 88 15 82 16 84 17 35 18 87 19 81 20 80 21 36 23
REMARK SMILES IDX 68 24 48 25 67 26 49 27 52 28 66 29 85 30 50 31 51 32 65 34
REMARK SMILES IDX 86 35 53 36 37 37 38 38 46 39 39 40 41 41 47 42 40 43 42 44
REMARK SMILES IDX 43 45 44 46 45 47 69 48 70 49 78 50 71 51 73 52 79 53 72 54
REMARK SMILES IDX 74 55 75 56 76 57 77 58 54 59 55 60 63 61 56 62 58 63 64 64
REMARK SMILES IDX 57 65 59 66 60 67 61 68 62 69 5 70 6 71 7 72 8 73 9 74 10 75
REMARK SMILES IDX 14 76 11 77 13 78 12 79 15 80 16 82 17 83 27 84 18 85 20 86
REMARK SMILES IDX 19 87 21 88 22 89 23 90 24 91 25 92 26 93
REMARK H PARENT 84 22 52 33 15 81
REMARK Flexibility Score: inf
ROOT
ATOM      1  C   UNL A   1      33.285  32.209  28.002  1.00  0.00     0.275 C 
ENDROOT
BRANCH   1   2
ATOM      2  O   UNL A   1      34.421  31.628  28.625  1.00  0.00    -0.458 OA
BRANCH   2   3
ATOM      3  C   UNL A   1      35.029  30.475  28.061  1.00  0.00     0.338 C 
ATOM      4  O   UNL A   1      34.400  29.781  27.201  1.00  0.00    -0.246 OA
BRANCH   3   5
ATOM      5  C   UNL A   1      36.431  30.072  28.485  1.00  0.00     0.060 A 
ATOM      6  C   UNL A   1      37.475  30.305  27.604  1.00  0.00     0.016 A 
ATOM      7  C   UNL A   1      36.628  29.429  29.631  1.00  0.00     0.016 A 
ATOM      8  C   UNL A   1      38.644  29.561  27.890  1.00  0.00     0.010 A 
ATOM      9  C   UNL A   1      37.840  28.841  29.904  1.00  0.00     0.010 A 
ATOM     10  C   UNL A   1      38.897  28.981  29.050  1.00  0.00    -0.014 A 
BRANCH  10  11
ATOM     11  C   UNL A   1      40.290  28.495  29.414  1.00  0.00     0.031 A 
ATOM     12  C   UNL A   1      40.841  27.402  28.742  1.00  0.00     0.074 A 
ATOM     13  C   UNL A   1      40.973  29.247  30.356  1.00  0.00     0.049 A 
ATOM     14  N   UNL A   1      42.080  26.920  28.849  1.00  0.00    -0.248 NA
ATOM     15  C   UNL A   1      40.108  26.581  27.766  1.00  0.00     0.031 C 
ATOM     16  C   UNL A   1      40.428  30.356  31.032  1.00  0.00     0.029 A 
ATOM     17  N   UNL A   1      42.263  29.072  30.803  1.00  0.00    -0.354 N 
ATOM     18  C   UNL A   1      42.241  25.877  28.032  1.00  0.00     0.074 A 
ATOM     19  C   UNL A   1      40.972  25.640  27.328  1.00  0.00     0.031 C 
ATOM     20  C   UNL A   1      41.372  30.835  31.884  1.00  0.00     0.029 A 
ATOM     21  C   UNL A   1      42.523  30.035  31.754  1.00  0.00     0.049 A 
ATOM     22  H   UNL A   1      42.891  28.379  30.498  1.00  0.00     0.167 HD
ATOM     23  C   UNL A   1      43.394  25.115  27.845  1.00  0.00     0.034 A 
ATOM     24  C   UNL A   1      43.691  30.219  32.477  1.00  0.00     0.034 A 
ATOM     25  C   UNL A   1      44.576  25.327  28.537  1.00  0.00     0.049 A 
ATOM     26  C   UNL A   1      44.827  29.421  32.333  1.00  0.00     0.074 A 
ATOM     27  C   UNL A   1      45.751  24.573  28.355  1.00  0.00     0.029 A 
ATOM     28  N   UNL A   1      44.828  26.274  29.504  1.00  0.00    -0.354 N 
ATOM     29  N   UNL A   1      45.000  28.403  31.488  1.00  0.00    -0.248 NA
ATOM     30  C   UNL A   1      46.057  29.586  33.118  1.00  0.00     0.031 C 
ATOM     31  C   UNL A   1      46.696  25.052  29.207  1.00  0.00     0.029 A 
ATOM     32  C   UNL A   1      46.126  26.114  29.937  1.00  0.00     0.049 A 
ATOM     33  H   UNL A   1      44.190  26.949  29.832  1.00  0.00     0.167 HD
ATOM     34  C   UNL A   1      46.226  27.894  31.625  1.00  0.00     0.074 A 
ATOM     35  C   UNL A   1      46.922  28.644  32.681  1.00  0.00     0.031 C 
ATOM     36  C   UNL A   1      46.795  26.839  30.911  1.00  0.00     0.034 A 
BRANCH  23  37
ATOM     37  C   UNL A   1      43.354  23.990  26.823  1.00  0.00     0.023 A 
ATOM     38  C   UNL A   1      44.023  24.236  25.636  1.00  0.00     0.012 A 
ATOM     39  C   UNL A   1      42.780  22.816  27.059  1.00  0.00     0.148 A 
ATOM     40  C   UNL A   1      43.783  23.269  24.631  1.00  0.00     0.002 A 
ATOM     41  C   UNL A   1      42.699  21.865  26.072  1.00  0.00     0.091 A 
ATOM     42  F   UNL A   1      42.276  22.560  28.264  1.00  0.00    -0.205 F 
ATOM     43  C   UNL A   1      43.287  22.065  24.853  1.00  0.00     0.022 A 
BRANCH  41  44
ATOM     44  S   UNL A   1      41.803  20.324  26.387  1.00  0.00     0.127 S 
ATOM     45  O   UNL A   1      42.112  19.318  25.276  1.00  0.00    -0.237 OA
ATOM     46  O   UNL A   1      42.241  19.747  27.735  1.00  0.00    -0.237 OA
ATOM     47  O   UNL A   1      40.123  20.638  26.420  1.00  0.00    -0.744 OA
ENDBRANCH  41  44
ENDBRANCH  23  37
BRANCH  24  48
ATOM     48  C   UNL A   1      43.736  31.354  33.487  1.00  0.00     0.023 A 
ATOM     49  C   UNL A   1      44.287  32.583  33.161  1.00  0.00     0.012 A 
ATOM     50  C   UNL A   1      43.314  31.095  34.719  1.00  0.00     0.148 A 
ATOM     51  C   UNL A   1      44.618  33.379  34.283  1.00  0.00     0.002 A 
ATOM     52  C   UNL A   1      43.553  31.980  35.742  1.00  0.00     0.091 A 
ATOM     53  F   UNL A   1      42.655  29.966  34.964  1.00  0.00    -0.205 F 
ATOM     54  C   UNL A   1      44.147  33.187  35.501  1.00  0.00     0.022 A 
BRANCH  52  55
ATOM     55  S   UNL A   1      43.074  31.541  37.432  1.00  0.00     0.127 S 
ATOM     56  O   UNL A   1      43.209  32.768  38.335  1.00  0.00    -0.237 OA
ATOM     57  O   UNL A   1      41.622  31.058  37.441  1.00  0.00    -0.237 OA
ATOM     58  O   UNL A   1      44.092  30.294  38.006  1.00  0.00    -0.744 OA
ENDBRANCH  52  55
ENDBRANCH  24  48
BRANCH  36  59
ATOM     59  C   UNL A   1      48.234  26.460  31.219  1.00  0.00     0.023 A 
ATOM     60  C   UNL A   1      49.234  26.935  30.387  1.00  0.00     0.012 A 
ATOM     61  C   UNL A   1      48.509  25.639  32.227  1.00  0.00     0.148 A 
ATOM     62  C   UNL A   1      50.466  26.253  30.522  1.00  0.00     0.002 A 
ATOM     63  C   UNL A   1      49.770  25.117  32.379  1.00  0.00     0.091 A 
ATOM     64  F   UNL A   1      47.555  25.322  33.097  1.00  0.00    -0.205 F 
ATOM     65  C   UNL A   1      50.793  25.496  31.555  1.00  0.00     0.022 A 
BRANCH  63  66
ATOM     66  S   UNL A   1      50.082  23.906  33.688  1.00  0.00     0.127 S 
ATOM     67  O   UNL A   1      48.784  23.168  34.021  1.00  0.00    -0.237 OA
ATOM     68  O   UNL A   1      51.132  22.900  33.212  1.00  0.00    -0.237 OA
ATOM     69  O   UNL A   1      50.654  24.712  35.084  1.00  0.00    -0.744 OA
ENDBRANCH  63  66
ENDBRANCH  36  59
ENDBRANCH  10  11
ENDBRANCH   3   5
ENDBRANCH   2   3
ENDBRANCH   1   2
BRANCH   1  70
ATOM     70  C   UNL A   1      33.539  33.687  27.766  1.00  0.00     0.275 C 
BRANCH  70  71
ATOM     71  O   UNL A   1      32.930  34.444  28.801  1.00  0.00    -0.458 OA
BRANCH  71  72
ATOM     72  C   UNL A   1      33.535  35.647  29.252  1.00  0.00     0.340 C 
ATOM     73  O   UNL A   1      34.109  36.420  28.422  1.00  0.00    -0.246 OA
BRANCH  72  74
ATOM     74  C   UNL A   1      33.499  36.010  30.728  1.00  0.00     0.083 A 
ATOM     75  C   UNL A   1      33.187  37.300  31.122  1.00  0.00     0.018 A 
ATOM     76  C   UNL A   1      33.898  35.098  31.607  1.00  0.00     0.053 A 
ATOM     77  C   UNL A   1      33.610  37.616  32.436  1.00  0.00     0.001 A 
ATOM     78  C   UNL A   1      34.163  35.450  32.908  1.00  0.00     0.027 A 
ATOM     79  C   UNL A   1      33.935  36.723  33.353  1.00  0.00     0.002 A 
BRANCH  76  80
ATOM     80  N   UNL A   1      34.059  33.700  31.183  1.00  0.00    -0.355 N 
ATOM     81  H   UNL A   1      33.319  33.233  30.733  1.00  0.00     0.167 HD
BRANCH  80  82
ATOM     82  C   UNL A   1      35.328  32.999  31.432  1.00  0.00     0.040 A 
ATOM     83  C   UNL A   1      35.379  31.960  32.348  1.00  0.00     0.026 A 
ATOM     84  C   UNL A   1      36.424  33.432  30.821  1.00  0.00     0.050 A 
ATOM     85  C   UNL A   1      36.689  31.632  32.769  1.00  0.00     0.004 A 
ATOM     86  C   UNL A   1      37.662  32.968  31.191  1.00  0.00     0.109 A 
ATOM     87  C   UNL A   1      37.792  31.984  32.133  1.00  0.00     0.024 A 
BRANCH  86  88
ATOM     88  S   UNL A   1      39.145  33.668  30.425  1.00  0.00     0.310 S 
ATOM     89  F   UNL A   1      38.155  34.729  29.783  1.00  0.00    -0.094 F 
ATOM     90  F   UNL A   1      38.959  32.807  29.120  1.00  0.00    -0.094 F 
ATOM     91  F   UNL A   1      40.315  34.456  29.772  1.00  0.00    -0.094 F 
ATOM     92  F   UNL A   1      39.224  34.615  31.688  1.00  0.00    -0.094 F 
ATOM     93  F   UNL A   1      37.885  32.953  31.059  1.00  0.00    -0.094 F 
ENDBRANCH  86  88
ENDBRANCH  80  82
ENDBRANCH  76  80
ENDBRANCH  72  74
ENDBRANCH  71  72
ENDBRANCH  70  71
ENDBRANCH   1  70
TORSDOF 17
ENDMDL
