MODEL 1
REMARK VINA RESULT:     -11.7      0.000      0.000
REMARK SMILES C=Cc1cncc(-c2ccc([C@@H](C)C(=O)OCCOC(=O)c3ccc(-c4c5nc(c(-c6cccc(S(=O)(=O)[O-])c6F)c6ccc([nH]6)c(-c6cccc(S(=O)(=O)[O-])c6F)c6nc(c(-c7cccc(S(=O)(=O)[O-])c7F)c7ccc4[nH]7)C=C6)C=C5)cc3)cc2)c1
REMARK SMILES IDX 17 1 16 2 14 3 15 4 12 5 13 6 11 7 8 8 9 9 86 10 10 11 85 12
REMARK SMILES IDX 7 13 3 14 4 15 87 16 5 17 6 18 2 19 1 20 18 21 19 22 20 23
REMARK SMILES IDX 21 24 22 25 23 26 84 27 24 28 83 29 25 30 26 31 27 32 77 33
REMARK SMILES IDX 28 34 82 35 76 36 78 37 29 38 81 39 75 40 74 41 30 43 62 44
REMARK SMILES IDX 42 45 61 46 43 47 46 48 60 49 79 50 44 51 45 52 59 54 80 55
REMARK SMILES IDX 47 56 31 57 32 58 40 59 33 60 35 61 41 62 34 63 36 64 37 65
REMARK SMILES IDX 38 66 39 67 63 68 64 69 72 70 65 71 67 72 73 73 66 74 68 75
REMARK SMILES IDX 69 76 70 77 71 78 48 79 49 80 57 81 50 82 52 83 58 84 51 85
REMARK SMILES IDX 53 86 54 87 55 88 56 89
REMARK H PARENT 78 42 46 53
REMARK Flexibility Score: inf
ROOT
ATOM      1  C   UNL A   1      35.621  21.619  24.526  1.00  0.00     0.274 C 
ENDROOT
BRANCH   1   2
ATOM      2  O   UNL A   1      34.700  20.603  24.969  1.00  0.00    -0.462 OA
BRANCH   2   3
ATOM      3  C   UNL A   1      33.661  21.017  25.739  1.00  0.00     0.313 C 
ATOM      4  O   UNL A   1      33.726  21.175  26.954  1.00  0.00    -0.252 OA
BRANCH   3   5
ATOM      5  C   UNL A   1      32.357  21.206  24.971  1.00  0.00     0.126 C 
ATOM      6  C   UNL A   1      32.353  20.299  23.741  1.00  0.00     0.025 C 
BRANCH   5   7
ATOM      7  C   UNL A   1      31.975  22.641  24.635  1.00  0.00    -0.034 A 
ATOM      8  C   UNL A   1      31.249  25.302  23.938  1.00  0.00    -0.017 A 
ATOM      9  C   UNL A   1      32.268  25.046  24.870  1.00  0.00     0.009 A 
ATOM     10  C   UNL A   1      30.591  24.204  23.369  1.00  0.00     0.009 A 
ATOM     11  C   UNL A   1      32.626  23.738  25.213  1.00  0.00     0.005 A 
ATOM     12  C   UNL A   1      30.956  22.896  23.703  1.00  0.00     0.005 A 
BRANCH   8  13
ATOM     13  C   UNL A   1      30.915  26.676  23.545  1.00  0.00     0.001 A 
ATOM     14  C   UNL A   1      29.316  28.446  23.062  1.00  0.00    -0.007 A 
ATOM     15  C   UNL A   1      30.405  29.263  22.766  1.00  0.00     0.119 A 
ATOM     16  C   UNL A   1      29.591  27.128  23.444  1.00  0.00     0.020 A 
ATOM     17  N   UNL A   1      31.699  28.879  22.849  1.00  0.00    -0.263 NA
ATOM     18  C   UNL A   1      31.915  27.598  23.234  1.00  0.00     0.119 A 
BRANCH  14  19
ATOM     19  C   UNL A   1      27.954  28.968  22.909  1.00  0.00     0.002 C 
ATOM     20  C   UNL A   1      27.634  30.265  23.008  1.00  0.00     0.009 C 
ENDBRANCH  14  19
ENDBRANCH   8  13
ENDBRANCH   5   7
ENDBRANCH   3   5
ENDBRANCH   2   3
ENDBRANCH   1   2
BRANCH   1  21
ATOM     21  C   UNL A   1      37.068  21.135  24.617  1.00  0.00     0.275 C 
BRANCH  21  22
ATOM     22  O   UNL A   1      37.579  21.285  25.953  1.00  0.00    -0.458 OA
BRANCH  22  23
ATOM     23  C   UNL A   1      38.921  21.164  26.071  1.00  0.00     0.338 C 
ATOM     24  O   UNL A   1      39.619  20.247  25.677  1.00  0.00    -0.246 OA
BRANCH  23  25
ATOM     25  C   UNL A   1      39.477  22.394  26.655  1.00  0.00     0.060 A 
ATOM     26  C   UNL A   1      38.983  23.612  26.189  1.00  0.00     0.016 A 
ATOM     27  C   UNL A   1      40.532  22.359  27.565  1.00  0.00     0.016 A 
ATOM     28  C   UNL A   1      39.563  24.806  26.601  1.00  0.00     0.010 A 
ATOM     29  C   UNL A   1      41.104  23.563  27.996  1.00  0.00     0.010 A 
ATOM     30  C   UNL A   1      40.640  24.793  27.497  1.00  0.00    -0.014 A 
BRANCH  30  31
ATOM     31  C   UNL A   1      41.281  26.078  27.866  1.00  0.00     0.031 A 
ATOM     32  C   UNL A   1      42.685  26.381  27.422  1.00  0.00     0.074 A 
ATOM     33  C   UNL A   1      40.583  26.992  28.567  1.00  0.00     0.049 A 
ATOM     34  N   UNL A   1      43.388  27.471  27.598  1.00  0.00    -0.248 NA
ATOM     35  C   UNL A   1      43.392  25.323  26.683  1.00  0.00     0.031 C 
ATOM     36  C   UNL A   1      39.220  26.808  29.066  1.00  0.00     0.029 A 
ATOM     37  N   UNL A   1      40.924  28.255  28.979  1.00  0.00    -0.354 N 
ATOM     38  C   UNL A   1      44.627  27.222  27.021  1.00  0.00     0.074 A 
ATOM     39  C   UNL A   1      44.585  25.873  26.499  1.00  0.00     0.031 C 
ATOM     40  C   UNL A   1      38.838  27.920  29.714  1.00  0.00     0.029 A 
ATOM     41  C   UNL A   1      39.933  28.887  29.693  1.00  0.00     0.049 A 
ATOM     42  H   UNL A   1      41.794  28.671  28.781  1.00  0.00     0.167 HD
ATOM     43  C   UNL A   1      45.696  28.048  26.920  1.00  0.00     0.034 A 
ATOM     44  C   UNL A   1      39.908  30.106  30.264  1.00  0.00     0.034 A 
ATOM     45  C   UNL A   1      45.724  29.403  27.406  1.00  0.00     0.049 A 
ATOM     46  C   UNL A   1      41.097  31.015  30.104  1.00  0.00     0.074 A 
ATOM     47  C   UNL A   1      46.749  30.329  27.316  1.00  0.00     0.029 A 
ATOM     48  N   UNL A   1      44.682  30.026  28.073  1.00  0.00    -0.354 N 
ATOM     49  N   UNL A   1      42.215  30.804  29.453  1.00  0.00    -0.248 NA
ATOM     50  C   UNL A   1      41.005  32.344  30.725  1.00  0.00     0.031 C 
ATOM     51  C   UNL A   1      46.328  31.512  27.933  1.00  0.00     0.029 A 
ATOM     52  C   UNL A   1      45.036  31.325  28.399  1.00  0.00     0.049 A 
ATOM     53  H   UNL A   1      43.816  29.608  28.284  1.00  0.00     0.167 HD
ATOM     54  C   UNL A   1      42.949  31.980  29.564  1.00  0.00     0.074 A 
ATOM     55  C   UNL A   1      42.134  32.910  30.319  1.00  0.00     0.031 C 
ATOM     56  C   UNL A   1      44.193  32.257  29.103  1.00  0.00     0.034 A 
BRANCH  43  57
ATOM     57  C   UNL A   1      46.916  27.522  26.212  1.00  0.00     0.023 A 
ATOM     58  C   UNL A   1      47.088  27.791  24.839  1.00  0.00     0.012 A 
ATOM     59  C   UNL A   1      47.914  26.814  26.909  1.00  0.00     0.148 A 
ATOM     60  C   UNL A   1      48.222  27.341  24.164  1.00  0.00     0.002 A 
ATOM     61  C   UNL A   1      49.059  26.399  26.237  1.00  0.00     0.091 A 
ATOM     62  F   UNL A   1      47.720  26.545  28.208  1.00  0.00    -0.205 F 
ATOM     63  C   UNL A   1      49.211  26.655  24.865  1.00  0.00     0.022 A 
BRANCH  61  64
ATOM     64  S   UNL A   1      50.416  25.568  27.072  1.00  0.00     0.127 S 
ATOM     65  O   UNL A   1      51.355  25.359  25.972  1.00  0.00    -0.237 OA
ATOM     66  O   UNL A   1      50.840  26.569  28.052  1.00  0.00    -0.237 OA
ATOM     67  O   UNL A   1      49.845  24.361  27.652  1.00  0.00    -0.744 OA
ENDBRANCH  61  64
ENDBRANCH  43  57
BRANCH  44  68
ATOM     68  C   UNL A   1      38.684  30.563  30.979  1.00  0.00     0.023 A 
ATOM     69  C   UNL A   1      38.590  30.390  32.373  1.00  0.00     0.012 A 
ATOM     70  C   UNL A   1      37.633  31.205  30.295  1.00  0.00     0.148 A 
ATOM     71  C   UNL A   1      37.462  30.824  33.069  1.00  0.00     0.002 A 
ATOM     72  C   UNL A   1      36.538  31.685  31.002  1.00  0.00     0.091 A 
ATOM     73  F   UNL A   1      37.729  31.341  28.964  1.00  0.00    -0.205 F 
ATOM     74  C   UNL A   1      36.442  31.483  32.387  1.00  0.00     0.022 A 
BRANCH  72  75
ATOM     75  S   UNL A   1      35.252  32.663  30.214  1.00  0.00     0.127 S 
ATOM     76  O   UNL A   1      34.813  31.774  29.143  1.00  0.00    -0.237 OA
ATOM     77  O   UNL A   1      34.289  32.841  31.303  1.00  0.00    -0.237 OA
ATOM     78  O   UNL A   1      35.909  33.894  29.796  1.00  0.00    -0.744 OA
ENDBRANCH  72  75
ENDBRANCH  44  68
BRANCH  56  79
ATOM     79  C   UNL A   1      44.748  33.628  29.390  1.00  0.00     0.023 A 
ATOM     80  C   UNL A   1      45.370  33.879  30.629  1.00  0.00     0.012 A 
ATOM     81  C   UNL A   1      44.701  34.648  28.421  1.00  0.00     0.148 A 
ATOM     82  C   UNL A   1      45.904  35.136  30.912  1.00  0.00     0.002 A 
ATOM     83  C   UNL A   1      45.273  35.887  28.695  1.00  0.00     0.091 A 
ATOM     84  F   UNL A   1      44.085  34.403  27.255  1.00  0.00    -0.205 F 
ATOM     85  C   UNL A   1      45.866  36.136  29.943  1.00  0.00     0.022 A 
BRANCH  83  86
ATOM     86  S   UNL A   1      45.334  37.189  27.459  1.00  0.00     0.127 S 
ATOM     87  O   UNL A   1      46.135  38.207  28.133  1.00  0.00    -0.237 OA
ATOM     88  O   UNL A   1      46.005  36.534  26.334  1.00  0.00    -0.237 OA
ATOM     89  O   UNL A   1      43.944  37.540  27.200  1.00  0.00    -0.744 OA
ENDBRANCH  83  86
ENDBRANCH  56  79
ENDBRANCH  30  31
ENDBRANCH  23  25
ENDBRANCH  22  23
ENDBRANCH  21  22
ENDBRANCH   1  21
TORSDOF 17
ENDMDL
MODEL 2
REMARK VINA RESULT:     -11.7      5.190     10.492
REMARK SMILES C=Cc1cncc(-c2ccc([C@@H](C)C(=O)OCCOC(=O)c3ccc(-c4c5nc(c(-c6cccc(S(=O)(=O)[O-])c6F)c6ccc([nH]6)c(-c6cccc(S(=O)(=O)[O-])c6F)c6nc(c(-c7cccc(S(=O)(=O)[O-])c7F)c7ccc4[nH]7)C=C6)C=C5)cc3)cc2)c1
REMARK SMILES IDX 17 1 16 2 14 3 15 4 12 5 13 6 11 7 8 8 9 9 86 10 10 11 85 12
REMARK SMILES IDX 7 13 3 14 4 15 87 16 5 17 6 18 2 19 1 20 18 21 19 22 20 23
REMARK SMILES IDX 21 24 22 25 23 26 84 27 24 28 83 29 25 30 26 31 27 32 77 33
REMARK SMILES IDX 28 34 82 35 76 36 78 37 29 38 81 39 75 40 74 41 30 43 62 44
REMARK SMILES IDX 42 45 61 46 43 47 46 48 60 49 79 50 44 51 45 52 59 54 80 55
REMARK SMILES IDX 47 56 31 57 32 58 40 59 33 60 35 61 41 62 34 63 36 64 37 65
REMARK SMILES IDX 38 66 39 67 63 68 64 69 72 70 65 71 67 72 73 73 66 74 68 75
REMARK SMILES IDX 69 76 70 77 71 78 48 79 49 80 57 81 50 82 52 83 58 84 51 85
REMARK SMILES IDX 53 86 54 87 55 88 56 89
REMARK H PARENT 78 42 46 53
REMARK Flexibility Score: inf
ROOT
ATOM      1  C   UNL A   1      31.709  29.761  24.994  1.00  0.00     0.274 C 
ENDROOT
BRANCH   1   2
ATOM      2  O   UNL A   1      31.059  28.480  24.885  1.00  0.00    -0.462 OA
BRANCH   2   3
ATOM      3  C   UNL A   1      31.200  27.825  23.703  1.00  0.00     0.313 C 
ATOM      4  O   UNL A   1      31.336  28.385  22.619  1.00  0.00    -0.252 OA
BRANCH   3   5
ATOM      5  C   UNL A   1      31.100  26.308  23.820  1.00  0.00     0.126 C 
ATOM      6  C   UNL A   1      29.957  25.942  24.766  1.00  0.00     0.025 C 
BRANCH   5   7
ATOM      7  C   UNL A   1      32.390  25.573  24.158  1.00  0.00    -0.034 A 
ATOM      8  C   UNL A   1      34.788  24.156  24.735  1.00  0.00    -0.017 A 
ATOM      9  C   UNL A   1      33.989  24.682  25.762  1.00  0.00     0.009 A 
ATOM     10  C   UNL A   1      34.374  24.361  23.413  1.00  0.00     0.009 A 
ATOM     11  C   UNL A   1      32.809  25.378  25.480  1.00  0.00     0.005 A 
ATOM     12  C   UNL A   1      33.189  25.048  23.130  1.00  0.00     0.005 A 
BRANCH   8  13
ATOM     13  C   UNL A   1      35.997  23.381  25.040  1.00  0.00     0.001 A 
ATOM     14  C   UNL A   1      38.185  23.127  26.075  1.00  0.00    -0.007 A 
ATOM     15  C   UNL A   1      38.229  21.849  25.523  1.00  0.00     0.119 A 
ATOM     16  C   UNL A   1      37.048  23.900  25.810  1.00  0.00     0.020 A 
ATOM     17  N   UNL A   1      37.243  21.300  24.777  1.00  0.00    -0.263 NA
ATOM     18  C   UNL A   1      36.159  22.081  24.557  1.00  0.00     0.119 A 
BRANCH  14  19
ATOM     19  C   UNL A   1      39.329  23.625  26.846  1.00  0.00     0.002 C 
ATOM     20  C   UNL A   1      39.243  24.578  27.783  1.00  0.00     0.009 C 
ENDBRANCH  14  19
ENDBRANCH   8  13
ENDBRANCH   5   7
ENDBRANCH   3   5
ENDBRANCH   2   3
ENDBRANCH   1   2
BRANCH   1  21
ATOM     21  C   UNL A   1      32.151  30.038  26.431  1.00  0.00     0.275 C 
BRANCH  21  22
ATOM     22  O   UNL A   1      33.565  30.292  26.495  1.00  0.00    -0.458 OA
BRANCH  22  23
ATOM     23  C   UNL A   1      33.929  31.309  27.310  1.00  0.00     0.338 C 
ATOM     24  O   UNL A   1      33.278  32.300  27.593  1.00  0.00    -0.246 OA
BRANCH  23  25
ATOM     25  C   UNL A   1      35.220  30.998  27.941  1.00  0.00     0.060 A 
ATOM     26  C   UNL A   1      35.373  29.736  28.514  1.00  0.00     0.016 A 
ATOM     27  C   UNL A   1      36.226  31.956  28.058  1.00  0.00     0.016 A 
ATOM     28  C   UNL A   1      36.517  29.432  29.243  1.00  0.00     0.010 A 
ATOM     29  C   UNL A   1      37.388  31.644  28.776  1.00  0.00     0.010 A 
ATOM     30  C   UNL A   1      37.530  30.388  29.393  1.00  0.00    -0.014 A 
BRANCH  30  31
ATOM     31  C   UNL A   1      38.708  30.058  30.232  1.00  0.00     0.031 A 
ATOM     32  C   UNL A   1      38.851  30.651  31.606  1.00  0.00     0.074 A 
ATOM     33  C   UNL A   1      39.630  29.191  29.771  1.00  0.00     0.049 A 
ATOM     34  N   UNL A   1      39.778  30.434  32.504  1.00  0.00    -0.248 NA
ATOM     35  C   UNL A   1      37.818  31.610  32.029  1.00  0.00     0.031 C 
ATOM     36  C   UNL A   1      39.607  28.562  28.450  1.00  0.00     0.029 A 
ATOM     37  N   UNL A   1      40.761  28.689  30.362  1.00  0.00    -0.354 N 
ATOM     38  C   UNL A   1      39.462  31.249  33.583  1.00  0.00     0.074 A 
ATOM     39  C   UNL A   1      38.261  31.974  33.224  1.00  0.00     0.031 C 
ATOM     40  C   UNL A   1      40.673  27.755  28.332  1.00  0.00     0.029 A 
ATOM     41  C   UNL A   1      41.463  27.822  29.559  1.00  0.00     0.049 A 
ATOM     42  H   UNL A   1      41.043  28.926  31.276  1.00  0.00     0.167 HD
ATOM     43  C   UNL A   1      40.101  31.370  34.771  1.00  0.00     0.034 A 
ATOM     44  C   UNL A   1      42.611  27.156  29.785  1.00  0.00     0.034 A 
ATOM     45  C   UNL A   1      41.273  30.621  35.142  1.00  0.00     0.049 A 
ATOM     46  C   UNL A   1      43.280  27.282  31.127  1.00  0.00     0.074 A 
ATOM     47  C   UNL A   1      41.970  30.648  36.337  1.00  0.00     0.029 A 
ATOM     48  N   UNL A   1      41.923  29.711  34.323  1.00  0.00    -0.354 N 
ATOM     49  N   UNL A   1      42.900  27.968  32.177  1.00  0.00    -0.248 NA
ATOM     50  C   UNL A   1      44.516  26.512  31.328  1.00  0.00     0.031 C 
ATOM     51  C   UNL A   1      43.044  29.756  36.240  1.00  0.00     0.029 A 
ATOM     52  C   UNL A   1      43.011  29.167  34.986  1.00  0.00     0.049 A 
ATOM     53  H   UNL A   1      41.650  29.483  33.405  1.00  0.00     0.167 HD
ATOM     54  C   UNL A   1      43.833  27.694  33.171  1.00  0.00     0.074 A 
ATOM     55  C   UNL A   1      44.780  26.754  32.605  1.00  0.00     0.031 C 
ATOM     56  C   UNL A   1      43.912  28.192  34.429  1.00  0.00     0.034 A 
BRANCH  43  57
ATOM     57  C   UNL A   1      39.516  32.320  35.782  1.00  0.00     0.023 A 
ATOM     58  C   UNL A   1      38.527  31.858  36.672  1.00  0.00     0.012 A 
ATOM     59  C   UNL A   1      39.980  33.646  35.889  1.00  0.00     0.148 A 
ATOM     60  C   UNL A   1      37.988  32.707  37.638  1.00  0.00     0.002 A 
ATOM     61  C   UNL A   1      39.464  34.477  36.878  1.00  0.00     0.091 A 
ATOM     62  F   UNL A   1      40.903  34.074  35.017  1.00  0.00    -0.205 F 
ATOM     63  C   UNL A   1      38.463  34.012  37.747  1.00  0.00     0.022 A 
BRANCH  61  64
ATOM     64  S   UNL A   1      40.063  36.151  37.137  1.00  0.00     0.127 S 
ATOM     65  O   UNL A   1      39.241  36.587  38.264  1.00  0.00    -0.237 OA
ATOM     66  O   UNL A   1      41.473  35.931  37.461  1.00  0.00    -0.237 OA
ATOM     67  O   UNL A   1      39.836  36.852  35.882  1.00  0.00    -0.744 OA
ENDBRANCH  61  64
ENDBRANCH  43  57
BRANCH  44  68
ATOM     68  C   UNL A   1      43.161  26.252  28.736  1.00  0.00     0.023 A 
ATOM     69  C   UNL A   1      42.703  24.923  28.658  1.00  0.00     0.012 A 
ATOM     70  C   UNL A   1      44.099  26.711  27.792  1.00  0.00     0.148 A 
ATOM     71  C   UNL A   1      43.188  24.060  27.674  1.00  0.00     0.002 A 
ATOM     72  C   UNL A   1      44.537  25.864  26.782  1.00  0.00     0.091 A 
ATOM     73  F   UNL A   1      44.542  27.973  27.896  1.00  0.00    -0.205 F 
ATOM     74  C   UNL A   1      44.094  24.534  26.728  1.00  0.00     0.022 A 
BRANCH  72  75
ATOM     75  S   UNL A   1      45.596  26.441  25.449  1.00  0.00     0.127 S 
ATOM     76  O   UNL A   1      45.684  25.256  24.601  1.00  0.00    -0.237 OA
ATOM     77  O   UNL A   1      44.813  27.544  24.889  1.00  0.00    -0.237 OA
ATOM     78  O   UNL A   1      46.833  26.859  26.096  1.00  0.00    -0.744 OA
ENDBRANCH  72  75
ENDBRANCH  44  68
BRANCH  56  79
ATOM     79  C   UNL A   1      45.056  27.720  35.289  1.00  0.00     0.023 A 
ATOM     80  C   UNL A   1      46.266  28.443  35.291  1.00  0.00     0.012 A 
ATOM     81  C   UNL A   1      44.919  26.599  36.130  1.00  0.00     0.148 A 
ATOM     82  C   UNL A   1      47.334  28.035  36.090  1.00  0.00     0.002 A 
ATOM     83  C   UNL A   1      45.975  26.224  36.955  1.00  0.00     0.091 A 
ATOM     84  F   UNL A   1      43.771  25.907  36.100  1.00  0.00    -0.205 F 
ATOM     85  C   UNL A   1      47.186  26.934  36.928  1.00  0.00     0.022 A 
BRANCH  83  86
ATOM     86  S   UNL A   1      45.820  24.867  38.122  1.00  0.00     0.127 S 
ATOM     87  O   UNL A   1      44.715  25.318  38.964  1.00  0.00    -0.237 OA
ATOM     88  O   UNL A   1      45.499  23.731  37.254  1.00  0.00    -0.237 OA
ATOM     89  O   UNL A   1      47.119  24.768  38.774  1.00  0.00    -0.744 OA
ENDBRANCH  83  86
ENDBRANCH  56  79
ENDBRANCH  30  31
ENDBRANCH  23  25
ENDBRANCH  22  23
ENDBRANCH  21  22
ENDBRANCH   1  21
TORSDOF 17
ENDMDL
MODEL 3
REMARK VINA RESULT:     -11.7      4.880     10.343
REMARK SMILES C=Cc1cncc(-c2ccc([C@@H](C)C(=O)OCCOC(=O)c3ccc(-c4c5nc(c(-c6cccc(S(=O)(=O)[O-])c6F)c6ccc([nH]6)c(-c6cccc(S(=O)(=O)[O-])c6F)c6nc(c(-c7cccc(S(=O)(=O)[O-])c7F)c7ccc4[nH]7)C=C6)C=C5)cc3)cc2)c1
REMARK SMILES IDX 17 1 16 2 14 3 15 4 12 5 13 6 11 7 8 8 9 9 86 10 10 11 85 12
REMARK SMILES IDX 7 13 3 14 4 15 87 16 5 17 6 18 2 19 1 20 18 21 19 22 20 23
REMARK SMILES IDX 21 24 22 25 23 26 84 27 24 28 83 29 25 30 26 31 27 32 77 33
REMARK SMILES IDX 28 34 82 35 76 36 78 37 29 38 81 39 75 40 74 41 30 43 62 44
REMARK SMILES IDX 42 45 61 46 43 47 46 48 60 49 79 50 44 51 45 52 59 54 80 55
REMARK SMILES IDX 47 56 31 57 32 58 40 59 33 60 35 61 41 62 34 63 36 64 37 65
REMARK SMILES IDX 38 66 39 67 63 68 64 69 72 70 65 71 67 72 73 73 66 74 68 75
REMARK SMILES IDX 69 76 70 77 71 78 48 79 49 80 57 81 50 82 52 83 58 84 51 85
REMARK SMILES IDX 53 86 54 87 55 88 56 89
REMARK H PARENT 78 42 46 53
REMARK Flexibility Score: inf
ROOT
ATOM      1  C   UNL A   1      31.682  29.026  25.355  1.00  0.00     0.274 C 
ENDROOT
BRANCH   1   2
ATOM      2  O   UNL A   1      30.684  28.943  24.320  1.00  0.00    -0.462 OA
BRANCH   2   3
ATOM      3  C   UNL A   1      31.050  28.317  23.171  1.00  0.00     0.313 C 
ATOM      4  O   UNL A   1      31.874  28.763  22.378  1.00  0.00    -0.252 OA
BRANCH   3   5
ATOM      5  C   UNL A   1      30.288  27.024  22.900  1.00  0.00     0.126 C 
ATOM      6  C   UNL A   1      28.886  27.123  23.500  1.00  0.00     0.025 C 
BRANCH   5   7
ATOM      7  C   UNL A   1      30.995  25.732  23.287  1.00  0.00    -0.034 A 
ATOM      8  C   UNL A   1      32.324  23.304  23.941  1.00  0.00    -0.017 A 
ATOM      9  C   UNL A   1      31.266  23.789  24.727  1.00  0.00     0.009 A 
ATOM     10  C   UNL A   1      32.714  24.060  22.829  1.00  0.00     0.009 A 
ATOM     11  C   UNL A   1      30.612  24.983  24.406  1.00  0.00     0.005 A 
ATOM     12  C   UNL A   1      32.053  25.248  22.501  1.00  0.00     0.005 A 
BRANCH   8  13
ATOM     13  C   UNL A   1      32.971  22.024  24.254  1.00  0.00     0.001 A 
ATOM     14  C   UNL A   1      34.927  20.674  24.779  1.00  0.00    -0.007 A 
ATOM     15  C   UNL A   1      34.080  19.568  24.800  1.00  0.00     0.119 A 
ATOM     16  C   UNL A   1      34.350  21.916  24.487  1.00  0.00     0.020 A 
ATOM     17  N   UNL A   1      32.746  19.617  24.586  1.00  0.00    -0.263 NA
ATOM     18  C   UNL A   1      32.231  20.841  24.318  1.00  0.00     0.119 A 
BRANCH  14  19
ATOM     19  C   UNL A   1      36.365  20.492  25.002  1.00  0.00     0.002 C 
ATOM     20  C   UNL A   1      37.298  21.378  24.630  1.00  0.00     0.009 C 
ENDBRANCH  14  19
ENDBRANCH   8  13
ENDBRANCH   5   7
ENDBRANCH   3   5
ENDBRANCH   2   3
ENDBRANCH   1   2
BRANCH   1  21
ATOM     21  C   UNL A   1      32.023  30.480  25.683  1.00  0.00     0.275 C 
BRANCH  21  22
ATOM     22  O   UNL A   1      32.482  30.609  27.039  1.00  0.00    -0.458 OA
BRANCH  22  23
ATOM     23  C   UNL A   1      33.178  31.739  27.304  1.00  0.00     0.338 C 
ATOM     24  O   UNL A   1      32.777  32.888  27.236  1.00  0.00    -0.246 OA
BRANCH  23  25
ATOM     25  C   UNL A   1      34.507  31.390  27.825  1.00  0.00     0.060 A 
ATOM     26  C   UNL A   1      34.759  30.047  28.106  1.00  0.00     0.016 A 
ATOM     27  C   UNL A   1      35.454  32.366  28.129  1.00  0.00     0.016 A 
ATOM     28  C   UNL A   1      35.945  29.672  28.728  1.00  0.00     0.010 A 
ATOM     29  C   UNL A   1      36.658  31.987  28.737  1.00  0.00     0.010 A 
ATOM     30  C   UNL A   1      36.900  30.641  29.063  1.00  0.00    -0.014 A 
BRANCH  30  31
ATOM     31  C   UNL A   1      38.125  30.219  29.785  1.00  0.00     0.031 A 
ATOM     32  C   UNL A   1      38.375  30.688  31.192  1.00  0.00     0.074 A 
ATOM     33  C   UNL A   1      38.992  29.380  29.189  1.00  0.00     0.049 A 
ATOM     34  N   UNL A   1      39.356  30.378  32.000  1.00  0.00    -0.248 NA
ATOM     35  C   UNL A   1      37.396  31.624  31.766  1.00  0.00     0.031 C 
ATOM     36  C   UNL A   1      38.865  28.869  27.824  1.00  0.00     0.029 A 
ATOM     37  N   UNL A   1      40.149  28.809  29.654  1.00  0.00    -0.354 N 
ATOM     38  C   UNL A   1      39.133  31.102  33.165  1.00  0.00     0.074 A 
ATOM     39  C   UNL A   1      37.928  31.875  32.955  1.00  0.00     0.031 C 
ATOM     40  C   UNL A   1      39.901  28.057  27.563  1.00  0.00     0.029 A 
ATOM     41  C   UNL A   1      40.775  28.003  28.733  1.00  0.00     0.049 A 
ATOM     42  H   UNL A   1      40.499  28.961  30.563  1.00  0.00     0.167 HD
ATOM     43  C   UNL A   1      39.855  31.109  34.311  1.00  0.00     0.034 A 
ATOM     44  C   UNL A   1      41.921  27.301  28.820  1.00  0.00     0.034 A 
ATOM     45  C   UNL A   1      41.032  30.310  34.533  1.00  0.00     0.049 A 
ATOM     46  C   UNL A   1      42.682  27.299  30.117  1.00  0.00     0.074 A 
ATOM     47  C   UNL A   1      41.809  30.221  35.675  1.00  0.00     0.029 A 
ATOM     48  N   UNL A   1      41.603  29.463  33.597  1.00  0.00    -0.354 N 
ATOM     49  N   UNL A   1      42.390  27.897  31.247  1.00  0.00    -0.248 NA
ATOM     50  C   UNL A   1      43.911  26.494  30.165  1.00  0.00     0.031 C 
ATOM     51  C   UNL A   1      42.854  29.323  35.427  1.00  0.00     0.029 A 
ATOM     52  C   UNL A   1      42.721  28.846  34.133  1.00  0.00     0.049 A 
ATOM     53  H   UNL A   1      41.263  29.321  32.683  1.00  0.00     0.167 HD
ATOM     54  C   UNL A   1      43.383  27.522  32.145  1.00  0.00     0.074 A 
ATOM     55  C   UNL A   1      44.267  26.619  31.436  1.00  0.00     0.031 C 
ATOM     56  C   UNL A   1      43.560  27.908  33.433  1.00  0.00     0.034 A 
BRANCH  43  57
ATOM     57  C   UNL A   1      39.362  31.977  35.438  1.00  0.00     0.023 A 
ATOM     58  C   UNL A   1      38.444  31.448  36.367  1.00  0.00     0.012 A 
ATOM     59  C   UNL A   1      39.845  33.289  35.611  1.00  0.00     0.148 A 
ATOM     60  C   UNL A   1      37.994  32.220  37.437  1.00  0.00     0.002 A 
ATOM     61  C   UNL A   1      39.418  34.040  36.701  1.00  0.00     0.091 A 
ATOM     62  F   UNL A   1      40.697  33.783  34.702  1.00  0.00    -0.205 F 
ATOM     63  C   UNL A   1      38.488  33.510  37.610  1.00  0.00     0.022 A 
BRANCH  61  64
ATOM     64  S   UNL A   1      40.051  35.687  37.041  1.00  0.00     0.127 S 
ATOM     65  O   UNL A   1      41.484  35.432  37.167  1.00  0.00    -0.237 OA
ATOM     66  O   UNL A   1      39.667  36.424  35.837  1.00  0.00    -0.237 OA
ATOM     67  O   UNL A   1      39.379  36.126  38.256  1.00  0.00    -0.744 OA
ENDBRANCH  61  64
ENDBRANCH  43  57
BRANCH  44  68
ATOM     68  C   UNL A   1      42.376  26.482  27.662  1.00  0.00     0.023 A 
ATOM     69  C   UNL A   1      43.227  27.057  26.699  1.00  0.00     0.012 A 
ATOM     70  C   UNL A   1      42.006  25.130  27.531  1.00  0.00     0.148 A 
ATOM     71  C   UNL A   1      43.683  26.307  25.614  1.00  0.00     0.002 A 
ATOM     72  C   UNL A   1      42.507  24.374  26.478  1.00  0.00     0.091 A 
ATOM     73  F   UNL A   1      41.176  24.605  28.443  1.00  0.00    -0.205 F 
ATOM     74  C   UNL A   1      43.334  24.963  25.510  1.00  0.00     0.022 A 
BRANCH  72  75
ATOM     75  S   UNL A   1      42.214  22.605  26.354  1.00  0.00     0.127 S 
ATOM     76  O   UNL A   1      40.760  22.534  26.460  1.00  0.00    -0.237 OA
ATOM     77  O   UNL A   1      42.752  22.295  25.028  1.00  0.00    -0.237 OA
ATOM     78  O   UNL A   1      42.966  22.013  27.453  1.00  0.00    -0.744 OA
ENDBRANCH  72  75
ENDBRANCH  44  68
BRANCH  56  79
ATOM     79  C   UNL A   1      44.748  27.344  34.167  1.00  0.00     0.023 A 
ATOM     80  C   UNL A   1      45.955  28.072  34.195  1.00  0.00     0.012 A 
ATOM     81  C   UNL A   1      44.659  26.127  34.869  1.00  0.00     0.148 A 
ATOM     82  C   UNL A   1      47.064  27.578  34.880  1.00  0.00     0.002 A 
ATOM     83  C   UNL A   1      45.758  25.662  35.585  1.00  0.00     0.091 A 
ATOM     84  F   UNL A   1      43.512  25.433  34.814  1.00  0.00    -0.205 F 
ATOM     85  C   UNL A   1      46.964  26.380  35.583  1.00  0.00     0.022 A 
BRANCH  83  86
ATOM     86  S   UNL A   1      45.668  24.170  36.582  1.00  0.00     0.127 S 
ATOM     87  O   UNL A   1      46.986  24.146  37.209  1.00  0.00    -0.237 OA
ATOM     88  O   UNL A   1      44.563  24.462  37.498  1.00  0.00    -0.237 OA
ATOM     89  O   UNL A   1      45.390  23.093  35.640  1.00  0.00    -0.744 OA
ENDBRANCH  83  86
ENDBRANCH  56  79
ENDBRANCH  30  31
ENDBRANCH  23  25
ENDBRANCH  22  23
ENDBRANCH  21  22
ENDBRANCH   1  21
TORSDOF 17
ENDMDL
