MODEL 1
REMARK VINA RESULT:     -12.1      0.000      0.000
REMARK SMILES COc1ccc2[nH]c(C(=O)c3cc(C)ccn3)c(CC(=O)OCCOC(=O)c3ccc(-c4c5nc(c(-c6cccc(S(=O)(=O)[O-])c6F)c6ccc([nH]6)c(-c6cccc(S(=O)(=O)[O-])c6F)c6nc(c(-c7cccc(S(=O)(=O)[O-])c7F)c7ccc4[nH]7)C=C6)C=C5)cc3)c2c1
REMARK SMILES IDX 23 1 22 2 20 3 21 4 19 5 18 6 3 7 4 8 92 9 5 10 91 11 6 12
REMARK SMILES IDX 7 13 8 14 2 16 1 17 9 18 10 19 11 20 12 21 17 22 13 23 16 24
REMARK SMILES IDX 14 25 15 26 24 27 25 28 26 29 27 30 28 31 29 32 90 33 30 34
REMARK SMILES IDX 89 35 31 36 32 37 33 38 83 39 34 40 88 41 82 42 84 43 35 44
REMARK SMILES IDX 87 45 81 46 80 47 36 49 68 50 48 51 67 52 49 53 52 54 66 55
REMARK SMILES IDX 85 56 50 57 51 58 65 60 86 61 53 62 37 63 38 64 46 65 39 66
REMARK SMILES IDX 41 67 47 68 40 69 42 70 43 71 44 72 45 73 69 74 70 75 78 76
REMARK SMILES IDX 71 77 73 78 79 79 72 80 74 81 75 82 76 83 77 84 54 85 55 86
REMARK SMILES IDX 63 87 56 88 58 89 64 90 57 91 59 92 60 93 61 94 62 95
REMARK H PARENT 7 15 84 48 52 59
REMARK Flexibility Score: inf
ROOT
ATOM      1  C   UNL A   1      36.433  21.253  24.413  1.00  0.00     0.274 C 
ENDROOT
BRANCH   1   2
ATOM      2  O   UNL A   1      36.681  22.506  23.741  1.00  0.00    -0.462 OA
BRANCH   2   3
ATOM      3  C   UNL A   1      35.719  23.456  23.901  1.00  0.00     0.310 C 
ATOM      4  O   UNL A   1      34.963  23.825  23.005  1.00  0.00    -0.252 OA
BRANCH   3   5
ATOM      5  C   UNL A   1      35.604  24.016  25.304  1.00  0.00     0.161 C 
BRANCH   5   6
ATOM      6  C   UNL A   1      34.216  24.239  25.826  1.00  0.00     0.000 A 
ATOM      7  C   UNL A   1      32.600  27.481  24.624  1.00  0.00     0.119 A 
ATOM      8  C   UNL A   1      31.358  27.255  25.216  1.00  0.00     0.048 A 
ATOM      9  C   UNL A   1      33.643  26.568  24.801  1.00  0.00     0.057 A 
ATOM     10  C   UNL A   1      31.135  26.130  26.022  1.00  0.00     0.030 A 
ATOM     11  C   UNL A   1      33.429  25.405  25.568  1.00  0.00     0.008 A 
ATOM     12  C   UNL A   1      32.188  25.219  26.166  1.00  0.00     0.046 A 
ATOM     13  N   UNL A   1      32.244  24.016  26.830  1.00  0.00    -0.352 N 
ATOM     14  C   UNL A   1      33.376  23.321  26.459  1.00  0.00     0.093 A 
ATOM     15  H   UNL A   1      31.573  23.696  27.476  1.00  0.00     0.167 HD
BRANCH   7  16
ATOM     16  O   UNL A   1      32.879  28.515  23.771  1.00  0.00    -0.497 OA
ATOM     17  C   UNL A   1      31.933  28.687  22.724  1.00  0.00     0.278 C 
ENDBRANCH   7  16
BRANCH  14  18
ATOM     18  C   UNL A   1      33.547  21.885  26.618  1.00  0.00     0.227 C 
ATOM     19  O   UNL A   1      34.149  21.387  27.565  1.00  0.00    -0.285 OA
BRANCH  18  20
ATOM     20  C   UNL A   1      33.128  20.978  25.525  1.00  0.00     0.113 A 
ATOM     21  C   UNL A   1      32.666  21.523  24.332  1.00  0.00     0.036 A 
ATOM     22  N   UNL A   1      33.247  19.650  25.759  1.00  0.00    -0.253 NA
ATOM     23  C   UNL A   1      32.319  20.651  23.299  1.00  0.00    -0.047 A 
ATOM     24  C   UNL A   1      32.997  18.836  24.714  1.00  0.00     0.112 A 
ATOM     25  C   UNL A   1      31.774  21.160  21.999  1.00  0.00     0.044 C 
ATOM     26  C   UNL A   1      32.528  19.281  23.486  1.00  0.00     0.023 A 
ENDBRANCH  18  20
ENDBRANCH  14  18
ENDBRANCH   5   6
ENDBRANCH   3   5
ENDBRANCH   2   3
ENDBRANCH   1   2
BRANCH   1  27
ATOM     27  C   UNL A   1      37.728  20.684  24.986  1.00  0.00     0.275 C 
BRANCH  27  28
ATOM     28  O   UNL A   1      38.126  21.456  26.131  1.00  0.00    -0.458 OA
BRANCH  28  29
ATOM     29  C   UNL A   1      39.447  21.421  26.416  1.00  0.00     0.338 C 
ATOM     30  O   UNL A   1      40.189  20.447  26.315  1.00  0.00    -0.246 OA
BRANCH  29  31
ATOM     31  C   UNL A   1      39.902  22.724  26.929  1.00  0.00     0.060 A 
ATOM     32  C   UNL A   1      39.337  23.921  26.487  1.00  0.00     0.016 A 
ATOM     33  C   UNL A   1      40.990  22.750  27.804  1.00  0.00     0.016 A 
ATOM     34  C   UNL A   1      39.924  25.138  26.836  1.00  0.00     0.010 A 
ATOM     35  C   UNL A   1      41.508  23.972  28.236  1.00  0.00     0.010 A 
ATOM     36  C   UNL A   1      41.007  25.181  27.728  1.00  0.00    -0.014 A 
BRANCH  36  37
ATOM     37  C   UNL A   1      41.611  26.478  28.144  1.00  0.00     0.031 A 
ATOM     38  C   UNL A   1      40.787  27.522  28.854  1.00  0.00     0.074 A 
ATOM     39  C   UNL A   1      42.896  26.745  27.835  1.00  0.00     0.049 A 
ATOM     40  N   UNL A   1      41.094  28.763  29.140  1.00  0.00    -0.248 NA
ATOM     41  C   UNL A   1      39.433  27.130  29.282  1.00  0.00     0.031 C 
ATOM     42  C   UNL A   1      43.803  25.834  27.134  1.00  0.00     0.029 A 
ATOM     43  N   UNL A   1      43.658  27.867  28.053  1.00  0.00    -0.354 N 
ATOM     44  C   UNL A   1      39.957  29.318  29.714  1.00  0.00     0.074 A 
ATOM     45  C   UNL A   1      38.951  28.278  29.745  1.00  0.00     0.031 C 
ATOM     46  C   UNL A   1      45.000  26.423  26.997  1.00  0.00     0.029 A 
ATOM     47  C   UNL A   1      44.929  27.775  27.538  1.00  0.00     0.049 A 
ATOM     48  H   UNL A   1      43.326  28.660  28.533  1.00  0.00     0.167 HD
ATOM     49  C   UNL A   1      39.773  30.574  30.188  1.00  0.00     0.034 A 
ATOM     50  C   UNL A   1      45.924  28.682  27.476  1.00  0.00     0.034 A 
ATOM     51  C   UNL A   1      40.799  31.584  30.239  1.00  0.00     0.049 A 
ATOM     52  C   UNL A   1      45.707  30.051  28.052  1.00  0.00     0.074 A 
ATOM     53  C   UNL A   1      40.720  32.864  30.760  1.00  0.00     0.029 A 
ATOM     54  N   UNL A   1      42.094  31.424  29.771  1.00  0.00    -0.354 N 
ATOM     55  N   UNL A   1      44.647  30.533  28.655  1.00  0.00    -0.248 NA
ATOM     56  C   UNL A   1      46.827  30.999  27.951  1.00  0.00     0.031 C 
ATOM     57  C   UNL A   1      41.968  33.477  30.609  1.00  0.00     0.029 A 
ATOM     58  C   UNL A   1      42.824  32.580  29.994  1.00  0.00     0.049 A 
ATOM     59  H   UNL A   1      42.442  30.609  29.343  1.00  0.00     0.167 HD
ATOM     60  C   UNL A   1      44.975  31.833  29.016  1.00  0.00     0.074 A 
ATOM     61  C   UNL A   1      46.343  32.054  28.594  1.00  0.00     0.031 C 
ATOM     62  C   UNL A   1      44.201  32.770  29.616  1.00  0.00     0.034 A 
BRANCH  49  63
ATOM     63  C   UNL A   1      38.420  30.924  30.750  1.00  0.00     0.023 A 
ATOM     64  C   UNL A   1      38.143  30.653  32.103  1.00  0.00     0.012 A 
ATOM     65  C   UNL A   1      37.458  31.594  29.967  1.00  0.00     0.148 A 
ATOM     66  C   UNL A   1      36.922  31.025  32.667  1.00  0.00     0.002 A 
ATOM     67  C   UNL A   1      36.256  31.990  30.545  1.00  0.00     0.091 A 
ATOM     68  F   UNL A   1      37.728  31.822  28.674  1.00  0.00    -0.205 F 
ATOM     69  C   UNL A   1      35.984  31.703  31.892  1.00  0.00     0.022 A 
BRANCH  67  70
ATOM     70  S   UNL A   1      35.020  32.928  29.636  1.00  0.00     0.127 S 
ATOM     71  O   UNL A   1      35.827  34.007  29.069  1.00  0.00    -0.237 OA
ATOM     72  O   UNL A   1      34.537  31.952  28.659  1.00  0.00    -0.237 OA
ATOM     73  O   UNL A   1      34.028  33.331  30.624  1.00  0.00    -0.744 OA
ENDBRANCH  67  70
ENDBRANCH  49  63
BRANCH  50  74
ATOM     74  C   UNL A   1      47.231  28.293  26.878  1.00  0.00     0.023 A 
ATOM     75  C   UNL A   1      48.326  28.044  27.726  1.00  0.00     0.012 A 
ATOM     76  C   UNL A   1      47.377  28.097  25.491  1.00  0.00     0.148 A 
ATOM     77  C   UNL A   1      49.547  27.617  27.202  1.00  0.00     0.002 A 
ATOM     78  C   UNL A   1      48.577  27.616  24.982  1.00  0.00     0.091 A 
ATOM     79  F   UNL A   1      46.332  28.366  24.695  1.00  0.00    -0.205 F 
ATOM     80  C   UNL A   1      49.667  27.386  25.833  1.00  0.00     0.022 A 
BRANCH  78  81
ATOM     81  S   UNL A   1      48.749  27.154  23.254  1.00  0.00     0.127 S 
ATOM     82  O   UNL A   1      50.199  27.098  23.099  1.00  0.00    -0.237 OA
ATOM     83  O   UNL A   1      48.073  25.856  23.207  1.00  0.00    -0.237 OA
ATOM     84  O   UNL A   1      48.063  28.205  22.512  1.00  0.00    -0.744 OA
ENDBRANCH  78  81
ENDBRANCH  50  74
BRANCH  62  85
ATOM     85  C   UNL A   1      44.815  34.122  29.855  1.00  0.00     0.023 A 
ATOM     86  C   UNL A   1      45.513  34.355  31.057  1.00  0.00     0.012 A 
ATOM     87  C   UNL A   1      44.754  35.137  28.882  1.00  0.00     0.148 A 
ATOM     88  C   UNL A   1      46.120  35.588  31.296  1.00  0.00     0.002 A 
ATOM     89  C   UNL A   1      45.391  36.352  29.113  1.00  0.00     0.091 A 
ATOM     90  F   UNL A   1      44.064  34.906  27.755  1.00  0.00    -0.205 F 
ATOM     91  C   UNL A   1      46.067  36.582  30.322  1.00  0.00     0.022 A 
BRANCH  89  92
ATOM     92  S   UNL A   1      45.433  37.651  27.873  1.00  0.00     0.127 S 
ATOM     93  O   UNL A   1      44.019  38.005  27.760  1.00  0.00    -0.237 OA
ATOM     94  O   UNL A   1      46.269  38.672  28.506  1.00  0.00    -0.237 OA
ATOM     95  O   UNL A   1      46.030  37.042  26.691  1.00  0.00    -0.744 OA
ENDBRANCH  89  92
ENDBRANCH  62  85
ENDBRANCH  36  37
ENDBRANCH  29  31
ENDBRANCH  28  29
ENDBRANCH  27  28
ENDBRANCH   1  27
TORSDOF 18
ENDMDL
MODEL 2
REMARK VINA RESULT:     -11.9      5.122     10.113
REMARK SMILES COc1ccc2[nH]c(C(=O)c3cc(C)ccn3)c(CC(=O)OCCOC(=O)c3ccc(-c4c5nc(c(-c6cccc(S(=O)(=O)[O-])c6F)c6ccc([nH]6)c(-c6cccc(S(=O)(=O)[O-])c6F)c6nc(c(-c7cccc(S(=O)(=O)[O-])c7F)c7ccc4[nH]7)C=C6)C=C5)cc3)c2c1
REMARK SMILES IDX 23 1 22 2 20 3 21 4 19 5 18 6 3 7 4 8 92 9 5 10 91 11 6 12
REMARK SMILES IDX 7 13 8 14 2 16 1 17 9 18 10 19 11 20 12 21 17 22 13 23 16 24
REMARK SMILES IDX 14 25 15 26 24 27 25 28 26 29 27 30 28 31 29 32 90 33 30 34
REMARK SMILES IDX 89 35 31 36 32 37 33 38 83 39 34 40 88 41 82 42 84 43 35 44
REMARK SMILES IDX 87 45 81 46 80 47 36 49 68 50 48 51 67 52 49 53 52 54 66 55
REMARK SMILES IDX 85 56 50 57 51 58 65 60 86 61 53 62 37 63 38 64 46 65 39 66
REMARK SMILES IDX 41 67 47 68 40 69 42 70 43 71 44 72 45 73 69 74 70 75 78 76
REMARK SMILES IDX 71 77 73 78 79 79 72 80 74 81 75 82 76 83 77 84 54 85 55 86
REMARK SMILES IDX 63 87 56 88 58 89 64 90 57 91 59 92 60 93 61 94 62 95
REMARK H PARENT 7 15 84 48 52 59
REMARK Flexibility Score: inf
ROOT
ATOM      1  C   UNL A   1      31.441  30.000  25.544  1.00  0.00     0.274 C 
ENDROOT
BRANCH   1   2
ATOM      2  O   UNL A   1      31.744  28.757  26.211  1.00  0.00    -0.462 OA
BRANCH   2   3
ATOM      3  C   UNL A   1      32.857  28.111  25.769  1.00  0.00     0.310 C 
ATOM      4  O   UNL A   1      33.820  28.675  25.253  1.00  0.00    -0.252 OA
BRANCH   3   5
ATOM      5  C   UNL A   1      32.857  26.613  25.997  1.00  0.00     0.161 C 
BRANCH   5   6
ATOM      6  C   UNL A   1      33.099  25.750  24.795  1.00  0.00     0.000 A 
ATOM      7  C   UNL A   1      36.175  23.508  25.079  1.00  0.00     0.119 A 
ATOM      8  C   UNL A   1      35.981  22.837  23.873  1.00  0.00     0.048 A 
ATOM      9  C   UNL A   1      35.306  24.532  25.466  1.00  0.00     0.057 A 
ATOM     10  C   UNL A   1      34.933  23.191  23.010  1.00  0.00     0.030 A 
ATOM     11  C   UNL A   1      34.218  24.872  24.638  1.00  0.00     0.008 A 
ATOM     12  C   UNL A   1      34.063  24.203  23.430  1.00  0.00     0.046 A 
ATOM     13  N   UNL A   1      32.932  24.711  22.836  1.00  0.00    -0.352 N 
ATOM     14  C   UNL A   1      32.229  25.483  23.737  1.00  0.00     0.093 A 
ATOM     15  H   UNL A   1      32.661  24.547  21.904  1.00  0.00     0.167 HD
BRANCH   7  16
ATOM     16  O   UNL A   1      37.128  23.181  26.006  1.00  0.00    -0.497 OA
ATOM     17  C   UNL A   1      38.002  24.246  26.354  1.00  0.00     0.278 C 
ENDBRANCH   7  16
BRANCH  14  18
ATOM     18  C   UNL A   1      30.818  25.817  23.609  1.00  0.00     0.227 C 
ATOM     19  O   UNL A   1      29.921  24.997  23.786  1.00  0.00    -0.285 OA
BRANCH  18  20
ATOM     20  C   UNL A   1      30.431  27.148  23.090  1.00  0.00     0.113 A 
ATOM     21  C   UNL A   1      29.142  27.616  23.321  1.00  0.00     0.036 A 
ATOM     22  N   UNL A   1      31.387  27.844  22.431  1.00  0.00    -0.253 NA
ATOM     23  C   UNL A   1      28.811  28.893  22.863  1.00  0.00    -0.047 A 
ATOM     24  C   UNL A   1      31.070  29.108  22.084  1.00  0.00     0.112 A 
ATOM     25  C   UNL A   1      27.431  29.450  23.037  1.00  0.00     0.044 C 
ATOM     26  C   UNL A   1      29.813  29.666  22.267  1.00  0.00     0.023 A 
ENDBRANCH  18  20
ENDBRANCH  14  18
ENDBRANCH   5   6
ENDBRANCH   3   5
ENDBRANCH   2   3
ENDBRANCH   1   2
BRANCH   1  27
ATOM     27  C   UNL A   1      31.736  31.187  26.456  1.00  0.00     0.275 C 
BRANCH  27  28
ATOM     28  O   UNL A   1      32.832  30.862  27.328  1.00  0.00    -0.458 OA
BRANCH  28  29
ATOM     29  C   UNL A   1      33.658  31.892  27.619  1.00  0.00     0.338 C 
ATOM     30  O   UNL A   1      33.413  33.086  27.473  1.00  0.00    -0.246 OA
BRANCH  29  31
ATOM     31  C   UNL A   1      34.957  31.394  28.102  1.00  0.00     0.060 A 
ATOM     32  C   UNL A   1      35.120  30.077  28.532  1.00  0.00     0.016 A 
ATOM     33  C   UNL A   1      36.013  32.300  28.218  1.00  0.00     0.016 A 
ATOM     34  C   UNL A   1      36.302  29.695  29.171  1.00  0.00     0.010 A 
ATOM     35  C   UNL A   1      37.231  31.885  28.761  1.00  0.00     0.010 A 
ATOM     36  C   UNL A   1      37.378  30.589  29.280  1.00  0.00    -0.014 A 
BRANCH  36  37
ATOM     37  C   UNL A   1      38.659  30.177  29.918  1.00  0.00     0.031 A 
ATOM     38  C   UNL A   1      39.577  29.188  29.243  1.00  0.00     0.074 A 
ATOM     39  C   UNL A   1      38.979  30.651  31.140  1.00  0.00     0.049 A 
ATOM     40  N   UNL A   1      40.641  28.591  29.719  1.00  0.00    -0.248 NA
ATOM     41  C   UNL A   1      39.247  28.805  27.860  1.00  0.00     0.031 C 
ATOM     42  C   UNL A   1      38.175  31.596  31.915  1.00  0.00     0.029 A 
ATOM     43  N   UNL A   1      40.056  30.388  31.952  1.00  0.00    -0.354 N 
ATOM     44  C   UNL A   1      41.065  27.715  28.728  1.00  0.00     0.074 A 
ATOM     45  C   UNL A   1      40.149  27.861  27.616  1.00  0.00     0.031 C 
ATOM     46  C   UNL A   1      38.792  31.849  33.079  1.00  0.00     0.029 A 
ATOM     47  C   UNL A   1      39.999  31.036  33.163  1.00  0.00     0.049 A 
ATOM     48  H   UNL A   1      40.795  29.793  31.691  1.00  0.00     0.167 HD
ATOM     49  C   UNL A   1      42.130  26.877  28.735  1.00  0.00     0.034 A 
ATOM     50  C   UNL A   1      40.807  30.966  34.239  1.00  0.00     0.034 A 
ATOM     51  C   UNL A   1      43.094  26.794  29.802  1.00  0.00     0.049 A 
ATOM     52  C   UNL A   1      42.007  30.065  34.201  1.00  0.00     0.074 A 
ATOM     53  C   UNL A   1      44.240  26.020  29.868  1.00  0.00     0.029 A 
ATOM     54  N   UNL A   1      43.037  27.522  30.981  1.00  0.00    -0.354 N 
ATOM     55  N   UNL A   1      42.430  29.298  33.225  1.00  0.00    -0.248 NA
ATOM     56  C   UNL A   1      42.848  30.028  35.405  1.00  0.00     0.031 C 
ATOM     57  C   UNL A   1      44.877  26.281  31.086  1.00  0.00     0.029 A 
ATOM     58  C   UNL A   1      44.128  27.217  31.778  1.00  0.00     0.049 A 
ATOM     59  H   UNL A   1      42.326  28.160  31.216  1.00  0.00     0.167 HD
ATOM     60  C   UNL A   1      43.591  28.697  33.692  1.00  0.00     0.074 A 
ATOM     61  C   UNL A   1      43.825  29.214  35.025  1.00  0.00     0.031 C 
ATOM     62  C   UNL A   1      44.377  27.776  33.082  1.00  0.00     0.034 A 
BRANCH  49  63
ATOM     63  C   UNL A   1      42.355  26.013  27.522  1.00  0.00     0.023 A 
ATOM     64  C   UNL A   1      43.018  26.551  26.403  1.00  0.00     0.012 A 
ATOM     65  C   UNL A   1      41.990  24.652  27.521  1.00  0.00     0.148 A 
ATOM     66  C   UNL A   1      43.298  25.756  25.292  1.00  0.00     0.002 A 
ATOM     67  C   UNL A   1      42.300  23.857  26.422  1.00  0.00     0.091 A 
ATOM     68  F   UNL A   1      41.338  24.161  28.584  1.00  0.00    -0.205 F 
ATOM     69  C   UNL A   1      42.949  24.407  25.305  1.00  0.00     0.022 A 
BRANCH  67  70
ATOM     70  S   UNL A   1      41.948  22.093  26.385  1.00  0.00     0.127 S 
ATOM     71  O   UNL A   1      40.489  22.086  26.292  1.00  0.00    -0.237 OA
ATOM     72  O   UNL A   1      42.636  21.660  25.168  1.00  0.00    -0.237 OA
ATOM     73  O   UNL A   1      42.508  21.554  27.616  1.00  0.00    -0.744 OA
ENDBRANCH  67  70
ENDBRANCH  49  63
BRANCH  50  74
ATOM     74  C   UNL A   1      40.518  31.819  35.425  1.00  0.00     0.023 A 
ATOM     75  C   UNL A   1      41.351  32.920  35.699  1.00  0.00     0.012 A 
ATOM     76  C   UNL A   1      39.389  31.591  36.238  1.00  0.00     0.148 A 
ATOM     77  C   UNL A   1      41.070  33.774  36.765  1.00  0.00     0.002 A 
ATOM     78  C   UNL A   1      39.084  32.479  37.262  1.00  0.00     0.091 A 
ATOM     79  F   UNL A   1      38.623  30.522  35.981  1.00  0.00    -0.205 F 
ATOM     80  C   UNL A   1      39.929  33.564  37.536  1.00  0.00     0.022 A 
BRANCH  78  81
ATOM     81  S   UNL A   1      37.551  32.353  38.191  1.00  0.00     0.127 S 
ATOM     82  O   UNL A   1      37.879  33.075  39.416  1.00  0.00    -0.237 OA
ATOM     83  O   UNL A   1      36.595  33.032  37.313  1.00  0.00    -0.237 OA
ATOM     84  O   UNL A   1      37.310  30.922  38.331  1.00  0.00    -0.744 OA
ENDBRANCH  78  81
ENDBRANCH  50  74
BRANCH  62  85
ATOM     85  C   UNL A   1      45.567  27.268  33.849  1.00  0.00     0.023 A 
ATOM     86  C   UNL A   1      46.791  27.959  33.754  1.00  0.00     0.012 A 
ATOM     87  C   UNL A   1      45.466  26.152  34.702  1.00  0.00     0.148 A 
ATOM     88  C   UNL A   1      47.905  27.531  34.476  1.00  0.00     0.002 A 
ATOM     89  C   UNL A   1      46.572  25.752  35.445  1.00  0.00     0.091 A 
ATOM     90  F   UNL A   1      44.300  25.492  34.761  1.00  0.00    -0.205 F 
ATOM     91  C   UNL A   1      47.793  26.435  35.329  1.00  0.00     0.022 A 
BRANCH  89  92
ATOM     92  S   UNL A   1      46.482  24.398  36.622  1.00  0.00     0.127 S 
ATOM     93  O   UNL A   1      45.404  24.839  37.505  1.00  0.00    -0.237 OA
ATOM     94  O   UNL A   1      46.144  23.256  35.771  1.00  0.00    -0.237 OA
ATOM     95  O   UNL A   1      47.805  24.318  37.228  1.00  0.00    -0.744 OA
ENDBRANCH  89  92
ENDBRANCH  62  85
ENDBRANCH  36  37
ENDBRANCH  29  31
ENDBRANCH  28  29
ENDBRANCH  27  28
ENDBRANCH   1  27
TORSDOF 18
ENDMDL
MODEL 3
REMARK VINA RESULT:     -11.7      5.120      9.765
REMARK SMILES COc1ccc2[nH]c(C(=O)c3cc(C)ccn3)c(CC(=O)OCCOC(=O)c3ccc(-c4c5nc(c(-c6cccc(S(=O)(=O)[O-])c6F)c6ccc([nH]6)c(-c6cccc(S(=O)(=O)[O-])c6F)c6nc(c(-c7cccc(S(=O)(=O)[O-])c7F)c7ccc4[nH]7)C=C6)C=C5)cc3)c2c1
REMARK SMILES IDX 23 1 22 2 20 3 21 4 19 5 18 6 3 7 4 8 92 9 5 10 91 11 6 12
REMARK SMILES IDX 7 13 8 14 2 16 1 17 9 18 10 19 11 20 12 21 17 22 13 23 16 24
REMARK SMILES IDX 14 25 15 26 24 27 25 28 26 29 27 30 28 31 29 32 90 33 30 34
REMARK SMILES IDX 89 35 31 36 32 37 33 38 83 39 34 40 88 41 82 42 84 43 35 44
REMARK SMILES IDX 87 45 81 46 80 47 36 49 68 50 48 51 67 52 49 53 52 54 66 55
REMARK SMILES IDX 85 56 50 57 51 58 65 60 86 61 53 62 37 63 38 64 46 65 39 66
REMARK SMILES IDX 41 67 47 68 40 69 42 70 43 71 44 72 45 73 69 74 70 75 78 76
REMARK SMILES IDX 71 77 73 78 79 79 72 80 74 81 75 82 76 83 77 84 54 85 55 86
REMARK SMILES IDX 63 87 56 88 58 89 64 90 57 91 59 92 60 93 61 94 62 95
REMARK H PARENT 7 15 84 48 52 59
REMARK Flexibility Score: inf
ROOT
ATOM      1  C   UNL A   1      31.855  29.983  24.951  1.00  0.00     0.274 C 
ENDROOT
BRANCH   1   2
ATOM      2  O   UNL A   1      32.295  28.617  25.100  1.00  0.00    -0.462 OA
BRANCH   2   3
ATOM      3  C   UNL A   1      32.926  28.084  24.019  1.00  0.00     0.310 C 
ATOM      4  O   UNL A   1      34.147  28.028  23.894  1.00  0.00    -0.252 OA
BRANCH   3   5
ATOM      5  C   UNL A   1      32.004  27.505  22.964  1.00  0.00     0.161 C 
BRANCH   5   6
ATOM      6  C   UNL A   1      30.687  26.971  23.443  1.00  0.00     0.000 A 
ATOM      7  C   UNL A   1      27.747  29.336  22.870  1.00  0.00     0.119 A 
ATOM      8  C   UNL A   1      26.762  28.463  23.329  1.00  0.00     0.048 A 
ATOM      9  C   UNL A   1      29.094  28.966  22.907  1.00  0.00     0.057 A 
ATOM     10  C   UNL A   1      27.100  27.211  23.864  1.00  0.00     0.030 A 
ATOM     11  C   UNL A   1      29.453  27.694  23.395  1.00  0.00     0.008 A 
ATOM     12  C   UNL A   1      28.452  26.853  23.869  1.00  0.00     0.046 A 
ATOM     13  N   UNL A   1      29.067  25.688  24.264  1.00  0.00    -0.352 N 
ATOM     14  C   UNL A   1      30.372  25.664  23.818  1.00  0.00     0.093 A 
ATOM     15  H   UNL A   1      28.638  24.974  24.788  1.00  0.00     0.167 HD
BRANCH   7  16
ATOM     16  O   UNL A   1      27.498  30.543  22.274  1.00  0.00    -0.497 OA
ATOM     17  C   UNL A   1      28.324  30.830  21.154  1.00  0.00     0.278 C 
ENDBRANCH   7  16
BRANCH  14  18
ATOM     18  C   UNL A   1      31.170  24.457  23.676  1.00  0.00     0.227 C 
ATOM     19  O   UNL A   1      30.728  23.420  23.187  1.00  0.00    -0.285 OA
BRANCH  18  20
ATOM     20  C   UNL A   1      32.520  24.401  24.283  1.00  0.00     0.113 A 
ATOM     21  C   UNL A   1      33.565  23.840  23.558  1.00  0.00     0.036 A 
ATOM     22  N   UNL A   1      32.651  24.935  25.519  1.00  0.00    -0.253 NA
ATOM     23  C   UNL A   1      34.839  23.839  24.130  1.00  0.00    -0.047 A 
ATOM     24  C   UNL A   1      33.906  25.008  26.007  1.00  0.00     0.112 A 
ATOM     25  C   UNL A   1      36.007  23.214  23.430  1.00  0.00     0.044 C 
ATOM     26  C   UNL A   1      35.014  24.473  25.364  1.00  0.00     0.023 A 
ENDBRANCH  18  20
ENDBRANCH  14  18
ENDBRANCH   5   6
ENDBRANCH   3   5
ENDBRANCH   2   3
ENDBRANCH   1   2
BRANCH   1  27
ATOM     27  C   UNL A   1      31.764  30.670  26.310  1.00  0.00     0.275 C 
BRANCH  27  28
ATOM     28  O   UNL A   1      32.934  30.363  27.084  1.00  0.00    -0.458 OA
BRANCH  28  29
ATOM     29  C   UNL A   1      33.643  31.434  27.505  1.00  0.00     0.338 C 
ATOM     30  O   UNL A   1      33.281  32.607  27.466  1.00  0.00    -0.246 OA
BRANCH  29  31
ATOM     31  C   UNL A   1      34.972  31.021  27.987  1.00  0.00     0.060 A 
ATOM     32  C   UNL A   1      35.230  29.708  28.381  1.00  0.00     0.016 A 
ATOM     33  C   UNL A   1      35.956  32.000  28.138  1.00  0.00     0.016 A 
ATOM     34  C   UNL A   1      36.431  29.397  29.021  1.00  0.00     0.010 A 
ATOM     35  C   UNL A   1      37.197  31.661  28.681  1.00  0.00     0.010 A 
ATOM     36  C   UNL A   1      37.437  30.365  29.165  1.00  0.00    -0.014 A 
BRANCH  36  37
ATOM     37  C   UNL A   1      38.741  30.032  29.804  1.00  0.00     0.031 A 
ATOM     38  C   UNL A   1      39.711  29.090  29.137  1.00  0.00     0.074 A 
ATOM     39  C   UNL A   1      39.035  30.535  31.020  1.00  0.00     0.049 A 
ATOM     40  N   UNL A   1      40.807  28.558  29.616  1.00  0.00    -0.248 NA
ATOM     41  C   UNL A   1      39.400  28.675  27.758  1.00  0.00     0.031 C 
ATOM     42  C   UNL A   1      38.181  31.442  31.789  1.00  0.00     0.029 A 
ATOM     43  N   UNL A   1      40.127  30.342  31.833  1.00  0.00    -0.354 N 
ATOM     44  C   UNL A   1      41.278  27.697  28.633  1.00  0.00     0.074 A 
ATOM     45  C   UNL A   1      40.353  27.781  27.522  1.00  0.00     0.031 C 
ATOM     46  C   UNL A   1      38.785  31.741  32.948  1.00  0.00     0.029 A 
ATOM     47  C   UNL A   1      40.036  30.997  33.038  1.00  0.00     0.049 A 
ATOM     48  H   UNL A   1      40.898  29.786  31.576  1.00  0.00     0.167 HD
ATOM     49  C   UNL A   1      42.388  26.920  28.645  1.00  0.00     0.034 A 
ATOM     50  C   UNL A   1      40.849  30.984  34.112  1.00  0.00     0.034 A 
ATOM     51  C   UNL A   1      43.357  26.902  29.712  1.00  0.00     0.049 A 
ATOM     52  C   UNL A   1      42.097  30.151  34.080  1.00  0.00     0.074 A 
ATOM     53  C   UNL A   1      44.544  26.193  29.782  1.00  0.00     0.029 A 
ATOM     54  N   UNL A   1      43.262  27.637  30.883  1.00  0.00    -0.354 N 
ATOM     55  N   UNL A   1      42.561  29.399  33.111  1.00  0.00    -0.248 NA
ATOM     56  C   UNL A   1      42.942  30.173  35.283  1.00  0.00     0.031 C 
ATOM     57  C   UNL A   1      45.168  26.502  30.996  1.00  0.00     0.029 A 
ATOM     58  C   UNL A   1      44.369  27.402  31.681  1.00  0.00     0.049 A 
ATOM     59  H   UNL A   1      42.517  28.237  31.113  1.00  0.00     0.167 HD
ATOM     60  C   UNL A   1      43.755  28.869  33.580  1.00  0.00     0.074 A 
ATOM     61  C   UNL A   1      43.961  29.411  34.908  1.00  0.00     0.031 C 
ATOM     62  C   UNL A   1      44.590  27.987  32.978  1.00  0.00     0.034 A 
BRANCH  49  63
ATOM     63  C   UNL A   1      42.659  26.057  27.441  1.00  0.00     0.023 A 
ATOM     64  C   UNL A   1      43.408  26.581  26.370  1.00  0.00     0.012 A 
ATOM     65  C   UNL A   1      42.249  24.710  27.404  1.00  0.00     0.148 A 
ATOM     66  C   UNL A   1      43.729  25.785  25.271  1.00  0.00     0.002 A 
ATOM     67  C   UNL A   1      42.600  23.913  26.319  1.00  0.00     0.091 A 
ATOM     68  F   UNL A   1      41.516  24.234  28.421  1.00  0.00    -0.205 F 
ATOM     69  C   UNL A   1      43.335  24.449  25.250  1.00  0.00     0.022 A 
BRANCH  67  70
ATOM     70  S   UNL A   1      42.192  22.163  26.244  1.00  0.00     0.127 S 
ATOM     71  O   UNL A   1      42.681  21.690  27.538  1.00  0.00    -0.237 OA
ATOM     72  O   UNL A   1      40.734  22.183  26.116  1.00  0.00    -0.237 OA
ATOM     73  O   UNL A   1      42.892  21.646  25.075  1.00  0.00    -0.744 OA
ENDBRANCH  67  70
ENDBRANCH  49  63
BRANCH  50  74
ATOM     74  C   UNL A   1      40.515  31.831  35.290  1.00  0.00     0.023 A 
ATOM     75  C   UNL A   1      41.198  33.047  35.478  1.00  0.00     0.012 A 
ATOM     76  C   UNL A   1      39.482  31.478  36.181  1.00  0.00     0.148 A 
ATOM     77  C   UNL A   1      40.865  33.892  36.536  1.00  0.00     0.002 A 
ATOM     78  C   UNL A   1      39.116  32.352  37.198  1.00  0.00     0.091 A 
ATOM     79  F   UNL A   1      38.860  30.303  36.005  1.00  0.00    -0.205 F 
ATOM     80  C   UNL A   1      39.814  33.554  37.386  1.00  0.00     0.022 A 
BRANCH  78  81
ATOM     81  S   UNL A   1      37.676  32.046  38.229  1.00  0.00     0.127 S 
ATOM     82  O   UNL A   1      38.199  32.312  39.565  1.00  0.00    -0.237 OA
ATOM     83  O   UNL A   1      36.720  33.039  37.733  1.00  0.00    -0.237 OA
ATOM     84  O   UNL A   1      37.296  30.668  37.949  1.00  0.00    -0.744 OA
ENDBRANCH  78  81
ENDBRANCH  50  74
BRANCH  62  85
ATOM     85  C   UNL A   1      45.807  27.554  33.747  1.00  0.00     0.023 A 
ATOM     86  C   UNL A   1      46.986  28.321  33.655  1.00  0.00     0.012 A 
ATOM     87  C   UNL A   1      45.775  26.433  34.599  1.00  0.00     0.148 A 
ATOM     88  C   UNL A   1      48.123  27.963  34.379  1.00  0.00     0.002 A 
ATOM     89  C   UNL A   1      46.902  26.103  35.344  1.00  0.00     0.091 A 
ATOM     90  F   UNL A   1      44.653  25.700  34.655  1.00  0.00    -0.205 F 
ATOM     91  C   UNL A   1      48.078  26.861  35.231  1.00  0.00     0.022 A 
BRANCH  89  92
ATOM     92  S   UNL A   1      46.895  24.744  36.520  1.00  0.00     0.127 S 
ATOM     93  O   UNL A   1      48.123  24.992  37.272  1.00  0.00    -0.237 OA
ATOM     94  O   UNL A   1      45.662  24.980  37.273  1.00  0.00    -0.237 OA
ATOM     95  O   UNL A   1      46.878  23.530  35.714  1.00  0.00    -0.744 OA
ENDBRANCH  89  92
ENDBRANCH  62  85
ENDBRANCH  36  37
ENDBRANCH  29  31
ENDBRANCH  28  29
ENDBRANCH  27  28
ENDBRANCH   1  27
TORSDOF 18
ENDMDL
