MODEL 1
REMARK VINA RESULT:     -11.4      0.000      0.000
REMARK SMILES Cc1csc([C@H](C)Nc2cc(C)c(N)c(C(=O)OCCOC(=O)c3ccc(-c4c5nc(c(-c6cccc(S(=O)(=O)[O-])c6F)c6ccc([nH]6)c(-c6cccc(S(=O)(=O)[O-])c6F)c6nc(c(-c7cccc(S(=O)(=O)[O-])c7F)c7ccc4[nH]7)C=C6)C=C5)cc3)c2)n1
REMARK SMILES IDX 19 1 18 2 16 3 17 4 15 5 9 6 10 7 87 8 11 9 12 10 13 11 8 12
REMARK SMILES IDX 6 14 7 15 5 16 1 17 2 18 3 19 88 20 4 21 14 22 20 25 21 26
REMARK SMILES IDX 22 27 23 28 24 29 25 30 86 31 26 32 85 33 27 34 28 35 29 36
REMARK SMILES IDX 79 37 30 38 84 39 78 40 80 41 31 42 83 43 77 44 76 45 32 47
REMARK SMILES IDX 64 48 44 49 63 50 45 51 48 52 62 53 81 54 46 55 47 56 61 58
REMARK SMILES IDX 82 59 49 60 33 61 34 62 42 63 35 64 37 65 43 66 36 67 38 68
REMARK SMILES IDX 39 69 40 70 41 71 65 72 66 73 74 74 67 75 69 76 75 77 68 78
REMARK SMILES IDX 70 79 71 80 72 81 73 82 50 83 51 84 59 85 52 86 54 87 60 88
REMARK SMILES IDX 53 89 55 90 56 91 57 92 58 93
REMARK H PARENT 8 13 14 23 14 24 80 46 48 57
REMARK Flexibility Score: inf
ROOT
ATOM      1  C   UNL A   1      36.517  22.106  23.930  1.00  0.00     0.275 C 
ENDROOT
BRANCH   1   2
ATOM      2  O   UNL A   1      35.078  22.065  24.034  1.00  0.00    -0.458 OA
BRANCH   2   3
ATOM      3  C   UNL A   1      34.403  23.101  23.459  1.00  0.00     0.340 C 
ATOM      4  O   UNL A   1      34.424  23.406  22.283  1.00  0.00    -0.246 OA
BRANCH   3   5
ATOM      5  C   UNL A   1      33.561  23.792  24.478  1.00  0.00     0.085 A 
ATOM      6  C   UNL A   1      33.181  25.753  25.883  1.00  0.00     0.036 A 
ATOM      7  C   UNL A   1      32.131  25.062  26.488  1.00  0.00     0.031 A 
ATOM      8  C   UNL A   1      33.921  25.079  24.907  1.00  0.00     0.043 A 
ATOM      9  C   UNL A   1      31.732  23.784  26.057  1.00  0.00    -0.025 A 
ATOM     10  C   UNL A   1      30.593  23.104  26.774  1.00  0.00     0.047 C 
ATOM     11  C   UNL A   1      32.400  23.170  24.983  1.00  0.00     0.049 A 
BRANCH   6  12
ATOM     12  N   UNL A   1      33.575  27.026  26.248  1.00  0.00    -0.376 N 
ATOM     13  H   UNL A   1      34.485  27.135  26.606  1.00  0.00     0.161 HD
BRANCH  12  14
ATOM     14  C   UNL A   1      32.740  28.230  26.142  1.00  0.00     0.135 C 
ATOM     15  C   UNL A   1      33.659  29.401  26.526  1.00  0.00     0.039 C 
BRANCH  14  16
ATOM     16  C   UNL A   1      32.042  28.443  24.795  1.00  0.00     0.115 A 
ATOM     17  C   UNL A   1      28.967  28.902  22.956  1.00  0.00     0.067 C 
ATOM     18  C   UNL A   1      30.402  28.779  23.318  1.00  0.00     0.049 A 
ATOM     19  C   UNL A   1      31.484  28.995  22.490  1.00  0.00     0.090 A 
ATOM     20  N   UNL A   1      30.732  28.435  24.618  1.00  0.00    -0.244 NA
ATOM     21  S   UNL A   1      32.940  28.834  23.370  1.00  0.00    -0.125 S 
ENDBRANCH  14  16
ENDBRANCH  12  14
ENDBRANCH   6  12
BRANCH  11  22
ATOM     22  N   UNL A   1      31.983  21.921  24.528  1.00  0.00    -0.398 N 
ATOM     23  H   UNL A   1      32.442  21.107  24.836  1.00  0.00     0.156 HD
ATOM     24  H   UNL A   1      31.228  21.853  23.899  1.00  0.00     0.156 HD
ENDBRANCH  11  22
ENDBRANCH   3   5
ENDBRANCH   2   3
ENDBRANCH   1   2
BRANCH   1  25
ATOM     25  C   UNL A   1      37.142  20.918  24.661  1.00  0.00     0.275 C 
BRANCH  25  26
ATOM     26  O   UNL A   1      37.650  21.365  25.927  1.00  0.00    -0.458 OA
BRANCH  26  27
ATOM     27  C   UNL A   1      38.986  21.243  26.114  1.00  0.00     0.338 C 
ATOM     28  O   UNL A   1      39.673  20.269  25.852  1.00  0.00    -0.246 OA
BRANCH  27  29
ATOM     29  C   UNL A   1      39.523  22.498  26.690  1.00  0.00     0.060 A 
ATOM     30  C   UNL A   1      39.058  23.729  26.234  1.00  0.00     0.016 A 
ATOM     31  C   UNL A   1      40.560  22.462  27.620  1.00  0.00     0.016 A 
ATOM     32  C   UNL A   1      39.683  24.913  26.631  1.00  0.00     0.010 A 
ATOM     33  C   UNL A   1      41.116  23.659  28.096  1.00  0.00     0.010 A 
ATOM     34  C   UNL A   1      40.718  24.906  27.576  1.00  0.00    -0.014 A 
BRANCH  34  35
ATOM     35  C   UNL A   1      41.422  26.173  27.965  1.00  0.00     0.031 A 
ATOM     36  C   UNL A   1      40.704  27.213  28.796  1.00  0.00     0.074 A 
ATOM     37  C   UNL A   1      42.701  26.415  27.603  1.00  0.00     0.049 A 
ATOM     38  N   UNL A   1      41.030  28.460  29.030  1.00  0.00    -0.248 NA
ATOM     39  C   UNL A   1      39.439  26.803  29.429  1.00  0.00     0.031 C 
ATOM     40  C   UNL A   1      43.556  25.509  26.836  1.00  0.00     0.029 A 
ATOM     41  N   UNL A   1      43.512  27.504  27.838  1.00  0.00    -0.354 N 
ATOM     42  C   UNL A   1      39.966  29.008  29.739  1.00  0.00     0.074 A 
ATOM     43  C   UNL A   1      38.992  27.951  29.919  1.00  0.00     0.031 C 
ATOM     44  C   UNL A   1      44.777  26.051  26.707  1.00  0.00     0.029 A 
ATOM     45  C   UNL A   1      44.767  27.390  27.283  1.00  0.00     0.049 A 
ATOM     46  H   UNL A   1      43.220  28.291  28.354  1.00  0.00     0.167 HD
ATOM     47  C   UNL A   1      39.812  30.271  30.206  1.00  0.00     0.034 A 
ATOM     48  C   UNL A   1      45.783  28.275  27.195  1.00  0.00     0.034 A 
ATOM     49  C   UNL A   1      40.825  31.290  30.133  1.00  0.00     0.049 A 
ATOM     50  C   UNL A   1      45.603  29.662  27.747  1.00  0.00     0.074 A 
ATOM     51  C   UNL A   1      40.768  32.594  30.594  1.00  0.00     0.029 A 
ATOM     52  N   UNL A   1      42.090  31.112  29.597  1.00  0.00    -0.354 N 
ATOM     53  N   UNL A   1      44.578  30.168  28.388  1.00  0.00    -0.248 NA
ATOM     54  C   UNL A   1      46.717  30.603  27.558  1.00  0.00     0.031 C 
ATOM     55  C   UNL A   1      42.002  33.204  30.340  1.00  0.00     0.029 A 
ATOM     56  C   UNL A   1      42.829  32.276  29.730  1.00  0.00     0.049 A 
ATOM     57  H   UNL A   1      42.416  30.281  29.182  1.00  0.00     0.167 HD
ATOM     58  C   UNL A   1      44.927  31.480  28.687  1.00  0.00     0.074 A 
ATOM     59  C   UNL A   1      46.273  31.679  28.191  1.00  0.00     0.031 C 
ATOM     60  C   UNL A   1      44.189  32.443  29.289  1.00  0.00     0.034 A 
BRANCH  47  61
ATOM     61  C   UNL A   1      38.504  30.625  30.866  1.00  0.00     0.023 A 
ATOM     62  C   UNL A   1      38.284  30.294  32.218  1.00  0.00     0.012 A 
ATOM     63  C   UNL A   1      37.517  31.347  30.164  1.00  0.00     0.148 A 
ATOM     64  C   UNL A   1      37.093  30.648  32.851  1.00  0.00     0.002 A 
ATOM     65  C   UNL A   1      36.350  31.735  30.814  1.00  0.00     0.091 A 
ATOM     66  F   UNL A   1      37.734  31.639  28.873  1.00  0.00    -0.205 F 
ATOM     67  C   UNL A   1      36.132  31.376  32.153  1.00  0.00     0.022 A 
BRANCH  65  68
ATOM     68  S   UNL A   1      35.093  32.747  30.024  1.00  0.00     0.127 S 
ATOM     69  O   UNL A   1      34.215  33.061  31.151  1.00  0.00    -0.237 OA
ATOM     70  O   UNL A   1      35.873  33.881  29.528  1.00  0.00    -0.237 OA
ATOM     71  O   UNL A   1      34.505  31.916  28.984  1.00  0.00    -0.744 OA
ENDBRANCH  65  68
ENDBRANCH  47  61
BRANCH  48  72
ATOM     72  C   UNL A   1      47.067  27.874  26.546  1.00  0.00     0.023 A 
ATOM     73  C   UNL A   1      48.090  27.300  27.327  1.00  0.00     0.012 A 
ATOM     74  C   UNL A   1      47.270  28.023  25.160  1.00  0.00     0.148 A 
ATOM     75  C   UNL A   1      49.292  26.896  26.743  1.00  0.00     0.002 A 
ATOM     76  C   UNL A   1      48.439  27.552  24.574  1.00  0.00     0.091 A 
ATOM     77  F   UNL A   1      46.308  28.610  24.434  1.00  0.00    -0.205 F 
ATOM     78  C   UNL A   1      49.459  27.005  25.364  1.00  0.00     0.022 A 
BRANCH  76  79
ATOM     79  S   UNL A   1      48.645  27.503  22.790  1.00  0.00     0.127 S 
ATOM     80  O   UNL A   1      49.955  28.123  22.619  1.00  0.00    -0.237 OA
ATOM     81  O   UNL A   1      48.603  26.066  22.513  1.00  0.00    -0.237 OA
ATOM     82  O   UNL A   1      47.509  28.243  22.255  1.00  0.00    -0.744 OA
ENDBRANCH  76  79
ENDBRANCH  48  72
BRANCH  60  83
ATOM     83  C   UNL A   1      44.826  33.794  29.476  1.00  0.00     0.023 A 
ATOM     84  C   UNL A   1      45.447  34.109  30.700  1.00  0.00     0.012 A 
ATOM     85  C   UNL A   1      44.862  34.728  28.421  1.00  0.00     0.148 A 
ATOM     86  C   UNL A   1      46.069  35.342  30.883  1.00  0.00     0.002 A 
ATOM     87  C   UNL A   1      45.520  35.939  28.598  1.00  0.00     0.091 A 
ATOM     88  F   UNL A   1      44.247  34.417  27.271  1.00  0.00    -0.205 F 
ATOM     89  C   UNL A   1      46.115  36.253  29.830  1.00  0.00     0.022 A 
BRANCH  87  90
ATOM     90  S   UNL A   1      45.697  37.137  27.269  1.00  0.00     0.127 S 
ATOM     91  O   UNL A   1      46.099  36.285  26.151  1.00  0.00    -0.237 OA
ATOM     92  O   UNL A   1      44.345  37.686  27.161  1.00  0.00    -0.237 OA
ATOM     93  O   UNL A   1      46.699  38.090  27.724  1.00  0.00    -0.744 OA
ENDBRANCH  87  90
ENDBRANCH  60  83
ENDBRANCH  34  35
ENDBRANCH  27  29
ENDBRANCH  26  27
ENDBRANCH  25  26
ENDBRANCH   1  25
TORSDOF 18
ENDMDL
MODEL 2
REMARK VINA RESULT:     -11.4      1.549      1.902
REMARK SMILES Cc1csc([C@H](C)Nc2cc(C)c(N)c(C(=O)OCCOC(=O)c3ccc(-c4c5nc(c(-c6cccc(S(=O)(=O)[O-])c6F)c6ccc([nH]6)c(-c6cccc(S(=O)(=O)[O-])c6F)c6nc(c(-c7cccc(S(=O)(=O)[O-])c7F)c7ccc4[nH]7)C=C6)C=C5)cc3)c2)n1
REMARK SMILES IDX 19 1 18 2 16 3 17 4 15 5 9 6 10 7 87 8 11 9 12 10 13 11 8 12
REMARK SMILES IDX 6 14 7 15 5 16 1 17 2 18 3 19 88 20 4 21 14 22 20 25 21 26
REMARK SMILES IDX 22 27 23 28 24 29 25 30 86 31 26 32 85 33 27 34 28 35 29 36
REMARK SMILES IDX 79 37 30 38 84 39 78 40 80 41 31 42 83 43 77 44 76 45 32 47
REMARK SMILES IDX 64 48 44 49 63 50 45 51 48 52 62 53 81 54 46 55 47 56 61 58
REMARK SMILES IDX 82 59 49 60 33 61 34 62 42 63 35 64 37 65 43 66 36 67 38 68
REMARK SMILES IDX 39 69 40 70 41 71 65 72 66 73 74 74 67 75 69 76 75 77 68 78
REMARK SMILES IDX 70 79 71 80 72 81 73 82 50 83 51 84 59 85 52 86 54 87 60 88
REMARK SMILES IDX 53 89 55 90 56 91 57 92 58 93
REMARK H PARENT 8 13 14 23 14 24 80 46 48 57
REMARK Flexibility Score: inf
ROOT
ATOM      1  C   UNL A   1      34.833  20.877  24.846  1.00  0.00     0.275 C 
ENDROOT
BRANCH   1   2
ATOM      2  O   UNL A   1      34.090  22.111  24.950  1.00  0.00    -0.458 OA
BRANCH   2   3
ATOM      3  C   UNL A   1      33.554  22.389  26.174  1.00  0.00     0.340 C 
ATOM      4  O   UNL A   1      33.782  21.794  27.209  1.00  0.00    -0.246 OA
BRANCH   3   5
ATOM      5  C   UNL A   1      32.678  23.593  26.087  1.00  0.00     0.085 A 
ATOM      6  C   UNL A   1      32.480  26.004  25.753  1.00  0.00     0.036 A 
ATOM      7  C   UNL A   1      31.126  25.893  26.073  1.00  0.00     0.031 A 
ATOM      8  C   UNL A   1      33.256  24.843  25.813  1.00  0.00     0.043 A 
ATOM      9  C   UNL A   1      30.518  24.649  26.323  1.00  0.00    -0.025 A 
ATOM     10  C   UNL A   1      29.052  24.621  26.672  1.00  0.00     0.047 C 
ATOM     11  C   UNL A   1      31.282  23.472  26.248  1.00  0.00     0.049 A 
BRANCH   6  12
ATOM     12  N   UNL A   1      33.104  27.201  25.459  1.00  0.00    -0.376 N 
ATOM     13  H   UNL A   1      33.642  27.619  26.169  1.00  0.00     0.161 HD
BRANCH  12  14
ATOM     14  C   UNL A   1      33.028  27.898  24.168  1.00  0.00     0.135 C 
ATOM     15  C   UNL A   1      33.666  26.941  23.147  1.00  0.00     0.039 C 
BRANCH  14  16
ATOM     16  C   UNL A   1      31.633  28.369  23.745  1.00  0.00     0.115 A 
ATOM     17  C   UNL A   1      29.144  30.986  23.712  1.00  0.00     0.067 C 
ATOM     18  C   UNL A   1      29.871  29.713  23.476  1.00  0.00     0.049 A 
ATOM     19  C   UNL A   1      29.481  28.681  22.649  1.00  0.00     0.090 A 
ATOM     20  N   UNL A   1      31.081  29.511  24.118  1.00  0.00    -0.244 NA
ATOM     21  S   UNL A   1      30.683  27.466  22.618  1.00  0.00    -0.125 S 
ENDBRANCH  14  16
ENDBRANCH  12  14
ENDBRANCH   6  12
BRANCH  11  22
ATOM     22  N   UNL A   1      30.675  22.235  26.456  1.00  0.00    -0.398 N 
ATOM     23  H   UNL A   1      31.228  21.428  26.568  1.00  0.00     0.156 HD
ATOM     24  H   UNL A   1      29.694  22.169  26.491  1.00  0.00     0.156 HD
ENDBRANCH  11  22
ENDBRANCH   3   5
ENDBRANCH   2   3
ENDBRANCH   1   2
BRANCH   1  25
ATOM     25  C   UNL A   1      36.310  21.162  24.575  1.00  0.00     0.275 C 
BRANCH  25  26
ATOM     26  O   UNL A   1      36.983  21.362  25.827  1.00  0.00    -0.458 OA
BRANCH  26  27
ATOM     27  C   UNL A   1      38.326  21.185  25.821  1.00  0.00     0.338 C 
ATOM     28  O   UNL A   1      38.932  20.216  25.392  1.00  0.00    -0.246 OA
BRANCH  27  29
ATOM     29  C   UNL A   1      38.985  22.371  26.415  1.00  0.00     0.060 A 
ATOM     30  C   UNL A   1      38.499  23.647  26.145  1.00  0.00     0.016 A 
ATOM     31  C   UNL A   1      40.150  22.229  27.168  1.00  0.00     0.016 A 
ATOM     32  C   UNL A   1      39.216  24.778  26.543  1.00  0.00     0.010 A 
ATOM     33  C   UNL A   1      40.811  23.367  27.656  1.00  0.00     0.010 A 
ATOM     34  C   UNL A   1      40.381  24.664  27.314  1.00  0.00    -0.014 A 
BRANCH  34  35
ATOM     35  C   UNL A   1      41.178  25.876  27.699  1.00  0.00     0.031 A 
ATOM     36  C   UNL A   1      40.562  26.936  28.586  1.00  0.00     0.074 A 
ATOM     37  C   UNL A   1      42.452  26.049  27.286  1.00  0.00     0.049 A 
ATOM     38  N   UNL A   1      40.974  28.154  28.833  1.00  0.00    -0.248 NA
ATOM     39  C   UNL A   1      39.303  26.587  29.265  1.00  0.00     0.031 C 
ATOM     40  C   UNL A   1      43.216  25.113  26.460  1.00  0.00     0.029 A 
ATOM     41  N   UNL A   1      43.338  27.081  27.509  1.00  0.00    -0.354 N 
ATOM     42  C   UNL A   1      39.977  28.747  29.602  1.00  0.00     0.074 A 
ATOM     43  C   UNL A   1      38.950  27.746  29.801  1.00  0.00     0.031 C 
ATOM     44  C   UNL A   1      44.460  25.584  26.288  1.00  0.00     0.029 A 
ATOM     45  C   UNL A   1      44.558  26.906  26.895  1.00  0.00     0.049 A 
ATOM     46  H   UNL A   1      43.118  27.871  28.055  1.00  0.00     0.167 HD
ATOM     47  C   UNL A   1      39.921  30.005  30.104  1.00  0.00     0.034 A 
ATOM     48  C   UNL A   1      45.621  27.730  26.781  1.00  0.00     0.034 A 
ATOM     49  C   UNL A   1      40.991  30.963  30.008  1.00  0.00     0.049 A 
ATOM     50  C   UNL A   1      45.551  29.111  27.372  1.00  0.00     0.074 A 
ATOM     51  C   UNL A   1      41.035  32.256  30.501  1.00  0.00     0.029 A 
ATOM     52  N   UNL A   1      42.218  30.723  29.412  1.00  0.00    -0.354 N 
ATOM     53  N   UNL A   1      44.589  29.662  28.070  1.00  0.00    -0.248 NA
ATOM     54  C   UNL A   1      46.712  29.987  27.154  1.00  0.00     0.031 C 
ATOM     55  C   UNL A   1      42.292  32.796  30.206  1.00  0.00     0.029 A 
ATOM     56  C   UNL A   1      43.033  31.836  29.538  1.00  0.00     0.049 A 
ATOM     57  H   UNL A   1      42.474  29.884  28.964  1.00  0.00     0.167 HD
ATOM     58  C   UNL A   1      45.030  30.942  28.383  1.00  0.00     0.074 A 
ATOM     59  C   UNL A   1      46.363  31.072  27.831  1.00  0.00     0.031 C 
ATOM     60  C   UNL A   1      44.379  31.932  29.040  1.00  0.00     0.034 A 
BRANCH  47  61
ATOM     61  C   UNL A   1      38.668  30.420  30.831  1.00  0.00     0.023 A 
ATOM     62  C   UNL A   1      38.551  30.198  32.217  1.00  0.00     0.012 A 
ATOM     63  C   UNL A   1      37.632  31.092  30.150  1.00  0.00     0.148 A 
ATOM     64  C   UNL A   1      37.411  30.610  32.908  1.00  0.00     0.002 A 
ATOM     65  C   UNL A   1      36.519  31.539  30.853  1.00  0.00     0.091 A 
ATOM     66  F   UNL A   1      37.751  31.279  28.827  1.00  0.00    -0.205 F 
ATOM     67  C   UNL A   1      36.402  31.289  32.229  1.00  0.00     0.022 A 
BRANCH  65  68
ATOM     68  S   UNL A   1      35.207  32.496  30.082  1.00  0.00     0.127 S 
ATOM     69  O   UNL A   1      34.295  32.707  31.206  1.00  0.00    -0.237 OA
ATOM     70  O   UNL A   1      35.917  33.697  29.642  1.00  0.00    -0.237 OA
ATOM     71  O   UNL A   1      34.690  31.669  29.002  1.00  0.00    -0.744 OA
ENDBRANCH  65  68
ENDBRANCH  47  61
BRANCH  48  72
ATOM     72  C   UNL A   1      46.849  27.270  26.065  1.00  0.00     0.023 A 
ATOM     73  C   UNL A   1      47.010  27.572  24.698  1.00  0.00     0.012 A 
ATOM     74  C   UNL A   1      47.872  26.569  26.733  1.00  0.00     0.148 A 
ATOM     75  C   UNL A   1      48.157  27.174  24.010  1.00  0.00     0.002 A 
ATOM     76  C   UNL A   1      49.044  26.241  26.061  1.00  0.00     0.091 A 
ATOM     77  F   UNL A   1      47.690  26.249  28.022  1.00  0.00    -0.205 F 
ATOM     78  C   UNL A   1      49.182  26.526  24.695  1.00  0.00     0.022 A 
BRANCH  76  79
ATOM     79  S   UNL A   1      50.466  25.563  26.923  1.00  0.00     0.127 S 
ATOM     80  O   UNL A   1      51.414  25.363  25.831  1.00  0.00    -0.237 OA
ATOM     81  O   UNL A   1      50.812  26.644  27.848  1.00  0.00    -0.237 OA
ATOM     82  O   UNL A   1      49.976  24.357  27.578  1.00  0.00    -0.744 OA
ENDBRANCH  76  79
ENDBRANCH  48  72
BRANCH  60  83
ATOM     83  C   UNL A   1      45.106  33.237  29.227  1.00  0.00     0.023 A 
ATOM     84  C   UNL A   1      45.900  33.434  30.375  1.00  0.00     0.012 A 
ATOM     85  C   UNL A   1      45.051  34.243  28.243  1.00  0.00     0.148 A 
ATOM     86  C   UNL A   1      46.604  34.622  30.553  1.00  0.00     0.002 A 
ATOM     87  C   UNL A   1      45.788  35.409  28.409  1.00  0.00     0.091 A 
ATOM     88  F   UNL A   1      44.273  34.045  27.169  1.00  0.00    -0.205 F 
ATOM     89  C   UNL A   1      46.557  35.606  29.567  1.00  0.00     0.022 A 
BRANCH  87  90
ATOM     90  S   UNL A   1      45.850  36.692  27.152  1.00  0.00     0.127 S 
ATOM     91  O   UNL A   1      44.459  37.138  27.112  1.00  0.00    -0.237 OA
ATOM     92  O   UNL A   1      46.783  37.657  27.736  1.00  0.00    -0.237 OA
ATOM     93  O   UNL A   1      46.336  36.042  25.943  1.00  0.00    -0.744 OA
ENDBRANCH  87  90
ENDBRANCH  60  83
ENDBRANCH  34  35
ENDBRANCH  27  29
ENDBRANCH  26  27
ENDBRANCH  25  26
ENDBRANCH   1  25
TORSDOF 18
ENDMDL
MODEL 3
REMARK VINA RESULT:     -11.4      5.149     10.001
REMARK SMILES Cc1csc([C@H](C)Nc2cc(C)c(N)c(C(=O)OCCOC(=O)c3ccc(-c4c5nc(c(-c6cccc(S(=O)(=O)[O-])c6F)c6ccc([nH]6)c(-c6cccc(S(=O)(=O)[O-])c6F)c6nc(c(-c7cccc(S(=O)(=O)[O-])c7F)c7ccc4[nH]7)C=C6)C=C5)cc3)c2)n1
REMARK SMILES IDX 19 1 18 2 16 3 17 4 15 5 9 6 10 7 87 8 11 9 12 10 13 11 8 12
REMARK SMILES IDX 6 14 7 15 5 16 1 17 2 18 3 19 88 20 4 21 14 22 20 25 21 26
REMARK SMILES IDX 22 27 23 28 24 29 25 30 86 31 26 32 85 33 27 34 28 35 29 36
REMARK SMILES IDX 79 37 30 38 84 39 78 40 80 41 31 42 83 43 77 44 76 45 32 47
REMARK SMILES IDX 64 48 44 49 63 50 45 51 48 52 62 53 81 54 46 55 47 56 61 58
REMARK SMILES IDX 82 59 49 60 33 61 34 62 42 63 35 64 37 65 43 66 36 67 38 68
REMARK SMILES IDX 39 69 40 70 41 71 65 72 66 73 74 74 67 75 69 76 75 77 68 78
REMARK SMILES IDX 70 79 71 80 72 81 73 82 50 83 51 84 59 85 52 86 54 87 60 88
REMARK SMILES IDX 53 89 55 90 56 91 57 92 58 93
REMARK H PARENT 8 13 14 23 14 24 80 46 48 57
REMARK Flexibility Score: inf
ROOT
ATOM      1  C   UNL A   1      31.434  28.587  24.326  1.00  0.00     0.275 C 
ENDROOT
BRANCH   1   2
ATOM      2  O   UNL A   1      31.244  27.175  24.554  1.00  0.00    -0.458 OA
BRANCH   2   3
ATOM      3  C   UNL A   1      32.379  26.420  24.631  1.00  0.00     0.340 C 
ATOM      4  O   UNL A   1      33.512  26.807  24.427  1.00  0.00    -0.246 OA
BRANCH   3   5
ATOM      5  C   UNL A   1      32.043  25.037  25.075  1.00  0.00     0.085 A 
ATOM      6  C   UNL A   1      32.477  22.638  24.920  1.00  0.00     0.036 A 
ATOM      7  C   UNL A   1      31.362  22.429  25.733  1.00  0.00     0.031 A 
ATOM      8  C   UNL A   1      32.775  23.955  24.559  1.00  0.00     0.043 A 
ATOM      9  C   UNL A   1      30.630  23.495  26.286  1.00  0.00    -0.025 A 
ATOM     10  C   UNL A   1      29.432  23.179  27.145  1.00  0.00     0.047 C 
ATOM     11  C   UNL A   1      31.022  24.820  26.023  1.00  0.00     0.049 A 
BRANCH   6  12
ATOM     12  N   UNL A   1      33.247  21.619  24.395  1.00  0.00    -0.376 N 
ATOM     13  H   UNL A   1      33.162  21.435  23.432  1.00  0.00     0.161 HD
BRANCH  12  14
ATOM     14  C   UNL A   1      34.184  20.788  25.162  1.00  0.00     0.135 C 
ATOM     15  C   UNL A   1      34.084  19.382  24.546  1.00  0.00     0.039 C 
BRANCH  14  16
ATOM     16  C   UNL A   1      35.625  21.300  25.236  1.00  0.00     0.115 A 
ATOM     17  C   UNL A   1      37.923  23.907  26.221  1.00  0.00     0.067 C 
ATOM     18  C   UNL A   1      37.350  22.636  25.711  1.00  0.00     0.049 A 
ATOM     19  C   UNL A   1      38.050  21.518  25.309  1.00  0.00     0.090 A 
ATOM     20  N   UNL A   1      35.973  22.511  25.635  1.00  0.00    -0.244 NA
ATOM     21  S   UNL A   1      36.967  20.263  24.896  1.00  0.00    -0.125 S 
ENDBRANCH  14  16
ENDBRANCH  12  14
ENDBRANCH   6  12
BRANCH  11  22
ATOM     22  N   UNL A   1      30.323  25.878  26.599  1.00  0.00    -0.398 N 
ATOM     23  H   UNL A   1      29.340  25.905  26.548  1.00  0.00     0.156 HD
ATOM     24  H   UNL A   1      30.812  26.599  27.058  1.00  0.00     0.156 HD
ENDBRANCH  11  22
ENDBRANCH   3   5
ENDBRANCH   2   3
ENDBRANCH   1   2
BRANCH   1  25
ATOM     25  C   UNL A   1      31.543  29.336  25.654  1.00  0.00     0.275 C 
BRANCH  25  26
ATOM     26  O   UNL A   1      32.801  30.024  25.700  1.00  0.00    -0.458 OA
BRANCH  26  27
ATOM     27  C   UNL A   1      32.979  30.882  26.733  1.00  0.00     0.338 C 
ATOM     28  O   UNL A   1      32.166  31.684  27.163  1.00  0.00    -0.246 OA
BRANCH  27  29
ATOM     29  C   UNL A   1      34.336  30.701  27.299  1.00  0.00     0.060 A 
ATOM     30  C   UNL A   1      34.817  29.421  27.564  1.00  0.00     0.016 A 
ATOM     31  C   UNL A   1      35.105  31.807  27.658  1.00  0.00     0.016 A 
ATOM     32  C   UNL A   1      36.012  29.244  28.266  1.00  0.00     0.010 A 
ATOM     33  C   UNL A   1      36.355  31.622  28.269  1.00  0.00     0.010 A 
ATOM     34  C   UNL A   1      36.811  30.337  28.625  1.00  0.00    -0.014 A 
BRANCH  34  35
ATOM     35  C   UNL A   1      38.069  30.150  29.422  1.00  0.00     0.031 A 
ATOM     36  C   UNL A   1      39.228  29.376  28.834  1.00  0.00     0.074 A 
ATOM     37  C   UNL A   1      38.209  30.670  30.660  1.00  0.00     0.049 A 
ATOM     38  N   UNL A   1      40.290  28.892  29.428  1.00  0.00    -0.248 NA
ATOM     39  C   UNL A   1      39.173  29.087  27.391  1.00  0.00     0.031 C 
ATOM     40  C   UNL A   1      37.211  31.475  31.366  1.00  0.00     0.029 A 
ATOM     41  N   UNL A   1      39.258  30.600  31.552  1.00  0.00    -0.354 N 
ATOM     42  C   UNL A   1      40.967  28.155  28.462  1.00  0.00     0.074 A 
ATOM     43  C   UNL A   1      40.209  28.275  27.234  1.00  0.00     0.031 C 
ATOM     44  C   UNL A   1      37.709  31.864  32.550  1.00  0.00     0.029 A 
ATOM     45  C   UNL A   1      39.017  31.249  32.743  1.00  0.00     0.049 A 
ATOM     46  H   UNL A   1      40.100  30.128  31.356  1.00  0.00     0.167 HD
ATOM     47  C   UNL A   1      42.119  27.449  28.578  1.00  0.00     0.034 A 
ATOM     48  C   UNL A   1      39.734  31.304  33.885  1.00  0.00     0.034 A 
ATOM     49  C   UNL A   1      42.936  27.424  29.762  1.00  0.00     0.049 A 
ATOM     50  C   UNL A   1      41.025  30.539  33.983  1.00  0.00     0.074 A 
ATOM     51  C   UNL A   1      44.129  26.752  29.971  1.00  0.00     0.029 A 
ATOM     52  N   UNL A   1      42.669  28.128  30.925  1.00  0.00    -0.354 N 
ATOM     53  N   UNL A   1      41.633  29.825  33.068  1.00  0.00    -0.248 NA
ATOM     54  C   UNL A   1      41.725  30.580  35.276  1.00  0.00     0.031 C 
ATOM     55  C   UNL A   1      44.585  27.054  31.259  1.00  0.00     0.029 A 
ATOM     56  C   UNL A   1      43.680  27.921  31.849  1.00  0.00     0.049 A 
ATOM     57  H   UNL A   1      41.876  28.692  31.074  1.00  0.00     0.167 HD
ATOM     58  C   UNL A   1      42.790  29.343  33.668  1.00  0.00     0.074 A 
ATOM     59  C   UNL A   1      42.817  29.876  35.014  1.00  0.00     0.031 C 
ATOM     60  C   UNL A   1      43.729  28.507  33.162  1.00  0.00     0.034 A 
BRANCH  47  61
ATOM     61  C   UNL A   1      42.586  26.657  27.384  1.00  0.00     0.023 A 
ATOM     62  C   UNL A   1      43.352  27.283  26.380  1.00  0.00     0.012 A 
ATOM     63  C   UNL A   1      42.323  25.275  27.290  1.00  0.00     0.148 A 
ATOM     64  C   UNL A   1      43.821  26.554  25.287  1.00  0.00     0.002 A 
ATOM     65  C   UNL A   1      42.831  24.547  26.220  1.00  0.00     0.091 A 
ATOM     66  F   UNL A   1      41.577  24.699  28.244  1.00  0.00    -0.205 F 
ATOM     67  C   UNL A   1      43.570  25.186  25.213  1.00  0.00     0.022 A 
BRANCH  65  68
ATOM     68  S   UNL A   1      42.632  22.765  26.082  1.00  0.00     0.127 S 
ATOM     69  O   UNL A   1      43.362  22.295  27.259  1.00  0.00    -0.237 OA
ATOM     70  O   UNL A   1      41.180  22.607  26.164  1.00  0.00    -0.237 OA
ATOM     71  O   UNL A   1      43.208  22.397  24.797  1.00  0.00    -0.744 OA
ENDBRANCH  65  68
ENDBRANCH  47  61
BRANCH  48  72
ATOM     72  C   UNL A   1      39.240  32.115  35.038  1.00  0.00     0.023 A 
ATOM     73  C   UNL A   1      38.319  31.547  35.941  1.00  0.00     0.012 A 
ATOM     74  C   UNL A   1      39.700  33.425  35.269  1.00  0.00     0.148 A 
ATOM     75  C   UNL A   1      37.857  32.272  37.040  1.00  0.00     0.002 A 
ATOM     76  C   UNL A   1      39.293  34.116  36.405  1.00  0.00     0.091 A 
ATOM     77  F   UNL A   1      40.542  33.971  34.380  1.00  0.00    -0.205 F 
ATOM     78  C   UNL A   1      38.358  33.549  37.283  1.00  0.00     0.022 A 
BRANCH  76  79
ATOM     79  S   UNL A   1      40.030  35.688  36.866  1.00  0.00     0.127 S 
ATOM     80  O   UNL A   1      41.453  35.363  36.878  1.00  0.00    -0.237 OA
ATOM     81  O   UNL A   1      39.607  36.562  35.770  1.00  0.00    -0.237 OA
ATOM     82  O   UNL A   1      39.436  36.023  38.154  1.00  0.00    -0.744 OA
ENDBRANCH  76  79
ENDBRANCH  48  72
BRANCH  60  83
ATOM     83  C   UNL A   1      44.884  28.137  34.053  1.00  0.00     0.023 A 
ATOM     84  C   UNL A   1      45.970  29.024  34.189  1.00  0.00     0.012 A 
ATOM     85  C   UNL A   1      44.868  26.943  34.800  1.00  0.00     0.148 A 
ATOM     86  C   UNL A   1      47.036  28.716  35.032  1.00  0.00     0.002 A 
ATOM     87  C   UNL A   1      45.915  26.661  35.669  1.00  0.00     0.091 A 
ATOM     88  F   UNL A   1      43.836  26.102  34.640  1.00  0.00    -0.205 F 
ATOM     89  C   UNL A   1      47.005  27.540  35.779  1.00  0.00     0.022 A 
BRANCH  87  90
ATOM     90  S   UNL A   1      45.917  25.210  36.729  1.00  0.00     0.127 S 
ATOM     91  O   UNL A   1      44.666  25.377  37.466  1.00  0.00    -0.237 OA
ATOM     92  O   UNL A   1      45.912  24.114  35.759  1.00  0.00    -0.237 OA
ATOM     93  O   UNL A   1      47.133  25.301  37.526  1.00  0.00    -0.744 OA
ENDBRANCH  87  90
ENDBRANCH  60  83
ENDBRANCH  34  35
ENDBRANCH  27  29
ENDBRANCH  26  27
ENDBRANCH  25  26
ENDBRANCH   1  25
TORSDOF 18
ENDMDL
