MODEL 1
REMARK VINA RESULT:      -9.5      0.000      0.000
REMARK SMILES O=C(C[NH2+]C[C@@H]1CCCO1)OCCOC(=O)c1ccc(-c2c3nc(c(-c4cccc(S(=O)(=O)[O-])c4F)c4ccc([nH]4)c(-c4cccc(S(=O)(=O)[O-])c4F)c4nc(c(-c5cccc(S(=O)(=O)[O-])c5F)c5ccc2[nH]5)C=C4)C=C3)cc1
REMARK SMILES IDX 12 1 11 2 2 3 1 4 3 5 4 6 5 9 6 10 7 11 10 12 8 13 9 14
REMARK SMILES IDX 13 15 14 16 15 17 16 18 17 19 18 20 79 21 19 22 78 23 20 24
REMARK SMILES IDX 21 25 22 26 72 27 23 28 77 29 71 30 73 31 24 32 76 33 70 34
REMARK SMILES IDX 69 35 25 37 57 38 37 39 56 40 38 41 41 42 55 43 74 44 39 45
REMARK SMILES IDX 40 46 54 48 75 49 42 50 26 51 27 52 35 53 28 54 30 55 36 56
REMARK SMILES IDX 29 57 31 58 32 59 33 60 34 61 58 62 59 63 67 64 60 65 62 66
REMARK SMILES IDX 68 67 61 68 63 69 64 70 65 71 66 72 43 73 44 74 52 75 45 76
REMARK SMILES IDX 47 77 53 78 46 79 48 80 49 81 50 82 51 83
REMARK H PARENT 4 7 4 8 73 36 41 47
REMARK Flexibility Score: inf
ROOT
ATOM      1  C   UNL A   1      41.872  20.064  27.468  1.00  0.00     0.274 C 
ENDROOT
BRANCH   1   2
ATOM      2  O   UNL A   1      42.337  20.033  26.101  1.00  0.00    -0.458 OA
BRANCH   2   3
ATOM      3  C   UNL A   1      43.004  18.991  25.537  1.00  0.00     0.361 C 
ATOM      4  O   UNL A   1      42.619  17.838  25.727  1.00  0.00    -0.245 OA
BRANCH   3   5
ATOM      5  C   UNL A   1      44.273  19.288  24.750  1.00  0.00     0.384 C 
BRANCH   5   6
ATOM      6  N   UNL A   1      45.307  19.961  25.551  1.00  0.00    -0.335 N 
ATOM      7  H   UNL A   1      46.134  19.367  25.594  1.00  0.00     0.346 HD
ATOM      8  H   UNL A   1      44.934  20.127  26.485  1.00  0.00     0.346 HD
BRANCH   6   9
ATOM      9  C   UNL A   1      45.679  21.265  24.958  1.00  0.00     0.293 C 
BRANCH   9  10
ATOM     10  C   UNL A   1      45.035  22.521  25.574  1.00  0.00     0.173 C 
ATOM     11  C   UNL A   1      43.884  23.037  24.721  1.00  0.00     0.040 C 
ATOM     12  O   UNL A   1      45.989  23.592  25.670  1.00  0.00    -0.372 OA
ATOM     13  C   UNL A   1      43.893  24.506  25.043  1.00  0.00     0.031 C 
ATOM     14  C   UNL A   1      45.380  24.784  25.123  1.00  0.00     0.161 C 
ENDBRANCH   9  10
ENDBRANCH   6   9
ENDBRANCH   5   6
ENDBRANCH   3   5
ENDBRANCH   2   3
ENDBRANCH   1   2
BRANCH   1  15
ATOM     15  C   UNL A   1      40.788  21.124  27.684  1.00  0.00     0.275 C 
BRANCH  15  16
ATOM     16  O   UNL A   1      40.604  21.924  26.501  1.00  0.00    -0.458 OA
BRANCH  16  17
ATOM     17  C   UNL A   1      39.477  22.679  26.454  1.00  0.00     0.338 C 
ATOM     18  O   UNL A   1      38.340  22.282  26.269  1.00  0.00    -0.246 OA
BRANCH  17  19
ATOM     19  C   UNL A   1      39.815  24.062  26.871  1.00  0.00     0.060 A 
ATOM     20  C   UNL A   1      40.386  24.925  25.925  1.00  0.00     0.016 A 
ATOM     21  C   UNL A   1      39.519  24.527  28.153  1.00  0.00     0.016 A 
ATOM     22  C   UNL A   1      40.671  26.254  26.261  1.00  0.00     0.010 A 
ATOM     23  C   UNL A   1      39.801  25.854  28.484  1.00  0.00     0.010 A 
ATOM     24  C   UNL A   1      40.396  26.724  27.550  1.00  0.00    -0.014 A 
BRANCH  24  25
ATOM     25  C   UNL A   1      40.817  28.072  28.010  1.00  0.00     0.031 A 
ATOM     26  C   UNL A   1      42.263  28.290  28.359  1.00  0.00     0.074 A 
ATOM     27  C   UNL A   1      39.923  29.049  28.251  1.00  0.00     0.049 A 
ATOM     28  N   UNL A   1      42.824  29.296  28.975  1.00  0.00    -0.248 NA
ATOM     29  C   UNL A   1      43.199  27.225  27.960  1.00  0.00     0.031 C 
ATOM     30  C   UNL A   1      38.494  28.991  27.956  1.00  0.00     0.029 A 
ATOM     31  N   UNL A   1      40.085  30.250  28.904  1.00  0.00    -0.354 N 
ATOM     32  C   UNL A   1      44.176  28.989  29.041  1.00  0.00     0.074 A 
ATOM     33  C   UNL A   1      44.343  27.678  28.453  1.00  0.00     0.031 C 
ATOM     34  C   UNL A   1      37.889  30.037  28.546  1.00  0.00     0.029 A 
ATOM     35  C   UNL A   1      38.887  30.823  29.266  1.00  0.00     0.049 A 
ATOM     36  H   UNL A   1      40.962  30.656  29.091  1.00  0.00     0.167 HD
ATOM     37  C   UNL A   1      45.197  29.748  29.504  1.00  0.00     0.034 A 
ATOM     38  C   UNL A   1      38.617  31.821  30.130  1.00  0.00     0.034 A 
ATOM     39  C   UNL A   1      45.038  31.060  30.065  1.00  0.00     0.049 A 
ATOM     40  C   UNL A   1      39.746  32.600  30.748  1.00  0.00     0.074 A 
ATOM     41  C   UNL A   1      46.018  31.963  30.440  1.00  0.00     0.029 A 
ATOM     42  N   UNL A   1      43.820  31.647  30.356  1.00  0.00    -0.354 N 
ATOM     43  N   UNL A   1      41.036  32.404  30.635  1.00  0.00    -0.248 NA
ATOM     44  C   UNL A   1      39.387  33.778  31.553  1.00  0.00     0.031 C 
ATOM     45  C   UNL A   1      45.389  33.087  30.985  1.00  0.00     0.029 A 
ATOM     46  C   UNL A   1      44.018  32.892  30.929  1.00  0.00     0.049 A 
ATOM     47  H   UNL A   1      42.940  31.241  30.182  1.00  0.00     0.167 HD
ATOM     48  C   UNL A   1      41.643  33.479  31.279  1.00  0.00     0.074 A 
ATOM     49  C   UNL A   1      40.578  34.304  31.810  1.00  0.00     0.031 C 
ATOM     50  C   UNL A   1      42.964  33.758  31.392  1.00  0.00     0.034 A 
BRANCH  37  51
ATOM     51  C   UNL A   1      46.586  29.194  29.352  1.00  0.00     0.023 A 
ATOM     52  C   UNL A   1      47.160  28.476  30.421  1.00  0.00     0.012 A 
ATOM     53  C   UNL A   1      47.313  29.361  28.160  1.00  0.00     0.148 A 
ATOM     54  C   UNL A   1      48.454  27.969  30.323  1.00  0.00     0.002 A 
ATOM     55  C   UNL A   1      48.587  28.816  28.054  1.00  0.00     0.091 A 
ATOM     56  F   UNL A   1      46.761  30.070  27.165  1.00  0.00    -0.205 F 
ATOM     57  C   UNL A   1      49.164  28.132  29.136  1.00  0.00     0.022 A 
BRANCH  55  58
ATOM     58  S   UNL A   1      49.545  28.921  26.539  1.00  0.00     0.127 S 
ATOM     59  O   UNL A   1      48.593  28.415  25.552  1.00  0.00    -0.237 OA
ATOM     60  O   UNL A   1      49.820  30.355  26.440  1.00  0.00    -0.237 OA
ATOM     61  O   UNL A   1      50.724  28.096  26.762  1.00  0.00    -0.744 OA
ENDBRANCH  55  58
ENDBRANCH  37  51
BRANCH  38  62
ATOM     62  C   UNL A   1      37.204  32.138  30.468  1.00  0.00     0.023 A 
ATOM     63  C   UNL A   1      36.662  31.715  31.695  1.00  0.00     0.012 A 
ATOM     64  C   UNL A   1      36.404  32.874  29.573  1.00  0.00     0.148 A 
ATOM     65  C   UNL A   1      35.333  31.999  32.014  1.00  0.00     0.002 A 
ATOM     66  C   UNL A   1      35.092  33.182  29.911  1.00  0.00     0.091 A 
ATOM     67  F   UNL A   1      36.945  33.265  28.411  1.00  0.00    -0.205 F 
ATOM     68  C   UNL A   1      34.550  32.736  31.127  1.00  0.00     0.022 A 
BRANCH  66  69
ATOM     69  S   UNL A   1      34.039  34.199  28.870  1.00  0.00     0.127 S 
ATOM     70  O   UNL A   1      34.936  35.295  28.516  1.00  0.00    -0.237 OA
ATOM     71  O   UNL A   1      33.723  33.281  27.775  1.00  0.00    -0.237 OA
ATOM     72  O   UNL A   1      32.896  34.560  29.699  1.00  0.00    -0.744 OA
ENDBRANCH  66  69
ENDBRANCH  38  62
BRANCH  50  73
ATOM     73  C   UNL A   1      43.368  35.058  32.032  1.00  0.00     0.023 A 
ATOM     74  C   UNL A   1      43.589  35.130  33.421  1.00  0.00     0.012 A 
ATOM     75  C   UNL A   1      43.639  36.185  31.228  1.00  0.00     0.148 A 
ATOM     76  C   UNL A   1      44.061  36.308  34.000  1.00  0.00     0.002 A 
ATOM     77  C   UNL A   1      44.153  37.339  31.806  1.00  0.00     0.091 A 
ATOM     78  F   UNL A   1      43.401  36.101  29.911  1.00  0.00    -0.205 F 
ATOM     79  C   UNL A   1      44.358  37.405  33.193  1.00  0.00     0.022 A 
BRANCH  77  80
ATOM     80  S   UNL A   1      44.659  38.762  30.832  1.00  0.00     0.127 S 
ATOM     81  O   UNL A   1      45.700  38.187  29.982  1.00  0.00    -0.237 OA
ATOM     82  O   UNL A   1      43.424  39.114  30.131  1.00  0.00    -0.237 OA
ATOM     83  O   UNL A   1      45.117  39.762  31.788  1.00  0.00    -0.744 OA
ENDBRANCH  77  80
ENDBRANCH  50  73
ENDBRANCH  24  25
ENDBRANCH  17  19
ENDBRANCH  16  17
ENDBRANCH  15  16
ENDBRANCH   1  15
TORSDOF 17
ENDMDL
MODEL 2
REMARK VINA RESULT:      -9.4      3.330     11.125
REMARK SMILES O=C(C[NH2+]C[C@@H]1CCCO1)OCCOC(=O)c1ccc(-c2c3nc(c(-c4cccc(S(=O)(=O)[O-])c4F)c4ccc([nH]4)c(-c4cccc(S(=O)(=O)[O-])c4F)c4nc(c(-c5cccc(S(=O)(=O)[O-])c5F)c5ccc2[nH]5)C=C4)C=C3)cc1
REMARK SMILES IDX 12 1 11 2 2 3 1 4 3 5 4 6 5 9 6 10 7 11 10 12 8 13 9 14
REMARK SMILES IDX 13 15 14 16 15 17 16 18 17 19 18 20 79 21 19 22 78 23 20 24
REMARK SMILES IDX 21 25 22 26 72 27 23 28 77 29 71 30 73 31 24 32 76 33 70 34
REMARK SMILES IDX 69 35 25 37 57 38 37 39 56 40 38 41 41 42 55 43 74 44 39 45
REMARK SMILES IDX 40 46 54 48 75 49 42 50 26 51 27 52 35 53 28 54 30 55 36 56
REMARK SMILES IDX 29 57 31 58 32 59 33 60 34 61 58 62 59 63 67 64 60 65 62 66
REMARK SMILES IDX 68 67 61 68 63 69 64 70 65 71 66 72 43 73 44 74 52 75 45 76
REMARK SMILES IDX 47 77 53 78 46 79 48 80 49 81 50 82 51 83
REMARK H PARENT 4 7 4 8 73 36 41 47
REMARK Flexibility Score: inf
ROOT
ATOM      1  C   UNL A   1      34.895  35.150  32.113  1.00  0.00     0.274 C 
ENDROOT
BRANCH   1   2
ATOM      2  O   UNL A   1      33.584  35.393  31.561  1.00  0.00    -0.458 OA
BRANCH   2   3
ATOM      3  C   UNL A   1      33.348  36.038  30.388  1.00  0.00     0.361 C 
ATOM      4  O   UNL A   1      32.880  37.175  30.394  1.00  0.00    -0.245 OA
BRANCH   3   5
ATOM      5  C   UNL A   1      33.592  35.283  29.087  1.00  0.00     0.384 C 
BRANCH   5   6
ATOM      6  N   UNL A   1      33.345  33.838  29.200  1.00  0.00    -0.335 N 
ATOM      7  H   UNL A   1      32.340  33.669  29.168  1.00  0.00     0.346 HD
ATOM      8  H   UNL A   1      33.737  33.512  30.084  1.00  0.00     0.346 HD
BRANCH   6   9
ATOM      9  C   UNL A   1      33.996  33.095  28.098  1.00  0.00     0.293 C 
BRANCH   9  10
ATOM     10  C   UNL A   1      33.803  31.567  28.076  1.00  0.00     0.173 C 
ATOM     11  C   UNL A   1      35.033  30.853  27.533  1.00  0.00     0.040 C 
ATOM     12  O   UNL A   1      32.704  31.202  27.225  1.00  0.00    -0.372 OA
ATOM     13  C   UNL A   1      34.434  29.604  26.948  1.00  0.00     0.031 C 
ATOM     14  C   UNL A   1      33.151  30.141  26.349  1.00  0.00     0.161 C 
ENDBRANCH   9  10
ENDBRANCH   6   9
ENDBRANCH   5   6
ENDBRANCH   3   5
ENDBRANCH   2   3
ENDBRANCH   1   2
BRANCH   1  15
ATOM     15  C   UNL A   1      34.832  34.360  33.424  1.00  0.00     0.275 C 
BRANCH  15  16
ATOM     16  O   UNL A   1      35.523  33.104  33.304  1.00  0.00    -0.458 OA
BRANCH  16  17
ATOM     17  C   UNL A   1      35.176  32.324  32.248  1.00  0.00     0.338 C 
ATOM     18  O   UNL A   1      34.090  32.282  31.697  1.00  0.00    -0.246 OA
BRANCH  17  19
ATOM     19  C   UNL A   1      36.398  31.666  31.723  1.00  0.00     0.060 A 
ATOM     20  C   UNL A   1      37.163  30.880  32.599  1.00  0.00     0.016 A 
ATOM     21  C   UNL A   1      36.757  31.764  30.378  1.00  0.00     0.016 A 
ATOM     22  C   UNL A   1      38.294  30.199  32.134  1.00  0.00     0.010 A 
ATOM     23  C   UNL A   1      37.883  31.079  29.916  1.00  0.00     0.010 A 
ATOM     24  C   UNL A   1      38.672  30.307  30.790  1.00  0.00    -0.014 A 
BRANCH  24  25
ATOM     25  C   UNL A   1      39.942  29.736  30.275  1.00  0.00     0.031 A 
ATOM     26  C   UNL A   1      41.109  30.659  30.064  1.00  0.00     0.074 A 
ATOM     27  C   UNL A   1      40.028  28.456  29.867  1.00  0.00     0.049 A 
ATOM     28  N   UNL A   1      42.234  30.444  29.435  1.00  0.00    -0.248 NA
ATOM     29  C   UNL A   1      40.986  32.009  30.640  1.00  0.00     0.031 C 
ATOM     30  C   UNL A   1      38.989  27.441  30.013  1.00  0.00     0.029 A 
ATOM     31  N   UNL A   1      41.017  27.826  29.144  1.00  0.00    -0.354 N 
ATOM     32  C   UNL A   1      42.953  31.627  29.535  1.00  0.00     0.074 A 
ATOM     33  C   UNL A   1      42.114  32.575  30.237  1.00  0.00     0.031 C 
ATOM     34  C   UNL A   1      39.333  26.363  29.285  1.00  0.00     0.029 A 
ATOM     35  C   UNL A   1      40.604  26.625  28.616  1.00  0.00     0.049 A 
ATOM     36  H   UNL A   1      41.921  28.194  29.020  1.00  0.00     0.167 HD
ATOM     37  C   UNL A   1      44.216  31.890  29.126  1.00  0.00     0.034 A 
ATOM     38  C   UNL A   1      41.151  25.855  27.654  1.00  0.00     0.034 A 
ATOM     39  C   UNL A   1      45.060  30.943  28.452  1.00  0.00     0.049 A 
ATOM     40  C   UNL A   1      42.506  26.200  27.100  1.00  0.00     0.074 A 
ATOM     41  C   UNL A   1      46.396  31.066  28.114  1.00  0.00     0.029 A 
ATOM     42  N   UNL A   1      44.641  29.708  27.990  1.00  0.00    -0.354 N 
ATOM     43  N   UNL A   1      43.259  27.240  27.363  1.00  0.00    -0.248 NA
ATOM     44  C   UNL A   1      43.118  25.236  26.173  1.00  0.00     0.031 C 
ATOM     45  C   UNL A   1      46.777  29.913  27.421  1.00  0.00     0.029 A 
ATOM     46  C   UNL A   1      45.685  29.065  27.347  1.00  0.00     0.049 A 
ATOM     47  H   UNL A   1      43.735  29.340  28.102  1.00  0.00     0.167 HD
ATOM     48  C   UNL A   1      44.464  27.013  26.706  1.00  0.00     0.074 A 
ATOM     49  C   UNL A   1      44.329  25.754  26.003  1.00  0.00     0.031 C 
ATOM     50  C   UNL A   1      45.584  27.776  26.710  1.00  0.00     0.034 A 
BRANCH  37  51
ATOM     51  C   UNL A   1      44.779  33.242  29.465  1.00  0.00     0.023 A 
ATOM     52  C   UNL A   1      44.634  34.298  28.542  1.00  0.00     0.012 A 
ATOM     53  C   UNL A   1      45.427  33.477  30.691  1.00  0.00     0.148 A 
ATOM     54  C   UNL A   1      45.164  35.557  28.815  1.00  0.00     0.002 A 
ATOM     55  C   UNL A   1      45.917  34.746  30.973  1.00  0.00     0.091 A 
ATOM     56  F   UNL A   1      45.580  32.453  31.543  1.00  0.00    -0.205 F 
ATOM     57  C   UNL A   1      45.798  35.783  30.033  1.00  0.00     0.022 A 
BRANCH  55  58
ATOM     58  S   UNL A   1      46.687  35.142  32.546  1.00  0.00     0.127 S 
ATOM     59  O   UNL A   1      47.881  34.300  32.511  1.00  0.00    -0.237 OA
ATOM     60  O   UNL A   1      46.950  36.576  32.413  1.00  0.00    -0.237 OA
ATOM     61  O   UNL A   1      45.702  34.803  33.563  1.00  0.00    -0.744 OA
ENDBRANCH  55  58
ENDBRANCH  37  51
BRANCH  38  62
ATOM     62  C   UNL A   1      40.403  24.674  27.145  1.00  0.00     0.023 A 
ATOM     63  C   UNL A   1      39.160  24.847  26.511  1.00  0.00     0.012 A 
ATOM     64  C   UNL A   1      40.939  23.378  27.280  1.00  0.00     0.148 A 
ATOM     65  C   UNL A   1      38.448  23.742  26.041  1.00  0.00     0.002 A 
ATOM     66  C   UNL A   1      40.240  22.286  26.780  1.00  0.00     0.091 A 
ATOM     67  F   UNL A   1      42.125  23.241  27.888  1.00  0.00    -0.205 F 
ATOM     68  C   UNL A   1      38.988  22.464  26.170  1.00  0.00     0.022 A 
BRANCH  66  69
ATOM     69  S   UNL A   1      40.899  20.615  26.825  1.00  0.00     0.127 S 
ATOM     70  O   UNL A   1      40.891  20.328  28.257  1.00  0.00    -0.237 OA
ATOM     71  O   UNL A   1      39.907  19.879  26.042  1.00  0.00    -0.237 OA
ATOM     72  O   UNL A   1      42.216  20.695  26.204  1.00  0.00    -0.744 OA
ENDBRANCH  66  69
ENDBRANCH  38  62
BRANCH  50  73
ATOM     73  C   UNL A   1      46.812  27.249  26.019  1.00  0.00     0.023 A 
ATOM     74  C   UNL A   1      47.578  26.225  26.609  1.00  0.00     0.012 A 
ATOM     75  C   UNL A   1      47.138  27.698  24.722  1.00  0.00     0.148 A 
ATOM     76  C   UNL A   1      48.656  25.667  25.924  1.00  0.00     0.002 A 
ATOM     77  C   UNL A   1      48.185  27.104  24.028  1.00  0.00     0.091 A 
ATOM     78  F   UNL A   1      46.409  28.688  24.188  1.00  0.00    -0.205 F 
ATOM     79  C   UNL A   1      48.950  26.093  24.630  1.00  0.00     0.022 A 
BRANCH  77  80
ATOM     80  S   UNL A   1      48.569  27.519  22.322  1.00  0.00     0.127 S 
ATOM     81  O   UNL A   1      49.805  28.286  22.473  1.00  0.00    -0.237 OA
ATOM     82  O   UNL A   1      48.740  26.200  21.712  1.00  0.00    -0.237 OA
ATOM     83  O   UNL A   1      47.425  28.272  21.823  1.00  0.00    -0.744 OA
ENDBRANCH  77  80
ENDBRANCH  50  73
ENDBRANCH  24  25
ENDBRANCH  17  19
ENDBRANCH  16  17
ENDBRANCH  15  16
ENDBRANCH   1  15
TORSDOF 17
ENDMDL
MODEL 3
REMARK VINA RESULT:      -9.4      4.447     11.851
REMARK SMILES O=C(C[NH2+]C[C@@H]1CCCO1)OCCOC(=O)c1ccc(-c2c3nc(c(-c4cccc(S(=O)(=O)[O-])c4F)c4ccc([nH]4)c(-c4cccc(S(=O)(=O)[O-])c4F)c4nc(c(-c5cccc(S(=O)(=O)[O-])c5F)c5ccc2[nH]5)C=C4)C=C3)cc1
REMARK SMILES IDX 12 1 11 2 2 3 1 4 3 5 4 6 5 9 6 10 7 11 10 12 8 13 9 14
REMARK SMILES IDX 13 15 14 16 15 17 16 18 17 19 18 20 79 21 19 22 78 23 20 24
REMARK SMILES IDX 21 25 22 26 72 27 23 28 77 29 71 30 73 31 24 32 76 33 70 34
REMARK SMILES IDX 69 35 25 37 57 38 37 39 56 40 38 41 41 42 55 43 74 44 39 45
REMARK SMILES IDX 40 46 54 48 75 49 42 50 26 51 27 52 35 53 28 54 30 55 36 56
REMARK SMILES IDX 29 57 31 58 32 59 33 60 34 61 58 62 59 63 67 64 60 65 62 66
REMARK SMILES IDX 68 67 61 68 63 69 64 70 65 71 66 72 43 73 44 74 52 75 45 76
REMARK SMILES IDX 47 77 53 78 46 79 48 80 49 81 50 82 51 83
REMARK H PARENT 4 7 4 8 73 36 41 47
REMARK Flexibility Score: inf
ROOT
ATOM      1  C   UNL A   1      33.963  34.384  28.593  1.00  0.00     0.274 C 
ENDROOT
BRANCH   1   2
ATOM      2  O   UNL A   1      33.347  34.569  29.886  1.00  0.00    -0.458 OA
BRANCH   2   3
ATOM      3  C   UNL A   1      32.780  35.728  30.313  1.00  0.00     0.361 C 
ATOM      4  O   UNL A   1      32.181  36.449  29.516  1.00  0.00    -0.245 OA
BRANCH   3   5
ATOM      5  C   UNL A   1      32.988  36.143  31.763  1.00  0.00     0.384 C 
BRANCH   5   6
ATOM      6  N   UNL A   1      34.402  36.336  32.115  1.00  0.00    -0.335 N 
ATOM      7  H   UNL A   1      34.568  37.326  32.296  1.00  0.00     0.346 HD
ATOM      8  H   UNL A   1      34.975  36.012  31.336  1.00  0.00     0.346 HD
BRANCH   6   9
ATOM      9  C   UNL A   1      34.766  35.557  33.319  1.00  0.00     0.293 C 
BRANCH   9  10
ATOM     10  C   UNL A   1      35.459  34.200  33.090  1.00  0.00     0.173 C 
ATOM     11  C   UNL A   1      36.233  34.179  31.778  1.00  0.00     0.040 C 
ATOM     12  O   UNL A   1      34.494  33.138  33.016  1.00  0.00    -0.372 OA
ATOM     13  C   UNL A   1      36.196  32.719  31.419  1.00  0.00     0.031 C 
ATOM     14  C   UNL A   1      34.792  32.343  31.845  1.00  0.00     0.161 C 
ENDBRANCH   9  10
ENDBRANCH   6   9
ENDBRANCH   5   6
ENDBRANCH   3   5
ENDBRANCH   2   3
ENDBRANCH   1   2
BRANCH   1  15
ATOM     15  C   UNL A   1      33.661  33.003  28.003  1.00  0.00     0.275 C 
BRANCH  15  16
ATOM     16  O   UNL A   1      34.875  32.309  27.666  1.00  0.00    -0.458 OA
BRANCH  16  17
ATOM     17  C   UNL A   1      34.785  30.960  27.545  1.00  0.00     0.338 C 
ATOM     18  O   UNL A   1      33.974  30.339  26.880  1.00  0.00    -0.246 OA
BRANCH  17  19
ATOM     19  C   UNL A   1      35.969  30.346  28.194  1.00  0.00     0.060 A 
ATOM     20  C   UNL A   1      37.216  30.464  27.560  1.00  0.00     0.016 A 
ATOM     21  C   UNL A   1      35.874  29.717  29.437  1.00  0.00     0.016 A 
ATOM     22  C   UNL A   1      38.368  29.946  28.163  1.00  0.00     0.010 A 
ATOM     23  C   UNL A   1      37.026  29.205  30.037  1.00  0.00     0.010 A 
ATOM     24  C   UNL A   1      38.279  29.297  29.399  1.00  0.00    -0.014 A 
BRANCH  24  25
ATOM     25  C   UNL A   1      39.435  28.594  30.012  1.00  0.00     0.031 A 
ATOM     26  C   UNL A   1      40.188  29.282  31.117  1.00  0.00     0.074 A 
ATOM     27  C   UNL A   1      39.902  27.434  29.516  1.00  0.00     0.049 A 
ATOM     28  N   UNL A   1      41.338  28.973  31.653  1.00  0.00    -0.248 NA
ATOM     29  C   UNL A   1      39.556  30.484  31.688  1.00  0.00     0.031 C 
ATOM     30  C   UNL A   1      39.278  26.645  28.458  1.00  0.00     0.029 A 
ATOM     31  N   UNL A   1      41.082  26.774  29.778  1.00  0.00    -0.354 N 
ATOM     32  C   UNL A   1      41.571  29.939  32.623  1.00  0.00     0.074 A 
ATOM     33  C   UNL A   1      40.470  30.876  32.562  1.00  0.00     0.031 C 
ATOM     34  C   UNL A   1      40.141  25.690  28.065  1.00  0.00     0.029 A 
ATOM     35  C   UNL A   1      41.375  25.816  28.835  1.00  0.00     0.049 A 
ATOM     36  H   UNL A   1      41.654  26.967  30.555  1.00  0.00     0.167 HD
ATOM     37  C   UNL A   1      42.583  30.015  33.519  1.00  0.00     0.034 A 
ATOM     38  C   UNL A   1      42.525  25.162  28.577  1.00  0.00     0.034 A 
ATOM     39  C   UNL A   1      43.663  29.072  33.599  1.00  0.00     0.049 A 
ATOM     40  C   UNL A   1      43.703  25.327  29.497  1.00  0.00     0.074 A 
ATOM     41  C   UNL A   1      44.664  28.985  34.551  1.00  0.00     0.029 A 
ATOM     42  N   UNL A   1      43.900  28.068  32.676  1.00  0.00    -0.354 N 
ATOM     43  N   UNL A   1      43.827  26.115  30.536  1.00  0.00    -0.248 NA
ATOM     44  C   UNL A   1      44.870  24.466  29.255  1.00  0.00     0.031 C 
ATOM     45  C   UNL A   1      45.522  27.942  34.186  1.00  0.00     0.029 A 
ATOM     46  C   UNL A   1      45.044  27.369  33.019  1.00  0.00     0.049 A 
ATOM     47  H   UNL A   1      43.337  27.879  31.890  1.00  0.00     0.167 HD
ATOM     48  C   UNL A   1      45.045  25.784  31.122  1.00  0.00     0.074 A 
ATOM     49  C   UNL A   1      45.637  24.749  30.301  1.00  0.00     0.031 C 
ATOM     50  C   UNL A   1      45.602  26.284  32.252  1.00  0.00     0.034 A 
BRANCH  37  51
ATOM     51  C   UNL A   1      42.521  31.126  34.530  1.00  0.00     0.023 A 
ATOM     52  C   UNL A   1      41.905  30.887  35.776  1.00  0.00     0.012 A 
ATOM     53  C   UNL A   1      43.082  32.387  34.264  1.00  0.00     0.148 A 
ATOM     54  C   UNL A   1      41.810  31.901  36.726  1.00  0.00     0.002 A 
ATOM     55  C   UNL A   1      43.020  33.382  35.233  1.00  0.00     0.091 A 
ATOM     56  F   UNL A   1      43.639  32.603  33.064  1.00  0.00    -0.205 F 
ATOM     57  C   UNL A   1      42.374  33.145  36.458  1.00  0.00     0.022 A 
BRANCH  55  58
ATOM     58  S   UNL A   1      43.780  34.991  34.998  1.00  0.00     0.127 S 
ATOM     59  O   UNL A   1      42.953  35.556  33.934  1.00  0.00    -0.237 OA
ATOM     60  O   UNL A   1      43.598  35.618  36.309  1.00  0.00    -0.237 OA
ATOM     61  O   UNL A   1      45.168  34.723  34.648  1.00  0.00    -0.744 OA
ENDBRANCH  55  58
ENDBRANCH  37  51
BRANCH  38  62
ATOM     62  C   UNL A   1      42.617  24.287  27.377  1.00  0.00     0.023 A 
ATOM     63  C   UNL A   1      43.162  24.786  26.181  1.00  0.00     0.012 A 
ATOM     64  C   UNL A   1      42.177  22.950  27.434  1.00  0.00     0.148 A 
ATOM     65  C   UNL A   1      43.242  23.974  25.049  1.00  0.00     0.002 A 
ATOM     66  C   UNL A   1      42.291  22.137  26.312  1.00  0.00     0.091 A 
ATOM     67  F   UNL A   1      41.663  22.498  28.586  1.00  0.00    -0.205 F 
ATOM     68  C   UNL A   1      42.813  22.650  25.114  1.00  0.00     0.022 A 
BRANCH  66  69
ATOM     69  S   UNL A   1      41.843  20.397  26.332  1.00  0.00     0.127 S 
ATOM     70  O   UNL A   1      40.399  20.457  26.125  1.00  0.00    -0.237 OA
ATOM     71  O   UNL A   1      42.608  19.877  25.198  1.00  0.00    -0.237 OA
ATOM     72  O   UNL A   1      42.276  19.894  27.629  1.00  0.00    -0.744 OA
ENDBRANCH  66  69
ENDBRANCH  38  62
BRANCH  50  73
ATOM     73  C   UNL A   1      46.879  25.668  32.753  1.00  0.00     0.023 A 
ATOM     74  C   UNL A   1      48.125  26.199  32.368  1.00  0.00     0.012 A 
ATOM     75  C   UNL A   1      46.834  24.626  33.703  1.00  0.00     0.148 A 
ATOM     76  C   UNL A   1      49.306  25.693  32.911  1.00  0.00     0.002 A 
ATOM     77  C   UNL A   1      48.012  24.160  34.274  1.00  0.00     0.091 A 
ATOM     78  F   UNL A   1      45.638  24.120  34.039  1.00  0.00    -0.205 F 
ATOM     79  C   UNL A   1      49.249  24.687  33.874  1.00  0.00     0.022 A 
BRANCH  77  80
ATOM     80  S   UNL A   1      48.026  22.939  35.593  1.00  0.00     0.127 S 
ATOM     81  O   UNL A   1      46.982  23.448  36.482  1.00  0.00    -0.237 OA
ATOM     82  O   UNL A   1      47.676  21.709  34.881  1.00  0.00    -0.237 OA
ATOM     83  O   UNL A   1      49.376  22.956  36.142  1.00  0.00    -0.744 OA
ENDBRANCH  77  80
ENDBRANCH  50  73
ENDBRANCH  24  25
ENDBRANCH  17  19
ENDBRANCH  16  17
ENDBRANCH  15  16
ENDBRANCH   1  15
TORSDOF 17
ENDMDL
