MODEL 1
REMARK VINA RESULT:     -12.5      0.000      0.000
REMARK SMILES CN1C(=O)C[C@H](C(=O)Nc2ccc(C(=O)OCCOC(=O)c3ccc(-c4c5nc(c(-c6cccc(S(=O)(=O)[O-])c6F)c6ccc([nH]6)c(-c6cccc(S(=O)(=O)[O-])c6F)c6nc(c(-c7cccc(S(=O)(=O)[O-])c7F)c7ccc4[nH]7)C=C6)C=C5)cc3)cc2)S/C1=[NH+]\c1cccc(C(F)(F)F)c1
REMARK SMILES IDX 17 1 16 2 14 3 15 4 13 5 10 6 11 7 86 8 12 9 85 10 9 11 7 12
REMARK SMILES IDX 8 13 6 15 1 16 2 17 3 18 88 19 4 20 5 21 87 22 89 23 90 25
REMARK SMILES IDX 91 26 99 27 92 28 94 29 93 30 95 31 96 32 97 33 98 34 18 35
REMARK SMILES IDX 19 36 20 37 21 38 22 39 23 40 84 41 24 42 83 43 25 44 26 45
REMARK SMILES IDX 27 46 77 47 28 48 82 49 76 50 78 51 29 52 81 53 75 54 74 55
REMARK SMILES IDX 30 57 62 58 42 59 61 60 43 61 46 62 60 63 79 64 44 65 45 66
REMARK SMILES IDX 59 68 80 69 47 70 31 71 32 72 40 73 33 74 35 75 41 76 34 77
REMARK SMILES IDX 36 78 37 79 38 80 39 81 63 82 64 83 72 84 65 85 67 86 73 87
REMARK SMILES IDX 66 88 68 89 69 90 70 91 71 92 48 93 49 94 57 95 50 96 52 97
REMARK SMILES IDX 58 98 51 99 53 100 54 101 55 102 56 103
REMARK H PARENT 9 14 89 24 78 56 46 67
REMARK Flexibility Score: inf
ROOT
ATOM      1  C   UNL A   1      30.736  31.168  25.340  1.00  0.00     0.275 C 
ENDROOT
BRANCH   1   2
ATOM      2  O   UNL A   1      31.564  30.025  25.053  1.00  0.00    -0.458 OA
BRANCH   2   3
ATOM      3  C   UNL A   1      30.939  29.054  24.345  1.00  0.00     0.338 C 
ATOM      4  O   UNL A   1      30.101  29.232  23.478  1.00  0.00    -0.246 OA
BRANCH   3   5
ATOM      5  C   UNL A   1      31.348  27.688  24.755  1.00  0.00     0.060 A 
ATOM      6  C   UNL A   1      32.116  25.462  26.225  1.00  0.00     0.041 A 
ATOM      7  C   UNL A   1      30.764  25.720  26.055  1.00  0.00     0.027 A 
ATOM      8  C   UNL A   1      33.065  26.168  25.484  1.00  0.00     0.027 A 
ATOM      9  C   UNL A   1      30.387  26.865  25.365  1.00  0.00     0.018 A 
ATOM     10  C   UNL A   1      32.683  27.290  24.743  1.00  0.00     0.018 A 
BRANCH   6  11
ATOM     11  N   UNL A   1      32.475  24.502  27.159  1.00  0.00    -0.325 N 
ATOM     12  C   UNL A   1      32.295  23.152  27.152  1.00  0.00     0.238 C 
ATOM     13  O   UNL A   1      32.607  22.563  28.199  1.00  0.00    -0.273 OA
ATOM     14  H   UNL A   1      32.934  24.852  27.956  1.00  0.00     0.169 HD
BRANCH  12  15
ATOM     15  C   UNL A   1      31.932  22.304  25.916  1.00  0.00     0.160 C 
ATOM     16  C   UNL A   1      33.094  24.291  22.161  1.00  0.00     0.301 C 
ATOM     17  N   UNL A   1      32.724  23.557  23.370  1.00  0.00    -0.194 N 
ATOM     18  C   UNL A   1      31.369  23.337  23.592  1.00  0.00     0.311 C 
ATOM     19  C   UNL A   1      33.787  23.049  24.112  1.00  0.00     0.319 C 
ATOM     20  O   UNL A   1      30.499  23.656  22.773  1.00  0.00    -0.247 OA
ATOM     21  C   UNL A   1      30.910  22.679  24.879  1.00  0.00     0.153 C 
ATOM     22  S   UNL A   1      33.414  21.674  25.121  1.00  0.00    -0.024 SA
ATOM     23  N   UNL A   1      34.975  23.543  23.951  1.00  0.00    -0.235 N 
ATOM     24  H   UNL A   1      35.098  24.355  23.409  1.00  0.00     0.313 HD
BRANCH  23  25
ATOM     25  C   UNL A   1      36.079  22.926  24.543  1.00  0.00     0.126 A 
ATOM     26  C   UNL A   1      36.432  21.609  24.252  1.00  0.00     0.052 A 
ATOM     27  C   UNL A   1      36.850  23.667  25.441  1.00  0.00     0.064 A 
ATOM     28  C   UNL A   1      37.591  21.062  24.805  1.00  0.00     0.005 A 
ATOM     29  C   UNL A   1      38.034  23.149  25.971  1.00  0.00     0.060 A 
ATOM     30  C   UNL A   1      38.397  21.833  25.647  1.00  0.00     0.013 A 
BRANCH  29  31
ATOM     31  C   UNL A   1      38.911  24.014  26.833  1.00  0.00     0.416 C 
ATOM     32  F   UNL A   1      38.207  24.821  27.669  1.00  0.00    -0.166 F 
ATOM     33  F   UNL A   1      39.741  23.281  27.628  1.00  0.00    -0.166 F 
ATOM     34  F   UNL A   1      39.732  24.840  26.120  1.00  0.00    -0.166 F 
ENDBRANCH  29  31
ENDBRANCH  23  25
ENDBRANCH  12  15
ENDBRANCH   6  11
ENDBRANCH   3   5
ENDBRANCH   2   3
ENDBRANCH   1   2
BRANCH   1  35
ATOM     35  C   UNL A   1      31.305  31.979  26.503  1.00  0.00     0.275 C 
BRANCH  35  36
ATOM     36  O   UNL A   1      32.617  31.508  26.871  1.00  0.00    -0.458 OA
BRANCH  36  37
ATOM     37  C   UNL A   1      33.431  32.445  27.407  1.00  0.00     0.338 C 
ATOM     38  O   UNL A   1      33.170  33.624  27.602  1.00  0.00    -0.246 OA
BRANCH  37  39
ATOM     39  C   UNL A   1      34.707  31.852  27.831  1.00  0.00     0.060 A 
ATOM     40  C   UNL A   1      34.752  30.489  28.095  1.00  0.00     0.016 A 
ATOM     41  C   UNL A   1      35.786  32.658  28.176  1.00  0.00     0.016 A 
ATOM     42  C   UNL A   1      35.790  29.948  28.844  1.00  0.00     0.010 A 
ATOM     43  C   UNL A   1      36.904  32.082  28.793  1.00  0.00     0.010 A 
ATOM     44  C   UNL A   1      36.899  30.729  29.185  1.00  0.00    -0.014 A 
BRANCH  44  45
ATOM     45  C   UNL A   1      38.030  30.138  29.959  1.00  0.00     0.031 A 
ATOM     46  C   UNL A   1      38.250  30.530  31.399  1.00  0.00     0.074 A 
ATOM     47  C   UNL A   1      38.874  29.262  29.374  1.00  0.00     0.049 A 
ATOM     48  N   UNL A   1      39.283  30.304  32.170  1.00  0.00    -0.248 NA
ATOM     49  C   UNL A   1      37.175  31.294  32.057  1.00  0.00     0.031 C 
ATOM     50  C   UNL A   1      38.768  28.767  27.998  1.00  0.00     0.029 A 
ATOM     51  N   UNL A   1      40.002  28.641  29.855  1.00  0.00    -0.354 N 
ATOM     52  C   UNL A   1      39.026  30.972  33.362  1.00  0.00     0.074 A 
ATOM     53  C   UNL A   1      37.731  31.601  33.221  1.00  0.00     0.031 C 
ATOM     54  C   UNL A   1      39.768  27.909  27.754  1.00  0.00     0.029 A 
ATOM     55  C   UNL A   1      40.651  27.878  28.910  1.00  0.00     0.049 A 
ATOM     56  H   UNL A   1      40.315  28.733  30.784  1.00  0.00     0.167 HD
ATOM     57  C   UNL A   1      39.799  31.054  34.472  1.00  0.00     0.034 A 
ATOM     58  C   UNL A   1      41.855  27.275  28.935  1.00  0.00     0.034 A 
ATOM     59  C   UNL A   1      41.055  30.369  34.628  1.00  0.00     0.049 A 
ATOM     60  C   UNL A   1      42.697  27.391  30.171  1.00  0.00     0.074 A 
ATOM     61  C   UNL A   1      41.893  30.347  35.729  1.00  0.00     0.029 A 
ATOM     62  N   UNL A   1      41.654  29.582  33.657  1.00  0.00    -0.354 N 
ATOM     63  N   UNL A   1      42.426  28.001  31.299  1.00  0.00    -0.248 NA
ATOM     64  C   UNL A   1      44.008  26.727  30.145  1.00  0.00     0.031 C 
ATOM     65  C   UNL A   1      43.012  29.572  35.413  1.00  0.00     0.029 A 
ATOM     66  C   UNL A   1      42.853  29.076  34.128  1.00  0.00     0.049 A 
ATOM     67  H   UNL A   1      41.281  29.407  32.762  1.00  0.00     0.167 HD
ATOM     68  C   UNL A   1      43.516  27.770  32.127  1.00  0.00     0.074 A 
ATOM     69  C   UNL A   1      44.441  26.944  31.379  1.00  0.00     0.031 C 
ATOM     70  C   UNL A   1      43.738  28.214  33.388  1.00  0.00     0.034 A 
BRANCH  57  71
ATOM     71  C   UNL A   1      39.313  31.917  35.612  1.00  0.00     0.023 A 
ATOM     72  C   UNL A   1      39.581  33.300  35.621  1.00  0.00     0.012 A 
ATOM     73  C   UNL A   1      38.537  31.359  36.649  1.00  0.00     0.148 A 
ATOM     74  C   UNL A   1      39.120  34.106  36.662  1.00  0.00     0.002 A 
ATOM     75  C   UNL A   1      38.039  32.177  37.656  1.00  0.00     0.091 A 
ATOM     76  F   UNL A   1      38.305  30.039  36.634  1.00  0.00    -0.205 F 
ATOM     77  C   UNL A   1      38.341  33.548  37.672  1.00  0.00     0.022 A 
BRANCH  75  78
ATOM     78  S   UNL A   1      36.957  31.568  38.955  1.00  0.00     0.127 S 
ATOM     79  O   UNL A   1      37.844  31.600  40.117  1.00  0.00    -0.237 OA
ATOM     80  O   UNL A   1      35.898  32.578  38.970  1.00  0.00    -0.237 OA
ATOM     81  O   UNL A   1      36.528  30.243  38.534  1.00  0.00    -0.744 OA
ENDBRANCH  75  78
ENDBRANCH  57  71
BRANCH  58  82
ATOM     82  C   UNL A   1      42.337  26.524  27.740  1.00  0.00     0.023 A 
ATOM     83  C   UNL A   1      42.821  27.232  26.623  1.00  0.00     0.012 A 
ATOM     84  C   UNL A   1      42.354  25.114  27.719  1.00  0.00     0.148 A 
ATOM     85  C   UNL A   1      43.290  26.551  25.499  1.00  0.00     0.002 A 
ATOM     86  C   UNL A   1      42.883  24.443  26.623  1.00  0.00     0.091 A 
ATOM     87  F   UNL A   1      41.874  24.457  28.784  1.00  0.00    -0.205 F 
ATOM     88  C   UNL A   1      43.333  25.159  25.504  1.00  0.00     0.022 A 
BRANCH  86  89
ATOM     89  S   UNL A   1      43.110  22.662  26.605  1.00  0.00     0.127 S 
ATOM     90  O   UNL A   1      42.271  22.265  25.477  1.00  0.00    -0.237 OA
ATOM     91  O   UNL A   1      44.551  22.545  26.372  1.00  0.00    -0.237 OA
ATOM     92  O   UNL A   1      42.675  22.195  27.913  1.00  0.00    -0.744 OA
ENDBRANCH  86  89
ENDBRANCH  58  82
BRANCH  70  93
ATOM     93  C   UNL A   1      45.008  27.769  34.064  1.00  0.00     0.023 A 
ATOM     94  C   UNL A   1      46.120  28.633  34.123  1.00  0.00     0.012 A 
ATOM     95  C   UNL A   1      45.074  26.512  34.695  1.00  0.00     0.148 A 
ATOM     96  C   UNL A   1      47.290  28.236  34.767  1.00  0.00     0.002 A 
ATOM     97  C   UNL A   1      46.224  26.145  35.382  1.00  0.00     0.091 A 
ATOM     98  F   UNL A   1      44.011  25.698  34.610  1.00  0.00    -0.205 F 
ATOM     99  C   UNL A   1      47.338  26.999  35.406  1.00  0.00     0.022 A 
BRANCH  97 100
ATOM    100  S   UNL A   1      46.339  24.617  36.316  1.00  0.00     0.127 S 
ATOM    101  O   UNL A   1      47.762  24.579  36.651  1.00  0.00    -0.237 OA
ATOM    102  O   UNL A   1      45.453  24.881  37.451  1.00  0.00    -0.237 OA
ATOM    103  O   UNL A   1      45.880  23.562  35.424  1.00  0.00    -0.744 OA
ENDBRANCH  97 100
ENDBRANCH  70  93
ENDBRANCH  44  45
ENDBRANCH  37  39
ENDBRANCH  36  37
ENDBRANCH  35  36
ENDBRANCH   1  35
TORSDOF 18
ENDMDL
MODEL 2
REMARK VINA RESULT:     -12.4      2.354      3.190
REMARK SMILES CN1C(=O)C[C@H](C(=O)Nc2ccc(C(=O)OCCOC(=O)c3ccc(-c4c5nc(c(-c6cccc(S(=O)(=O)[O-])c6F)c6ccc([nH]6)c(-c6cccc(S(=O)(=O)[O-])c6F)c6nc(c(-c7cccc(S(=O)(=O)[O-])c7F)c7ccc4[nH]7)C=C6)C=C5)cc3)cc2)S/C1=[NH+]\c1cccc(C(F)(F)F)c1
REMARK SMILES IDX 17 1 16 2 14 3 15 4 13 5 10 6 11 7 86 8 12 9 85 10 9 11 7 12
REMARK SMILES IDX 8 13 6 15 1 16 2 17 3 18 88 19 4 20 5 21 87 22 89 23 90 25
REMARK SMILES IDX 91 26 99 27 92 28 94 29 93 30 95 31 96 32 97 33 98 34 18 35
REMARK SMILES IDX 19 36 20 37 21 38 22 39 23 40 84 41 24 42 83 43 25 44 26 45
REMARK SMILES IDX 27 46 77 47 28 48 82 49 76 50 78 51 29 52 81 53 75 54 74 55
REMARK SMILES IDX 30 57 62 58 42 59 61 60 43 61 46 62 60 63 79 64 44 65 45 66
REMARK SMILES IDX 59 68 80 69 47 70 31 71 32 72 40 73 33 74 35 75 41 76 34 77
REMARK SMILES IDX 36 78 37 79 38 80 39 81 63 82 64 83 72 84 65 85 67 86 73 87
REMARK SMILES IDX 66 88 68 89 69 90 70 91 71 92 48 93 49 94 57 95 50 96 52 97
REMARK SMILES IDX 58 98 51 99 53 100 54 101 55 102 56 103
REMARK H PARENT 9 14 89 24 78 56 46 67
REMARK Flexibility Score: inf
ROOT
ATOM      1  C   UNL A   1      32.329  30.892  26.319  1.00  0.00     0.275 C 
ENDROOT
BRANCH   1   2
ATOM      2  O   UNL A   1      31.379  30.121  25.559  1.00  0.00    -0.458 OA
BRANCH   2   3
ATOM      3  C   UNL A   1      31.395  28.796  25.840  1.00  0.00     0.338 C 
ATOM      4  O   UNL A   1      31.490  28.304  26.951  1.00  0.00    -0.246 OA
BRANCH   3   5
ATOM      5  C   UNL A   1      31.319  27.949  24.624  1.00  0.00     0.060 A 
ATOM      6  C   UNL A   1      31.704  25.949  22.738  1.00  0.00     0.041 A 
ATOM      7  C   UNL A   1      30.751  25.763  23.728  1.00  0.00     0.027 A 
ATOM      8  C   UNL A   1      32.290  27.202  22.553  1.00  0.00     0.027 A 
ATOM      9  C   UNL A   1      30.602  26.743  24.701  1.00  0.00     0.018 A 
ATOM     10  C   UNL A   1      32.100  28.212  23.500  1.00  0.00     0.018 A 
BRANCH   6  11
ATOM     11  N   UNL A   1      32.053  24.850  21.966  1.00  0.00    -0.325 N 
ATOM     12  C   UNL A   1      33.160  24.060  22.006  1.00  0.00     0.238 C 
ATOM     13  O   UNL A   1      33.256  23.223  21.094  1.00  0.00    -0.273 OA
ATOM     14  H   UNL A   1      31.394  24.602  21.279  1.00  0.00     0.169 HD
BRANCH  12  15
ATOM     15  C   UNL A   1      34.171  23.992  23.169  1.00  0.00     0.160 C 
ATOM     16  C   UNL A   1      32.197  23.122  27.010  1.00  0.00     0.301 C 
ATOM     17  N   UNL A   1      32.920  23.368  25.763  1.00  0.00    -0.194 N 
ATOM     18  C   UNL A   1      33.558  24.596  25.628  1.00  0.00     0.311 C 
ATOM     19  C   UNL A   1      32.992  22.287  24.888  1.00  0.00     0.319 C 
ATOM     20  O   UNL A   1      33.607  25.426  26.544  1.00  0.00    -0.247 OA
ATOM     21  C   UNL A   1      34.233  24.958  24.319  1.00  0.00     0.153 C 
ATOM     22  S   UNL A   1      34.333  22.307  23.772  1.00  0.00    -0.024 SA
ATOM     23  N   UNL A   1      32.146  21.311  25.006  1.00  0.00    -0.235 N 
ATOM     24  H   UNL A   1      31.381  21.397  25.619  1.00  0.00     0.313 HD
BRANCH  23  25
ATOM     25  C   UNL A   1      32.317  20.140  24.264  1.00  0.00     0.126 A 
ATOM     26  C   UNL A   1      32.088  20.098  22.890  1.00  0.00     0.052 A 
ATOM     27  C   UNL A   1      32.743  18.989  24.930  1.00  0.00     0.064 A 
ATOM     28  C   UNL A   1      32.352  18.928  22.177  1.00  0.00     0.005 A 
ATOM     29  C   UNL A   1      33.051  17.823  24.226  1.00  0.00     0.060 A 
ATOM     30  C   UNL A   1      32.847  17.801  22.839  1.00  0.00     0.013 A 
BRANCH  29  31
ATOM     31  C   UNL A   1      33.630  16.640  24.952  1.00  0.00     0.416 C 
ATOM     32  F   UNL A   1      33.198  15.449  24.461  1.00  0.00    -0.166 F 
ATOM     33  F   UNL A   1      34.991  16.604  24.881  1.00  0.00    -0.166 F 
ATOM     34  F   UNL A   1      33.339  16.622  26.286  1.00  0.00    -0.166 F 
ENDBRANCH  29  31
ENDBRANCH  23  25
ENDBRANCH  12  15
ENDBRANCH   6  11
ENDBRANCH   3   5
ENDBRANCH   2   3
ENDBRANCH   1   2
BRANCH   1  35
ATOM     35  C   UNL A   1      31.689  32.168  26.863  1.00  0.00     0.275 C 
BRANCH  35  36
ATOM     36  O   UNL A   1      32.596  33.284  26.768  1.00  0.00    -0.458 OA
BRANCH  36  37
ATOM     37  C   UNL A   1      33.092  33.720  27.948  1.00  0.00     0.338 C 
ATOM     38  O   UNL A   1      32.591  34.546  28.698  1.00  0.00    -0.246 OA
BRANCH  37  39
ATOM     39  C   UNL A   1      34.325  33.000  28.298  1.00  0.00     0.060 A 
ATOM     40  C   UNL A   1      34.246  31.641  28.575  1.00  0.00     0.016 A 
ATOM     41  C   UNL A   1      35.501  33.692  28.564  1.00  0.00     0.016 A 
ATOM     42  C   UNL A   1      35.268  31.000  29.264  1.00  0.00     0.010 A 
ATOM     43  C   UNL A   1      36.591  33.006  29.117  1.00  0.00     0.010 A 
ATOM     44  C   UNL A   1      36.472  31.664  29.524  1.00  0.00    -0.014 A 
BRANCH  44  45
ATOM     45  C   UNL A   1      37.583  30.963  30.232  1.00  0.00     0.031 A 
ATOM     46  C   UNL A   1      37.870  31.267  31.682  1.00  0.00     0.074 A 
ATOM     47  C   UNL A   1      38.350  30.064  29.579  1.00  0.00     0.049 A 
ATOM     48  N   UNL A   1      38.908  30.937  32.408  1.00  0.00    -0.248 NA
ATOM     49  C   UNL A   1      36.868  32.066  32.409  1.00  0.00     0.031 C 
ATOM     50  C   UNL A   1      38.172  29.646  28.185  1.00  0.00     0.029 A 
ATOM     51  N   UNL A   1      39.448  29.348  29.994  1.00  0.00    -0.354 N 
ATOM     52  C   UNL A   1      38.730  31.560  33.638  1.00  0.00     0.074 A 
ATOM     53  C   UNL A   1      37.475  32.278  33.568  1.00  0.00     0.031 C 
ATOM     54  C   UNL A   1      39.105  28.739  27.869  1.00  0.00     0.029 A 
ATOM     55  C   UNL A   1      40.018  28.593  28.993  1.00  0.00     0.049 A 
ATOM     56  H   UNL A   1      39.793  29.374  30.916  1.00  0.00     0.167 HD
ATOM     57  C   UNL A   1      39.538  31.537  34.725  1.00  0.00     0.034 A 
ATOM     58  C   UNL A   1      41.179  27.913  28.951  1.00  0.00     0.034 A 
ATOM     59  C   UNL A   1      40.750  30.765  34.808  1.00  0.00     0.049 A 
ATOM     60  C   UNL A   1      42.062  27.913  30.163  1.00  0.00     0.074 A 
ATOM     61  C   UNL A   1      41.616  30.634  35.879  1.00  0.00     0.029 A 
ATOM     62  N   UNL A   1      41.267  29.990  33.781  1.00  0.00    -0.354 N 
ATOM     63  N   UNL A   1      41.865  28.483  31.327  1.00  0.00    -0.248 NA
ATOM     64  C   UNL A   1      43.325  27.167  30.063  1.00  0.00     0.031 C 
ATOM     65  C   UNL A   1      42.672  29.805  35.490  1.00  0.00     0.029 A 
ATOM     66  C   UNL A   1      42.444  29.385  34.189  1.00  0.00     0.049 A 
ATOM     67  H   UNL A   1      40.858  29.885  32.892  1.00  0.00     0.167 HD
ATOM     68  C   UNL A   1      42.961  28.140  32.108  1.00  0.00     0.074 A 
ATOM     69  C   UNL A   1      43.807  27.294  31.291  1.00  0.00     0.031 C 
ATOM     70  C   UNL A   1      43.248  28.505  33.381  1.00  0.00     0.034 A 
BRANCH  57  71
ATOM     71  C   UNL A   1      39.144  32.371  35.920  1.00  0.00     0.023 A 
ATOM     72  C   UNL A   1      39.503  33.732  35.987  1.00  0.00     0.012 A 
ATOM     73  C   UNL A   1      38.362  31.814  36.953  1.00  0.00     0.148 A 
ATOM     74  C   UNL A   1      39.126  34.513  37.079  1.00  0.00     0.002 A 
ATOM     75  C   UNL A   1      37.949  32.611  38.014  1.00  0.00     0.091 A 
ATOM     76  F   UNL A   1      38.043  30.514  36.883  1.00  0.00    -0.205 F 
ATOM     77  C   UNL A   1      38.341  33.957  38.086  1.00  0.00     0.022 A 
BRANCH  75  78
ATOM     78  S   UNL A   1      36.867  32.010  39.316  1.00  0.00     0.127 S 
ATOM     79  O   UNL A   1      35.550  32.391  38.806  1.00  0.00    -0.237 OA
ATOM     80  O   UNL A   1      37.134  30.571  39.297  1.00  0.00    -0.237 OA
ATOM     81  O   UNL A   1      37.284  32.689  40.534  1.00  0.00    -0.744 OA
ENDBRANCH  75  78
ENDBRANCH  57  71
BRANCH  58  82
ATOM     82  C   UNL A   1      41.576  27.193  27.706  1.00  0.00     0.023 A 
ATOM     83  C   UNL A   1      42.066  27.924  26.607  1.00  0.00     0.012 A 
ATOM     84  C   UNL A   1      41.505  25.788  27.619  1.00  0.00     0.148 A 
ATOM     85  C   UNL A   1      42.457  27.271  25.437  1.00  0.00     0.002 A 
ATOM     86  C   UNL A   1      41.956  25.140  26.475  1.00  0.00     0.091 A 
ATOM     87  F   UNL A   1      41.019  25.110  28.669  1.00  0.00    -0.205 F 
ATOM     88  C   UNL A   1      42.414  25.880  25.376  1.00  0.00     0.022 A 
BRANCH  86  89
ATOM     89  S   UNL A   1      42.072  23.351  26.367  1.00  0.00     0.127 S 
ATOM     90  O   UNL A   1      42.759  23.172  25.090  1.00  0.00    -0.237 OA
ATOM     91  O   UNL A   1      42.875  23.029  27.549  1.00  0.00    -0.237 OA
ATOM     92  O   UNL A   1      40.702  22.862  26.423  1.00  0.00    -0.744 OA
ENDBRANCH  86  89
ENDBRANCH  58  82
BRANCH  70  93
ATOM     93  C   UNL A   1      44.504  27.946  33.994  1.00  0.00     0.023 A 
ATOM     94  C   UNL A   1      45.715  28.662  33.905  1.00  0.00     0.012 A 
ATOM     95  C   UNL A   1      44.467  26.735  34.711  1.00  0.00     0.148 A 
ATOM     96  C   UNL A   1      46.877  28.161  34.490  1.00  0.00     0.002 A 
ATOM     97  C   UNL A   1      45.615  26.270  35.338  1.00  0.00     0.091 A 
ATOM     98  F   UNL A   1      43.308  26.062  34.767  1.00  0.00    -0.205 F 
ATOM     99  C   UNL A   1      46.825  26.973  35.216  1.00  0.00     0.022 A 
BRANCH  97 100
ATOM    100  S   UNL A   1      45.618  24.804  36.375  1.00  0.00     0.127 S 
ATOM    101  O   UNL A   1      45.334  23.751  35.402  1.00  0.00    -0.237 OA
ATOM    102  O   UNL A   1      46.985  24.799  36.899  1.00  0.00    -0.237 OA
ATOM    103  O   UNL A   1      44.587  25.019  37.380  1.00  0.00    -0.744 OA
ENDBRANCH  97 100
ENDBRANCH  70  93
ENDBRANCH  44  45
ENDBRANCH  37  39
ENDBRANCH  36  37
ENDBRANCH  35  36
ENDBRANCH   1  35
TORSDOF 18
ENDMDL
MODEL 3
REMARK VINA RESULT:     -12.2      2.592      7.790
REMARK SMILES CN1C(=O)C[C@H](C(=O)Nc2ccc(C(=O)OCCOC(=O)c3ccc(-c4c5nc(c(-c6cccc(S(=O)(=O)[O-])c6F)c6ccc([nH]6)c(-c6cccc(S(=O)(=O)[O-])c6F)c6nc(c(-c7cccc(S(=O)(=O)[O-])c7F)c7ccc4[nH]7)C=C6)C=C5)cc3)cc2)S/C1=[NH+]\c1cccc(C(F)(F)F)c1
REMARK SMILES IDX 17 1 16 2 14 3 15 4 13 5 10 6 11 7 86 8 12 9 85 10 9 11 7 12
REMARK SMILES IDX 8 13 6 15 1 16 2 17 3 18 88 19 4 20 5 21 87 22 89 23 90 25
REMARK SMILES IDX 91 26 99 27 92 28 94 29 93 30 95 31 96 32 97 33 98 34 18 35
REMARK SMILES IDX 19 36 20 37 21 38 22 39 23 40 84 41 24 42 83 43 25 44 26 45
REMARK SMILES IDX 27 46 77 47 28 48 82 49 76 50 78 51 29 52 81 53 75 54 74 55
REMARK SMILES IDX 30 57 62 58 42 59 61 60 43 61 46 62 60 63 79 64 44 65 45 66
REMARK SMILES IDX 59 68 80 69 47 70 31 71 32 72 40 73 33 74 35 75 41 76 34 77
REMARK SMILES IDX 36 78 37 79 38 80 39 81 63 82 64 83 72 84 65 85 67 86 73 87
REMARK SMILES IDX 66 88 68 89 69 90 70 91 71 92 48 93 49 94 57 95 50 96 52 97
REMARK SMILES IDX 58 98 51 99 53 100 54 101 55 102 56 103
REMARK H PARENT 9 14 89 24 78 56 46 67
REMARK Flexibility Score: inf
ROOT
ATOM      1  C   UNL A   1      32.192  29.530  25.060  1.00  0.00     0.275 C 
ENDROOT
BRANCH   1   2
ATOM      2  O   UNL A   1      30.786  29.747  24.834  1.00  0.00    -0.458 OA
BRANCH   2   3
ATOM      3  C   UNL A   1      30.422  29.686  23.530  1.00  0.00     0.338 C 
ATOM      4  O   UNL A   1      29.576  30.381  22.993  1.00  0.00    -0.246 OA
BRANCH   3   5
ATOM      5  C   UNL A   1      31.144  28.629  22.780  1.00  0.00     0.060 A 
ATOM      6  C   UNL A   1      32.566  26.348  22.086  1.00  0.00     0.041 A 
ATOM      7  C   UNL A   1      31.181  26.285  22.142  1.00  0.00     0.027 A 
ATOM      8  C   UNL A   1      33.216  27.581  22.148  1.00  0.00     0.027 A 
ATOM      9  C   UNL A   1      30.479  27.414  22.543  1.00  0.00     0.018 A 
ATOM     10  C   UNL A   1      32.504  28.733  22.498  1.00  0.00     0.018 A 
BRANCH   6  11
ATOM     11  N   UNL A   1      33.261  25.152  21.985  1.00  0.00    -0.325 N 
ATOM     12  C   UNL A   1      34.038  24.503  22.895  1.00  0.00     0.238 C 
ATOM     13  O   UNL A   1      34.644  23.507  22.469  1.00  0.00    -0.273 OA
ATOM     14  H   UNL A   1      33.179  24.699  21.114  1.00  0.00     0.169 HD
BRANCH  12  15
ATOM     15  C   UNL A   1      34.066  24.784  24.411  1.00  0.00     0.160 C 
ATOM     16  C   UNL A   1      30.801  22.718  26.526  1.00  0.00     0.301 C 
ATOM     17  N   UNL A   1      31.933  23.394  25.893  1.00  0.00    -0.194 N 
ATOM     18  C   UNL A   1      31.930  24.784  25.901  1.00  0.00     0.311 C 
ATOM     19  C   UNL A   1      32.959  22.562  25.453  1.00  0.00     0.319 C 
ATOM     20  O   UNL A   1      31.068  25.446  26.493  1.00  0.00    -0.247 OA
ATOM     21  C   UNL A   1      33.017  25.548  25.169  1.00  0.00     0.153 C 
ATOM     22  S   UNL A   1      34.531  23.307  25.322  1.00  0.00    -0.024 SA
ATOM     23  N   UNL A   1      32.724  21.301  25.262  1.00  0.00    -0.235 N 
ATOM     24  H   UNL A   1      31.800  20.964  25.299  1.00  0.00     0.313 HD
BRANCH  23  25
ATOM     25  C   UNL A   1      33.777  20.421  25.003  1.00  0.00     0.126 A 
ATOM     26  C   UNL A   1      35.108  20.789  25.193  1.00  0.00     0.052 A 
ATOM     27  C   UNL A   1      33.471  19.135  24.554  1.00  0.00     0.064 A 
ATOM     28  C   UNL A   1      36.122  19.850  25.000  1.00  0.00     0.005 A 
ATOM     29  C   UNL A   1      34.470  18.171  24.397  1.00  0.00     0.060 A 
ATOM     30  C   UNL A   1      35.804  18.543  24.621  1.00  0.00     0.013 A 
BRANCH  29  31
ATOM     31  C   UNL A   1      34.100  16.759  24.038  1.00  0.00     0.416 C 
ATOM     32  F   UNL A   1      34.717  15.831  24.816  1.00  0.00    -0.166 F 
ATOM     33  F   UNL A   1      32.763  16.526  24.165  1.00  0.00    -0.166 F 
ATOM     34  F   UNL A   1      34.403  16.426  22.749  1.00  0.00    -0.166 F 
ENDBRANCH  29  31
ENDBRANCH  23  25
ENDBRANCH  12  15
ENDBRANCH   6  11
ENDBRANCH   3   5
ENDBRANCH   2   3
ENDBRANCH   1   2
BRANCH   1  35
ATOM     35  C   UNL A   1      32.451  29.065  26.492  1.00  0.00     0.275 C 
BRANCH  35  36
ATOM     36  O   UNL A   1      32.227  30.134  27.433  1.00  0.00    -0.458 OA
BRANCH  36  37
ATOM     37  C   UNL A   1      33.000  31.228  27.249  1.00  0.00     0.338 C 
ATOM     38  O   UNL A   1      32.633  32.337  26.885  1.00  0.00    -0.246 OA
BRANCH  37  39
ATOM     39  C   UNL A   1      34.393  30.957  27.630  1.00  0.00     0.060 A 
ATOM     40  C   UNL A   1      34.750  29.659  27.973  1.00  0.00     0.016 A 
ATOM     41  C   UNL A   1      35.284  32.001  27.858  1.00  0.00     0.016 A 
ATOM     42  C   UNL A   1      35.914  29.412  28.689  1.00  0.00     0.010 A 
ATOM     43  C   UNL A   1      36.529  31.727  28.440  1.00  0.00     0.010 A 
ATOM     44  C   UNL A   1      36.839  30.437  28.913  1.00  0.00    -0.014 A 
BRANCH  44  45
ATOM     45  C   UNL A   1      38.108  30.163  29.651  1.00  0.00     0.031 A 
ATOM     46  C   UNL A   1      39.160  29.269  29.044  1.00  0.00     0.074 A 
ATOM     47  C   UNL A   1      38.318  30.701  30.871  1.00  0.00     0.049 A 
ATOM     48  N   UNL A   1      40.217  28.737  29.602  1.00  0.00    -0.248 NA
ATOM     49  C   UNL A   1      38.992  28.905  27.625  1.00  0.00     0.031 C 
ATOM     50  C   UNL A   1      37.404  31.609  31.571  1.00  0.00     0.029 A 
ATOM     51  N   UNL A   1      39.362  30.549  31.753  1.00  0.00    -0.354 N 
ATOM     52  C   UNL A   1      40.784  27.909  28.640  1.00  0.00     0.074 A 
ATOM     53  C   UNL A   1      39.963  28.019  27.454  1.00  0.00     0.031 C 
ATOM     54  C   UNL A   1      37.932  31.948  32.754  1.00  0.00     0.029 A 
ATOM     55  C   UNL A   1      39.163  31.197  32.952  1.00  0.00     0.049 A 
ATOM     56  H   UNL A   1      40.171  30.027  31.548  1.00  0.00     0.167 HD
ATOM     57  C   UNL A   1      41.888  27.129  28.736  1.00  0.00     0.034 A 
ATOM     58  C   UNL A   1      39.848  31.146  34.109  1.00  0.00     0.034 A 
ATOM     59  C   UNL A   1      42.736  27.078  29.898  1.00  0.00     0.049 A 
ATOM     60  C   UNL A   1      41.059  30.265  34.195  1.00  0.00     0.074 A 
ATOM     61  C   UNL A   1      43.904  26.358  30.080  1.00  0.00     0.029 A 
ATOM     62  N   UNL A   1      42.513  27.779  31.073  1.00  0.00    -0.354 N 
ATOM     63  N   UNL A   1      41.598  29.512  33.266  1.00  0.00    -0.248 NA
ATOM     64  C   UNL A   1      41.766  30.232  35.483  1.00  0.00     0.031 C 
ATOM     65  C   UNL A   1      44.368  26.598  31.377  1.00  0.00     0.029 A 
ATOM     66  C   UNL A   1      43.514  27.502  31.989  1.00  0.00     0.049 A 
ATOM     67  H   UNL A   1      41.753  28.385  31.234  1.00  0.00     0.167 HD
ATOM     68  C   UNL A   1      42.723  28.941  33.847  1.00  0.00     0.074 A 
ATOM     69  C   UNL A   1      42.800  29.453  35.200  1.00  0.00     0.031 C 
ATOM     70  C   UNL A   1      43.603  28.059  33.313  1.00  0.00     0.034 A 
BRANCH  57  71
ATOM     71  C   UNL A   1      42.247  26.260  27.555  1.00  0.00     0.023 A 
ATOM     72  C   UNL A   1      43.000  26.787  26.488  1.00  0.00     0.012 A 
ATOM     73  C   UNL A   1      41.885  24.897  27.535  1.00  0.00     0.148 A 
ATOM     74  C   UNL A   1      43.352  25.984  25.402  1.00  0.00     0.002 A 
ATOM     75  C   UNL A   1      42.282  24.092  26.474  1.00  0.00     0.091 A 
ATOM     76  F   UNL A   1      41.154  24.415  28.551  1.00  0.00    -0.205 F 
ATOM     77  C   UNL A   1      43.003  24.636  25.400  1.00  0.00     0.022 A 
BRANCH  75  78
ATOM     78  S   UNL A   1      41.953  22.326  26.420  1.00  0.00     0.127 S 
ATOM     79  O   UNL A   1      40.498  22.301  26.273  1.00  0.00    -0.237 OA
ATOM     80  O   UNL A   1      42.693  21.913  25.226  1.00  0.00    -0.237 OA
ATOM     81  O   UNL A   1      42.464  21.782  27.670  1.00  0.00    -0.744 OA
ENDBRANCH  75  78
ENDBRANCH  57  71
BRANCH  58  82
ATOM     82  C   UNL A   1      39.388  31.942  35.284  1.00  0.00     0.023 A 
ATOM     83  C   UNL A   1      38.562  31.338  36.251  1.00  0.00     0.012 A 
ATOM     84  C   UNL A   1      39.795  33.279  35.467  1.00  0.00     0.148 A 
ATOM     85  C   UNL A   1      38.129  32.058  37.366  1.00  0.00     0.002 A 
ATOM     86  C   UNL A   1      39.414  33.970  36.611  1.00  0.00     0.091 A 
ATOM     87  F   UNL A   1      40.567  33.842  34.527  1.00  0.00    -0.205 F 
ATOM     88  C   UNL A   1      38.565  33.369  37.552  1.00  0.00     0.022 A 
BRANCH  86  89
ATOM     89  S   UNL A   1      40.046  35.605  37.002  1.00  0.00     0.127 S 
ATOM     90  O   UNL A   1      39.390  35.882  38.277  1.00  0.00    -0.237 OA
ATOM     91  O   UNL A   1      41.486  35.357  37.091  1.00  0.00    -0.237 OA
ATOM     92  O   UNL A   1      39.652  36.456  35.889  1.00  0.00    -0.744 OA
ENDBRANCH  86  89
ENDBRANCH  58  82
BRANCH  70  93
ATOM     93  C   UNL A   1      44.763  27.634  34.174  1.00  0.00     0.023 A 
ATOM     94  C   UNL A   1      45.974  28.354  34.137  1.00  0.00     0.012 A 
ATOM     95  C   UNL A   1      44.627  26.553  35.065  1.00  0.00     0.148 A 
ATOM     96  C   UNL A   1      47.044  27.980  34.948  1.00  0.00     0.002 A 
ATOM     97  C   UNL A   1      45.679  26.220  35.910  1.00  0.00     0.091 A 
ATOM     98  F   UNL A   1      43.473  25.870  35.070  1.00  0.00    -0.205 F 
ATOM     99  C   UNL A   1      46.893  26.922  35.842  1.00  0.00     0.022 A 
BRANCH  97 100
ATOM    100  S   UNL A   1      45.539  24.940  37.160  1.00  0.00     0.127 S 
ATOM    101  O   UNL A   1      45.365  23.741  36.341  1.00  0.00    -0.237 OA
ATOM    102  O   UNL A   1      46.831  25.031  37.842  1.00  0.00    -0.237 OA
ATOM    103  O   UNL A   1      44.394  25.303  37.984  1.00  0.00    -0.744 OA
ENDBRANCH  97 100
ENDBRANCH  70  93
ENDBRANCH  44  45
ENDBRANCH  37  39
ENDBRANCH  36  37
ENDBRANCH  35  36
ENDBRANCH   1  35
TORSDOF 18
ENDMDL
