MODEL 1
REMARK VINA RESULT:     -10.8      0.000      0.000
REMARK SMILES COCC[N@H+]1C[C@@H]2CN(c3nc(CO)cs3)C[C@]2(C(=O)OCCOC(=O)c2ccc(-c3c4nc(c(-c5cccc(S(=O)(=O)[O-])c5F)c5ccc([nH]5)c(-c5cccc(S(=O)(=O)[O-])c5F)c5nc(c(-c6cccc(S(=O)(=O)[O-])c6F)c6ccc3[nH]6)C=C5)C=C4)cc2)C1
REMARK SMILES IDX 22 1 21 2 19 3 20 4 18 5 5 6 6 7 90 8 7 10 8 11 17 12 9 13
REMARK SMILES IDX 4 14 3 15 2 16 1 17 10 18 11 19 16 20 12 21 15 22 13 23
REMARK SMILES IDX 14 24 23 26 24 27 25 28 26 29 27 30 28 31 89 32 29 33 88 34
REMARK SMILES IDX 30 35 31 36 32 37 82 38 33 39 87 40 81 41 83 42 34 43 86 44
REMARK SMILES IDX 80 45 79 46 35 48 67 49 47 50 66 51 48 52 51 53 65 54 84 55
REMARK SMILES IDX 49 56 50 57 64 59 85 60 52 61 36 62 37 63 45 64 38 65 40 66
REMARK SMILES IDX 46 67 39 68 41 69 42 70 43 71 44 72 68 73 69 74 77 75 70 76
REMARK SMILES IDX 72 77 78 78 71 79 73 80 74 81 75 82 76 83 53 84 54 85 62 86
REMARK SMILES IDX 55 87 57 88 63 89 56 90 58 91 59 92 60 93 61 94
REMARK H PARENT 5 9 14 25 83 47 51 58
REMARK Flexibility Score: inf
ROOT
ATOM      1  C   UNL A   1      36.937  22.140  23.848  1.00  0.00     0.274 C 
ENDROOT
BRANCH   1   2
ATOM      2  O   UNL A   1      35.497  22.262  23.874  1.00  0.00    -0.461 OA
BRANCH   2   3
ATOM      3  C   UNL A   1      34.976  23.382  24.444  1.00  0.00     0.320 C 
ATOM      4  O   UNL A   1      35.651  24.194  25.062  1.00  0.00    -0.251 OA
BRANCH   3   5
ATOM      5  C   UNL A   1      33.452  23.433  24.419  1.00  0.00     0.144 C 
ATOM      6  N   UNL A   1      31.981  21.463  24.324  1.00  0.00    -0.332 N 
ATOM      7  C   UNL A   1      31.543  22.354  25.409  1.00  0.00     0.269 C 
ATOM      8  C   UNL A   1      33.011  22.222  23.583  1.00  0.00     0.283 C 
ATOM      9  H   UNL A   1      31.220  21.199  23.697  1.00  0.00     0.348 HD
ATOM     10  C   UNL A   1      32.758  23.210  25.764  1.00  0.00     0.089 C 
ATOM     11  C   UNL A   1      32.364  24.591  26.289  1.00  0.00     0.129 C 
ATOM     12  C   UNL A   1      32.861  24.755  23.920  1.00  0.00     0.144 C 
ATOM     13  N   UNL A   1      32.386  25.438  25.114  1.00  0.00    -0.346 N 
BRANCH   6  14
ATOM     14  C   UNL A   1      32.482  20.176  24.876  1.00  0.00     0.291 C 
BRANCH  14  15
ATOM     15  C   UNL A   1      32.585  19.021  23.855  1.00  0.00     0.221 C 
BRANCH  15  16
ATOM     16  O   UNL A   1      33.608  18.105  24.244  1.00  0.00    -0.379 OA
ATOM     17  C   UNL A   1      33.745  17.005  23.361  1.00  0.00     0.195 C 
ENDBRANCH  15  16
ENDBRANCH  14  15
ENDBRANCH   6  14
BRANCH  13  18
ATOM     18  C   UNL A   1      32.173  26.776  25.096  1.00  0.00     0.185 A 
ATOM     19  N   UNL A   1      32.958  27.620  25.734  1.00  0.00    -0.223 NA
ATOM     20  S   UNL A   1      30.864  27.540  24.265  1.00  0.00    -0.105 S 
ATOM     21  C   UNL A   1      32.482  28.915  25.653  1.00  0.00     0.079 A 
ATOM     22  C   UNL A   1      31.348  29.061  24.883  1.00  0.00     0.095 A 
BRANCH  21  23
ATOM     23  C   UNL A   1      33.235  29.992  26.356  1.00  0.00     0.213 C 
BRANCH  23  24
ATOM     24  O   UNL A   1      33.131  29.865  27.773  1.00  0.00    -0.390 OA
ATOM     25  H   UNL A   1      32.250  29.534  28.004  1.00  0.00     0.211 HD
ENDBRANCH  23  24
ENDBRANCH  21  23
ENDBRANCH  13  18
ENDBRANCH   3   5
ENDBRANCH   2   3
ENDBRANCH   1   2
BRANCH   1  26
ATOM     26  C   UNL A   1      37.471  20.950  24.651  1.00  0.00     0.275 C 
BRANCH  26  27
ATOM     27  O   UNL A   1      37.882  21.362  25.963  1.00  0.00    -0.458 OA
BRANCH  27  28
ATOM     28  C   UNL A   1      39.193  21.161  26.241  1.00  0.00     0.338 C 
ATOM     29  O   UNL A   1      39.847  20.163  25.966  1.00  0.00    -0.246 OA
BRANCH  28  30
ATOM     30  C   UNL A   1      39.795  22.421  26.726  1.00  0.00     0.060 A 
ATOM     31  C   UNL A   1      39.261  23.605  26.204  1.00  0.00     0.016 A 
ATOM     32  C   UNL A   1      40.797  22.468  27.698  1.00  0.00     0.016 A 
ATOM     33  C   UNL A   1      39.687  24.839  26.677  1.00  0.00     0.010 A 
ATOM     34  C   UNL A   1      41.263  23.712  28.139  1.00  0.00     0.010 A 
ATOM     35  C   UNL A   1      40.711  24.899  27.626  1.00  0.00    -0.014 A 
BRANCH  35  36
ATOM     36  C   UNL A   1      41.292  26.219  27.947  1.00  0.00     0.031 A 
ATOM     37  C   UNL A   1      42.687  26.513  27.481  1.00  0.00     0.074 A 
ATOM     38  C   UNL A   1      40.570  27.153  28.588  1.00  0.00     0.049 A 
ATOM     39  N   UNL A   1      43.384  27.611  27.596  1.00  0.00    -0.248 NA
ATOM     40  C   UNL A   1      43.385  25.422  26.777  1.00  0.00     0.031 C 
ATOM     41  C   UNL A   1      39.196  26.989  29.059  1.00  0.00     0.029 A 
ATOM     42  N   UNL A   1      40.906  28.430  28.962  1.00  0.00    -0.354 N 
ATOM     43  C   UNL A   1      44.608  27.342  26.996  1.00  0.00     0.074 A 
ATOM     44  C   UNL A   1      44.562  25.977  26.523  1.00  0.00     0.031 C 
ATOM     45  C   UNL A   1      38.816  28.114  29.690  1.00  0.00     0.029 A 
ATOM     46  C   UNL A   1      39.923  29.069  29.679  1.00  0.00     0.049 A 
ATOM     47  H   UNL A   1      41.769  28.848  28.740  1.00  0.00     0.167 HD
ATOM     48  C   UNL A   1      45.670  28.166  26.843  1.00  0.00     0.034 A 
ATOM     49  C   UNL A   1      39.929  30.281  30.268  1.00  0.00     0.034 A 
ATOM     50  C   UNL A   1      45.715  29.520  27.321  1.00  0.00     0.049 A 
ATOM     51  C   UNL A   1      41.144  31.161  30.120  1.00  0.00     0.074 A 
ATOM     52  C   UNL A   1      46.740  30.441  27.202  1.00  0.00     0.029 A 
ATOM     53  N   UNL A   1      44.696  30.142  28.028  1.00  0.00    -0.354 N 
ATOM     54  N   UNL A   1      42.252  30.939  29.453  1.00  0.00    -0.248 NA
ATOM     55  C   UNL A   1      41.095  32.475  30.778  1.00  0.00     0.031 C 
ATOM     56  C   UNL A   1      46.351  31.612  27.862  1.00  0.00     0.029 A 
ATOM     57  C   UNL A   1      45.072  31.431  28.365  1.00  0.00     0.049 A 
ATOM     58  H   UNL A   1      43.833  29.727  28.256  1.00  0.00     0.167 HD
ATOM     59  C   UNL A   1      43.016  32.095  29.582  1.00  0.00     0.074 A 
ATOM     60  C   UNL A   1      42.231  33.024  30.369  1.00  0.00     0.031 C 
ATOM     61  C   UNL A   1      44.260  32.359  29.109  1.00  0.00     0.034 A 
BRANCH  48  62
ATOM     62  C   UNL A   1      46.869  27.616  26.119  1.00  0.00     0.023 A 
ATOM     63  C   UNL A   1      46.993  27.808  24.728  1.00  0.00     0.012 A 
ATOM     64  C   UNL A   1      47.884  26.937  26.818  1.00  0.00     0.148 A 
ATOM     65  C   UNL A   1      48.097  27.308  24.039  1.00  0.00     0.002 A 
ATOM     66  C   UNL A   1      49.002  26.478  26.132  1.00  0.00     0.091 A 
ATOM     67  F   UNL A   1      47.731  26.739  28.135  1.00  0.00    -0.205 F 
ATOM     68  C   UNL A   1      49.105  26.653  24.742  1.00  0.00     0.022 A 
BRANCH  66  69
ATOM     69  S   UNL A   1      50.384  25.684  26.957  1.00  0.00     0.127 S 
ATOM     70  O   UNL A   1      49.758  24.471  27.481  1.00  0.00    -0.237 OA
ATOM     71  O   UNL A   1      51.316  25.459  25.851  1.00  0.00    -0.237 OA
ATOM     72  O   UNL A   1      50.850  26.630  27.961  1.00  0.00    -0.744 OA
ENDBRANCH  66  69
ENDBRANCH  48  62
BRANCH  49  73
ATOM     73  C   UNL A   1      38.735  30.751  31.027  1.00  0.00     0.023 A 
ATOM     74  C   UNL A   1      38.674  30.560  32.421  1.00  0.00     0.012 A 
ATOM     75  C   UNL A   1      37.658  31.383  30.374  1.00  0.00     0.148 A 
ATOM     76  C   UNL A   1      37.550  30.960  33.146  1.00  0.00     0.002 A 
ATOM     77  C   UNL A   1      36.566  31.828  31.110  1.00  0.00     0.091 A 
ATOM     78  F   UNL A   1      37.723  31.535  29.044  1.00  0.00    -0.205 F 
ATOM     79  C   UNL A   1      36.502  31.602  32.493  1.00  0.00     0.022 A 
BRANCH  77  80
ATOM     80  S   UNL A   1      35.224  32.766  30.371  1.00  0.00     0.127 S 
ATOM     81  O   UNL A   1      35.922  33.952  29.881  1.00  0.00    -0.237 OA
ATOM     82  O   UNL A   1      34.755  31.853  29.327  1.00  0.00    -0.237 OA
ATOM     83  O   UNL A   1      34.264  32.994  31.443  1.00  0.00    -0.744 OA
ENDBRANCH  77  80
ENDBRANCH  49  73
BRANCH  61  84
ATOM     84  C   UNL A   1      44.842  33.719  29.405  1.00  0.00     0.023 A 
ATOM     85  C   UNL A   1      45.573  33.926  30.592  1.00  0.00     0.012 A 
ATOM     86  C   UNL A   1      44.713  34.775  28.481  1.00  0.00     0.148 A 
ATOM     87  C   UNL A   1      46.127  35.174  30.876  1.00  0.00     0.002 A 
ATOM     88  C   UNL A   1      45.313  36.002  28.748  1.00  0.00     0.091 A 
ATOM     89  F   UNL A   1      44.000  34.569  27.365  1.00  0.00    -0.205 F 
ATOM     90  C   UNL A   1      46.007  36.207  29.950  1.00  0.00     0.022 A 
BRANCH  88  91
ATOM     91  S   UNL A   1      45.289  37.354  27.565  1.00  0.00     0.127 S 
ATOM     92  O   UNL A   1      46.000  36.771  26.429  1.00  0.00    -0.237 OA
ATOM     93  O   UNL A   1      43.855  37.555  27.347  1.00  0.00    -0.237 OA
ATOM     94  O   UNL A   1      45.957  38.469  28.223  1.00  0.00    -0.744 OA
ENDBRANCH  88  91
ENDBRANCH  61  84
ENDBRANCH  35  36
ENDBRANCH  28  30
ENDBRANCH  27  28
ENDBRANCH  26  27
ENDBRANCH   1  26
TORSDOF 20
ENDMDL
MODEL 2
REMARK VINA RESULT:     -10.6      1.564      7.710
REMARK SMILES COCC[N@H+]1C[C@@H]2CN(c3nc(CO)cs3)C[C@]2(C(=O)OCCOC(=O)c2ccc(-c3c4nc(c(-c5cccc(S(=O)(=O)[O-])c5F)c5ccc([nH]5)c(-c5cccc(S(=O)(=O)[O-])c5F)c5nc(c(-c6cccc(S(=O)(=O)[O-])c6F)c6ccc3[nH]6)C=C5)C=C4)cc2)C1
REMARK SMILES IDX 22 1 21 2 19 3 20 4 18 5 5 6 6 7 90 8 7 10 8 11 17 12 9 13
REMARK SMILES IDX 4 14 3 15 2 16 1 17 10 18 11 19 16 20 12 21 15 22 13 23
REMARK SMILES IDX 14 24 23 26 24 27 25 28 26 29 27 30 28 31 89 32 29 33 88 34
REMARK SMILES IDX 30 35 31 36 32 37 82 38 33 39 87 40 81 41 83 42 34 43 86 44
REMARK SMILES IDX 80 45 79 46 35 48 67 49 47 50 66 51 48 52 51 53 65 54 84 55
REMARK SMILES IDX 49 56 50 57 64 59 85 60 52 61 36 62 37 63 45 64 38 65 40 66
REMARK SMILES IDX 46 67 39 68 41 69 42 70 43 71 44 72 68 73 69 74 77 75 70 76
REMARK SMILES IDX 72 77 78 78 71 79 73 80 74 81 75 82 76 83 53 84 54 85 62 86
REMARK SMILES IDX 55 87 57 88 63 89 56 90 58 91 59 92 60 93 61 94
REMARK H PARENT 5 9 14 25 83 47 51 58
REMARK Flexibility Score: inf
ROOT
ATOM      1  C   UNL A   1      36.691  22.178  23.903  1.00  0.00     0.274 C 
ENDROOT
BRANCH   1   2
ATOM      2  O   UNL A   1      35.254  22.078  24.019  1.00  0.00    -0.461 OA
BRANCH   2   3
ATOM      3  C   UNL A   1      34.517  23.127  23.564  1.00  0.00     0.320 C 
ATOM      4  O   UNL A   1      34.928  23.922  22.729  1.00  0.00    -0.251 OA
BRANCH   3   5
ATOM      5  C   UNL A   1      33.217  23.345  24.330  1.00  0.00     0.144 C 
ATOM      6  N   UNL A   1      32.085  21.635  25.691  1.00  0.00    -0.332 N 
ATOM      7  C   UNL A   1      32.225  22.874  26.471  1.00  0.00     0.269 C 
ATOM      8  C   UNL A   1      32.496  21.988  24.315  1.00  0.00     0.283 C 
ATOM      9  H   UNL A   1      31.131  21.273  25.690  1.00  0.00     0.348 HD
ATOM     10  C   UNL A   1      33.369  23.651  25.822  1.00  0.00     0.089 C 
ATOM     11  C   UNL A   1      33.207  25.163  25.978  1.00  0.00     0.129 C 
ATOM     12  C   UNL A   1      32.348  24.493  23.810  1.00  0.00     0.144 C 
ATOM     13  N   UNL A   1      32.531  25.576  24.765  1.00  0.00    -0.346 N 
BRANCH   6  14
ATOM     14  C   UNL A   1      32.904  20.546  26.289  1.00  0.00     0.291 C 
BRANCH  14  15
ATOM     15  C   UNL A   1      33.174  19.344  25.358  1.00  0.00     0.221 C 
BRANCH  15  16
ATOM     16  O   UNL A   1      32.222  18.308  25.598  1.00  0.00    -0.379 OA
ATOM     17  C   UNL A   1      32.680  17.022  25.214  1.00  0.00     0.195 C 
ENDBRANCH  15  16
ENDBRANCH  14  15
ENDBRANCH   6  14
BRANCH  13  18
ATOM     18  C   UNL A   1      32.236  26.851  24.416  1.00  0.00     0.185 A 
ATOM     19  N   UNL A   1      31.225  27.146  23.624  1.00  0.00    -0.223 NA
ATOM     20  S   UNL A   1      33.134  28.234  24.938  1.00  0.00    -0.105 S 
ATOM     21  C   UNL A   1      31.188  28.497  23.331  1.00  0.00     0.079 A 
ATOM     22  C   UNL A   1      32.153  29.248  23.968  1.00  0.00     0.095 A 
BRANCH  21  23
ATOM     23  C   UNL A   1      30.125  28.993  22.413  1.00  0.00     0.213 C 
BRANCH  23  24
ATOM     24  O   UNL A   1      30.428  30.294  21.914  1.00  0.00    -0.390 OA
ATOM     25  H   UNL A   1      31.083  30.717  22.490  1.00  0.00     0.211 HD
ENDBRANCH  23  24
ENDBRANCH  21  23
ENDBRANCH  13  18
ENDBRANCH   3   5
ENDBRANCH   2   3
ENDBRANCH   1   2
BRANCH   1  26
ATOM     26  C   UNL A   1      37.451  21.116  24.704  1.00  0.00     0.275 C 
BRANCH  26  27
ATOM     27  O   UNL A   1      37.894  21.645  25.962  1.00  0.00    -0.458 OA
BRANCH  27  28
ATOM     28  C   UNL A   1      39.190  21.388  26.267  1.00  0.00     0.338 C 
ATOM     29  O   UNL A   1      39.797  20.352  26.027  1.00  0.00    -0.246 OA
BRANCH  28  30
ATOM     30  C   UNL A   1      39.845  22.628  26.729  1.00  0.00     0.060 A 
ATOM     31  C   UNL A   1      39.395  23.821  26.151  1.00  0.00     0.016 A 
ATOM     32  C   UNL A   1      40.816  22.655  27.733  1.00  0.00     0.016 A 
ATOM     33  C   UNL A   1      39.875  25.046  26.595  1.00  0.00     0.010 A 
ATOM     34  C   UNL A   1      41.337  23.886  28.148  1.00  0.00     0.010 A 
ATOM     35  C   UNL A   1      40.869  25.083  27.577  1.00  0.00    -0.014 A 
BRANCH  35  36
ATOM     36  C   UNL A   1      41.512  26.379  27.873  1.00  0.00     0.031 A 
ATOM     37  C   UNL A   1      40.702  27.431  28.572  1.00  0.00     0.074 A 
ATOM     38  C   UNL A   1      42.806  26.591  27.577  1.00  0.00     0.049 A 
ATOM     39  N   UNL A   1      41.063  28.618  28.980  1.00  0.00    -0.248 NA
ATOM     40  C   UNL A   1      39.297  27.092  28.860  1.00  0.00     0.031 C 
ATOM     41  C   UNL A   1      43.697  25.631  26.928  1.00  0.00     0.029 A 
ATOM     42  N   UNL A   1      43.591  27.699  27.780  1.00  0.00    -0.354 N 
ATOM     43  C   UNL A   1      39.929  29.175  29.559  1.00  0.00     0.074 A 
ATOM     44  C   UNL A   1      38.867  28.201  29.444  1.00  0.00     0.031 C 
ATOM     45  C   UNL A   1      44.901  26.203  26.756  1.00  0.00     0.029 A 
ATOM     46  C   UNL A   1      44.861  27.571  27.269  1.00  0.00     0.049 A 
ATOM     47  H   UNL A   1      43.275  28.506  28.246  1.00  0.00     0.167 HD
ATOM     48  C   UNL A   1      39.791  30.386  30.145  1.00  0.00     0.034 A 
ATOM     49  C   UNL A   1      45.865  28.468  27.213  1.00  0.00     0.034 A 
ATOM     50  C   UNL A   1      40.847  31.355  30.251  1.00  0.00     0.049 A 
ATOM     51  C   UNL A   1      45.669  29.829  27.834  1.00  0.00     0.074 A 
ATOM     52  C   UNL A   1      40.810  32.606  30.839  1.00  0.00     0.029 A 
ATOM     53  N   UNL A   1      42.125  31.189  29.738  1.00  0.00    -0.354 N 
ATOM     54  N   UNL A   1      44.629  30.302  28.480  1.00  0.00    -0.248 NA
ATOM     55  C   UNL A   1      46.799  30.765  27.750  1.00  0.00     0.031 C 
ATOM     56  C   UNL A   1      42.061  33.208  30.659  1.00  0.00     0.029 A 
ATOM     57  C   UNL A   1      42.884  32.320  29.984  1.00  0.00     0.049 A 
ATOM     58  H   UNL A   1      42.444  30.385  29.269  1.00  0.00     0.167 HD
ATOM     59  C   UNL A   1      44.991  31.577  28.906  1.00  0.00     0.074 A 
ATOM     60  C   UNL A   1      46.355  31.788  28.469  1.00  0.00     0.031 C 
ATOM     61  C   UNL A   1      44.256  32.496  29.582  1.00  0.00     0.034 A 
BRANCH  48  62
ATOM     62  C   UNL A   1      38.443  30.722  30.721  1.00  0.00     0.023 A 
ATOM     63  C   UNL A   1      38.149  30.375  32.056  1.00  0.00     0.012 A 
ATOM     64  C   UNL A   1      37.480  31.406  29.956  1.00  0.00     0.148 A 
ATOM     65  C   UNL A   1      36.906  30.679  32.610  1.00  0.00     0.002 A 
ATOM     66  C   UNL A   1      36.259  31.742  30.527  1.00  0.00     0.091 A 
ATOM     67  F   UNL A   1      37.770  31.699  28.680  1.00  0.00    -0.205 F 
ATOM     68  C   UNL A   1      35.967  31.371  31.850  1.00  0.00     0.022 A 
BRANCH  66  69
ATOM     69  S   UNL A   1      35.012  32.692  29.653  1.00  0.00     0.127 S 
ATOM     70  O   UNL A   1      34.108  33.063  30.740  1.00  0.00    -0.237 OA
ATOM     71  O   UNL A   1      35.796  33.802  29.107  1.00  0.00    -0.237 OA
ATOM     72  O   UNL A   1      34.452  31.796  28.652  1.00  0.00    -0.744 OA
ENDBRANCH  66  69
ENDBRANCH  48  62
BRANCH  49  73
ATOM     73  C   UNL A   1      47.161  28.102  26.573  1.00  0.00     0.023 A 
ATOM     74  C   UNL A   1      48.305  27.913  27.372  1.00  0.00     0.012 A 
ATOM     75  C   UNL A   1      47.266  27.944  25.177  1.00  0.00     0.148 A 
ATOM     76  C   UNL A   1      49.537  27.605  26.790  1.00  0.00     0.002 A 
ATOM     77  C   UNL A   1      48.483  27.585  24.609  1.00  0.00     0.091 A 
ATOM     78  F   UNL A   1      46.172  28.151  24.430  1.00  0.00    -0.205 F 
ATOM     79  C   UNL A   1      49.623  27.432  25.412  1.00  0.00     0.022 A 
BRANCH  77  80
ATOM     80  S   UNL A   1      48.662  27.228  22.858  1.00  0.00     0.127 S 
ATOM     81  O   UNL A   1      48.253  25.827  22.795  1.00  0.00    -0.237 OA
ATOM     82  O   UNL A   1      47.716  28.171  22.259  1.00  0.00    -0.237 OA
ATOM     83  O   UNL A   1      50.058  27.495  22.541  1.00  0.00    -0.744 OA
ENDBRANCH  77  80
ENDBRANCH  49  73
BRANCH  61  84
ATOM     84  C   UNL A   1      44.922  33.807  29.917  1.00  0.00     0.023 A 
ATOM     85  C   UNL A   1      45.651  33.938  31.116  1.00  0.00     0.012 A 
ATOM     86  C   UNL A   1      44.873  34.892  29.018  1.00  0.00     0.148 A 
ATOM     87  C   UNL A   1      46.283  35.140  31.435  1.00  0.00     0.002 A 
ATOM     88  C   UNL A   1      45.548  36.069  29.320  1.00  0.00     0.091 A 
ATOM     89  F   UNL A   1      44.161  34.759  27.890  1.00  0.00    -0.205 F 
ATOM     90  C   UNL A   1      46.240  36.200  30.533  1.00  0.00     0.022 A 
BRANCH  88  91
ATOM     91  S   UNL A   1      45.626  37.448  28.170  1.00  0.00     0.127 S 
ATOM     92  O   UNL A   1      46.485  38.387  28.887  1.00  0.00    -0.237 OA
ATOM     93  O   UNL A   1      46.242  36.839  26.990  1.00  0.00    -0.237 OA
ATOM     94  O   UNL A   1      44.248  37.878  27.972  1.00  0.00    -0.744 OA
ENDBRANCH  88  91
ENDBRANCH  61  84
ENDBRANCH  35  36
ENDBRANCH  28  30
ENDBRANCH  27  28
ENDBRANCH  26  27
ENDBRANCH   1  26
TORSDOF 20
ENDMDL
MODEL 3
REMARK VINA RESULT:     -10.6      1.748      4.097
REMARK SMILES COCC[N@H+]1C[C@@H]2CN(c3nc(CO)cs3)C[C@]2(C(=O)OCCOC(=O)c2ccc(-c3c4nc(c(-c5cccc(S(=O)(=O)[O-])c5F)c5ccc([nH]5)c(-c5cccc(S(=O)(=O)[O-])c5F)c5nc(c(-c6cccc(S(=O)(=O)[O-])c6F)c6ccc3[nH]6)C=C5)C=C4)cc2)C1
REMARK SMILES IDX 22 1 21 2 19 3 20 4 18 5 5 6 6 7 90 8 7 10 8 11 17 12 9 13
REMARK SMILES IDX 4 14 3 15 2 16 1 17 10 18 11 19 16 20 12 21 15 22 13 23
REMARK SMILES IDX 14 24 23 26 24 27 25 28 26 29 27 30 28 31 89 32 29 33 88 34
REMARK SMILES IDX 30 35 31 36 32 37 82 38 33 39 87 40 81 41 83 42 34 43 86 44
REMARK SMILES IDX 80 45 79 46 35 48 67 49 47 50 66 51 48 52 51 53 65 54 84 55
REMARK SMILES IDX 49 56 50 57 64 59 85 60 52 61 36 62 37 63 45 64 38 65 40 66
REMARK SMILES IDX 46 67 39 68 41 69 42 70 43 71 44 72 68 73 69 74 77 75 70 76
REMARK SMILES IDX 72 77 78 78 71 79 73 80 74 81 75 82 76 83 53 84 54 85 62 86
REMARK SMILES IDX 55 87 57 88 63 89 56 90 58 91 59 92 60 93 61 94
REMARK H PARENT 5 9 14 25 83 47 51 58
REMARK Flexibility Score: inf
ROOT
ATOM      1  C   UNL A   1      36.682  22.251  23.833  1.00  0.00     0.274 C 
ENDROOT
BRANCH   1   2
ATOM      2  O   UNL A   1      35.693  22.965  24.608  1.00  0.00    -0.461 OA
BRANCH   2   3
ATOM      3  C   UNL A   1      34.631  23.486  23.937  1.00  0.00     0.320 C 
ATOM      4  O   UNL A   1      34.744  24.323  23.051  1.00  0.00    -0.251 OA
BRANCH   3   5
ATOM      5  C   UNL A   1      33.279  23.089  24.520  1.00  0.00     0.144 C 
ATOM      6  N   UNL A   1      31.606  24.668  25.394  1.00  0.00    -0.332 N 
ATOM      7  C   UNL A   1      30.965  23.741  24.450  1.00  0.00     0.269 C 
ATOM      8  C   UNL A   1      32.970  24.137  25.601  1.00  0.00     0.283 C 
ATOM      9  H   UNL A   1      31.114  24.729  26.285  1.00  0.00     0.348 HD
ATOM     10  C   UNL A   1      32.087  23.197  23.567  1.00  0.00     0.089 C 
ATOM     11  C   UNL A   1      31.798  21.783  23.064  1.00  0.00     0.129 C 
ATOM     12  C   UNL A   1      33.200  21.650  25.039  1.00  0.00     0.144 C 
ATOM     13  N   UNL A   1      32.441  20.920  24.034  1.00  0.00    -0.346 N 
BRANCH   6  14
ATOM     14  C   UNL A   1      31.590  26.055  24.855  1.00  0.00     0.291 C 
BRANCH  14  15
ATOM     15  C   UNL A   1      31.672  27.172  25.919  1.00  0.00     0.221 C 
BRANCH  15  16
ATOM     16  O   UNL A   1      32.473  28.252  25.443  1.00  0.00    -0.379 OA
ATOM     17  C   UNL A   1      33.821  28.188  25.877  1.00  0.00     0.195 C 
ENDBRANCH  15  16
ENDBRANCH  14  15
ENDBRANCH   6  14
BRANCH  13  18
ATOM     18  C   UNL A   1      32.519  19.570  23.967  1.00  0.00     0.185 A 
ATOM     19  N   UNL A   1      32.611  18.818  25.045  1.00  0.00    -0.223 NA
ATOM     20  S   UNL A   1      32.521  18.669  22.492  1.00  0.00    -0.105 S 
ATOM     21  C   UNL A   1      32.780  17.485  24.720  1.00  0.00     0.079 A 
ATOM     22  C   UNL A   1      32.749  17.216  23.368  1.00  0.00     0.095 A 
BRANCH  21  23
ATOM     23  C   UNL A   1      32.941  16.501  25.828  1.00  0.00     0.213 C 
BRANCH  23  24
ATOM     24  O   UNL A   1      34.316  16.239  26.101  1.00  0.00    -0.390 OA
ATOM     25  H   UNL A   1      34.469  15.282  26.102  1.00  0.00     0.211 HD
ENDBRANCH  23  24
ENDBRANCH  21  23
ENDBRANCH  13  18
ENDBRANCH   3   5
ENDBRANCH   2   3
ENDBRANCH   1   2
BRANCH   1  26
ATOM     26  C   UNL A   1      37.295  21.053  24.566  1.00  0.00     0.275 C 
BRANCH  26  27
ATOM     27  O   UNL A   1      37.711  21.421  25.889  1.00  0.00    -0.458 OA
BRANCH  27  28
ATOM     28  C   UNL A   1      39.021  21.201  26.158  1.00  0.00     0.338 C 
ATOM     29  O   UNL A   1      39.662  20.200  25.864  1.00  0.00    -0.246 OA
BRANCH  28  30
ATOM     30  C   UNL A   1      39.639  22.446  26.660  1.00  0.00     0.060 A 
ATOM     31  C   UNL A   1      39.070  23.645  26.214  1.00  0.00     0.016 A 
ATOM     32  C   UNL A   1      40.690  22.464  27.579  1.00  0.00     0.016 A 
ATOM     33  C   UNL A   1      39.512  24.863  26.712  1.00  0.00     0.010 A 
ATOM     34  C   UNL A   1      41.170  23.694  28.045  1.00  0.00     0.010 A 
ATOM     35  C   UNL A   1      40.584  24.895  27.608  1.00  0.00    -0.014 A 
BRANCH  35  36
ATOM     36  C   UNL A   1      41.172  26.206  27.950  1.00  0.00     0.031 A 
ATOM     37  C   UNL A   1      42.583  26.485  27.522  1.00  0.00     0.074 A 
ATOM     38  C   UNL A   1      40.445  27.147  28.576  1.00  0.00     0.049 A 
ATOM     39  N   UNL A   1      43.290  27.574  27.661  1.00  0.00    -0.248 NA
ATOM     40  C   UNL A   1      43.286  25.390  26.832  1.00  0.00     0.031 C 
ATOM     41  C   UNL A   1      39.057  26.997  29.010  1.00  0.00     0.029 A 
ATOM     42  N   UNL A   1      40.787  28.418  28.965  1.00  0.00    -0.354 N 
ATOM     43  C   UNL A   1      44.525  27.293  27.091  1.00  0.00     0.074 A 
ATOM     44  C   UNL A   1      44.475  25.931  26.611  1.00  0.00     0.031 C 
ATOM     45  C   UNL A   1      38.675  28.124  29.637  1.00  0.00     0.029 A 
ATOM     46  C   UNL A   1      39.793  29.065  29.659  1.00  0.00     0.049 A 
ATOM     47  H   UNL A   1      41.661  28.826  28.767  1.00  0.00     0.167 HD
ATOM     48  C   UNL A   1      45.601  28.105  26.970  1.00  0.00     0.034 A 
ATOM     49  C   UNL A   1      39.798  30.274  30.254  1.00  0.00     0.034 A 
ATOM     50  C   UNL A   1      45.649  29.456  27.455  1.00  0.00     0.049 A 
ATOM     51  C   UNL A   1      41.028  31.141  30.142  1.00  0.00     0.074 A 
ATOM     52  C   UNL A   1      46.689  30.365  27.367  1.00  0.00     0.029 A 
ATOM     53  N   UNL A   1      44.620  30.087  28.138  1.00  0.00    -0.354 N 
ATOM     54  N   UNL A   1      42.150  30.908  29.502  1.00  0.00    -0.248 NA
ATOM     55  C   UNL A   1      40.977  32.453  30.804  1.00  0.00     0.031 C 
ATOM     56  C   UNL A   1      46.296  31.538  28.022  1.00  0.00     0.029 A 
ATOM     57  C   UNL A   1      45.003  31.370  28.490  1.00  0.00     0.049 A 
ATOM     58  H   UNL A   1      43.747  29.682  28.341  1.00  0.00     0.167 HD
ATOM     59  C   UNL A   1      42.924  32.054  29.657  1.00  0.00     0.074 A 
ATOM     60  C   UNL A   1      42.130  32.989  30.427  1.00  0.00     0.031 C 
ATOM     61  C   UNL A   1      44.183  32.305  29.217  1.00  0.00     0.034 A 
BRANCH  48  62
ATOM     62  C   UNL A   1      46.812  27.543  26.275  1.00  0.00     0.023 A 
ATOM     63  C   UNL A   1      47.681  26.682  26.976  1.00  0.00     0.012 A 
ATOM     64  C   UNL A   1      47.073  27.842  24.925  1.00  0.00     0.148 A 
ATOM     65  C   UNL A   1      48.808  26.150  26.350  1.00  0.00     0.002 A 
ATOM     66  C   UNL A   1      48.174  27.275  24.296  1.00  0.00     0.091 A 
ATOM     67  F   UNL A   1      46.250  28.687  24.287  1.00  0.00    -0.205 F 
ATOM     68  C   UNL A   1      49.048  26.437  25.010  1.00  0.00     0.022 A 
BRANCH  66  69
ATOM     69  S   UNL A   1      48.530  27.529  22.555  1.00  0.00     0.127 S 
ATOM     70  O   UNL A   1      49.789  28.270  22.616  1.00  0.00    -0.237 OA
ATOM     71  O   UNL A   1      48.654  26.156  22.063  1.00  0.00    -0.237 OA
ATOM     72  O   UNL A   1      47.396  28.266  22.017  1.00  0.00    -0.744 OA
ENDBRANCH  66  69
ENDBRANCH  48  62
BRANCH  49  73
ATOM     73  C   UNL A   1      38.590  30.756  30.983  1.00  0.00     0.023 A 
ATOM     74  C   UNL A   1      38.479  30.537  32.370  1.00  0.00     0.012 A 
ATOM     75  C   UNL A   1      37.551  31.427  30.309  1.00  0.00     0.148 A 
ATOM     76  C   UNL A   1      37.341  30.948  33.066  1.00  0.00     0.002 A 
ATOM     77  C   UNL A   1      36.444  31.881  31.018  1.00  0.00     0.091 A 
ATOM     78  F   UNL A   1      37.663  31.605  28.985  1.00  0.00    -0.205 F 
ATOM     79  C   UNL A   1      36.329  31.627  32.394  1.00  0.00     0.022 A 
BRANCH  77  80
ATOM     80  S   UNL A   1      35.149  32.865  30.257  1.00  0.00     0.127 S 
ATOM     81  O   UNL A   1      34.617  31.939  29.260  1.00  0.00    -0.237 OA
ATOM     82  O   UNL A   1      34.260  33.124  31.391  1.00  0.00    -0.237 OA
ATOM     83  O   UNL A   1      35.811  34.051  29.731  1.00  0.00    -0.744 OA
ENDBRANCH  77  80
ENDBRANCH  49  73
BRANCH  61  84
ATOM     84  C   UNL A   1      44.773  33.656  29.535  1.00  0.00     0.023 A 
ATOM     85  C   UNL A   1      45.532  33.832  30.709  1.00  0.00     0.012 A 
ATOM     86  C   UNL A   1      44.624  34.737  28.641  1.00  0.00     0.148 A 
ATOM     87  C   UNL A   1      46.094  35.072  31.012  1.00  0.00     0.002 A 
ATOM     88  C   UNL A   1      45.231  35.955  28.926  1.00  0.00     0.091 A 
ATOM     89  F   UNL A   1      43.885  34.559  27.538  1.00  0.00    -0.205 F 
ATOM     90  C   UNL A   1      45.953  36.129  30.116  1.00  0.00     0.022 A 
BRANCH  88  91
ATOM     91  S   UNL A   1      45.181  37.337  27.779  1.00  0.00     0.127 S 
ATOM     92  O   UNL A   1      43.776  37.341  27.377  1.00  0.00    -0.237 OA
ATOM     93  O   UNL A   1      45.574  38.464  28.628  1.00  0.00    -0.237 OA
ATOM     94  O   UNL A   1      46.138  37.017  26.728  1.00  0.00    -0.744 OA
ENDBRANCH  88  91
ENDBRANCH  61  84
ENDBRANCH  35  36
ENDBRANCH  28  30
ENDBRANCH  27  28
ENDBRANCH  26  27
ENDBRANCH   1  26
TORSDOF 20
ENDMDL
