MODEL 1
REMARK VINA RESULT:     -12.4      0.000      0.000
REMARK SMILES Cc1c(NS(=O)(=O)c2ncn(C)c2Cl)cccc1C(=O)OCCOC(=O)c1ccc(-c2c3nc(c(-c4cccc(S(=O)(=O)[O-])c4F)c4ccc([nH]4)c(-c4cccc(S(=O)(=O)[O-])c4F)c4nc(c(-c5cccc(S(=O)(=O)[O-])c5F)c5ccc2[nH]5)C=C4)C=C3)cc1
REMARK SMILES IDX 22 1 21 2 19 3 20 4 18 5 1 6 2 7 3 8 15 9 17 10 16 11 4 12
REMARK SMILES IDX 5 14 6 15 7 16 8 17 9 18 13 19 10 20 11 21 14 22 12 23 23 24
REMARK SMILES IDX 24 25 25 26 26 27 27 28 28 29 89 30 29 31 88 32 30 33 31 34
REMARK SMILES IDX 32 35 82 36 33 37 87 38 81 39 83 40 34 41 86 42 80 43 79 44
REMARK SMILES IDX 35 46 67 47 47 48 66 49 48 50 51 51 65 52 84 53 49 54 50 55
REMARK SMILES IDX 64 57 85 58 52 59 36 60 37 61 45 62 38 63 40 64 46 65 39 66
REMARK SMILES IDX 41 67 42 68 43 69 44 70 68 71 69 72 77 73 70 74 72 75 78 76
REMARK SMILES IDX 71 77 73 78 74 79 75 80 76 81 53 82 54 83 62 84 55 85 57 86
REMARK SMILES IDX 63 87 56 88 58 89 59 90 60 91 61 92
REMARK H PARENT 4 13 83 45 51 56
REMARK Flexibility Score: inf
ROOT
ATOM      1  C   UNL A   1      32.487  29.847  25.653  1.00  0.00     0.275 C 
ENDROOT
BRANCH   1   2
ATOM      2  O   UNL A   1      31.560  28.775  25.469  1.00  0.00    -0.458 OA
BRANCH   2   3
ATOM      3  C   UNL A   1      30.994  28.661  24.253  1.00  0.00     0.338 C 
ATOM      4  O   UNL A   1      30.224  29.456  23.747  1.00  0.00    -0.246 OA
BRANCH   3   5
ATOM      5  C   UNL A   1      31.310  27.331  23.680  1.00  0.00     0.065 A 
ATOM      6  C   UNL A   1      29.659  26.118  25.168  1.00  0.00     0.047 C 
ATOM      7  C   UNL A   1      30.740  26.100  24.121  1.00  0.00    -0.012 A 
ATOM      8  C   UNL A   1      31.242  24.901  23.562  1.00  0.00     0.053 A 
ATOM      9  C   UNL A   1      32.138  24.996  22.489  1.00  0.00     0.027 A 
ATOM     10  C   UNL A   1      32.252  27.374  22.647  1.00  0.00     0.016 A 
ATOM     11  C   UNL A   1      32.629  26.206  22.018  1.00  0.00     0.003 A 
BRANCH   8  12
ATOM     12  N   UNL A   1      30.753  23.595  23.949  1.00  0.00    -0.278 N 
ATOM     13  H   UNL A   1      30.041  23.167  23.420  1.00  0.00     0.180 HD
BRANCH  12  14
ATOM     14  S   UNL A   1      31.393  22.790  25.312  1.00  0.00     0.282 S 
ATOM     15  O   UNL A   1      32.246  23.728  26.016  1.00  0.00    -0.199 OA
ATOM     16  O   UNL A   1      30.281  22.155  25.989  1.00  0.00    -0.199 OA
BRANCH  14  17
ATOM     17  C   UNL A   1      32.434  21.466  24.870  1.00  0.00     0.213 A 
ATOM     18  N   UNL A   1      32.153  20.130  25.158  1.00  0.00    -0.222 NA
ATOM     19  C   UNL A   1      33.711  21.568  24.369  1.00  0.00     0.149 A 
ATOM     20  C   UNL A   1      33.297  19.502  25.000  1.00  0.00     0.202 A 
ATOM     21  N   UNL A   1      34.307  20.374  24.672  1.00  0.00    -0.324 N 
ATOM     22  Cl  UNL A   1      34.613  22.880  23.775  1.00  0.00    -0.061 Cl
ATOM     23  C   UNL A   1      35.694  20.128  25.002  1.00  0.00     0.152 C 
ENDBRANCH  14  17
ENDBRANCH  12  14
ENDBRANCH   8  12
ENDBRANCH   3   5
ENDBRANCH   2   3
ENDBRANCH   1   2
BRANCH   1  24
ATOM     24  C   UNL A   1      33.629  29.683  26.687  1.00  0.00     0.275 C 
BRANCH  24  25
ATOM     25  O   UNL A   1      34.066  30.668  27.678  1.00  0.00    -0.458 OA
BRANCH  25  26
ATOM     26  C   UNL A   1      35.238  31.306  27.929  1.00  0.00     0.338 C 
ATOM     27  O   UNL A   1      35.378  32.496  27.787  1.00  0.00    -0.246 OA
BRANCH  26  28
ATOM     28  C   UNL A   1      36.359  30.445  28.301  1.00  0.00     0.060 A 
ATOM     29  C   UNL A   1      36.420  29.863  29.576  1.00  0.00     0.016 A 
ATOM     30  C   UNL A   1      37.311  30.189  27.327  1.00  0.00     0.016 A 
ATOM     31  C   UNL A   1      37.428  28.954  29.861  1.00  0.00     0.010 A 
ATOM     32  C   UNL A   1      38.159  29.141  27.523  1.00  0.00     0.010 A 
ATOM     33  C   UNL A   1      38.291  28.628  28.823  1.00  0.00    -0.014 A 
BRANCH  33  34
ATOM     34  C   UNL A   1      39.645  28.163  29.027  1.00  0.00     0.031 A 
ATOM     35  C   UNL A   1      40.018  26.781  28.734  1.00  0.00     0.074 A 
ATOM     36  C   UNL A   1      40.473  29.227  29.164  1.00  0.00     0.049 A 
ATOM     37  N   UNL A   1      41.158  26.283  29.037  1.00  0.00    -0.248 NA
ATOM     38  C   UNL A   1      39.123  25.819  28.097  1.00  0.00     0.031 C 
ATOM     39  C   UNL A   1      41.878  29.407  28.857  1.00  0.00     0.029 A 
ATOM     40  N   UNL A   1      40.124  30.506  29.594  1.00  0.00    -0.354 N 
ATOM     41  C   UNL A   1      41.279  25.092  28.350  1.00  0.00     0.074 A 
ATOM     42  C   UNL A   1      39.939  24.771  27.928  1.00  0.00     0.031 C 
ATOM     43  C   UNL A   1      42.290  30.568  29.420  1.00  0.00     0.029 A 
ATOM     44  C   UNL A   1      41.195  31.059  30.258  1.00  0.00     0.049 A 
ATOM     45  H   UNL A   1      39.254  30.941  29.448  1.00  0.00     0.167 HD
ATOM     46  C   UNL A   1      42.540  24.653  28.072  1.00  0.00     0.034 A 
ATOM     47  C   UNL A   1      41.177  31.080  31.631  1.00  0.00     0.034 A 
ATOM     48  C   UNL A   1      43.513  25.578  28.688  1.00  0.00     0.049 A 
ATOM     49  C   UNL A   1      42.223  30.124  32.181  1.00  0.00     0.074 A 
ATOM     50  C   UNL A   1      44.196  26.669  28.176  1.00  0.00     0.029 A 
ATOM     51  N   UNL A   1      43.579  25.690  30.075  1.00  0.00    -0.354 N 
ATOM     52  N   UNL A   1      42.692  29.099  31.522  1.00  0.00    -0.248 NA
ATOM     53  C   UNL A   1      42.857  30.285  33.483  1.00  0.00     0.031 C 
ATOM     54  C   UNL A   1      44.554  27.508  29.271  1.00  0.00     0.029 A 
ATOM     55  C   UNL A   1      44.118  26.916  30.447  1.00  0.00     0.049 A 
ATOM     56  H   UNL A   1      43.285  24.994  30.707  1.00  0.00     0.167 HD
ATOM     57  C   UNL A   1      43.629  28.450  32.266  1.00  0.00     0.074 A 
ATOM     58  C   UNL A   1      43.724  29.258  33.475  1.00  0.00     0.031 C 
ATOM     59  C   UNL A   1      44.219  27.284  31.859  1.00  0.00     0.034 A 
BRANCH  46  60
ATOM     60  C   UNL A   1      42.962  23.611  27.041  1.00  0.00     0.023 A 
ATOM     61  C   UNL A   1      43.764  24.081  25.973  1.00  0.00     0.012 A 
ATOM     62  C   UNL A   1      42.608  22.240  26.980  1.00  0.00     0.148 A 
ATOM     63  C   UNL A   1      44.146  23.276  24.894  1.00  0.00     0.002 A 
ATOM     64  C   UNL A   1      42.997  21.428  25.903  1.00  0.00     0.091 A 
ATOM     65  F   UNL A   1      41.885  21.689  27.953  1.00  0.00    -0.205 F 
ATOM     66  C   UNL A   1      43.759  21.948  24.854  1.00  0.00     0.022 A 
BRANCH  64  67
ATOM     67  S   UNL A   1      42.549  19.684  25.771  1.00  0.00     0.127 S 
ATOM     68  O   UNL A   1      42.979  19.158  27.068  1.00  0.00    -0.237 OA
ATOM     69  O   UNL A   1      41.098  19.747  25.593  1.00  0.00    -0.237 OA
ATOM     70  O   UNL A   1      43.284  19.153  24.629  1.00  0.00    -0.744 OA
ENDBRANCH  64  67
ENDBRANCH  46  60
BRANCH  47  71
ATOM     71  C   UNL A   1      39.803  31.296  32.237  1.00  0.00     0.023 A 
ATOM     72  C   UNL A   1      39.182  30.175  32.854  1.00  0.00     0.012 A 
ATOM     73  C   UNL A   1      39.249  32.570  32.485  1.00  0.00     0.148 A 
ATOM     74  C   UNL A   1      38.150  30.327  33.787  1.00  0.00     0.002 A 
ATOM     75  C   UNL A   1      38.198  32.715  33.403  1.00  0.00     0.091 A 
ATOM     76  F   UNL A   1      39.781  33.630  31.865  1.00  0.00    -0.205 F 
ATOM     77  C   UNL A   1      37.673  31.598  34.076  1.00  0.00     0.022 A 
BRANCH  75  78
ATOM     78  S   UNL A   1      37.486  34.308  33.863  1.00  0.00     0.127 S 
ATOM     79  O   UNL A   1      36.478  33.914  34.845  1.00  0.00    -0.237 OA
ATOM     80  O   UNL A   1      38.632  35.021  34.431  1.00  0.00    -0.237 OA
ATOM     81  O   UNL A   1      36.958  34.882  32.636  1.00  0.00    -0.744 OA
ENDBRANCH  75  78
ENDBRANCH  47  71
BRANCH  59  82
ATOM     82  C   UNL A   1      44.956  26.369  32.806  1.00  0.00     0.023 A 
ATOM     83  C   UNL A   1      46.362  26.296  32.814  1.00  0.00     0.012 A 
ATOM     84  C   UNL A   1      44.272  25.691  33.843  1.00  0.00     0.148 A 
ATOM     85  C   UNL A   1      47.056  25.511  33.733  1.00  0.00     0.002 A 
ATOM     86  C   UNL A   1      44.976  25.032  34.842  1.00  0.00     0.091 A 
ATOM     87  F   UNL A   1      42.931  25.672  33.866  1.00  0.00    -0.205 F 
ATOM     88  C   UNL A   1      46.363  24.897  34.765  1.00  0.00     0.022 A 
BRANCH  86  89
ATOM     89  S   UNL A   1      44.149  24.514  36.350  1.00  0.00     0.127 S 
ATOM     90  O   UNL A   1      45.217  23.814  37.058  1.00  0.00    -0.237 OA
ATOM     91  O   UNL A   1      43.754  25.792  36.947  1.00  0.00    -0.237 OA
ATOM     92  O   UNL A   1      43.028  23.698  35.901  1.00  0.00    -0.744 OA
ENDBRANCH  86  89
ENDBRANCH  59  82
ENDBRANCH  33  34
ENDBRANCH  26  28
ENDBRANCH  25  26
ENDBRANCH  24  25
ENDBRANCH   1  24
TORSDOF 17
ENDMDL
MODEL 2
REMARK VINA RESULT:     -12.4      2.129      2.757
REMARK SMILES Cc1c(NS(=O)(=O)c2ncn(C)c2Cl)cccc1C(=O)OCCOC(=O)c1ccc(-c2c3nc(c(-c4cccc(S(=O)(=O)[O-])c4F)c4ccc([nH]4)c(-c4cccc(S(=O)(=O)[O-])c4F)c4nc(c(-c5cccc(S(=O)(=O)[O-])c5F)c5ccc2[nH]5)C=C4)C=C3)cc1
REMARK SMILES IDX 22 1 21 2 19 3 20 4 18 5 1 6 2 7 3 8 15 9 17 10 16 11 4 12
REMARK SMILES IDX 5 14 6 15 7 16 8 17 9 18 13 19 10 20 11 21 14 22 12 23 23 24
REMARK SMILES IDX 24 25 25 26 26 27 27 28 28 29 89 30 29 31 88 32 30 33 31 34
REMARK SMILES IDX 32 35 82 36 33 37 87 38 81 39 83 40 34 41 86 42 80 43 79 44
REMARK SMILES IDX 35 46 67 47 47 48 66 49 48 50 51 51 65 52 84 53 49 54 50 55
REMARK SMILES IDX 64 57 85 58 52 59 36 60 37 61 45 62 38 63 40 64 46 65 39 66
REMARK SMILES IDX 41 67 42 68 43 69 44 70 68 71 69 72 77 73 70 74 72 75 78 76
REMARK SMILES IDX 71 77 73 78 74 79 75 80 76 81 53 82 54 83 62 84 55 85 57 86
REMARK SMILES IDX 63 87 56 88 58 89 59 90 60 91 61 92
REMARK H PARENT 4 13 83 45 51 56
REMARK Flexibility Score: inf
ROOT
ATOM      1  C   UNL A   1      32.900  29.746  26.177  1.00  0.00     0.275 C 
ENDROOT
BRANCH   1   2
ATOM      2  O   UNL A   1      31.747  29.016  25.750  1.00  0.00    -0.458 OA
BRANCH   2   3
ATOM      3  C   UNL A   1      31.693  28.669  24.451  1.00  0.00     0.338 C 
ATOM      4  O   UNL A   1      31.291  29.371  23.541  1.00  0.00    -0.246 OA
BRANCH   3   5
ATOM      5  C   UNL A   1      32.035  27.234  24.305  1.00  0.00     0.065 A 
ATOM      6  C   UNL A   1      29.694  26.452  24.871  1.00  0.00     0.047 C 
ATOM      7  C   UNL A   1      31.134  26.156  24.545  1.00  0.00    -0.012 A 
ATOM      8  C   UNL A   1      31.648  24.839  24.490  1.00  0.00     0.053 A 
ATOM      9  C   UNL A   1      32.960  24.660  24.032  1.00  0.00     0.027 A 
ATOM     10  C   UNL A   1      33.359  27.009  23.911  1.00  0.00     0.016 A 
ATOM     11  C   UNL A   1      33.806  25.718  23.727  1.00  0.00     0.003 A 
BRANCH   8  12
ATOM     12  N   UNL A   1      30.830  23.670  24.737  1.00  0.00    -0.278 N 
ATOM     13  H   UNL A   1      30.259  23.317  24.017  1.00  0.00     0.180 HD
BRANCH  12  14
ATOM     14  S   UNL A   1      30.843  22.901  26.261  1.00  0.00     0.282 S 
ATOM     15  O   UNL A   1      30.799  23.935  27.276  1.00  0.00    -0.199 OA
ATOM     16  O   UNL A   1      29.831  21.865  26.221  1.00  0.00    -0.199 OA
BRANCH  14  17
ATOM     17  C   UNL A   1      32.326  22.034  26.552  1.00  0.00     0.213 A 
ATOM     18  N   UNL A   1      33.175  22.291  27.629  1.00  0.00    -0.222 NA
ATOM     19  C   UNL A   1      32.931  21.147  25.692  1.00  0.00     0.149 A 
ATOM     20  C   UNL A   1      34.311  21.713  27.309  1.00  0.00     0.202 A 
ATOM     21  N   UNL A   1      34.249  21.139  26.062  1.00  0.00    -0.324 N 
ATOM     22  Cl  UNL A   1      32.410  20.394  24.261  1.00  0.00    -0.061 Cl
ATOM     23  C   UNL A   1      35.410  20.969  25.217  1.00  0.00     0.152 C 
ENDBRANCH  14  17
ENDBRANCH  12  14
ENDBRANCH   8  12
ENDBRANCH   3   5
ENDBRANCH   2   3
ENDBRANCH   1   2
BRANCH   1  24
ATOM     24  C   UNL A   1      33.970  29.026  27.034  1.00  0.00     0.275 C 
BRANCH  24  25
ATOM     25  O   UNL A   1      35.408  29.297  27.056  1.00  0.00    -0.458 OA
BRANCH  25  26
ATOM     26  C   UNL A   1      36.220  30.052  27.840  1.00  0.00     0.338 C 
ATOM     27  O   UNL A   1      35.897  31.133  28.267  1.00  0.00    -0.246 OA
BRANCH  26  28
ATOM     28  C   UNL A   1      37.559  29.511  28.067  1.00  0.00     0.060 A 
ATOM     29  C   UNL A   1      38.527  29.549  27.052  1.00  0.00     0.016 A 
ATOM     30  C   UNL A   1      37.838  29.023  29.334  1.00  0.00     0.016 A 
ATOM     31  C   UNL A   1      39.823  29.142  27.332  1.00  0.00     0.010 A 
ATOM     32  C   UNL A   1      39.144  28.838  29.674  1.00  0.00     0.010 A 
ATOM     33  C   UNL A   1      40.096  28.776  28.645  1.00  0.00    -0.014 A 
BRANCH  33  34
ATOM     34  C   UNL A   1      41.154  27.861  29.014  1.00  0.00     0.031 A 
ATOM     35  C   UNL A   1      41.039  26.430  28.743  1.00  0.00     0.074 A 
ATOM     36  C   UNL A   1      42.284  28.561  29.278  1.00  0.00     0.049 A 
ATOM     37  N   UNL A   1      41.875  25.565  29.181  1.00  0.00    -0.248 NA
ATOM     38  C   UNL A   1      39.948  25.837  27.976  1.00  0.00     0.031 C 
ATOM     39  C   UNL A   1      43.687  28.216  29.159  1.00  0.00     0.029 A 
ATOM     40  N   UNL A   1      42.366  29.892  29.685  1.00  0.00    -0.354 N 
ATOM     41  C   UNL A   1      41.647  24.391  28.491  1.00  0.00     0.074 A 
ATOM     42  C   UNL A   1      40.347  24.561  27.893  1.00  0.00     0.031 C 
ATOM     43  C   UNL A   1      44.413  29.167  29.795  1.00  0.00     0.029 A 
ATOM     44  C   UNL A   1      43.470  30.041  30.493  1.00  0.00     0.049 A 
ATOM     45  H   UNL A   1      41.738  30.606  29.436  1.00  0.00     0.167 HD
ATOM     46  C   UNL A   1      42.690  23.521  28.371  1.00  0.00     0.034 A 
ATOM     47  C   UNL A   1      43.285  30.105  31.853  1.00  0.00     0.034 A 
ATOM     48  C   UNL A   1      43.843  24.052  29.126  1.00  0.00     0.049 A 
ATOM     49  C   UNL A   1      43.838  28.854  32.514  1.00  0.00     0.074 A 
ATOM     50  C   UNL A   1      44.932  24.811  28.729  1.00  0.00     0.029 A 
ATOM     51  N   UNL A   1      43.767  24.171  30.512  1.00  0.00    -0.354 N 
ATOM     52  N   UNL A   1      43.987  27.711  31.901  1.00  0.00    -0.248 NA
ATOM     53  C   UNL A   1      44.314  28.813  33.890  1.00  0.00     0.031 C 
ATOM     54  C   UNL A   1      45.424  25.494  29.878  1.00  0.00     0.029 A 
ATOM     55  C   UNL A   1      44.657  25.132  30.975  1.00  0.00     0.049 A 
ATOM     56  H   UNL A   1      43.163  23.646  31.086  1.00  0.00     0.167 HD
ATOM     57  C   UNL A   1      44.523  26.789  32.746  1.00  0.00     0.074 A 
ATOM     58  C   UNL A   1      44.747  27.543  33.974  1.00  0.00     0.031 C 
ATOM     59  C   UNL A   1      44.702  25.479  32.396  1.00  0.00     0.034 A 
BRANCH  46  60
ATOM     60  C   UNL A   1      42.838  22.368  27.382  1.00  0.00     0.023 A 
ATOM     61  C   UNL A   1      41.998  21.250  27.601  1.00  0.00     0.012 A 
ATOM     62  C   UNL A   1      43.749  22.245  26.304  1.00  0.00     0.148 A 
ATOM     63  C   UNL A   1      42.083  20.073  26.848  1.00  0.00     0.002 A 
ATOM     64  C   UNL A   1      43.831  21.070  25.542  1.00  0.00     0.091 A 
ATOM     65  F   UNL A   1      44.560  23.254  25.992  1.00  0.00    -0.205 F 
ATOM     66  C   UNL A   1      43.004  19.979  25.820  1.00  0.00     0.022 A 
BRANCH  64  67
ATOM     67  S   UNL A   1      44.992  20.859  24.176  1.00  0.00     0.127 S 
ATOM     68  O   UNL A   1      44.687  19.501  23.722  1.00  0.00    -0.237 OA
ATOM     69  O   UNL A   1      44.581  21.914  23.250  1.00  0.00    -0.237 OA
ATOM     70  O   UNL A   1      46.327  21.024  24.738  1.00  0.00    -0.744 OA
ENDBRANCH  64  67
ENDBRANCH  46  60
BRANCH  47  71
ATOM     71  C   UNL A   1      42.014  30.817  32.280  1.00  0.00     0.023 A 
ATOM     72  C   UNL A   1      41.791  32.118  31.753  1.00  0.00     0.012 A 
ATOM     73  C   UNL A   1      40.929  30.170  32.909  1.00  0.00     0.148 A 
ATOM     74  C   UNL A   1      40.515  32.691  31.723  1.00  0.00     0.002 A 
ATOM     75  C   UNL A   1      39.656  30.759  32.898  1.00  0.00     0.091 A 
ATOM     76  F   UNL A   1      41.135  28.971  33.466  1.00  0.00    -0.205 F 
ATOM     77  C   UNL A   1      39.445  32.001  32.276  1.00  0.00     0.022 A 
BRANCH  75  78
ATOM     78  S   UNL A   1      38.185  29.971  33.585  1.00  0.00     0.127 S 
ATOM     79  O   UNL A   1      38.449  30.042  35.021  1.00  0.00    -0.237 OA
ATOM     80  O   UNL A   1      37.105  30.849  33.130  1.00  0.00    -0.237 OA
ATOM     81  O   UNL A   1      38.153  28.627  33.032  1.00  0.00    -0.744 OA
ENDBRANCH  75  78
ENDBRANCH  47  71
BRANCH  59  82
ATOM     82  C   UNL A   1      44.933  24.386  33.411  1.00  0.00     0.023 A 
ATOM     83  C   UNL A   1      43.992  23.360  33.615  1.00  0.00     0.012 A 
ATOM     84  C   UNL A   1      46.184  24.249  34.060  1.00  0.00     0.148 A 
ATOM     85  C   UNL A   1      44.228  22.305  34.496  1.00  0.00     0.002 A 
ATOM     86  C   UNL A   1      46.467  23.121  34.818  1.00  0.00     0.091 A 
ATOM     87  F   UNL A   1      47.107  25.216  33.954  1.00  0.00    -0.205 F 
ATOM     88  C   UNL A   1      45.478  22.172  35.080  1.00  0.00     0.022 A 
BRANCH  86  89
ATOM     89  S   UNL A   1      48.155  22.756  35.312  1.00  0.00     0.127 S 
ATOM     90  O   UNL A   1      48.030  21.402  35.845  1.00  0.00    -0.237 OA
ATOM     91  O   UNL A   1      48.880  22.849  34.044  1.00  0.00    -0.237 OA
ATOM     92  O   UNL A   1      48.499  23.799  36.270  1.00  0.00    -0.744 OA
ENDBRANCH  86  89
ENDBRANCH  59  82
ENDBRANCH  33  34
ENDBRANCH  26  28
ENDBRANCH  25  26
ENDBRANCH  24  25
ENDBRANCH   1  24
TORSDOF 17
ENDMDL
MODEL 3
REMARK VINA RESULT:     -12.2      1.686      2.047
REMARK SMILES Cc1c(NS(=O)(=O)c2ncn(C)c2Cl)cccc1C(=O)OCCOC(=O)c1ccc(-c2c3nc(c(-c4cccc(S(=O)(=O)[O-])c4F)c4ccc([nH]4)c(-c4cccc(S(=O)(=O)[O-])c4F)c4nc(c(-c5cccc(S(=O)(=O)[O-])c5F)c5ccc2[nH]5)C=C4)C=C3)cc1
REMARK SMILES IDX 22 1 21 2 19 3 20 4 18 5 1 6 2 7 3 8 15 9 17 10 16 11 4 12
REMARK SMILES IDX 5 14 6 15 7 16 8 17 9 18 13 19 10 20 11 21 14 22 12 23 23 24
REMARK SMILES IDX 24 25 25 26 26 27 27 28 28 29 89 30 29 31 88 32 30 33 31 34
REMARK SMILES IDX 32 35 82 36 33 37 87 38 81 39 83 40 34 41 86 42 80 43 79 44
REMARK SMILES IDX 35 46 67 47 47 48 66 49 48 50 51 51 65 52 84 53 49 54 50 55
REMARK SMILES IDX 64 57 85 58 52 59 36 60 37 61 45 62 38 63 40 64 46 65 39 66
REMARK SMILES IDX 41 67 42 68 43 69 44 70 68 71 69 72 77 73 70 74 72 75 78 76
REMARK SMILES IDX 71 77 73 78 74 79 75 80 76 81 53 82 54 83 62 84 55 85 57 86
REMARK SMILES IDX 63 87 56 88 58 89 59 90 60 91 61 92
REMARK H PARENT 4 13 83 45 51 56
REMARK Flexibility Score: inf
ROOT
ATOM      1  C   UNL A   1      32.062  29.797  26.763  1.00  0.00     0.275 C 
ENDROOT
BRANCH   1   2
ATOM      2  O   UNL A   1      31.674  28.687  25.952  1.00  0.00    -0.458 OA
BRANCH   2   3
ATOM      3  C   UNL A   1      31.295  28.958  24.689  1.00  0.00     0.338 C 
ATOM      4  O   UNL A   1      30.489  29.805  24.352  1.00  0.00    -0.246 OA
BRANCH   3   5
ATOM      5  C   UNL A   1      31.875  27.951  23.768  1.00  0.00     0.065 A 
ATOM      6  C   UNL A   1      30.066  26.243  24.236  1.00  0.00     0.047 C 
ATOM      7  C   UNL A   1      31.355  26.640  23.566  1.00  0.00    -0.012 A 
ATOM      8  C   UNL A   1      32.098  25.751  22.754  1.00  0.00     0.053 A 
ATOM      9  C   UNL A   1      33.201  26.259  22.055  1.00  0.00     0.027 A 
ATOM     10  C   UNL A   1      33.020  28.397  23.098  1.00  0.00     0.016 A 
ATOM     11  C   UNL A   1      33.654  27.563  22.202  1.00  0.00     0.003 A 
BRANCH   8  12
ATOM     12  N   UNL A   1      31.676  24.391  22.496  1.00  0.00    -0.278 N 
ATOM     13  H   UNL A   1      30.733  24.208  22.279  1.00  0.00     0.180 HD
BRANCH  12  14
ATOM     14  S   UNL A   1      32.793  23.101  22.566  1.00  0.00     0.282 S 
ATOM     15  O   UNL A   1      32.036  21.866  22.622  1.00  0.00    -0.199 OA
ATOM     16  O   UNL A   1      33.762  23.324  21.513  1.00  0.00    -0.199 OA
BRANCH  14  17
ATOM     17  C   UNL A   1      33.741  23.125  24.027  1.00  0.00     0.213 A 
ATOM     18  N   UNL A   1      35.115  22.888  24.063  1.00  0.00    -0.222 NA
ATOM     19  C   UNL A   1      33.252  23.188  25.312  1.00  0.00     0.149 A 
ATOM     20  C   UNL A   1      35.382  22.639  25.326  1.00  0.00     0.202 A 
ATOM     21  N   UNL A   1      34.243  22.658  26.093  1.00  0.00    -0.324 N 
ATOM     22  Cl  UNL A   1      31.708  23.512  25.942  1.00  0.00    -0.061 Cl
ATOM     23  C   UNL A   1      34.102  21.885  27.309  1.00  0.00     0.152 C 
ENDBRANCH  14  17
ENDBRANCH  12  14
ENDBRANCH   8  12
ENDBRANCH   3   5
ENDBRANCH   2   3
ENDBRANCH   1   2
BRANCH   1  24
ATOM     24  C   UNL A   1      33.532  29.903  27.239  1.00  0.00     0.275 C 
BRANCH  24  25
ATOM     25  O   UNL A   1      34.152  31.030  27.937  1.00  0.00    -0.458 OA
BRANCH  25  26
ATOM     26  C   UNL A   1      35.400  31.564  27.956  1.00  0.00     0.338 C 
ATOM     27  O   UNL A   1      35.632  32.698  27.617  1.00  0.00    -0.246 OA
BRANCH  26  28
ATOM     28  C   UNL A   1      36.474  30.646  28.334  1.00  0.00     0.060 A 
ATOM     29  C   UNL A   1      36.481  30.035  29.597  1.00  0.00     0.016 A 
ATOM     30  C   UNL A   1      37.435  30.368  27.375  1.00  0.00     0.016 A 
ATOM     31  C   UNL A   1      37.441  29.077  29.883  1.00  0.00     0.010 A 
ATOM     32  C   UNL A   1      38.232  29.280  27.566  1.00  0.00     0.010 A 
ATOM     33  C   UNL A   1      38.312  28.735  28.857  1.00  0.00    -0.014 A 
BRANCH  33  34
ATOM     34  C   UNL A   1      39.639  28.205  29.080  1.00  0.00     0.031 A 
ATOM     35  C   UNL A   1      39.954  26.811  28.778  1.00  0.00     0.074 A 
ATOM     36  C   UNL A   1      40.512  29.229  29.243  1.00  0.00     0.049 A 
ATOM     37  N   UNL A   1      41.064  26.258  29.095  1.00  0.00    -0.248 NA
ATOM     38  C   UNL A   1      39.027  25.899  28.114  1.00  0.00     0.031 C 
ATOM     39  C   UNL A   1      41.930  29.348  28.962  1.00  0.00     0.029 A 
ATOM     40  N   UNL A   1      40.215  30.519  29.681  1.00  0.00    -0.354 N 
ATOM     41  C   UNL A   1      41.144  25.070  28.397  1.00  0.00     0.074 A 
ATOM     42  C   UNL A   1      39.798  24.815  27.948  1.00  0.00     0.031 C 
ATOM     43  C   UNL A   1      42.384  30.483  29.546  1.00  0.00     0.029 A 
ATOM     44  C   UNL A   1      41.298  31.014  30.370  1.00  0.00     0.049 A 
ATOM     45  H   UNL A   1      39.369  30.995  29.524  1.00  0.00     0.167 HD
ATOM     46  C   UNL A   1      42.388  24.576  28.137  1.00  0.00     0.034 A 
ATOM     47  C   UNL A   1      41.256  31.022  31.743  1.00  0.00     0.034 A 
ATOM     48  C   UNL A   1      43.391  25.450  28.780  1.00  0.00     0.049 A 
ATOM     49  C   UNL A   1      42.247  30.014  32.300  1.00  0.00     0.074 A 
ATOM     50  C   UNL A   1      44.132  26.513  28.292  1.00  0.00     0.029 A 
ATOM     51  N   UNL A   1      43.437  25.543  30.169  1.00  0.00    -0.354 N 
ATOM     52  N   UNL A   1      42.680  28.975  31.638  1.00  0.00    -0.248 NA
ATOM     53  C   UNL A   1      42.864  30.132  33.615  1.00  0.00     0.031 C 
ATOM     54  C   UNL A   1      44.508  27.323  29.403  1.00  0.00     0.029 A 
ATOM     55  C   UNL A   1      44.024  26.740  30.564  1.00  0.00     0.049 A 
ATOM     56  H   UNL A   1      43.099  24.856  30.788  1.00  0.00     0.167 HD
ATOM     57  C   UNL A   1      43.572  28.275  32.391  1.00  0.00     0.074 A 
ATOM     58  C   UNL A   1      43.683  29.066  33.611  1.00  0.00     0.031 C 
ATOM     59  C   UNL A   1      44.116  27.088  31.982  1.00  0.00     0.034 A 
BRANCH  46  60
ATOM     60  C   UNL A   1      42.780  23.527  27.102  1.00  0.00     0.023 A 
ATOM     61  C   UNL A   1      43.508  23.998  25.983  1.00  0.00     0.012 A 
ATOM     62  C   UNL A   1      42.461  22.146  27.084  1.00  0.00     0.148 A 
ATOM     63  C   UNL A   1      43.852  23.183  24.897  1.00  0.00     0.002 A 
ATOM     64  C   UNL A   1      42.812  21.324  26.001  1.00  0.00     0.091 A 
ATOM     65  F   UNL A   1      41.808  21.594  28.105  1.00  0.00    -0.205 F 
ATOM     66  C   UNL A   1      43.500  21.845  24.903  1.00  0.00     0.022 A 
BRANCH  64  67
ATOM     67  S   UNL A   1      42.405  19.567  25.924  1.00  0.00     0.127 S 
ATOM     68  O   UNL A   1      40.951  19.597  25.750  1.00  0.00    -0.237 OA
ATOM     69  O   UNL A   1      43.148  19.126  24.744  1.00  0.00    -0.237 OA
ATOM     70  O   UNL A   1      42.852  18.983  27.183  1.00  0.00    -0.744 OA
ENDBRANCH  64  67
ENDBRANCH  46  60
BRANCH  47  71
ATOM     71  C   UNL A   1      39.882  31.295  32.327  1.00  0.00     0.023 A 
ATOM     72  C   UNL A   1      39.195  30.196  32.911  1.00  0.00     0.012 A 
ATOM     73  C   UNL A   1      39.386  32.590  32.588  1.00  0.00     0.148 A 
ATOM     74  C   UNL A   1      38.154  30.382  33.827  1.00  0.00     0.002 A 
ATOM     75  C   UNL A   1      38.326  32.770  33.488  1.00  0.00     0.091 A 
ATOM     76  F   UNL A   1      39.982  33.633  31.997  1.00  0.00    -0.205 F 
ATOM     77  C   UNL A   1      37.735  31.669  34.130  1.00  0.00     0.022 A 
BRANCH  75  78
ATOM     78  S   UNL A   1      37.684  34.388  33.964  1.00  0.00     0.127 S 
ATOM     79  O   UNL A   1      37.194  34.905  32.688  1.00  0.00    -0.237 OA
ATOM     80  O   UNL A   1      36.628  34.048  34.919  1.00  0.00    -0.237 OA
ATOM     81  O   UNL A   1      38.809  35.116  34.532  1.00  0.00    -0.744 OA
ENDBRANCH  75  78
ENDBRANCH  47  71
BRANCH  59  82
ATOM     82  C   UNL A   1      44.794  26.130  32.931  1.00  0.00     0.023 A 
ATOM     83  C   UNL A   1      44.105  25.038  33.490  1.00  0.00     0.012 A 
ATOM     84  C   UNL A   1      46.191  26.187  33.146  1.00  0.00     0.148 A 
ATOM     85  C   UNL A   1      44.739  24.104  34.308  1.00  0.00     0.002 A 
ATOM     86  C   UNL A   1      46.842  25.173  33.837  1.00  0.00     0.091 A 
ATOM     87  F   UNL A   1      46.902  27.227  32.688  1.00  0.00    -0.205 F 
ATOM     88  C   UNL A   1      46.116  24.158  34.462  1.00  0.00     0.022 A 
BRANCH  86  89
ATOM     89  S   UNL A   1      48.632  25.033  33.778  1.00  0.00     0.127 S 
ATOM     90  O   UNL A   1      48.850  23.692  34.314  1.00  0.00    -0.237 OA
ATOM     91  O   UNL A   1      48.910  25.172  32.347  1.00  0.00    -0.237 OA
ATOM     92  O   UNL A   1      49.121  26.141  34.588  1.00  0.00    -0.744 OA
ENDBRANCH  86  89
ENDBRANCH  59  82
ENDBRANCH  33  34
ENDBRANCH  26  28
ENDBRANCH  25  26
ENDBRANCH  24  25
ENDBRANCH   1  24
TORSDOF 17
ENDMDL
