MODEL 1
REMARK VINA RESULT:     -10.5      0.000      0.000
REMARK SMILES CCC1(CC)C[NH+]([C@H](CCS(C)(=O)=O)C(=O)OCCOC(=O)c2ccc(-c3c4nc(c(-c5cccc(S(=O)(=O)[O-])c5F)c5ccc([nH]5)c(-c5cccc(S(=O)(=O)[O-])c5F)c5nc(c(-c6cccc(S(=O)(=O)[O-])c6F)c6ccc3[nH]6)C=C5)C=C4)cc2)C1
REMARK SMILES IDX 18 1 17 2 15 3 16 4 8 5 7 6 3 7 6 8 86 9 2 11 1 12 4 13 5 14
REMARK SMILES IDX 9 15 10 16 11 17 12 18 13 19 14 20 19 21 20 22 21 23 22 24
REMARK SMILES IDX 23 25 24 26 85 27 25 28 84 29 26 30 27 31 28 32 78 33 29 34
REMARK SMILES IDX 83 35 77 36 79 37 30 38 82 39 76 40 75 41 31 43 63 44 43 45
REMARK SMILES IDX 62 46 44 47 47 48 61 49 80 50 45 51 46 52 60 54 81 55 48 56
REMARK SMILES IDX 32 57 33 58 41 59 34 60 36 61 42 62 35 63 37 64 38 65 39 66
REMARK SMILES IDX 40 67 64 68 65 69 73 70 66 71 68 72 74 73 67 74 69 75 70 76
REMARK SMILES IDX 71 77 72 78 49 79 50 80 58 81 51 82 53 83 59 84 52 85 54 86
REMARK SMILES IDX 55 87 56 88 57 89
REMARK H PARENT 7 10 79 42 47 53
REMARK Flexibility Score: inf
ROOT
ATOM      1  C   UNL A   1      35.779  21.913  23.992  1.00  0.00     0.274 C 
ENDROOT
BRANCH   1   2
ATOM      2  O   UNL A   1      34.736  22.225  24.936  1.00  0.00    -0.458 OA
BRANCH   2   3
ATOM      3  C   UNL A   1      33.465  22.123  24.462  1.00  0.00     0.365 C 
ATOM      4  O   UNL A   1      33.148  22.359  23.299  1.00  0.00    -0.245 OA
BRANCH   3   5
ATOM      5  C   UNL A   1      32.435  21.738  25.559  1.00  0.00     0.296 C 
BRANCH   5   6
ATOM      6  N   UNL A   1      32.232  20.285  25.380  1.00  0.00    -0.322 N 
ATOM      7  C   UNL A   1      33.136  18.477  24.792  1.00  0.00     0.068 C 
ATOM      8  C   UNL A   1      33.234  19.434  26.024  1.00  0.00     0.275 C 
ATOM      9  C   UNL A   1      32.529  19.729  24.060  1.00  0.00     0.275 C 
ATOM     10  H   UNL A   1      31.264  20.266  25.702  1.00  0.00     0.348 HD
BRANCH   7  11
ATOM     11  C   UNL A   1      34.511  18.060  24.250  1.00  0.00     0.015 C 
ATOM     12  C   UNL A   1      34.409  16.976  23.187  1.00  0.00     0.005 C 
ENDBRANCH   7  11
BRANCH   7  13
ATOM     13  C   UNL A   1      32.143  17.319  25.031  1.00  0.00     0.015 C 
ATOM     14  C   UNL A   1      32.772  16.134  25.743  1.00  0.00     0.005 C 
ENDBRANCH   7  13
ENDBRANCH   5   6
BRANCH   5  15
ATOM     15  C   UNL A   1      31.171  22.639  25.593  1.00  0.00     0.094 C 
BRANCH  15  16
ATOM     16  C   UNL A   1      31.311  23.888  26.472  1.00  0.00     0.143 C 
BRANCH  16  17
ATOM     17  S   UNL A   1      32.117  25.305  25.695  1.00  0.00     0.147 S 
ATOM     18  C   UNL A   1      31.331  26.725  26.397  1.00  0.00     0.158 C 
ATOM     19  O   UNL A   1      33.491  25.332  26.168  1.00  0.00    -0.229 OA
ATOM     20  O   UNL A   1      31.822  25.382  24.279  1.00  0.00    -0.229 OA
ENDBRANCH  16  17
ENDBRANCH  15  16
ENDBRANCH   5  15
ENDBRANCH   3   5
ENDBRANCH   2   3
ENDBRANCH   1   2
BRANCH   1  21
ATOM     21  C   UNL A   1      36.911  21.072  24.598  1.00  0.00     0.275 C 
BRANCH  21  22
ATOM     22  O   UNL A   1      37.349  21.543  25.886  1.00  0.00    -0.458 OA
BRANCH  22  23
ATOM     23  C   UNL A   1      38.669  21.392  26.106  1.00  0.00     0.338 C 
ATOM     24  O   UNL A   1      39.340  20.383  25.948  1.00  0.00    -0.246 OA
BRANCH  23  25
ATOM     25  C   UNL A   1      39.338  22.623  26.489  1.00  0.00     0.060 A 
ATOM     26  C   UNL A   1      40.410  22.532  27.381  1.00  0.00     0.016 A 
ATOM     27  C   UNL A   1      38.763  23.847  26.156  1.00  0.00     0.016 A 
ATOM     28  C   UNL A   1      40.931  23.685  27.944  1.00  0.00     0.010 A 
ATOM     29  C   UNL A   1      39.308  25.006  26.695  1.00  0.00     0.010 A 
ATOM     30  C   UNL A   1      40.398  24.928  27.579  1.00  0.00    -0.014 A 
BRANCH  30  31
ATOM     31  C   UNL A   1      41.099  26.160  27.975  1.00  0.00     0.031 A 
ATOM     32  C   UNL A   1      40.392  27.254  28.705  1.00  0.00     0.074 A 
ATOM     33  C   UNL A   1      42.376  26.279  27.568  1.00  0.00     0.049 A 
ATOM     34  N   UNL A   1      40.834  28.442  29.015  1.00  0.00    -0.248 NA
ATOM     35  C   UNL A   1      39.011  26.988  29.137  1.00  0.00     0.031 C 
ATOM     36  C   UNL A   1      43.115  25.254  26.823  1.00  0.00     0.029 A 
ATOM     37  N   UNL A   1      43.264  27.312  27.685  1.00  0.00    -0.354 N 
ATOM     38  C   UNL A   1      39.777  29.086  29.646  1.00  0.00     0.074 A 
ATOM     39  C   UNL A   1      38.674  28.150  29.684  1.00  0.00     0.031 C 
ATOM     40  C   UNL A   1      44.336  25.718  26.529  1.00  0.00     0.029 A 
ATOM     41  C   UNL A   1      44.447  27.083  27.023  1.00  0.00     0.049 A 
ATOM     42  H   UNL A   1      43.076  28.135  28.190  1.00  0.00     0.167 HD
ATOM     43  C   UNL A   1      39.749  30.344  30.145  1.00  0.00     0.034 A 
ATOM     44  C   UNL A   1      45.491  27.900  26.806  1.00  0.00     0.034 A 
ATOM     45  C   UNL A   1      40.876  31.240  30.103  1.00  0.00     0.049 A 
ATOM     46  C   UNL A   1      45.432  29.282  27.383  1.00  0.00     0.074 A 
ATOM     47  C   UNL A   1      40.984  32.516  30.626  1.00  0.00     0.029 A 
ATOM     48  N   UNL A   1      42.089  30.956  29.487  1.00  0.00    -0.354 N 
ATOM     49  N   UNL A   1      44.471  29.838  28.080  1.00  0.00    -0.248 NA
ATOM     50  C   UNL A   1      46.603  30.138  27.168  1.00  0.00     0.031 C 
ATOM     51  C   UNL A   1      42.257  33.007  30.315  1.00  0.00     0.029 A 
ATOM     52  C   UNL A   1      42.947  32.035  29.607  1.00  0.00     0.049 A 
ATOM     53  H   UNL A   1      42.305  30.110  29.033  1.00  0.00     0.167 HD
ATOM     54  C   UNL A   1      44.921  31.111  28.398  1.00  0.00     0.074 A 
ATOM     55  C   UNL A   1      46.257  31.227  27.844  1.00  0.00     0.031 C 
ATOM     56  C   UNL A   1      44.282  32.103  29.066  1.00  0.00     0.034 A 
BRANCH  43  57
ATOM     57  C   UNL A   1      38.481  30.812  30.808  1.00  0.00     0.023 A 
ATOM     58  C   UNL A   1      38.320  30.634  32.197  1.00  0.00     0.012 A 
ATOM     59  C   UNL A   1      37.480  31.479  30.076  1.00  0.00     0.148 A 
ATOM     60  C   UNL A   1      37.174  31.098  32.845  1.00  0.00     0.002 A 
ATOM     61  C   UNL A   1      36.353  31.965  30.734  1.00  0.00     0.091 A 
ATOM     62  F   UNL A   1      37.638  31.616  28.752  1.00  0.00    -0.205 F 
ATOM     63  C   UNL A   1      36.197  31.771  32.116  1.00  0.00     0.022 A 
BRANCH  61  64
ATOM     64  S   UNL A   1      35.068  32.899  29.893  1.00  0.00     0.127 S 
ATOM     65  O   UNL A   1      35.832  34.011  29.330  1.00  0.00    -0.237 OA
ATOM     66  O   UNL A   1      34.579  31.935  28.907  1.00  0.00    -0.237 OA
ATOM     67  O   UNL A   1      34.098  33.259  30.919  1.00  0.00    -0.744 OA
ENDBRANCH  61  64
ENDBRANCH  43  57
BRANCH  44  68
ATOM     68  C   UNL A   1      46.668  27.394  26.050  1.00  0.00     0.023 A 
ATOM     69  C   UNL A   1      46.803  27.723  24.690  1.00  0.00     0.012 A 
ATOM     70  C   UNL A   1      47.703  26.686  26.693  1.00  0.00     0.148 A 
ATOM     71  C   UNL A   1      47.944  27.349  23.980  1.00  0.00     0.002 A 
ATOM     72  C   UNL A   1      48.862  26.365  25.995  1.00  0.00     0.091 A 
ATOM     73  F   UNL A   1      47.551  26.367  27.987  1.00  0.00    -0.205 F 
ATOM     74  C   UNL A   1      48.980  26.685  24.634  1.00  0.00     0.022 A 
BRANCH  72  75
ATOM     75  S   UNL A   1      50.294  25.654  26.815  1.00  0.00     0.127 S 
ATOM     76  O   UNL A   1      50.649  26.704  27.765  1.00  0.00    -0.237 OA
ATOM     77  O   UNL A   1      49.739  24.441  27.419  1.00  0.00    -0.237 OA
ATOM     78  O   UNL A   1      51.256  25.399  25.751  1.00  0.00    -0.744 OA
ENDBRANCH  72  75
ENDBRANCH  44  68
BRANCH  56  79
ATOM     79  C   UNL A   1      45.027  33.399  29.217  1.00  0.00     0.023 A 
ATOM     80  C   UNL A   1      45.920  33.557  30.295  1.00  0.00     0.012 A 
ATOM     81  C   UNL A   1      44.883  34.432  28.273  1.00  0.00     0.148 A 
ATOM     82  C   UNL A   1      46.639  34.740  30.447  1.00  0.00     0.002 A 
ATOM     83  C   UNL A   1      45.634  35.592  28.409  1.00  0.00     0.091 A 
ATOM     84  F   UNL A   1      44.007  34.268  27.271  1.00  0.00    -0.205 F 
ATOM     85  C   UNL A   1      46.505  35.752  29.500  1.00  0.00     0.022 A 
BRANCH  83  86
ATOM     86  S   UNL A   1      45.580  36.910  27.191  1.00  0.00     0.127 S 
ATOM     87  O   UNL A   1      46.393  36.353  26.112  1.00  0.00    -0.237 OA
ATOM     88  O   UNL A   1      44.150  37.004  26.893  1.00  0.00    -0.237 OA
ATOM     89  O   UNL A   1      46.132  38.084  27.855  1.00  0.00    -0.744 OA
ENDBRANCH  83  86
ENDBRANCH  56  79
ENDBRANCH  30  31
ENDBRANCH  23  25
ENDBRANCH  22  23
ENDBRANCH  21  22
ENDBRANCH   1  21
TORSDOF 20
ENDMDL
MODEL 2
REMARK VINA RESULT:     -10.4      1.346      3.214
REMARK SMILES CCC1(CC)C[NH+]([C@H](CCS(C)(=O)=O)C(=O)OCCOC(=O)c2ccc(-c3c4nc(c(-c5cccc(S(=O)(=O)[O-])c5F)c5ccc([nH]5)c(-c5cccc(S(=O)(=O)[O-])c5F)c5nc(c(-c6cccc(S(=O)(=O)[O-])c6F)c6ccc3[nH]6)C=C5)C=C4)cc2)C1
REMARK SMILES IDX 18 1 17 2 15 3 16 4 8 5 7 6 3 7 6 8 86 9 2 11 1 12 4 13 5 14
REMARK SMILES IDX 9 15 10 16 11 17 12 18 13 19 14 20 19 21 20 22 21 23 22 24
REMARK SMILES IDX 23 25 24 26 85 27 25 28 84 29 26 30 27 31 28 32 78 33 29 34
REMARK SMILES IDX 83 35 77 36 79 37 30 38 82 39 76 40 75 41 31 43 63 44 43 45
REMARK SMILES IDX 62 46 44 47 47 48 61 49 80 50 45 51 46 52 60 54 81 55 48 56
REMARK SMILES IDX 32 57 33 58 41 59 34 60 36 61 42 62 35 63 37 64 38 65 39 66
REMARK SMILES IDX 40 67 64 68 65 69 73 70 66 71 68 72 74 73 67 74 69 75 70 76
REMARK SMILES IDX 71 77 72 78 49 79 50 80 58 81 51 82 53 83 59 84 52 85 54 86
REMARK SMILES IDX 55 87 56 88 57 89
REMARK H PARENT 7 10 79 42 47 53
REMARK Flexibility Score: inf
ROOT
ATOM      1  C   UNL A   1      35.849  22.285  24.140  1.00  0.00     0.274 C 
ENDROOT
BRANCH   1   2
ATOM      2  O   UNL A   1      35.289  22.969  25.278  1.00  0.00    -0.458 OA
BRANCH   2   3
ATOM      3  C   UNL A   1      34.119  22.461  25.751  1.00  0.00     0.365 C 
ATOM      4  O   UNL A   1      33.986  21.984  26.875  1.00  0.00    -0.245 OA
BRANCH   3   5
ATOM      5  C   UNL A   1      32.975  22.487  24.701  1.00  0.00     0.296 C 
BRANCH   5   6
ATOM      6  N   UNL A   1      32.250  23.744  24.976  1.00  0.00    -0.322 N 
ATOM      7  C   UNL A   1      32.407  25.842  25.064  1.00  0.00     0.068 C 
ATOM      8  C   UNL A   1      32.359  24.765  23.931  1.00  0.00     0.275 C 
ATOM      9  C   UNL A   1      32.823  24.637  25.983  1.00  0.00     0.275 C 
ATOM     10  H   UNL A   1      31.347  23.313  25.174  1.00  0.00     0.348 HD
BRANCH   7  11
ATOM     11  C   UNL A   1      33.530  26.870  24.860  1.00  0.00     0.015 C 
ATOM     12  C   UNL A   1      33.938  27.545  26.162  1.00  0.00     0.005 C 
ENDBRANCH   7  11
BRANCH   7  13
ATOM     13  C   UNL A   1      31.014  26.437  25.362  1.00  0.00     0.015 C 
ATOM     14  C   UNL A   1      30.769  27.759  24.655  1.00  0.00     0.005 C 
ENDBRANCH   7  13
ENDBRANCH   5   6
BRANCH   5  15
ATOM     15  C   UNL A   1      32.142  21.178  24.633  1.00  0.00     0.094 C 
BRANCH  15  16
ATOM     16  C   UNL A   1      32.694  20.128  23.662  1.00  0.00     0.143 C 
BRANCH  16  17
ATOM     17  S   UNL A   1      32.788  18.443  24.303  1.00  0.00     0.147 S 
ATOM     18  C   UNL A   1      34.517  18.096  24.439  1.00  0.00     0.158 C 
ATOM     19  O   UNL A   1      32.276  18.469  25.663  1.00  0.00    -0.229 OA
ATOM     20  O   UNL A   1      32.292  17.474  23.346  1.00  0.00    -0.229 OA
ENDBRANCH  16  17
ENDBRANCH  15  16
ENDBRANCH   5  15
ENDBRANCH   3   5
ENDBRANCH   2   3
ENDBRANCH   1   2
BRANCH   1  21
ATOM     21  C   UNL A   1      36.999  21.339  24.510  1.00  0.00     0.275 C 
BRANCH  21  22
ATOM     22  O   UNL A   1      37.437  21.472  25.875  1.00  0.00    -0.458 OA
BRANCH  22  23
ATOM     23  C   UNL A   1      38.765  21.325  26.042  1.00  0.00     0.338 C 
ATOM     24  O   UNL A   1      39.437  20.328  25.823  1.00  0.00    -0.246 OA
BRANCH  23  25
ATOM     25  C   UNL A   1      39.438  22.546  26.447  1.00  0.00     0.060 A 
ATOM     26  C   UNL A   1      40.459  22.445  27.397  1.00  0.00     0.016 A 
ATOM     27  C   UNL A   1      38.908  23.778  26.071  1.00  0.00     0.016 A 
ATOM     28  C   UNL A   1      40.973  23.593  27.974  1.00  0.00     0.010 A 
ATOM     29  C   UNL A   1      39.447  24.932  26.625  1.00  0.00     0.010 A 
ATOM     30  C   UNL A   1      40.486  24.842  27.567  1.00  0.00    -0.014 A 
BRANCH  30  31
ATOM     31  C   UNL A   1      41.191  26.065  27.987  1.00  0.00     0.031 A 
ATOM     32  C   UNL A   1      40.492  27.137  28.757  1.00  0.00     0.074 A 
ATOM     33  C   UNL A   1      42.461  26.198  27.566  1.00  0.00     0.049 A 
ATOM     34  N   UNL A   1      40.936  28.317  29.093  1.00  0.00    -0.248 NA
ATOM     35  C   UNL A   1      39.118  26.856  29.201  1.00  0.00     0.031 C 
ATOM     36  C   UNL A   1      43.192  25.195  26.783  1.00  0.00     0.029 A 
ATOM     37  N   UNL A   1      43.349  27.228  27.699  1.00  0.00    -0.354 N 
ATOM     38  C   UNL A   1      39.887  28.941  29.756  1.00  0.00     0.074 A 
ATOM     39  C   UNL A   1      38.786  28.002  29.784  1.00  0.00     0.031 C 
ATOM     40  C   UNL A   1      44.407  25.669  26.485  1.00  0.00     0.029 A 
ATOM     41  C   UNL A   1      44.523  27.021  27.014  1.00  0.00     0.049 A 
ATOM     42  H   UNL A   1      43.167  28.038  28.229  1.00  0.00     0.167 HD
ATOM     43  C   UNL A   1      39.864  30.185  30.290  1.00  0.00     0.034 A 
ATOM     44  C   UNL A   1      45.563  27.846  26.805  1.00  0.00     0.034 A 
ATOM     45  C   UNL A   1      40.988  31.084  30.256  1.00  0.00     0.049 A 
ATOM     46  C   UNL A   1      45.509  29.211  27.420  1.00  0.00     0.074 A 
ATOM     47  C   UNL A   1      41.102  32.346  30.813  1.00  0.00     0.029 A 
ATOM     48  N   UNL A   1      42.193  30.820  29.616  1.00  0.00    -0.354 N 
ATOM     49  N   UNL A   1      44.557  29.746  28.146  1.00  0.00    -0.248 NA
ATOM     50  C   UNL A   1      46.675  30.075  27.213  1.00  0.00     0.031 C 
ATOM     51  C   UNL A   1      42.369  32.847  30.498  1.00  0.00     0.029 A 
ATOM     52  C   UNL A   1      43.051  31.897  29.753  1.00  0.00     0.049 A 
ATOM     53  H   UNL A   1      42.404  29.987  29.136  1.00  0.00     0.167 HD
ATOM     54  C   UNL A   1      45.009  31.010  28.492  1.00  0.00     0.074 A 
ATOM     55  C   UNL A   1      46.337  31.144  27.923  1.00  0.00     0.031 C 
ATOM     56  C   UNL A   1      44.378  31.982  29.196  1.00  0.00     0.034 A 
BRANCH  43  57
ATOM     57  C   UNL A   1      38.604  30.632  30.983  1.00  0.00     0.023 A 
ATOM     58  C   UNL A   1      38.467  30.426  32.371  1.00  0.00     0.012 A 
ATOM     59  C   UNL A   1      37.587  31.307  30.281  1.00  0.00     0.148 A 
ATOM     60  C   UNL A   1      37.330  30.869  33.047  1.00  0.00     0.002 A 
ATOM     61  C   UNL A   1      36.469  31.774  30.968  1.00  0.00     0.091 A 
ATOM     62  F   UNL A   1      37.722  31.471  28.958  1.00  0.00    -0.205 F 
ATOM     63  C   UNL A   1      36.337  31.550  32.348  1.00  0.00     0.022 A 
BRANCH  61  64
ATOM     64  S   UNL A   1      35.164  32.716  30.167  1.00  0.00     0.127 S 
ATOM     65  O   UNL A   1      34.755  31.804  29.099  1.00  0.00    -0.237 OA
ATOM     66  O   UNL A   1      34.185  32.869  31.245  1.00  0.00    -0.237 OA
ATOM     67  O   UNL A   1      35.781  33.960  29.729  1.00  0.00    -0.744 OA
ENDBRANCH  61  64
ENDBRANCH  43  57
BRANCH  44  68
ATOM     68  C   UNL A   1      46.729  27.363  26.019  1.00  0.00     0.023 A 
ATOM     69  C   UNL A   1      46.821  27.691  24.655  1.00  0.00     0.012 A 
ATOM     70  C   UNL A   1      47.797  26.679  26.636  1.00  0.00     0.148 A 
ATOM     71  C   UNL A   1      47.951  27.339  23.916  1.00  0.00     0.002 A 
ATOM     72  C   UNL A   1      48.943  26.382  25.907  1.00  0.00     0.091 A 
ATOM     73  F   UNL A   1      47.685  26.360  27.934  1.00  0.00    -0.205 F 
ATOM     74  C   UNL A   1      49.017  26.700  24.544  1.00  0.00     0.022 A 
BRANCH  72  75
ATOM     75  S   UNL A   1      50.411  25.703  26.691  1.00  0.00     0.127 S 
ATOM     76  O   UNL A   1      51.320  25.564  25.557  1.00  0.00    -0.237 OA
ATOM     77  O   UNL A   1      50.773  26.755  27.643  1.00  0.00    -0.237 OA
ATOM     78  O   UNL A   1      49.971  24.463  27.318  1.00  0.00    -0.744 OA
ENDBRANCH  72  75
ENDBRANCH  44  68
BRANCH  56  79
ATOM     79  C   UNL A   1      45.122  33.275  29.372  1.00  0.00     0.023 A 
ATOM     80  C   UNL A   1      45.985  33.428  30.476  1.00  0.00     0.012 A 
ATOM     81  C   UNL A   1      45.009  34.312  28.427  1.00  0.00     0.148 A 
ATOM     82  C   UNL A   1      46.703  34.607  30.652  1.00  0.00     0.002 A 
ATOM     83  C   UNL A   1      45.761  35.469  28.588  1.00  0.00     0.091 A 
ATOM     84  F   UNL A   1      44.163  34.153  27.400  1.00  0.00    -0.205 F 
ATOM     85  C   UNL A   1      46.600  35.622  29.704  1.00  0.00     0.022 A 
BRANCH  83  86
ATOM     86  S   UNL A   1      45.746  36.789  27.372  1.00  0.00     0.127 S 
ATOM     87  O   UNL A   1      46.340  36.133  26.209  1.00  0.00    -0.237 OA
ATOM     88  O   UNL A   1      44.318  37.084  27.245  1.00  0.00    -0.237 OA
ATOM     89  O   UNL A   1      46.531  37.871  27.955  1.00  0.00    -0.744 OA
ENDBRANCH  83  86
ENDBRANCH  56  79
ENDBRANCH  30  31
ENDBRANCH  23  25
ENDBRANCH  22  23
ENDBRANCH  21  22
ENDBRANCH   1  21
TORSDOF 20
ENDMDL
MODEL 3
REMARK VINA RESULT:     -10.4      5.501      8.462
REMARK SMILES CCC1(CC)C[NH+]([C@H](CCS(C)(=O)=O)C(=O)OCCOC(=O)c2ccc(-c3c4nc(c(-c5cccc(S(=O)(=O)[O-])c5F)c5ccc([nH]5)c(-c5cccc(S(=O)(=O)[O-])c5F)c5nc(c(-c6cccc(S(=O)(=O)[O-])c6F)c6ccc3[nH]6)C=C5)C=C4)cc2)C1
REMARK SMILES IDX 18 1 17 2 15 3 16 4 8 5 7 6 3 7 6 8 86 9 2 11 1 12 4 13 5 14
REMARK SMILES IDX 9 15 10 16 11 17 12 18 13 19 14 20 19 21 20 22 21 23 22 24
REMARK SMILES IDX 23 25 24 26 85 27 25 28 84 29 26 30 27 31 28 32 78 33 29 34
REMARK SMILES IDX 83 35 77 36 79 37 30 38 82 39 76 40 75 41 31 43 63 44 43 45
REMARK SMILES IDX 62 46 44 47 47 48 61 49 80 50 45 51 46 52 60 54 81 55 48 56
REMARK SMILES IDX 32 57 33 58 41 59 34 60 36 61 42 62 35 63 37 64 38 65 39 66
REMARK SMILES IDX 40 67 64 68 65 69 73 70 66 71 68 72 74 73 67 74 69 75 70 76
REMARK SMILES IDX 71 77 72 78 49 79 50 80 58 81 51 82 53 83 59 84 52 85 54 86
REMARK SMILES IDX 55 87 56 88 57 89
REMARK H PARENT 7 10 79 42 47 53
REMARK Flexibility Score: inf
ROOT
ATOM      1  C   UNL A   1      32.222  31.230  26.899  1.00  0.00     0.274 C 
ENDROOT
BRANCH   1   2
ATOM      2  O   UNL A   1      31.647  30.603  25.737  1.00  0.00    -0.458 OA
BRANCH   2   3
ATOM      3  C   UNL A   1      32.341  29.546  25.235  1.00  0.00     0.365 C 
ATOM      4  O   UNL A   1      33.565  29.453  25.273  1.00  0.00    -0.245 OA
BRANCH   3   5
ATOM      5  C   UNL A   1      31.431  28.490  24.549  1.00  0.00     0.296 C 
BRANCH   5   6
ATOM      6  N   UNL A   1      32.271  27.277  24.467  1.00  0.00    -0.322 N 
ATOM      7  C   UNL A   1      32.260  25.184  24.239  1.00  0.00     0.068 C 
ATOM      8  C   UNL A   1      32.007  26.418  23.311  1.00  0.00     0.275 C 
ATOM      9  C   UNL A   1      31.975  26.197  25.407  1.00  0.00     0.275 C 
ATOM     10  H   UNL A   1      33.168  27.755  24.552  1.00  0.00     0.348 HD
BRANCH   7  11
ATOM     11  C   UNL A   1      31.182  24.100  24.095  1.00  0.00     0.015 C 
ATOM     12  C   UNL A   1      31.624  22.964  23.184  1.00  0.00     0.005 C 
ENDBRANCH   7  11
BRANCH   7  13
ATOM     13  C   UNL A   1      33.717  24.682  24.156  1.00  0.00     0.015 C 
ATOM     14  C   UNL A   1      34.454  24.776  25.481  1.00  0.00     0.005 C 
ENDBRANCH   7  13
ENDBRANCH   5   6
BRANCH   5  15
ATOM     15  C   UNL A   1      30.754  28.985  23.242  1.00  0.00     0.094 C 
BRANCH  15  16
ATOM     16  C   UNL A   1      29.285  28.572  23.097  1.00  0.00     0.143 C 
BRANCH  16  17
ATOM     17  S   UNL A   1      28.148  29.886  22.607  1.00  0.00     0.147 S 
ATOM     18  C   UNL A   1      28.790  31.354  23.355  1.00  0.00     0.158 C 
ATOM     19  O   UNL A   1      28.292  30.069  21.173  1.00  0.00    -0.229 OA
ATOM     20  O   UNL A   1      26.837  29.713  23.201  1.00  0.00    -0.229 OA
ENDBRANCH  16  17
ENDBRANCH  15  16
ENDBRANCH   5  15
ENDBRANCH   3   5
ENDBRANCH   2   3
ENDBRANCH   1   2
BRANCH   1  21
ATOM     21  C   UNL A   1      32.205  32.763  26.830  1.00  0.00     0.275 C 
BRANCH  21  22
ATOM     22  O   UNL A   1      32.776  33.397  27.989  1.00  0.00    -0.458 OA
BRANCH  22  23
ATOM     23  C   UNL A   1      34.023  33.868  27.799  1.00  0.00     0.338 C 
ATOM     24  O   UNL A   1      34.358  34.850  27.153  1.00  0.00    -0.246 OA
BRANCH  23  25
ATOM     25  C   UNL A   1      35.037  33.140  28.541  1.00  0.00     0.060 A 
ATOM     26  C   UNL A   1      36.374  33.498  28.340  1.00  0.00     0.016 A 
ATOM     27  C   UNL A   1      34.684  31.982  29.230  1.00  0.00     0.016 A 
ATOM     28  C   UNL A   1      37.381  32.694  28.849  1.00  0.00     0.010 A 
ATOM     29  C   UNL A   1      35.694  31.194  29.768  1.00  0.00     0.010 A 
ATOM     30  C   UNL A   1      37.040  31.554  29.589  1.00  0.00    -0.014 A 
BRANCH  30  31
ATOM     31  C   UNL A   1      38.087  30.838  30.336  1.00  0.00     0.031 A 
ATOM     32  C   UNL A   1      38.432  31.215  31.740  1.00  0.00     0.074 A 
ATOM     33  C   UNL A   1      38.767  29.895  29.660  1.00  0.00     0.049 A 
ATOM     34  N   UNL A   1      39.404  30.766  32.487  1.00  0.00    -0.248 NA
ATOM     35  C   UNL A   1      37.587  32.229  32.389  1.00  0.00     0.031 C 
ATOM     36  C   UNL A   1      38.495  29.502  28.272  1.00  0.00     0.029 A 
ATOM     37  N   UNL A   1      39.837  29.125  30.022  1.00  0.00    -0.354 N 
ATOM     38  C   UNL A   1      39.316  31.466  33.683  1.00  0.00     0.074 A 
ATOM     39  C   UNL A   1      38.187  32.364  33.566  1.00  0.00     0.031 C 
ATOM     40  C   UNL A   1      39.390  28.582  27.893  1.00  0.00     0.029 A 
ATOM     41  C   UNL A   1      40.321  28.357  28.990  1.00  0.00     0.049 A 
ATOM     42  H   UNL A   1      40.223  29.122  30.927  1.00  0.00     0.167 HD
ATOM     43  C   UNL A   1      40.114  31.354  34.771  1.00  0.00     0.034 A 
ATOM     44  C   UNL A   1      41.418  27.584  28.925  1.00  0.00     0.034 A 
ATOM     45  C   UNL A   1      41.219  30.434  34.855  1.00  0.00     0.049 A 
ATOM     46  C   UNL A   1      42.271  27.473  30.152  1.00  0.00     0.074 A 
ATOM     47  C   UNL A   1      42.061  30.192  35.925  1.00  0.00     0.029 A 
ATOM     48  N   UNL A   1      41.644  29.614  33.817  1.00  0.00    -0.354 N 
ATOM     49  N   UNL A   1      42.110  28.052  31.317  1.00  0.00    -0.248 NA
ATOM     50  C   UNL A   1      43.438  26.589  30.068  1.00  0.00     0.031 C 
ATOM     51  C   UNL A   1      43.002  29.235  35.529  1.00  0.00     0.029 A 
ATOM     52  C   UNL A   1      42.743  28.872  34.216  1.00  0.00     0.049 A 
ATOM     53  H   UNL A   1      41.225  29.567  32.928  1.00  0.00     0.167 HD
ATOM     54  C   UNL A   1      43.150  27.598  32.114  1.00  0.00     0.074 A 
ATOM     55  C   UNL A   1      43.915  26.668  31.304  1.00  0.00     0.031 C 
ATOM     56  C   UNL A   1      43.461  27.934  33.390  1.00  0.00     0.034 A 
BRANCH  43  57
ATOM     57  C   UNL A   1      39.801  32.215  35.966  1.00  0.00     0.023 A 
ATOM     58  C   UNL A   1      40.488  33.434  36.138  1.00  0.00     0.012 A 
ATOM     59  C   UNL A   1      38.793  31.855  36.880  1.00  0.00     0.148 A 
ATOM     60  C   UNL A   1      40.188  34.274  37.212  1.00  0.00     0.002 A 
ATOM     61  C   UNL A   1      38.478  32.712  37.932  1.00  0.00     0.091 A 
ATOM     62  F   UNL A   1      38.169  30.681  36.715  1.00  0.00    -0.205 F 
ATOM     63  C   UNL A   1      39.178  33.917  38.102  1.00  0.00     0.022 A 
BRANCH  61  64
ATOM     64  S   UNL A   1      37.151  32.370  39.096  1.00  0.00     0.127 S 
ATOM     65  O   UNL A   1      37.369  30.953  39.383  1.00  0.00    -0.237 OA
ATOM     66  O   UNL A   1      37.470  33.272  40.204  1.00  0.00    -0.237 OA
ATOM     67  O   UNL A   1      35.914  32.686  38.396  1.00  0.00    -0.744 OA
ENDBRANCH  61  64
ENDBRANCH  43  57
BRANCH  44  68
ATOM     68  C   UNL A   1      41.714  26.843  27.670  1.00  0.00     0.023 A 
ATOM     69  C   UNL A   1      42.312  27.525  26.596  1.00  0.00     0.012 A 
ATOM     70  C   UNL A   1      41.512  25.451  27.574  1.00  0.00     0.148 A 
ATOM     71  C   UNL A   1      42.694  26.837  25.443  1.00  0.00     0.002 A 
ATOM     72  C   UNL A   1      41.946  24.763  26.447  1.00  0.00     0.091 A 
ATOM     73  F   UNL A   1      40.927  24.819  28.602  1.00  0.00    -0.205 F 
ATOM     74  C   UNL A   1      42.527  25.456  25.374  1.00  0.00     0.022 A 
BRANCH  72  75
ATOM     75  S   UNL A   1      41.905  22.968  26.361  1.00  0.00     0.127 S 
ATOM     76  O   UNL A   1      42.503  22.716  25.053  1.00  0.00    -0.237 OA
ATOM     77  O   UNL A   1      42.737  22.581  27.501  1.00  0.00    -0.237 OA
ATOM     78  O   UNL A   1      40.499  22.612  26.504  1.00  0.00    -0.744 OA
ENDBRANCH  72  75
ENDBRANCH  44  68
BRANCH  56  79
ATOM     79  C   UNL A   1      44.689  27.295  33.973  1.00  0.00     0.023 A 
ATOM     80  C   UNL A   1      45.928  27.956  33.858  1.00  0.00     0.012 A 
ATOM     81  C   UNL A   1      44.611  26.076  34.671  1.00  0.00     0.148 A 
ATOM     82  C   UNL A   1      47.079  27.397  34.408  1.00  0.00     0.002 A 
ATOM     83  C   UNL A   1      45.756  25.546  35.252  1.00  0.00     0.091 A 
ATOM     84  F   UNL A   1      43.426  25.454  34.744  1.00  0.00    -0.205 F 
ATOM     85  C   UNL A   1      46.992  26.199  35.112  1.00  0.00     0.022 A 
BRANCH  83  86
ATOM     86  S   UNL A   1      45.716  24.050  36.243  1.00  0.00     0.127 S 
ATOM     87  O   UNL A   1      47.116  23.634  36.216  1.00  0.00    -0.237 OA
ATOM     88  O   UNL A   1      45.249  24.544  37.539  1.00  0.00    -0.237 OA
ATOM     89  O   UNL A   1      44.780  23.157  35.571  1.00  0.00    -0.744 OA
ENDBRANCH  83  86
ENDBRANCH  56  79
ENDBRANCH  30  31
ENDBRANCH  23  25
ENDBRANCH  22  23
ENDBRANCH  21  22
ENDBRANCH   1  21
TORSDOF 20
ENDMDL
