MODEL 1
REMARK VINA RESULT:     -14.2      0.000      0.000
REMARK SMILES O=C(OCCOC(=O)c1ccc(-c2c3nc(c(-c4cccc(S(=O)(=O)[O-])c4F)c4ccc([nH]4)c(-c4cccc(S(=O)(=O)[O-])c4F)c4nc(c(-c5cccc(S(=O)(=O)[O-])c5F)c5ccc2[nH]5)C=C4)C=C3)cc1)C1=Cc2ccc(Cl)c(Cl)c2O[C@@H]1C(F)(F)F
REMARK SMILES IDX 5 1 4 2 3 3 2 4 1 5 72 6 73 7 83 8 74 9 82 10 75 11 81 12
REMARK SMILES IDX 76 13 79 14 77 15 80 16 78 17 84 18 85 19 86 20 87 21 6 22
REMARK SMILES IDX 7 23 8 24 9 25 10 26 71 27 11 28 70 29 12 30 13 31 14 32
REMARK SMILES IDX 64 33 15 34 69 35 63 36 65 37 16 38 68 39 62 40 61 41 17 43
REMARK SMILES IDX 49 44 29 45 48 46 30 47 33 48 47 49 66 50 31 51 32 52 46 54
REMARK SMILES IDX 67 55 34 56 18 57 19 58 27 59 20 60 22 61 28 62 21 63 23 64
REMARK SMILES IDX 24 65 25 66 26 67 50 68 51 69 59 70 52 71 54 72 60 73 53 74
REMARK SMILES IDX 55 75 56 76 57 77 58 78 35 79 36 80 44 81 37 82 39 83 45 84
REMARK SMILES IDX 38 85 40 86 41 87 42 88 43 89
REMARK H PARENT 65 42 33 53
REMARK Flexibility Score: inf
ROOT
ATOM      1  C   UNL A   1      31.428  31.844  26.783  1.00  0.00     0.275 C 
ENDROOT
BRANCH   1   2
ATOM      2  C   UNL A   1      31.828  29.873  25.974  1.00  0.00     0.275 C 
BRANCH   2   3
ATOM      3  O   UNL A   1      32.151  28.593  26.780  1.00  0.00    -0.459 OA
BRANCH   3   4
ATOM      4  C   UNL A   1      31.541  27.502  26.300  1.00  0.00     0.338 C 
ATOM      5  O   UNL A   1      30.790  26.743  26.856  1.00  0.00    -0.246 OA
BRANCH   4   6
ATOM      6  C   UNL A   1      32.400  27.364  25.146  1.00  0.00     0.087 C 
ATOM      7  C   UNL A   1      33.700  26.777  25.464  1.00  0.00     0.027 C 
ATOM      8  C   UNL A   1      31.055  26.567  24.019  1.00  0.00     0.316 C 
ATOM      9  C   UNL A   1      34.159  25.096  25.021  1.00  0.00     0.019 A 
ATOM     10  O   UNL A   1      31.495  24.732  23.591  1.00  0.00    -0.474 OA
ATOM     11  C   UNL A   1      35.301  24.594  25.573  1.00  0.00     0.013 A 
ATOM     12  C   UNL A   1      33.074  24.021  24.187  1.00  0.00     0.148 A 
ATOM     13  C   UNL A   1      35.461  23.208  25.426  1.00  0.00     0.023 A 
ATOM     14  C   UNL A   1      33.312  22.672  24.099  1.00  0.00     0.102 A 
ATOM     15  C   UNL A   1      34.527  22.301  24.748  1.00  0.00     0.063 A 
ATOM     16  Cl  UNL A   1      32.233  21.566  23.383  1.00  0.00    -0.079 Cl
ATOM     17  Cl  UNL A   1      35.002  20.623  24.848  1.00  0.00    -0.083 Cl
BRANCH   8  18
ATOM     18  C   UNL A   1      30.810  27.891  23.170  1.00  0.00     0.430 C 
ATOM     19  F   UNL A   1      30.262  27.613  21.980  1.00  0.00    -0.167 F 
ATOM     20  F   UNL A   1      29.849  28.643  23.792  1.00  0.00    -0.167 F 
ATOM     21  F   UNL A   1      31.824  28.762  23.058  1.00  0.00    -0.167 F 
ENDBRANCH   8  18
ENDBRANCH   4   6
ENDBRANCH   3   4
ENDBRANCH   2   3
ENDBRANCH   1   2
BRANCH   1  22
ATOM     22  O   UNL A   1      32.624  33.082  27.035  1.00  0.00    -0.458 OA
BRANCH  22  23
ATOM     23  C   UNL A   1      33.458  33.648  27.975  1.00  0.00     0.338 C 
ATOM     24  O   UNL A   1      33.206  34.449  28.857  1.00  0.00    -0.246 OA
BRANCH  23  25
ATOM     25  C   UNL A   1      34.674  32.773  28.028  1.00  0.00     0.060 A 
ATOM     26  C   UNL A   1      35.934  33.388  28.163  1.00  0.00     0.016 A 
ATOM     27  C   UNL A   1      34.528  31.425  28.349  1.00  0.00     0.016 A 
ATOM     28  C   UNL A   1      36.967  32.725  28.853  1.00  0.00     0.010 A 
ATOM     29  C   UNL A   1      35.562  30.765  29.021  1.00  0.00     0.010 A 
ATOM     30  C   UNL A   1      36.757  31.431  29.353  1.00  0.00    -0.014 A 
BRANCH  30  31
ATOM     31  C   UNL A   1      37.852  30.645  29.982  1.00  0.00     0.031 A 
ATOM     32  C   UNL A   1      38.172  31.023  31.396  1.00  0.00     0.074 A 
ATOM     33  C   UNL A   1      38.625  29.751  29.326  1.00  0.00     0.049 A 
ATOM     34  N   UNL A   1      39.154  30.641  32.162  1.00  0.00    -0.248 NA
ATOM     35  C   UNL A   1      37.272  32.019  32.005  1.00  0.00     0.031 C 
ATOM     36  C   UNL A   1      38.457  29.315  27.940  1.00  0.00     0.029 A 
ATOM     37  N   UNL A   1      39.755  29.074  29.743  1.00  0.00    -0.354 N 
ATOM     38  C   UNL A   1      39.014  31.383  33.325  1.00  0.00     0.074 A 
ATOM     39  C   UNL A   1      37.882  32.262  33.148  1.00  0.00     0.031 C 
ATOM     40  C   UNL A   1      39.461  28.476  27.613  1.00  0.00     0.029 A 
ATOM     41  C   UNL A   1      40.360  28.322  28.757  1.00  0.00     0.049 A 
ATOM     42  H   UNL A   1      40.098  29.125  30.664  1.00  0.00     0.167 HD
ATOM     43  C   UNL A   1      39.747  31.333  34.457  1.00  0.00     0.034 A 
ATOM     44  C   UNL A   1      41.510  27.608  28.780  1.00  0.00     0.034 A 
ATOM     45  C   UNL A   1      40.877  30.476  34.634  1.00  0.00     0.049 A 
ATOM     46  C   UNL A   1      42.318  27.560  30.063  1.00  0.00     0.074 A 
ATOM     47  C   UNL A   1      41.661  30.312  35.759  1.00  0.00     0.029 A 
ATOM     48  N   UNL A   1      41.399  29.656  33.647  1.00  0.00    -0.354 N 
ATOM     49  N   UNL A   1      42.079  28.141  31.215  1.00  0.00    -0.248 NA
ATOM     50  C   UNL A   1      43.538  26.733  30.063  1.00  0.00     0.031 C 
ATOM     51  C   UNL A   1      42.684  29.415  35.439  1.00  0.00     0.029 A 
ATOM     52  C   UNL A   1      42.505  28.987  34.131  1.00  0.00     0.049 A 
ATOM     53  H   UNL A   1      41.035  29.564  32.736  1.00  0.00     0.167 HD
ATOM     54  C   UNL A   1      43.084  27.716  32.081  1.00  0.00     0.074 A 
ATOM     55  C   UNL A   1      43.933  26.818  31.327  1.00  0.00     0.031 C 
ATOM     56  C   UNL A   1      43.294  28.043  33.381  1.00  0.00     0.034 A 
BRANCH  43  57
ATOM     57  C   UNL A   1      39.317  32.248  35.566  1.00  0.00     0.023 A 
ATOM     58  C   UNL A   1      38.308  31.833  36.463  1.00  0.00     0.012 A 
ATOM     59  C   UNL A   1      39.859  33.540  35.678  1.00  0.00     0.148 A 
ATOM     60  C   UNL A   1      37.796  32.717  37.409  1.00  0.00     0.002 A 
ATOM     61  C   UNL A   1      39.385  34.395  36.663  1.00  0.00     0.091 A 
ATOM     62  F   UNL A   1      40.792  33.922  34.795  1.00  0.00    -0.205 F 
ATOM     63  C   UNL A   1      38.339  33.994  37.514  1.00  0.00     0.022 A 
BRANCH  61  64
ATOM     64  S   UNL A   1      40.068  36.031  36.930  1.00  0.00     0.127 S 
ATOM     65  O   UNL A   1      41.484  35.731  37.137  1.00  0.00    -0.237 OA
ATOM     66  O   UNL A   1      39.763  36.697  35.664  1.00  0.00    -0.237 OA
ATOM     67  O   UNL A   1      39.371  36.575  38.088  1.00  0.00    -0.744 OA
ENDBRANCH  61  64
ENDBRANCH  43  57
BRANCH  44  68
ATOM     68  C   UNL A   1      41.978  26.836  27.581  1.00  0.00     0.023 A 
ATOM     69  C   UNL A   1      42.546  27.527  26.489  1.00  0.00     0.012 A 
ATOM     70  C   UNL A   1      41.819  25.438  27.486  1.00  0.00     0.148 A 
ATOM     71  C   UNL A   1      42.904  26.855  25.317  1.00  0.00     0.002 A 
ATOM     72  C   UNL A   1      42.223  24.766  26.333  1.00  0.00     0.091 A 
ATOM     73  F   UNL A   1      41.261  24.793  28.519  1.00  0.00    -0.205 F 
ATOM     74  C   UNL A   1      42.748  25.474  25.241  1.00  0.00     0.022 A 
BRANCH  72  75
ATOM     75  S   UNL A   1      42.150  22.977  26.169  1.00  0.00     0.127 S 
ATOM     76  O   UNL A   1      42.745  22.770  24.849  1.00  0.00    -0.237 OA
ATOM     77  O   UNL A   1      42.980  22.538  27.292  1.00  0.00    -0.237 OA
ATOM     78  O   UNL A   1      40.742  22.625  26.283  1.00  0.00    -0.744 OA
ENDBRANCH  72  75
ENDBRANCH  44  68
BRANCH  56  79
ATOM     79  C   UNL A   1      44.438  27.393  34.115  1.00  0.00     0.023 A 
ATOM     80  C   UNL A   1      45.705  28.007  34.138  1.00  0.00     0.012 A 
ATOM     81  C   UNL A   1      44.205  26.254  34.911  1.00  0.00     0.148 A 
ATOM     82  C   UNL A   1      46.727  27.486  34.933  1.00  0.00     0.002 A 
ATOM     83  C   UNL A   1      45.210  25.774  35.742  1.00  0.00     0.091 A 
ATOM     84  F   UNL A   1      42.994  25.680  34.863  1.00  0.00    -0.205 F 
ATOM     85  C   UNL A   1      46.475  26.383  35.746  1.00  0.00     0.022 A 
BRANCH  83  86
ATOM     86  S   UNL A   1      44.937  24.437  36.911  1.00  0.00     0.127 S 
ATOM     87  O   UNL A   1      43.839  24.967  37.718  1.00  0.00    -0.237 OA
ATOM     88  O   UNL A   1      44.568  23.328  36.031  1.00  0.00    -0.237 OA
ATOM     89  O   UNL A   1      46.197  24.256  37.618  1.00  0.00    -0.744 OA
ENDBRANCH  83  86
ENDBRANCH  56  79
ENDBRANCH  30  31
ENDBRANCH  23  25
ENDBRANCH  22  23
ENDBRANCH   1  22
TORSDOF 15
ENDMDL
MODEL 2
REMARK VINA RESULT:     -13.7      5.157     10.399
REMARK SMILES O=C(OCCOC(=O)c1ccc(-c2c3nc(c(-c4cccc(S(=O)(=O)[O-])c4F)c4ccc([nH]4)c(-c4cccc(S(=O)(=O)[O-])c4F)c4nc(c(-c5cccc(S(=O)(=O)[O-])c5F)c5ccc2[nH]5)C=C4)C=C3)cc1)C1=Cc2ccc(Cl)c(Cl)c2O[C@@H]1C(F)(F)F
REMARK SMILES IDX 5 1 4 2 3 3 2 4 1 5 72 6 73 7 83 8 74 9 82 10 75 11 81 12
REMARK SMILES IDX 76 13 79 14 77 15 80 16 78 17 84 18 85 19 86 20 87 21 6 22
REMARK SMILES IDX 7 23 8 24 9 25 10 26 71 27 11 28 70 29 12 30 13 31 14 32
REMARK SMILES IDX 64 33 15 34 69 35 63 36 65 37 16 38 68 39 62 40 61 41 17 43
REMARK SMILES IDX 49 44 29 45 48 46 30 47 33 48 47 49 66 50 31 51 32 52 46 54
REMARK SMILES IDX 67 55 34 56 18 57 19 58 27 59 20 60 22 61 28 62 21 63 23 64
REMARK SMILES IDX 24 65 25 66 26 67 50 68 51 69 59 70 52 71 54 72 60 73 53 74
REMARK SMILES IDX 55 75 56 76 57 77 58 78 35 79 36 80 44 81 37 82 39 83 45 84
REMARK SMILES IDX 38 85 40 86 41 87 42 88 43 89
REMARK H PARENT 65 42 33 53
REMARK Flexibility Score: inf
ROOT
ATOM      1  C   UNL A   1      37.409  20.756  24.969  1.00  0.00     0.275 C 
ENDROOT
BRANCH   1   2
ATOM      2  C   UNL A   1      36.181  22.232  23.962  1.00  0.00     0.275 C 
BRANCH   2   3
ATOM      3  O   UNL A   1      35.711  23.588  24.538  1.00  0.00    -0.459 OA
BRANCH   3   4
ATOM      4  C   UNL A   1      34.633  24.079  23.914  1.00  0.00     0.338 C 
ATOM      5  O   UNL A   1      34.480  24.338  22.748  1.00  0.00    -0.246 OA
BRANCH   4   6
ATOM      6  C   UNL A   1      33.981  24.545  25.118  1.00  0.00     0.087 C 
ATOM      7  C   UNL A   1      34.122  25.984  25.327  1.00  0.00     0.027 C 
ATOM      8  C   UNL A   1      32.325  23.615  24.792  1.00  0.00     0.316 C 
ATOM      9  C   UNL A   1      32.775  27.151  25.092  1.00  0.00     0.019 A 
ATOM     10  O   UNL A   1      30.876  24.855  24.464  1.00  0.00    -0.474 OA
ATOM     11  C   UNL A   1      33.092  28.479  25.093  1.00  0.00     0.013 A 
ATOM     12  C   UNL A   1      31.189  26.656  24.574  1.00  0.00     0.148 A 
ATOM     13  C   UNL A   1      32.072  29.323  24.629  1.00  0.00     0.023 A 
ATOM     14  C   UNL A   1      30.255  27.557  24.128  1.00  0.00     0.102 A 
ATOM     15  C   UNL A   1      30.746  28.897  24.163  1.00  0.00     0.063 A 
ATOM     16  Cl  UNL A   1      28.729  27.113  23.517  1.00  0.00    -0.079 Cl
ATOM     17  Cl  UNL A   1      29.771  30.214  23.562  1.00  0.00    -0.083 Cl
BRANCH   8  18
ATOM     18  C   UNL A   1      32.610  22.481  25.873  1.00  0.00     0.430 C 
ATOM     19  F   UNL A   1      31.472  22.019  26.408  1.00  0.00    -0.167 F 
ATOM     20  F   UNL A   1      33.127  21.384  25.235  1.00  0.00    -0.167 F 
ATOM     21  F   UNL A   1      33.535  22.726  26.812  1.00  0.00    -0.167 F 
ENDBRANCH   8  18
ENDBRANCH   4   6
ENDBRANCH   3   4
ENDBRANCH   2   3
ENDBRANCH   1   2
BRANCH   1  22
ATOM     22  O   UNL A   1      39.080  20.974  25.402  1.00  0.00    -0.458 OA
BRANCH  22  23
ATOM     23  C   UNL A   1      39.984  20.867  26.436  1.00  0.00     0.338 C 
ATOM     24  O   UNL A   1      40.863  20.044  26.620  1.00  0.00    -0.246 OA
BRANCH  23  25
ATOM     25  C   UNL A   1      40.012  22.210  27.102  1.00  0.00     0.060 A 
ATOM     26  C   UNL A   1      41.031  22.472  28.037  1.00  0.00     0.016 A 
ATOM     27  C   UNL A   1      39.325  23.273  26.517  1.00  0.00     0.016 A 
ATOM     28  C   UNL A   1      41.525  23.782  28.187  1.00  0.00     0.010 A 
ATOM     29  C   UNL A   1      39.810  24.574  26.680  1.00  0.00     0.010 A 
ATOM     30  C   UNL A   1      40.962  24.832  27.448  1.00  0.00    -0.014 A 
BRANCH  30  31
ATOM     31  C   UNL A   1      41.366  26.248  27.659  1.00  0.00     0.031 A 
ATOM     32  C   UNL A   1      42.752  26.585  27.200  1.00  0.00     0.074 A 
ATOM     33  C   UNL A   1      40.635  27.159  28.339  1.00  0.00     0.049 A 
ATOM     34  N   UNL A   1      43.449  27.672  27.374  1.00  0.00    -0.248 NA
ATOM     35  C   UNL A   1      43.462  25.510  26.484  1.00  0.00     0.031 C 
ATOM     36  C   UNL A   1      39.289  26.959  28.877  1.00  0.00     0.029 A 
ATOM     37  N   UNL A   1      40.954  28.443  28.733  1.00  0.00    -0.354 N 
ATOM     38  C   UNL A   1      44.694  27.394  26.829  1.00  0.00     0.074 A 
ATOM     39  C   UNL A   1      44.668  26.029  26.358  1.00  0.00     0.031 C 
ATOM     40  C   UNL A   1      38.915  28.063  29.558  1.00  0.00     0.029 A 
ATOM     41  C   UNL A   1      39.997  29.047  29.522  1.00  0.00     0.049 A 
ATOM     42  H   UNL A   1      41.793  28.888  28.474  1.00  0.00     0.167 HD
ATOM     43  C   UNL A   1      45.768  28.201  26.709  1.00  0.00     0.034 A 
ATOM     44  C   UNL A   1      40.006  30.247  30.149  1.00  0.00     0.034 A 
ATOM     45  C   UNL A   1      45.806  29.548  27.186  1.00  0.00     0.049 A 
ATOM     46  C   UNL A   1      41.220  31.144  29.999  1.00  0.00     0.074 A 
ATOM     47  C   UNL A   1      46.827  30.470  27.074  1.00  0.00     0.029 A 
ATOM     48  N   UNL A   1      44.781  30.157  27.892  1.00  0.00    -0.354 N 
ATOM     49  N   UNL A   1      42.332  30.929  29.335  1.00  0.00    -0.248 NA
ATOM     50  C   UNL A   1      41.173  32.463  30.655  1.00  0.00     0.031 C 
ATOM     51  C   UNL A   1      46.432  31.631  27.745  1.00  0.00     0.029 A 
ATOM     52  C   UNL A   1      45.147  31.444  28.233  1.00  0.00     0.049 A 
ATOM     53  H   UNL A   1      43.919  29.735  28.117  1.00  0.00     0.167 HD
ATOM     54  C   UNL A   1      43.088  32.093  29.455  1.00  0.00     0.074 A 
ATOM     55  C   UNL A   1      42.306  33.019  30.247  1.00  0.00     0.031 C 
ATOM     56  C   UNL A   1      44.321  32.372  28.963  1.00  0.00     0.034 A 
BRANCH  43  57
ATOM     57  C   UNL A   1      46.970  27.611  26.032  1.00  0.00     0.023 A 
ATOM     58  C   UNL A   1      47.059  27.632  24.623  1.00  0.00     0.012 A 
ATOM     59  C   UNL A   1      47.973  26.975  26.783  1.00  0.00     0.148 A 
ATOM     60  C   UNL A   1      48.092  26.966  23.970  1.00  0.00     0.002 A 
ATOM     61  C   UNL A   1      49.033  26.365  26.127  1.00  0.00     0.091 A 
ATOM     62  F   UNL A   1      47.850  26.940  28.118  1.00  0.00    -0.205 F 
ATOM     63  C   UNL A   1      49.083  26.340  24.722  1.00  0.00     0.022 A 
BRANCH  61  64
ATOM     64  S   UNL A   1      50.397  25.597  27.002  1.00  0.00     0.127 S 
ATOM     65  O   UNL A   1      49.740  24.445  27.620  1.00  0.00    -0.237 OA
ATOM     66  O   UNL A   1      51.309  25.266  25.908  1.00  0.00    -0.237 OA
ATOM     67  O   UNL A   1      50.897  26.601  27.930  1.00  0.00    -0.744 OA
ENDBRANCH  61  64
ENDBRANCH  43  57
BRANCH  44  68
ATOM     68  C   UNL A   1      38.830  30.722  30.952  1.00  0.00     0.023 A 
ATOM     69  C   UNL A   1      38.792  30.473  32.340  1.00  0.00     0.012 A 
ATOM     70  C   UNL A   1      37.729  31.367  30.351  1.00  0.00     0.148 A 
ATOM     71  C   UNL A   1      37.671  30.812  33.104  1.00  0.00     0.002 A 
ATOM     72  C   UNL A   1      36.635  31.749  31.127  1.00  0.00     0.091 A 
ATOM     73  F   UNL A   1      37.765  31.582  29.029  1.00  0.00    -0.205 F 
ATOM     74  C   UNL A   1      36.596  31.455  32.499  1.00  0.00     0.022 A 
BRANCH  72  75
ATOM     75  S   UNL A   1      35.238  32.664  30.462  1.00  0.00     0.127 S 
ATOM     76  O   UNL A   1      34.350  32.745  31.621  1.00  0.00    -0.237 OA
ATOM     77  O   UNL A   1      35.863  33.929  30.078  1.00  0.00    -0.237 OA
ATOM     78  O   UNL A   1      34.739  31.871  29.346  1.00  0.00    -0.744 OA
ENDBRANCH  72  75
ENDBRANCH  44  68
BRANCH  56  79
ATOM     79  C   UNL A   1      44.899  33.744  29.194  1.00  0.00     0.023 A 
ATOM     80  C   UNL A   1      45.623  34.020  30.370  1.00  0.00     0.012 A 
ATOM     81  C   UNL A   1      44.854  34.707  28.165  1.00  0.00     0.148 A 
ATOM     82  C   UNL A   1      46.280  35.241  30.523  1.00  0.00     0.002 A 
ATOM     83  C   UNL A   1      45.558  35.897  28.302  1.00  0.00     0.091 A 
ATOM     84  F   UNL A   1      44.150  34.426  27.059  1.00  0.00    -0.205 F 
ATOM     85  C   UNL A   1      46.262  36.170  29.485  1.00  0.00     0.022 A 
BRANCH  83  86
ATOM     86  S   UNL A   1      45.692  37.095  26.970  1.00  0.00     0.127 S 
ATOM     87  O   UNL A   1      46.093  36.248  25.847  1.00  0.00    -0.237 OA
ATOM     88  O   UNL A   1      44.328  37.616  26.885  1.00  0.00    -0.237 OA
ATOM     89  O   UNL A   1      46.686  38.069  27.400  1.00  0.00    -0.744 OA
ENDBRANCH  83  86
ENDBRANCH  56  79
ENDBRANCH  30  31
ENDBRANCH  23  25
ENDBRANCH  22  23
ENDBRANCH   1  22
TORSDOF 15
ENDMDL
MODEL 3
REMARK VINA RESULT:     -13.7      5.270     10.405
REMARK SMILES O=C(OCCOC(=O)c1ccc(-c2c3nc(c(-c4cccc(S(=O)(=O)[O-])c4F)c4ccc([nH]4)c(-c4cccc(S(=O)(=O)[O-])c4F)c4nc(c(-c5cccc(S(=O)(=O)[O-])c5F)c5ccc2[nH]5)C=C4)C=C3)cc1)C1=Cc2ccc(Cl)c(Cl)c2O[C@@H]1C(F)(F)F
REMARK SMILES IDX 5 1 4 2 3 3 2 4 1 5 72 6 73 7 83 8 74 9 82 10 75 11 81 12
REMARK SMILES IDX 76 13 79 14 77 15 80 16 78 17 84 18 85 19 86 20 87 21 6 22
REMARK SMILES IDX 7 23 8 24 9 25 10 26 71 27 11 28 70 29 12 30 13 31 14 32
REMARK SMILES IDX 64 33 15 34 69 35 63 36 65 37 16 38 68 39 62 40 61 41 17 43
REMARK SMILES IDX 49 44 29 45 48 46 30 47 33 48 47 49 66 50 31 51 32 52 46 54
REMARK SMILES IDX 67 55 34 56 18 57 19 58 27 59 20 60 22 61 28 62 21 63 23 64
REMARK SMILES IDX 24 65 25 66 26 67 50 68 51 69 59 70 52 71 54 72 60 73 53 74
REMARK SMILES IDX 55 75 56 76 57 77 58 78 35 79 36 80 44 81 37 82 39 83 45 84
REMARK SMILES IDX 38 85 40 86 41 87 42 88 43 89
REMARK H PARENT 65 42 33 53
REMARK Flexibility Score: inf
ROOT
ATOM      1  C   UNL A   1      36.825  20.995  25.008  1.00  0.00     0.275 C 
ENDROOT
BRANCH   1   2
ATOM      2  C   UNL A   1      35.641  22.600  24.161  1.00  0.00     0.275 C 
BRANCH   2   3
ATOM      3  O   UNL A   1      34.307  23.154  24.714  1.00  0.00    -0.459 OA
BRANCH   3   4
ATOM      4  C   UNL A   1      34.049  24.404  24.312  1.00  0.00     0.338 C 
ATOM      5  O   UNL A   1      34.782  25.203  23.790  1.00  0.00    -0.246 OA
BRANCH   4   6
ATOM      6  C   UNL A   1      32.833  24.545  25.082  1.00  0.00     0.087 C 
ATOM      7  C   UNL A   1      32.983  25.425  26.239  1.00  0.00     0.027 C 
ATOM      8  C   UNL A   1      31.698  24.877  23.561  1.00  0.00     0.316 C 
ATOM      9  C   UNL A   1      32.287  27.080  26.316  1.00  0.00     0.019 A 
ATOM     10  O   UNL A   1      30.997  26.680  23.588  1.00  0.00    -0.474 OA
ATOM     11  C   UNL A   1      32.691  27.880  27.346  1.00  0.00     0.013 A 
ATOM     12  C   UNL A   1      31.388  27.778  25.000  1.00  0.00     0.148 A 
ATOM     13  C   UNL A   1      32.348  29.232  27.204  1.00  0.00     0.023 A 
ATOM     14  C   UNL A   1      31.102  29.119  24.945  1.00  0.00     0.102 A 
ATOM     15  C   UNL A   1      31.615  29.822  26.077  1.00  0.00     0.063 A 
ATOM     16  Cl  UNL A   1      30.315  29.865  23.632  1.00  0.00    -0.079 Cl
ATOM     17  Cl  UNL A   1      31.455  31.557  26.189  1.00  0.00    -0.083 Cl
BRANCH   8  18
ATOM     18  C   UNL A   1      31.054  23.421  23.571  1.00  0.00     0.430 C 
ATOM     19  F   UNL A   1      30.651  23.074  24.800  1.00  0.00    -0.167 F 
ATOM     20  F   UNL A   1      29.889  23.449  22.852  1.00  0.00    -0.167 F 
ATOM     21  F   UNL A   1      31.733  22.430  22.974  1.00  0.00    -0.167 F 
ENDBRANCH   8  18
ENDBRANCH   4   6
ENDBRANCH   3   4
ENDBRANCH   2   3
ENDBRANCH   1   2
BRANCH   1  22
ATOM     22  O   UNL A   1      38.551  21.031  25.222  1.00  0.00    -0.458 OA
BRANCH  22  23
ATOM     23  C   UNL A   1      39.560  20.888  26.150  1.00  0.00     0.338 C 
ATOM     24  O   UNL A   1      40.460  20.069  26.201  1.00  0.00    -0.246 OA
BRANCH  23  25
ATOM     25  C   UNL A   1      39.646  22.199  26.872  1.00  0.00     0.060 A 
ATOM     26  C   UNL A   1      40.706  22.394  27.779  1.00  0.00     0.016 A 
ATOM     27  C   UNL A   1      38.967  23.303  26.360  1.00  0.00     0.016 A 
ATOM     28  C   UNL A   1      41.239  23.683  27.968  1.00  0.00     0.010 A 
ATOM     29  C   UNL A   1      39.491  24.584  26.562  1.00  0.00     0.010 A 
ATOM     30  C   UNL A   1      40.676  24.779  27.297  1.00  0.00    -0.014 A 
BRANCH  30  31
ATOM     31  C   UNL A   1      41.124  26.173  27.555  1.00  0.00     0.031 A 
ATOM     32  C   UNL A   1      42.523  26.481  27.113  1.00  0.00     0.074 A 
ATOM     33  C   UNL A   1      40.419  27.085  28.261  1.00  0.00     0.049 A 
ATOM     34  N   UNL A   1      43.254  27.538  27.324  1.00  0.00    -0.248 NA
ATOM     35  C   UNL A   1      43.202  25.407  26.366  1.00  0.00     0.031 C 
ATOM     36  C   UNL A   1      39.066  26.912  28.787  1.00  0.00     0.029 A 
ATOM     37  N   UNL A   1      40.778  28.346  28.697  1.00  0.00    -0.354 N 
ATOM     38  C   UNL A   1      44.491  27.238  26.775  1.00  0.00     0.074 A 
ATOM     39  C   UNL A   1      44.424  25.890  26.260  1.00  0.00     0.031 C 
ATOM     40  C   UNL A   1      38.724  28.005  29.501  1.00  0.00     0.029 A 
ATOM     41  C   UNL A   1      39.836  28.955  29.501  1.00  0.00     0.049 A 
ATOM     42  H   UNL A   1      41.631  28.772  28.456  1.00  0.00     0.167 HD
ATOM     43  C   UNL A   1      45.591  28.014  26.685  1.00  0.00     0.034 A 
ATOM     44  C   UNL A   1      39.881  30.134  30.166  1.00  0.00     0.034 A 
ATOM     45  C   UNL A   1      45.670  29.343  27.205  1.00  0.00     0.049 A 
ATOM     46  C   UNL A   1      41.124  30.995  30.049  1.00  0.00     0.074 A 
ATOM     47  C   UNL A   1      46.721  30.235  27.126  1.00  0.00     0.029 A 
ATOM     48  N   UNL A   1      44.661  29.962  27.926  1.00  0.00    -0.354 N 
ATOM     49  N   UNL A   1      42.232  30.766  29.383  1.00  0.00    -0.248 NA
ATOM     50  C   UNL A   1      41.115  32.293  30.747  1.00  0.00     0.031 C 
ATOM     51  C   UNL A   1      46.360  31.385  27.832  1.00  0.00     0.029 A 
ATOM     52  C   UNL A   1      45.067  31.224  28.309  1.00  0.00     0.049 A 
ATOM     53  H   UNL A   1      43.786  29.560  28.134  1.00  0.00     0.167 HD
ATOM     54  C   UNL A   1      43.024  31.901  29.543  1.00  0.00     0.074 A 
ATOM     55  C   UNL A   1      42.268  32.825  30.361  1.00  0.00     0.031 C 
ATOM     56  C   UNL A   1      44.267  32.155  29.065  1.00  0.00     0.034 A 
BRANCH  43  57
ATOM     57  C   UNL A   1      46.777  27.407  25.995  1.00  0.00     0.023 A 
ATOM     58  C   UNL A   1      47.658  26.574  26.721  1.00  0.00     0.012 A 
ATOM     59  C   UNL A   1      47.059  27.715  24.653  1.00  0.00     0.148 A 
ATOM     60  C   UNL A   1      48.837  26.118  26.141  1.00  0.00     0.002 A 
ATOM     61  C   UNL A   1      48.208  27.207  24.064  1.00  0.00     0.091 A 
ATOM     62  F   UNL A   1      46.226  28.534  23.995  1.00  0.00    -0.205 F 
ATOM     63  C   UNL A   1      49.109  26.427  24.811  1.00  0.00     0.022 A 
BRANCH  61  64
ATOM     64  S   UNL A   1      48.610  27.483  22.338  1.00  0.00     0.127 S 
ATOM     65  O   UNL A   1      49.896  28.173  22.442  1.00  0.00    -0.237 OA
ATOM     66  O   UNL A   1      48.690  26.116  21.824  1.00  0.00    -0.237 OA
ATOM     67  O   UNL A   1      47.520  28.278  21.792  1.00  0.00    -0.744 OA
ENDBRANCH  61  64
ENDBRANCH  43  57
BRANCH  44  68
ATOM     68  C   UNL A   1      38.716  30.620  30.979  1.00  0.00     0.023 A 
ATOM     69  C   UNL A   1      38.663  30.327  32.358  1.00  0.00     0.012 A 
ATOM     70  C   UNL A   1      37.640  31.320  30.395  1.00  0.00     0.148 A 
ATOM     71  C   UNL A   1      37.550  30.678  33.128  1.00  0.00     0.002 A 
ATOM     72  C   UNL A   1      36.555  31.712  31.178  1.00  0.00     0.091 A 
ATOM     73  F   UNL A   1      37.691  31.577  29.081  1.00  0.00    -0.205 F 
ATOM     74  C   UNL A   1      36.499  31.375  32.539  1.00  0.00     0.022 A 
BRANCH  72  75
ATOM     75  S   UNL A   1      35.192  32.693  30.537  1.00  0.00     0.127 S 
ATOM     76  O   UNL A   1      35.857  33.950  30.196  1.00  0.00    -0.237 OA
ATOM     77  O   UNL A   1      34.762  31.895  29.388  1.00  0.00    -0.237 OA
ATOM     78  O   UNL A   1      34.218  32.773  31.618  1.00  0.00    -0.744 OA
ENDBRANCH  72  75
ENDBRANCH  44  68
BRANCH  56  79
ATOM     79  C   UNL A   1      44.888  33.500  29.342  1.00  0.00     0.023 A 
ATOM     80  C   UNL A   1      45.646  33.704  30.511  1.00  0.00     0.012 A 
ATOM     81  C   UNL A   1      44.846  34.508  28.358  1.00  0.00     0.148 A 
ATOM     82  C   UNL A   1      46.340  34.899  30.702  1.00  0.00     0.002 A 
ATOM     83  C   UNL A   1      45.585  35.672  28.530  1.00  0.00     0.091 A 
ATOM     84  F   UNL A   1      44.108  34.296  27.258  1.00  0.00    -0.205 F 
ATOM     85  C   UNL A   1      46.323  35.874  29.706  1.00  0.00     0.022 A 
BRANCH  83  86
ATOM     86  S   UNL A   1      45.721  36.925  27.249  1.00  0.00     0.127 S 
ATOM     87  O   UNL A   1      46.749  37.805  27.802  1.00  0.00    -0.237 OA
ATOM     88  O   UNL A   1      46.148  36.138  26.092  1.00  0.00    -0.237 OA
ATOM     89  O   UNL A   1      44.397  37.518  27.122  1.00  0.00    -0.744 OA
ENDBRANCH  83  86
ENDBRANCH  56  79
ENDBRANCH  30  31
ENDBRANCH  23  25
ENDBRANCH  22  23
ENDBRANCH   1  22
TORSDOF 15
ENDMDL
