MODEL 1
REMARK VINA RESULT:     -12.7      0.000      0.000
REMARK SMILES Cc1c(-c2nn(-c3ccccc3)cc2/C=N/O)nnn1-c1ccc(C(=O)OCCOC(=O)c2ccc(-c3c4nc(c(-c5cccc(S(=O)(=O)[O-])c5F)c5ccc([nH]5)c(-c5cccc(S(=O)(=O)[O-])c5F)c5nc(c(-c6cccc(S(=O)(=O)[O-])c6F)c6ccc3[nH]6)C=C5)C=C4)cc2)cc1
REMARK SMILES IDX 28 1 27 2 25 3 26 4 24 5 21 6 22 7 97 8 23 9 96 10 20 11
REMARK SMILES IDX 1 12 2 13 3 14 18 15 19 16 4 17 5 18 14 19 6 20 13 21 15 22
REMARK SMILES IDX 16 23 17 24 7 26 8 27 12 28 9 29 11 30 10 31 29 32 30 33
REMARK SMILES IDX 31 34 32 35 33 36 34 37 95 38 35 39 94 40 36 41 37 42 38 43
REMARK SMILES IDX 88 44 39 45 93 46 87 47 89 48 40 49 92 50 86 51 85 52 41 54
REMARK SMILES IDX 73 55 53 56 72 57 54 58 57 59 71 60 90 61 55 62 56 63 70 65
REMARK SMILES IDX 91 66 58 67 42 68 43 69 51 70 44 71 46 72 52 73 45 74 47 75
REMARK SMILES IDX 48 76 49 77 50 78 74 79 75 80 83 81 76 82 78 83 84 84 77 85
REMARK SMILES IDX 79 86 80 87 81 88 82 89 59 90 60 91 68 92 61 93 63 94 69 95
REMARK SMILES IDX 62 96 64 97 65 98 66 99 67 100
REMARK H PARENT 17 25 89 53 57 64
REMARK Flexibility Score: inf
ROOT
ATOM      1  C   UNL A   1      31.403  32.446  26.703  1.00  0.00     0.275 C 
ENDROOT
BRANCH   1   2
ATOM      2  O   UNL A   1      31.766  31.062  26.534  1.00  0.00    -0.458 OA
BRANCH   2   3
ATOM      3  C   UNL A   1      31.229  30.445  25.449  1.00  0.00     0.338 C 
ATOM      4  O   UNL A   1      30.470  30.948  24.632  1.00  0.00    -0.246 OA
BRANCH   3   5
ATOM      5  C   UNL A   1      31.733  29.055  25.321  1.00  0.00     0.060 A 
ATOM      6  C   UNL A   1      32.785  26.530  24.780  1.00  0.00     0.067 A 
ATOM      7  C   UNL A   1      33.646  27.561  25.167  1.00  0.00     0.029 A 
ATOM      8  C   UNL A   1      31.396  26.724  24.796  1.00  0.00     0.029 A 
ATOM      9  C   UNL A   1      33.117  28.831  25.407  1.00  0.00     0.018 A 
ATOM     10  C   UNL A   1      30.869  27.984  25.079  1.00  0.00     0.018 A 
BRANCH   6  11
ATOM     11  N   UNL A   1      33.329  25.317  24.300  1.00  0.00    -0.217 N 
ATOM     12  C   UNL A   1      33.031  23.806  26.346  1.00  0.00     0.069 C 
ATOM     13  C   UNL A   1      33.537  24.135  24.992  1.00  0.00     0.071 A 
ATOM     14  C   UNL A   1      34.175  23.336  24.065  1.00  0.00     0.137 A 
ATOM     15  N   UNL A   1      34.228  23.961  22.857  1.00  0.00    -0.128 NA
ATOM     16  N   UNL A   1      33.631  25.141  22.989  1.00  0.00    -0.061 NA
BRANCH  14  17
ATOM     17  C   UNL A   1      34.690  21.985  24.264  1.00  0.00     0.124 A 
ATOM     18  N   UNL A   1      33.910  20.896  24.203  1.00  0.00    -0.165 NA
ATOM     19  C   UNL A   1      36.019  21.677  24.643  1.00  0.00     0.044 A 
ATOM     20  N   UNL A   1      34.700  19.896  24.644  1.00  0.00    -0.240 N 
ATOM     21  C   UNL A   1      35.972  20.329  24.937  1.00  0.00     0.125 A 
BRANCH  19  22
ATOM     22  C   UNL A   1      37.197  22.503  24.740  1.00  0.00     0.166 C 
ATOM     23  N   UNL A   1      37.482  23.092  25.852  1.00  0.00    -0.097 NA
BRANCH  23  24
ATOM     24  O   UNL A   1      38.632  23.873  25.687  1.00  0.00    -0.411 OA
ATOM     25  H   UNL A   1      39.387  23.512  25.266  1.00  0.00     0.330 HD
ENDBRANCH  23  24
ENDBRANCH  19  22
BRANCH  20  26
ATOM     26  C   UNL A   1      34.203  18.581  24.790  1.00  0.00     0.065 A 
ATOM     27  C   UNL A   1      32.866  18.390  25.161  1.00  0.00     0.028 A 
ATOM     28  C   UNL A   1      35.041  17.482  24.564  1.00  0.00     0.028 A 
ATOM     29  C   UNL A   1      32.360  17.095  25.263  1.00  0.00     0.002 A 
ATOM     30  C   UNL A   1      34.539  16.190  24.727  1.00  0.00     0.002 A 
ATOM     31  C   UNL A   1      33.197  15.996  25.060  1.00  0.00     0.000 A 
ENDBRANCH  20  26
ENDBRANCH  14  17
ENDBRANCH   6  11
ENDBRANCH   3   5
ENDBRANCH   2   3
ENDBRANCH   1   2
BRANCH   1  32
ATOM     32  C   UNL A   1      32.593  33.292  27.135  1.00  0.00     0.275 C 
BRANCH  32  33
ATOM     33  O   UNL A   1      32.197  34.318  28.040  1.00  0.00    -0.458 OA
BRANCH  33  34
ATOM     34  C   UNL A   1      33.146  34.668  28.935  1.00  0.00     0.338 C 
ATOM     35  O   UNL A   1      33.232  35.719  29.551  1.00  0.00    -0.246 OA
BRANCH  34  36
ATOM     36  C   UNL A   1      34.226  33.686  28.903  1.00  0.00     0.060 A 
ATOM     37  C   UNL A   1      34.415  32.916  30.055  1.00  0.00     0.016 A 
ATOM     38  C   UNL A   1      35.201  33.801  27.905  1.00  0.00     0.016 A 
ATOM     39  C   UNL A   1      35.668  32.399  30.295  1.00  0.00     0.010 A 
ATOM     40  C   UNL A   1      36.454  33.308  28.157  1.00  0.00     0.010 A 
ATOM     41  C   UNL A   1      36.685  32.680  29.380  1.00  0.00    -0.014 A 
BRANCH  41  42
ATOM     42  C   UNL A   1      38.018  32.202  29.670  1.00  0.00     0.031 A 
ATOM     43  C   UNL A   1      38.189  30.766  29.347  1.00  0.00     0.074 A 
ATOM     44  C   UNL A   1      38.995  33.061  30.013  1.00  0.00     0.049 A 
ATOM     45  N   UNL A   1      38.515  29.799  30.140  1.00  0.00    -0.248 NA
ATOM     46  C   UNL A   1      37.755  30.324  28.010  1.00  0.00     0.031 C 
ATOM     47  C   UNL A   1      38.923  34.527  30.027  1.00  0.00     0.029 A 
ATOM     48  N   UNL A   1      40.314  32.815  30.230  1.00  0.00    -0.354 N 
ATOM     49  C   UNL A   1      38.562  28.668  29.325  1.00  0.00     0.074 A 
ATOM     50  C   UNL A   1      37.847  29.002  28.128  1.00  0.00     0.031 C 
ATOM     51  C   UNL A   1      40.176  35.027  29.956  1.00  0.00     0.029 A 
ATOM     52  C   UNL A   1      41.121  33.927  30.002  1.00  0.00     0.049 A 
ATOM     53  H   UNL A   1      40.664  31.942  30.519  1.00  0.00     0.167 HD
ATOM     54  C   UNL A   1      39.462  27.676  29.561  1.00  0.00     0.034 A 
ATOM     55  C   UNL A   1      42.451  33.912  29.735  1.00  0.00     0.034 A 
ATOM     56  C   UNL A   1      39.929  27.721  30.927  1.00  0.00     0.049 A 
ATOM     57  C   UNL A   1      42.972  32.585  30.146  1.00  0.00     0.074 A 
ATOM     58  C   UNL A   1      39.321  27.684  32.167  1.00  0.00     0.029 A 
ATOM     59  N   UNL A   1      41.194  28.215  31.140  1.00  0.00    -0.354 N 
ATOM     60  N   UNL A   1      43.017  32.174  31.382  1.00  0.00    -0.248 NA
ATOM     61  C   UNL A   1      43.034  31.539  29.137  1.00  0.00     0.031 C 
ATOM     62  C   UNL A   1      40.079  28.581  32.976  1.00  0.00     0.029 A 
ATOM     63  C   UNL A   1      41.137  29.068  32.207  1.00  0.00     0.049 A 
ATOM     64  H   UNL A   1      41.997  27.995  30.617  1.00  0.00     0.167 HD
ATOM     65  C   UNL A   1      42.650  30.835  31.315  1.00  0.00     0.074 A 
ATOM     66  C   UNL A   1      42.787  30.475  29.905  1.00  0.00     0.031 C 
ATOM     67  C   UNL A   1      41.983  30.234  32.345  1.00  0.00     0.034 A 
BRANCH  54  68
ATOM     68  C   UNL A   1      40.255  26.970  28.470  1.00  0.00     0.023 A 
ATOM     69  C   UNL A   1      40.346  25.563  28.575  1.00  0.00     0.012 A 
ATOM     70  C   UNL A   1      41.147  27.592  27.561  1.00  0.00     0.148 A 
ATOM     71  C   UNL A   1      41.347  24.837  27.922  1.00  0.00     0.002 A 
ATOM     72  C   UNL A   1      42.103  26.859  26.868  1.00  0.00     0.091 A 
ATOM     73  F   UNL A   1      41.170  28.916  27.421  1.00  0.00    -0.205 F 
ATOM     74  C   UNL A   1      42.235  25.488  27.076  1.00  0.00     0.022 A 
BRANCH  72  75
ATOM     75  S   UNL A   1      43.257  27.651  25.736  1.00  0.00     0.127 S 
ATOM     76  O   UNL A   1      42.350  28.159  24.709  1.00  0.00    -0.237 OA
ATOM     77  O   UNL A   1      43.860  28.672  26.593  1.00  0.00    -0.237 OA
ATOM     78  O   UNL A   1      44.181  26.607  25.311  1.00  0.00    -0.744 OA
ENDBRANCH  72  75
ENDBRANCH  54  68
BRANCH  55  79
ATOM     79  C   UNL A   1      43.233  34.830  28.871  1.00  0.00     0.023 A 
ATOM     80  C   UNL A   1      43.408  34.519  27.508  1.00  0.00     0.012 A 
ATOM     81  C   UNL A   1      43.594  36.125  29.308  1.00  0.00     0.148 A 
ATOM     82  C   UNL A   1      43.907  35.472  26.609  1.00  0.00     0.002 A 
ATOM     83  C   UNL A   1      44.111  37.060  28.417  1.00  0.00     0.091 A 
ATOM     84  F   UNL A   1      43.345  36.475  30.577  1.00  0.00    -0.205 F 
ATOM     85  C   UNL A   1      44.256  36.741  27.062  1.00  0.00     0.022 A 
BRANCH  83  86
ATOM     86  S   UNL A   1      44.586  38.715  28.938  1.00  0.00     0.127 S 
ATOM     87  O   UNL A   1      45.192  39.255  27.720  1.00  0.00    -0.237 OA
ATOM     88  O   UNL A   1      43.298  39.304  29.293  1.00  0.00    -0.237 OA
ATOM     89  O   UNL A   1      45.524  38.531  30.038  1.00  0.00    -0.744 OA
ENDBRANCH  83  86
ENDBRANCH  55  79
BRANCH  67  90
ATOM     90  C   UNL A   1      41.888  30.965  33.660  1.00  0.00     0.023 A 
ATOM     91  C   UNL A   1      42.930  30.947  34.610  1.00  0.00     0.012 A 
ATOM     92  C   UNL A   1      40.809  31.844  33.852  1.00  0.00     0.148 A 
ATOM     93  C   UNL A   1      42.886  31.773  35.737  1.00  0.00     0.002 A 
ATOM     94  C   UNL A   1      40.791  32.697  34.948  1.00  0.00     0.091 A 
ATOM     95  F   UNL A   1      39.827  31.852  32.937  1.00  0.00    -0.205 F 
ATOM     96  C   UNL A   1      41.823  32.659  35.898  1.00  0.00     0.022 A 
BRANCH  94  97
ATOM     97  S   UNL A   1      39.519  33.948  35.136  1.00  0.00     0.127 S 
ATOM     98  O   UNL A   1      38.300  33.143  35.171  1.00  0.00    -0.237 OA
ATOM     99  O   UNL A   1      39.876  34.572  36.412  1.00  0.00    -0.237 OA
ATOM    100  O   UNL A   1      39.654  34.833  33.986  1.00  0.00    -0.744 OA
ENDBRANCH  94  97
ENDBRANCH  67  90
ENDBRANCH  41  42
ENDBRANCH  34  36
ENDBRANCH  33  34
ENDBRANCH  32  33
ENDBRANCH   1  32
TORSDOF 19
ENDMDL
MODEL 2
REMARK VINA RESULT:     -12.7      3.651      7.697
REMARK SMILES Cc1c(-c2nn(-c3ccccc3)cc2/C=N/O)nnn1-c1ccc(C(=O)OCCOC(=O)c2ccc(-c3c4nc(c(-c5cccc(S(=O)(=O)[O-])c5F)c5ccc([nH]5)c(-c5cccc(S(=O)(=O)[O-])c5F)c5nc(c(-c6cccc(S(=O)(=O)[O-])c6F)c6ccc3[nH]6)C=C5)C=C4)cc2)cc1
REMARK SMILES IDX 28 1 27 2 25 3 26 4 24 5 21 6 22 7 97 8 23 9 96 10 20 11
REMARK SMILES IDX 1 12 2 13 3 14 18 15 19 16 4 17 5 18 14 19 6 20 13 21 15 22
REMARK SMILES IDX 16 23 17 24 7 26 8 27 12 28 9 29 11 30 10 31 29 32 30 33
REMARK SMILES IDX 31 34 32 35 33 36 34 37 95 38 35 39 94 40 36 41 37 42 38 43
REMARK SMILES IDX 88 44 39 45 93 46 87 47 89 48 40 49 92 50 86 51 85 52 41 54
REMARK SMILES IDX 73 55 53 56 72 57 54 58 57 59 71 60 90 61 55 62 56 63 70 65
REMARK SMILES IDX 91 66 58 67 42 68 43 69 51 70 44 71 46 72 52 73 45 74 47 75
REMARK SMILES IDX 48 76 49 77 50 78 74 79 75 80 83 81 76 82 78 83 84 84 77 85
REMARK SMILES IDX 79 86 80 87 81 88 82 89 59 90 60 91 68 92 61 93 63 94 69 95
REMARK SMILES IDX 62 96 64 97 65 98 66 99 67 100
REMARK H PARENT 17 25 89 53 57 64
REMARK Flexibility Score: inf
ROOT
ATOM      1  C   UNL A   1      32.503  31.651  27.015  1.00  0.00     0.275 C 
ENDROOT
BRANCH   1   2
ATOM      2  O   UNL A   1      31.722  30.471  26.748  1.00  0.00    -0.458 OA
BRANCH   2   3
ATOM      3  C   UNL A   1      31.256  30.353  25.477  1.00  0.00     0.338 C 
ATOM      4  O   UNL A   1      30.552  31.162  24.886  1.00  0.00    -0.246 OA
BRANCH   3   5
ATOM      5  C   UNL A   1      31.764  29.118  24.833  1.00  0.00     0.060 A 
ATOM      6  C   UNL A   1      32.680  26.649  23.915  1.00  0.00     0.067 A 
ATOM      7  C   UNL A   1      31.305  26.861  24.049  1.00  0.00     0.029 A 
ATOM      8  C   UNL A   1      33.582  27.705  24.107  1.00  0.00     0.029 A 
ATOM      9  C   UNL A   1      30.853  28.089  24.538  1.00  0.00     0.018 A 
ATOM     10  C   UNL A   1      33.122  28.944  24.555  1.00  0.00     0.018 A 
BRANCH   6  11
ATOM     11  N   UNL A   1      33.157  25.343  23.659  1.00  0.00    -0.217 N 
ATOM     12  C   UNL A   1      32.844  24.251  25.955  1.00  0.00     0.069 C 
ATOM     13  C   UNL A   1      33.330  24.301  24.556  1.00  0.00     0.071 A 
ATOM     14  C   UNL A   1      33.908  23.314  23.782  1.00  0.00     0.137 A 
ATOM     15  N   UNL A   1      33.958  23.702  22.478  1.00  0.00    -0.128 NA
ATOM     16  N   UNL A   1      33.417  24.913  22.399  1.00  0.00    -0.061 NA
BRANCH  14  17
ATOM     17  C   UNL A   1      34.367  21.999  24.219  1.00  0.00     0.124 A 
ATOM     18  N   UNL A   1      33.700  20.870  23.944  1.00  0.00    -0.165 NA
ATOM     19  C   UNL A   1      35.486  21.775  25.058  1.00  0.00     0.044 A 
ATOM     20  N   UNL A   1      34.318  19.928  24.687  1.00  0.00    -0.240 N 
ATOM     21  C   UNL A   1      35.386  20.438  25.387  1.00  0.00     0.125 A 
BRANCH  19  22
ATOM     22  C   UNL A   1      36.523  22.664  25.522  1.00  0.00     0.166 C 
ATOM     23  N   UNL A   1      37.288  23.261  24.672  1.00  0.00    -0.097 NA
BRANCH  23  24
ATOM     24  O   UNL A   1      38.243  24.022  25.356  1.00  0.00    -0.411 OA
ATOM     25  H   UNL A   1      38.956  24.410  24.888  1.00  0.00     0.330 HD
ENDBRANCH  23  24
ENDBRANCH  19  22
BRANCH  20  26
ATOM     26  C   UNL A   1      33.849  18.596  24.717  1.00  0.00     0.065 A 
ATOM     27  C   UNL A   1      34.400  17.655  23.839  1.00  0.00     0.028 A 
ATOM     28  C   UNL A   1      32.843  18.223  25.618  1.00  0.00     0.028 A 
ATOM     29  C   UNL A   1      33.970  16.329  23.895  1.00  0.00     0.002 A 
ATOM     30  C   UNL A   1      32.379  16.907  25.624  1.00  0.00     0.002 A 
ATOM     31  C   UNL A   1      32.953  15.958  24.776  1.00  0.00     0.000 A 
ENDBRANCH  20  26
ENDBRANCH  14  17
ENDBRANCH   6  11
ENDBRANCH   3   5
ENDBRANCH   2   3
ENDBRANCH   1   2
BRANCH   1  32
ATOM     32  C   UNL A   1      33.587  31.388  28.050  1.00  0.00     0.275 C 
BRANCH  32  33
ATOM     33  O   UNL A   1      34.838  31.107  27.430  1.00  0.00    -0.458 OA
BRANCH  33  34
ATOM     34  C   UNL A   1      35.852  31.902  27.835  1.00  0.00     0.338 C 
ATOM     35  O   UNL A   1      36.033  33.075  27.550  1.00  0.00    -0.246 OA
BRANCH  34  36
ATOM     36  C   UNL A   1      36.868  31.089  28.497  1.00  0.00     0.060 A 
ATOM     37  C   UNL A   1      37.797  31.764  29.297  1.00  0.00     0.016 A 
ATOM     38  C   UNL A   1      37.076  29.781  28.043  1.00  0.00     0.016 A 
ATOM     39  C   UNL A   1      39.030  31.186  29.492  1.00  0.00     0.010 A 
ATOM     40  C   UNL A   1      38.312  29.218  28.217  1.00  0.00     0.010 A 
ATOM     41  C   UNL A   1      39.292  29.961  28.875  1.00  0.00    -0.014 A 
BRANCH  41  42
ATOM     42  C   UNL A   1      40.612  29.390  29.018  1.00  0.00     0.031 A 
ATOM     43  C   UNL A   1      41.020  29.252  30.436  1.00  0.00     0.074 A 
ATOM     44  C   UNL A   1      41.261  28.888  27.951  1.00  0.00     0.049 A 
ATOM     45  N   UNL A   1      42.038  29.781  31.031  1.00  0.00    -0.248 NA
ATOM     46  C   UNL A   1      40.066  28.596  31.347  1.00  0.00     0.031 C 
ATOM     47  C   UNL A   1      40.737  28.726  26.590  1.00  0.00     0.029 A 
ATOM     48  N   UNL A   1      42.453  28.237  27.902  1.00  0.00    -0.354 N 
ATOM     49  C   UNL A   1      41.970  29.308  32.342  1.00  0.00     0.074 A 
ATOM     50  C   UNL A   1      40.634  28.823  32.528  1.00  0.00     0.031 C 
ATOM     51  C   UNL A   1      41.469  27.790  25.948  1.00  0.00     0.029 A 
ATOM     52  C   UNL A   1      42.562  27.380  26.811  1.00  0.00     0.049 A 
ATOM     53  H   UNL A   1      43.166  28.358  28.570  1.00  0.00     0.167 HD
ATOM     54  C   UNL A   1      43.103  29.052  33.050  1.00  0.00     0.034 A 
ATOM     55  C   UNL A   1      43.407  26.324  26.701  1.00  0.00     0.034 A 
ATOM     56  C   UNL A   1      44.227  29.768  32.495  1.00  0.00     0.049 A 
ATOM     57  C   UNL A   1      44.466  26.494  27.725  1.00  0.00     0.074 A 
ATOM     58  C   UNL A   1      44.502  31.095  32.226  1.00  0.00     0.029 A 
ATOM     59  N   UNL A   1      45.135  29.039  31.765  1.00  0.00    -0.354 N 
ATOM     60  N   UNL A   1      45.349  27.453  27.704  1.00  0.00    -0.248 NA
ATOM     61  C   UNL A   1      44.269  25.855  29.017  1.00  0.00     0.031 C 
ATOM     62  C   UNL A   1      45.245  31.079  31.009  1.00  0.00     0.029 A 
ATOM     63  C   UNL A   1      45.432  29.747  30.635  1.00  0.00     0.049 A 
ATOM     64  H   UNL A   1      45.505  28.161  32.013  1.00  0.00     0.167 HD
ATOM     65  C   UNL A   1      45.472  27.839  29.033  1.00  0.00     0.074 A 
ATOM     66  C   UNL A   1      44.876  26.748  29.802  1.00  0.00     0.031 C 
ATOM     67  C   UNL A   1      45.765  29.132  29.369  1.00  0.00     0.034 A 
BRANCH  54  68
ATOM     68  C   UNL A   1      43.295  27.829  33.935  1.00  0.00     0.023 A 
ATOM     69  C   UNL A   1      43.899  26.705  33.326  1.00  0.00     0.012 A 
ATOM     70  C   UNL A   1      42.663  27.604  35.183  1.00  0.00     0.148 A 
ATOM     71  C   UNL A   1      43.766  25.417  33.855  1.00  0.00     0.002 A 
ATOM     72  C   UNL A   1      42.584  26.332  35.737  1.00  0.00     0.091 A 
ATOM     73  F   UNL A   1      42.029  28.588  35.818  1.00  0.00    -0.205 F 
ATOM     74  C   UNL A   1      43.097  25.228  35.057  1.00  0.00     0.022 A 
BRANCH  72  75
ATOM     75  S   UNL A   1      41.756  26.038  37.309  1.00  0.00     0.127 S 
ATOM     76  O   UNL A   1      41.444  24.615  37.208  1.00  0.00    -0.237 OA
ATOM     77  O   UNL A   1      42.809  26.378  38.266  1.00  0.00    -0.237 OA
ATOM     78  O   UNL A   1      40.613  26.942  37.334  1.00  0.00    -0.744 OA
ENDBRANCH  72  75
ENDBRANCH  54  68
BRANCH  55  79
ATOM     79  C   UNL A   1      43.192  25.035  25.999  1.00  0.00     0.023 A 
ATOM     80  C   UNL A   1      44.052  24.665  24.947  1.00  0.00     0.012 A 
ATOM     81  C   UNL A   1      42.311  24.055  26.512  1.00  0.00     0.148 A 
ATOM     82  C   UNL A   1      44.049  23.360  24.437  1.00  0.00     0.002 A 
ATOM     83  C   UNL A   1      42.295  22.766  25.987  1.00  0.00     0.091 A 
ATOM     84  F   UNL A   1      41.554  24.354  27.576  1.00  0.00    -0.205 F 
ATOM     85  C   UNL A   1      43.174  22.410  24.957  1.00  0.00     0.022 A 
BRANCH  83  86
ATOM     86  S   UNL A   1      41.185  21.495  26.611  1.00  0.00     0.127 S 
ATOM     87  O   UNL A   1      41.839  20.269  26.152  1.00  0.00    -0.237 OA
ATOM     88  O   UNL A   1      41.246  21.718  28.053  1.00  0.00    -0.237 OA
ATOM     89  O   UNL A   1      39.895  21.752  25.983  1.00  0.00    -0.744 OA
ENDBRANCH  83  86
ENDBRANCH  55  79
BRANCH  67  90
ATOM     90  C   UNL A   1      46.216  30.069  28.278  1.00  0.00     0.023 A 
ATOM     91  C   UNL A   1      45.310  30.854  27.535  1.00  0.00     0.012 A 
ATOM     92  C   UNL A   1      47.593  30.304  28.135  1.00  0.00     0.148 A 
ATOM     93  C   UNL A   1      45.769  31.838  26.654  1.00  0.00     0.002 A 
ATOM     94  C   UNL A   1      48.045  31.314  27.295  1.00  0.00     0.091 A 
ATOM     95  F   UNL A   1      48.443  29.552  28.851  1.00  0.00    -0.205 F 
ATOM     96  C   UNL A   1      47.137  32.078  26.546  1.00  0.00     0.022 A 
BRANCH  94  97
ATOM     97  S   UNL A   1      49.782  31.756  27.216  1.00  0.00     0.127 S 
ATOM     98  O   UNL A   1      50.024  32.287  28.556  1.00  0.00    -0.237 OA
ATOM     99  O   UNL A   1      50.424  30.468  26.944  1.00  0.00    -0.237 OA
ATOM    100  O   UNL A   1      49.900  32.718  26.128  1.00  0.00    -0.744 OA
ENDBRANCH  94  97
ENDBRANCH  67  90
ENDBRANCH  41  42
ENDBRANCH  34  36
ENDBRANCH  33  34
ENDBRANCH  32  33
ENDBRANCH   1  32
TORSDOF 19
ENDMDL
MODEL 3
REMARK VINA RESULT:     -12.6      3.617      7.470
REMARK SMILES Cc1c(-c2nn(-c3ccccc3)cc2/C=N/O)nnn1-c1ccc(C(=O)OCCOC(=O)c2ccc(-c3c4nc(c(-c5cccc(S(=O)(=O)[O-])c5F)c5ccc([nH]5)c(-c5cccc(S(=O)(=O)[O-])c5F)c5nc(c(-c6cccc(S(=O)(=O)[O-])c6F)c6ccc3[nH]6)C=C5)C=C4)cc2)cc1
REMARK SMILES IDX 28 1 27 2 25 3 26 4 24 5 21 6 22 7 97 8 23 9 96 10 20 11
REMARK SMILES IDX 1 12 2 13 3 14 18 15 19 16 4 17 5 18 14 19 6 20 13 21 15 22
REMARK SMILES IDX 16 23 17 24 7 26 8 27 12 28 9 29 11 30 10 31 29 32 30 33
REMARK SMILES IDX 31 34 32 35 33 36 34 37 95 38 35 39 94 40 36 41 37 42 38 43
REMARK SMILES IDX 88 44 39 45 93 46 87 47 89 48 40 49 92 50 86 51 85 52 41 54
REMARK SMILES IDX 73 55 53 56 72 57 54 58 57 59 71 60 90 61 55 62 56 63 70 65
REMARK SMILES IDX 91 66 58 67 42 68 43 69 51 70 44 71 46 72 52 73 45 74 47 75
REMARK SMILES IDX 48 76 49 77 50 78 74 79 75 80 83 81 76 82 78 83 84 84 77 85
REMARK SMILES IDX 79 86 80 87 81 88 82 89 59 90 60 91 68 92 61 93 63 94 69 95
REMARK SMILES IDX 62 96 64 97 65 98 66 99 67 100
REMARK H PARENT 17 25 89 53 57 64
REMARK Flexibility Score: inf
ROOT
ATOM      1  C   UNL A   1      33.658  30.999  27.254  1.00  0.00     0.275 C 
ENDROOT
BRANCH   1   2
ATOM      2  O   UNL A   1      32.366  30.366  27.208  1.00  0.00    -0.458 OA
BRANCH   2   3
ATOM      3  C   UNL A   1      31.755  30.368  25.994  1.00  0.00     0.338 C 
ATOM      4  O   UNL A   1      31.123  31.295  25.504  1.00  0.00    -0.246 OA
BRANCH   3   5
ATOM      5  C   UNL A   1      32.002  29.098  25.269  1.00  0.00     0.060 A 
ATOM      6  C   UNL A   1      32.530  26.577  24.200  1.00  0.00     0.067 A 
ATOM      7  C   UNL A   1      31.291  26.819  24.800  1.00  0.00     0.029 A 
ATOM      8  C   UNL A   1      33.444  27.624  24.014  1.00  0.00     0.029 A 
ATOM      9  C   UNL A   1      31.044  28.074  25.362  1.00  0.00     0.018 A 
ATOM     10  C   UNL A   1      33.174  28.889  24.538  1.00  0.00     0.018 A 
BRANCH   6  11
ATOM     11  N   UNL A   1      32.884  25.254  23.852  1.00  0.00    -0.217 N 
ATOM     12  C   UNL A   1      33.318  24.241  26.164  1.00  0.00     0.069 C 
ATOM     13  C   UNL A   1      33.326  24.236  24.682  1.00  0.00     0.071 A 
ATOM     14  C   UNL A   1      33.611  23.213  23.800  1.00  0.00     0.137 A 
ATOM     15  N   UNL A   1      33.241  23.559  22.537  1.00  0.00    -0.128 NA
ATOM     16  N   UNL A   1      32.717  24.779  22.592  1.00  0.00    -0.061 NA
BRANCH  14  17
ATOM     17  C   UNL A   1      34.172  21.902  24.114  1.00  0.00     0.124 A 
ATOM     18  N   UNL A   1      33.478  20.765  23.973  1.00  0.00    -0.165 NA
ATOM     19  C   UNL A   1      35.447  21.690  24.692  1.00  0.00     0.044 A 
ATOM     20  N   UNL A   1      34.254  19.827  24.556  1.00  0.00    -0.240 N 
ATOM     21  C   UNL A   1      35.439  20.348  25.018  1.00  0.00     0.125 A 
BRANCH  19  22
ATOM     22  C   UNL A   1      36.546  22.592  24.935  1.00  0.00     0.166 C 
ATOM     23  N   UNL A   1      37.714  22.124  25.215  1.00  0.00    -0.097 NA
BRANCH  23  24
ATOM     24  O   UNL A   1      38.596  23.184  25.461  1.00  0.00    -0.411 OA
ATOM     25  H   UNL A   1      39.397  23.029  25.922  1.00  0.00     0.330 HD
ENDBRANCH  23  24
ENDBRANCH  19  22
BRANCH  20  26
ATOM     26  C   UNL A   1      33.821  18.487  24.669  1.00  0.00     0.065 A 
ATOM     27  C   UNL A   1      32.887  18.148  25.654  1.00  0.00     0.028 A 
ATOM     28  C   UNL A   1      34.323  17.510  23.800  1.00  0.00     0.028 A 
ATOM     29  C   UNL A   1      32.424  16.834  25.740  1.00  0.00     0.002 A 
ATOM     30  C   UNL A   1      33.898  16.187  23.933  1.00  0.00     0.002 A 
ATOM     31  C   UNL A   1      32.938  15.853  24.890  1.00  0.00     0.000 A 
ENDBRANCH  20  26
ENDBRANCH  14  17
ENDBRANCH   6  11
ENDBRANCH   3   5
ENDBRANCH   2   3
ENDBRANCH   1   2
BRANCH   1  32
ATOM     32  C   UNL A   1      34.753  30.017  27.646  1.00  0.00     0.275 C 
BRANCH  32  33
ATOM     33  O   UNL A   1      35.959  30.696  27.983  1.00  0.00    -0.458 OA
BRANCH  33  34
ATOM     34  C   UNL A   1      35.979  31.208  29.233  1.00  0.00     0.338 C 
ATOM     35  O   UNL A   1      35.305  32.130  29.667  1.00  0.00    -0.246 OA
BRANCH  34  36
ATOM     36  C   UNL A   1      37.114  30.654  29.965  1.00  0.00     0.060 A 
ATOM     37  C   UNL A   1      38.192  31.512  30.206  1.00  0.00     0.016 A 
ATOM     38  C   UNL A   1      37.219  29.262  30.076  1.00  0.00     0.016 A 
ATOM     39  C   UNL A   1      39.439  30.957  30.384  1.00  0.00     0.010 A 
ATOM     40  C   UNL A   1      38.464  28.711  30.228  1.00  0.00     0.010 A 
ATOM     41  C   UNL A   1      39.562  29.568  30.305  1.00  0.00    -0.014 A 
BRANCH  41  42
ATOM     42  C   UNL A   1      40.882  28.990  30.417  1.00  0.00     0.031 A 
ATOM     43  C   UNL A   1      41.345  28.896  31.822  1.00  0.00     0.074 A 
ATOM     44  C   UNL A   1      41.485  28.446  29.344  1.00  0.00     0.049 A 
ATOM     45  N   UNL A   1      42.388  29.436  32.359  1.00  0.00    -0.248 NA
ATOM     46  C   UNL A   1      40.422  28.280  32.791  1.00  0.00     0.031 C 
ATOM     47  C   UNL A   1      40.907  28.243  28.010  1.00  0.00     0.029 A 
ATOM     48  N   UNL A   1      42.670  27.783  29.272  1.00  0.00    -0.354 N 
ATOM     49  C   UNL A   1      42.368  29.009  33.687  1.00  0.00     0.074 A 
ATOM     50  C   UNL A   1      41.036  28.543  33.941  1.00  0.00     0.031 C 
ATOM     51  C   UNL A   1      41.607  27.279  27.372  1.00  0.00     0.029 A 
ATOM     52  C   UNL A   1      42.730  26.888  28.206  1.00  0.00     0.049 A 
ATOM     53  H   UNL A   1      43.409  27.920  29.906  1.00  0.00     0.167 HD
ATOM     54  C   UNL A   1      43.526  28.767  34.359  1.00  0.00     0.034 A 
ATOM     55  C   UNL A   1      43.561  25.822  28.100  1.00  0.00     0.034 A 
ATOM     56  C   UNL A   1      44.633  29.453  33.737  1.00  0.00     0.049 A 
ATOM     57  C   UNL A   1      44.660  26.016  29.076  1.00  0.00     0.074 A 
ATOM     58  C   UNL A   1      44.908  30.767  33.412  1.00  0.00     0.029 A 
ATOM     59  N   UNL A   1      45.506  28.691  32.998  1.00  0.00    -0.354 N 
ATOM     60  N   UNL A   1      45.549  26.966  28.988  1.00  0.00    -0.248 NA
ATOM     61  C   UNL A   1      44.509  25.423  30.396  1.00  0.00     0.031 C 
ATOM     62  C   UNL A   1      45.602  30.703  32.169  1.00  0.00     0.029 A 
ATOM     63  C   UNL A   1      45.765  29.358  31.833  1.00  0.00     0.049 A 
ATOM     64  H   UNL A   1      45.878  27.819  33.261  1.00  0.00     0.167 HD
ATOM     65  C   UNL A   1      45.727  27.396  30.298  1.00  0.00     0.074 A 
ATOM     66  C   UNL A   1      45.153  26.337  31.126  1.00  0.00     0.031 C 
ATOM     67  C   UNL A   1      46.043  28.697  30.577  1.00  0.00     0.034 A 
BRANCH  54  68
ATOM     68  C   UNL A   1      43.742  27.573  35.278  1.00  0.00     0.023 A 
ATOM     69  C   UNL A   1      44.306  27.852  36.544  1.00  0.00     0.012 A 
ATOM     70  C   UNL A   1      43.725  26.212  34.883  1.00  0.00     0.148 A 
ATOM     71  C   UNL A   1      44.934  26.863  37.307  1.00  0.00     0.002 A 
ATOM     72  C   UNL A   1      44.298  25.221  35.672  1.00  0.00     0.091 A 
ATOM     73  F   UNL A   1      43.255  25.849  33.691  1.00  0.00    -0.205 F 
ATOM     74  C   UNL A   1      44.941  25.547  36.865  1.00  0.00     0.022 A 
BRANCH  72  75
ATOM     75  S   UNL A   1      44.305  23.496  35.159  1.00  0.00     0.127 S 
ATOM     76  O   UNL A   1      45.147  23.554  33.966  1.00  0.00    -0.237 OA
ATOM     77  O   UNL A   1      44.914  22.844  36.319  1.00  0.00    -0.237 OA
ATOM     78  O   UNL A   1      42.910  23.138  34.939  1.00  0.00    -0.744 OA
ENDBRANCH  72  75
ENDBRANCH  54  68
BRANCH  55  79
ATOM     79  C   UNL A   1      43.309  24.511  27.452  1.00  0.00     0.023 A 
ATOM     80  C   UNL A   1      42.022  23.941  27.515  1.00  0.00     0.012 A 
ATOM     81  C   UNL A   1      44.247  23.936  26.564  1.00  0.00     0.148 A 
ATOM     82  C   UNL A   1      41.676  22.850  26.707  1.00  0.00     0.002 A 
ATOM     83  C   UNL A   1      43.906  22.837  25.781  1.00  0.00     0.091 A 
ATOM     84  F   UNL A   1      45.443  24.520  26.414  1.00  0.00    -0.205 F 
ATOM     85  C   UNL A   1      42.615  22.300  25.839  1.00  0.00     0.022 A 
BRANCH  83  86
ATOM     86  S   UNL A   1      45.073  22.077  24.643  1.00  0.00     0.127 S 
ATOM     87  O   UNL A   1      44.358  20.866  24.238  1.00  0.00    -0.237 OA
ATOM     88  O   UNL A   1      45.192  23.094  23.602  1.00  0.00    -0.237 OA
ATOM     89  O   UNL A   1      46.279  21.823  25.422  1.00  0.00    -0.744 OA
ENDBRANCH  83  86
ENDBRANCH  55  79
BRANCH  67  90
ATOM     90  C   UNL A   1      46.459  29.592  29.438  1.00  0.00     0.023 A 
ATOM     91  C   UNL A   1      47.772  29.596  28.922  1.00  0.00     0.012 A 
ATOM     92  C   UNL A   1      45.457  30.297  28.751  1.00  0.00     0.148 A 
ATOM     93  C   UNL A   1      48.082  30.305  27.758  1.00  0.00     0.002 A 
ATOM     94  C   UNL A   1      45.758  30.961  27.569  1.00  0.00     0.091 A 
ATOM     95  F   UNL A   1      44.212  30.280  29.252  1.00  0.00    -0.205 F 
ATOM     96  C   UNL A   1      47.070  30.975  27.073  1.00  0.00     0.022 A 
BRANCH  94  97
ATOM     97  S   UNL A   1      44.475  31.728  26.576  1.00  0.00     0.127 S 
ATOM     98  O   UNL A   1      45.234  32.238  25.437  1.00  0.00    -0.237 OA
ATOM     99  O   UNL A   1      43.596  30.598  26.268  1.00  0.00    -0.237 OA
ATOM    100  O   UNL A   1      43.863  32.740  27.427  1.00  0.00    -0.744 OA
ENDBRANCH  94  97
ENDBRANCH  67  90
ENDBRANCH  41  42
ENDBRANCH  34  36
ENDBRANCH  33  34
ENDBRANCH  32  33
ENDBRANCH   1  32
TORSDOF 19
ENDMDL
