MODEL 1
REMARK VINA RESULT:     -12.6      0.000      0.000
REMARK SMILES CS(=O)(=O)c1ccc(-c2cc(Cl)cnc2-c2ccc(C(=O)OCCOC(=O)c3ccc(-c4c5nc(c(-c6cccc(S(=O)(=O)[O-])c6F)c6ccc([nH]6)c(-c6cccc(S(=O)(=O)[O-])c6F)c6nc(c(-c7cccc(S(=O)(=O)[O-])c7F)c7ccc4[nH]7)C=C6)C=C5)cc3)nc2)cc1
REMARK SMILES IDX 23 1 22 2 20 3 21 4 19 5 16 6 17 7 92 8 18 9 91 10 15 11
REMARK SMILES IDX 9 12 10 13 11 14 14 15 12 16 13 17 8 18 5 19 6 20 94 21 7 22
REMARK SMILES IDX 93 23 2 24 1 25 3 26 4 27 24 28 25 29 26 30 27 31 28 32
REMARK SMILES IDX 29 33 90 34 30 35 89 36 31 37 32 38 33 39 83 40 34 41 88 42
REMARK SMILES IDX 82 43 84 44 35 45 87 46 81 47 80 48 36 50 68 51 48 52 67 53
REMARK SMILES IDX 49 54 52 55 66 56 85 57 50 58 51 59 65 61 86 62 53 63 37 64
REMARK SMILES IDX 38 65 46 66 39 67 41 68 47 69 40 70 42 71 43 72 44 73 45 74
REMARK SMILES IDX 69 75 70 76 78 77 71 78 73 79 79 80 72 81 74 82 75 83 76 84
REMARK SMILES IDX 77 85 54 86 55 87 63 88 56 89 58 90 64 91 57 92 59 93 60 94
REMARK SMILES IDX 61 95 62 96
REMARK H PARENT 84 49 52 60
REMARK Flexibility Score: inf
ROOT
ATOM      1  C   UNL A   1      31.629  31.662  26.414  1.00  0.00     0.275 C 
ENDROOT
BRANCH   1   2
ATOM      2  O   UNL A   1      32.002  30.521  27.212  1.00  0.00    -0.457 OA
BRANCH   2   3
ATOM      3  C   UNL A   1      33.153  29.909  26.823  1.00  0.00     0.357 C 
ATOM      4  O   UNL A   1      34.248  30.434  26.755  1.00  0.00    -0.244 OA
BRANCH   3   5
ATOM      5  C   UNL A   1      32.920  28.460  26.535  1.00  0.00     0.148 A 
ATOM      6  C   UNL A   1      32.575  25.856  25.702  1.00  0.00     0.019 A 
ATOM      7  C   UNL A   1      31.621  26.455  26.538  1.00  0.00     0.014 A 
ATOM      8  C   UNL A   1      33.703  26.603  25.395  1.00  0.00     0.122 A 
ATOM      9  C   UNL A   1      31.800  27.771  26.978  1.00  0.00     0.037 A 
ATOM     10  N   UNL A   1      33.862  27.894  25.740  1.00  0.00    -0.249 NA
BRANCH   6  11
ATOM     11  C   UNL A   1      32.348  24.597  24.993  1.00  0.00     0.080 A 
ATOM     12  C   UNL A   1      31.458  24.529  23.896  1.00  0.00     0.010 A 
ATOM     13  C   UNL A   1      31.368  23.309  23.214  1.00  0.00     0.033 A 
ATOM     14  C   UNL A   1      32.156  22.234  23.616  1.00  0.00     0.060 A 
ATOM     15  N   UNL A   1      33.115  23.555  25.400  1.00  0.00    -0.254 NA
ATOM     16  Cl  UNL A   1      32.070  20.735  22.786  1.00  0.00    -0.083 Cl
ATOM     17  C   UNL A   1      33.007  22.402  24.697  1.00  0.00     0.132 A 
BRANCH  12  18
ATOM     18  C   UNL A   1      30.656  25.691  23.475  1.00  0.00    -0.016 A 
ATOM     19  C   UNL A   1      29.239  28.052  22.937  1.00  0.00     0.067 A 
ATOM     20  C   UNL A   1      30.507  27.873  22.387  1.00  0.00     0.021 A 
ATOM     21  C   UNL A   1      28.645  27.046  23.702  1.00  0.00     0.021 A 
ATOM     22  C   UNL A   1      31.202  26.690  22.647  1.00  0.00     0.010 A 
ATOM     23  C   UNL A   1      29.355  25.874  23.973  1.00  0.00     0.010 A 
BRANCH  19  24
ATOM     24  S   UNL A   1      28.357  29.566  22.644  1.00  0.00     0.175 S 
ATOM     25  C   UNL A   1      29.245  30.752  23.621  1.00  0.00     0.163 C 
ATOM     26  O   UNL A   1      27.033  29.414  23.221  1.00  0.00    -0.224 OA
ATOM     27  O   UNL A   1      28.517  29.912  21.246  1.00  0.00    -0.224 OA
ENDBRANCH  19  24
ENDBRANCH  12  18
ENDBRANCH   6  11
ENDBRANCH   3   5
ENDBRANCH   2   3
ENDBRANCH   1   2
BRANCH   1  28
ATOM     28  C   UNL A   1      31.631  32.949  27.246  1.00  0.00     0.275 C 
BRANCH  28  29
ATOM     29  O   UNL A   1      32.869  33.674  27.128  1.00  0.00    -0.458 OA
BRANCH  29  30
ATOM     30  C   UNL A   1      33.377  34.135  28.296  1.00  0.00     0.338 C 
ATOM     31  O   UNL A   1      32.910  35.018  28.998  1.00  0.00    -0.246 OA
BRANCH  30  32
ATOM     32  C   UNL A   1      34.559  33.349  28.685  1.00  0.00     0.060 A 
ATOM     33  C   UNL A   1      34.356  32.228  29.483  1.00  0.00     0.016 A 
ATOM     34  C   UNL A   1      35.854  33.775  28.397  1.00  0.00     0.016 A 
ATOM     35  C   UNL A   1      35.431  31.558  30.056  1.00  0.00     0.010 A 
ATOM     36  C   UNL A   1      36.943  33.069  28.930  1.00  0.00     0.010 A 
ATOM     37  C   UNL A   1      36.740  31.972  29.789  1.00  0.00    -0.014 A 
BRANCH  37  38
ATOM     38  C   UNL A   1      37.877  31.275  30.446  1.00  0.00     0.031 A 
ATOM     39  C   UNL A   1      38.234  31.589  31.873  1.00  0.00     0.074 A 
ATOM     40  C   UNL A   1      38.575  30.340  29.770  1.00  0.00     0.049 A 
ATOM     41  N   UNL A   1      39.240  31.153  32.588  1.00  0.00    -0.248 NA
ATOM     42  C   UNL A   1      37.347  32.519  32.592  1.00  0.00     0.031 C 
ATOM     43  C   UNL A   1      38.315  29.924  28.391  1.00  0.00     0.029 A 
ATOM     44  N   UNL A   1      39.652  29.576  30.150  1.00  0.00    -0.354 N 
ATOM     45  C   UNL A   1      39.141  31.796  33.817  1.00  0.00     0.074 A 
ATOM     46  C   UNL A   1      37.975  32.651  33.753  1.00  0.00     0.031 C 
ATOM     47  C   UNL A   1      39.202  28.979  28.042  1.00  0.00     0.029 A 
ATOM     48  C   UNL A   1      40.125  28.759  29.149  1.00  0.00     0.049 A 
ATOM     49  H   UNL A   1      40.047  29.611  31.051  1.00  0.00     0.167 HD
ATOM     50  C   UNL A   1      39.939  31.675  34.905  1.00  0.00     0.034 A 
ATOM     51  C   UNL A   1      41.198  27.944  29.116  1.00  0.00     0.034 A 
ATOM     52  C   UNL A   1      41.062  30.779  34.989  1.00  0.00     0.049 A 
ATOM     53  C   UNL A   1      42.067  27.828  30.339  1.00  0.00     0.074 A 
ATOM     54  C   UNL A   1      41.913  30.566  36.059  1.00  0.00     0.029 A 
ATOM     55  N   UNL A   1      41.483  29.939  33.970  1.00  0.00    -0.354 N 
ATOM     56  N   UNL A   1      41.922  28.399  31.511  1.00  0.00    -0.248 NA
ATOM     57  C   UNL A   1      43.237  26.943  30.242  1.00  0.00     0.031 C 
ATOM     58  C   UNL A   1      42.854  29.600  35.683  1.00  0.00     0.029 A 
ATOM     59  C   UNL A   1      42.580  29.204  34.384  1.00  0.00     0.049 A 
ATOM     60  H   UNL A   1      41.063  29.875  33.082  1.00  0.00     0.167 HD
ATOM     61  C   UNL A   1      42.964  27.922  32.298  1.00  0.00     0.074 A 
ATOM     62  C   UNL A   1      43.718  26.996  31.477  1.00  0.00     0.031 C 
ATOM     63  C   UNL A   1      43.282  28.239  33.577  1.00  0.00     0.034 A 
BRANCH  50  64
ATOM     64  C   UNL A   1      39.608  32.512  36.113  1.00  0.00     0.023 A 
ATOM     65  C   UNL A   1      40.207  33.779  36.266  1.00  0.00     0.012 A 
ATOM     66  C   UNL A   1      38.666  32.072  37.064  1.00  0.00     0.148 A 
ATOM     67  C   UNL A   1      39.894  34.583  37.361  1.00  0.00     0.002 A 
ATOM     68  C   UNL A   1      38.332  32.895  38.133  1.00  0.00     0.091 A 
ATOM     69  F   UNL A   1      38.126  30.854  36.913  1.00  0.00    -0.205 F 
ATOM     70  C   UNL A   1      38.950  34.146  38.288  1.00  0.00     0.022 A 
BRANCH  68  71
ATOM     71  S   UNL A   1      37.077  32.447  39.339  1.00  0.00     0.127 S 
ATOM     72  O   UNL A   1      37.309  33.437  40.389  1.00  0.00    -0.237 OA
ATOM     73  O   UNL A   1      35.838  32.639  38.585  1.00  0.00    -0.237 OA
ATOM     74  O   UNL A   1      37.352  31.065  39.706  1.00  0.00    -0.744 OA
ENDBRANCH  68  71
ENDBRANCH  50  64
BRANCH  51  75
ATOM     75  C   UNL A   1      41.491  27.149  27.891  1.00  0.00     0.023 A 
ATOM     76  C   UNL A   1      42.080  27.782  26.780  1.00  0.00     0.012 A 
ATOM     77  C   UNL A   1      41.223  25.767  27.829  1.00  0.00     0.148 A 
ATOM     78  C   UNL A   1      42.376  27.060  25.622  1.00  0.00     0.002 A 
ATOM     79  C   UNL A   1      41.571  25.043  26.695  1.00  0.00     0.091 A 
ATOM     80  F   UNL A   1      40.636  25.185  28.885  1.00  0.00    -0.205 F 
ATOM     81  C   UNL A   1      42.135  25.690  25.584  1.00  0.00     0.022 A 
BRANCH  79  82
ATOM     82  S   UNL A   1      41.414  23.254  26.621  1.00  0.00     0.127 S 
ATOM     83  O   UNL A   1      42.012  22.848  27.890  1.00  0.00    -0.237 OA
ATOM     84  O   UNL A   1      39.963  23.075  26.539  1.00  0.00    -0.237 OA
ATOM     85  O   UNL A   1      42.131  22.853  25.418  1.00  0.00    -0.744 OA
ENDBRANCH  79  82
ENDBRANCH  51  75
BRANCH  63  86
ATOM     86  C   UNL A   1      44.481  27.563  34.185  1.00  0.00     0.023 A 
ATOM     87  C   UNL A   1      45.756  28.143  34.037  1.00  0.00     0.012 A 
ATOM     88  C   UNL A   1      44.335  26.396  34.961  1.00  0.00     0.148 A 
ATOM     89  C   UNL A   1      46.873  27.558  34.631  1.00  0.00     0.002 A 
ATOM     90  C   UNL A   1      45.448  25.843  35.586  1.00  0.00     0.091 A 
ATOM     91  F   UNL A   1      43.118  25.847  35.071  1.00  0.00    -0.205 F 
ATOM     92  C   UNL A   1      46.718  26.417  35.414  1.00  0.00     0.022 A 
BRANCH  90  93
ATOM     93  S   UNL A   1      45.322  24.425  36.683  1.00  0.00     0.127 S 
ATOM     94  O   UNL A   1      44.948  23.360  35.754  1.00  0.00    -0.237 OA
ATOM     95  O   UNL A   1      46.680  24.320  37.217  1.00  0.00    -0.237 OA
ATOM     96  O   UNL A   1      44.313  24.779  37.674  1.00  0.00    -0.744 OA
ENDBRANCH  90  93
ENDBRANCH  63  86
ENDBRANCH  37  38
ENDBRANCH  30  32
ENDBRANCH  29  30
ENDBRANCH  28  29
ENDBRANCH   1  28
TORSDOF 17
ENDMDL
MODEL 2
REMARK VINA RESULT:     -12.3      1.518      7.550
REMARK SMILES CS(=O)(=O)c1ccc(-c2cc(Cl)cnc2-c2ccc(C(=O)OCCOC(=O)c3ccc(-c4c5nc(c(-c6cccc(S(=O)(=O)[O-])c6F)c6ccc([nH]6)c(-c6cccc(S(=O)(=O)[O-])c6F)c6nc(c(-c7cccc(S(=O)(=O)[O-])c7F)c7ccc4[nH]7)C=C6)C=C5)cc3)nc2)cc1
REMARK SMILES IDX 23 1 22 2 20 3 21 4 19 5 16 6 17 7 92 8 18 9 91 10 15 11
REMARK SMILES IDX 9 12 10 13 11 14 14 15 12 16 13 17 8 18 5 19 6 20 94 21 7 22
REMARK SMILES IDX 93 23 2 24 1 25 3 26 4 27 24 28 25 29 26 30 27 31 28 32
REMARK SMILES IDX 29 33 90 34 30 35 89 36 31 37 32 38 33 39 83 40 34 41 88 42
REMARK SMILES IDX 82 43 84 44 35 45 87 46 81 47 80 48 36 50 68 51 48 52 67 53
REMARK SMILES IDX 49 54 52 55 66 56 85 57 50 58 51 59 65 61 86 62 53 63 37 64
REMARK SMILES IDX 38 65 46 66 39 67 41 68 47 69 40 70 42 71 43 72 44 73 45 74
REMARK SMILES IDX 69 75 70 76 78 77 71 78 73 79 79 80 72 81 74 82 75 83 76 84
REMARK SMILES IDX 77 85 54 86 55 87 63 88 56 89 58 90 64 91 57 92 59 93 60 94
REMARK SMILES IDX 61 95 62 96
REMARK H PARENT 84 49 52 60
REMARK Flexibility Score: inf
ROOT
ATOM      1  C   UNL A   1      31.536  32.018  27.105  1.00  0.00     0.275 C 
ENDROOT
BRANCH   1   2
ATOM      2  O   UNL A   1      32.232  31.066  26.275  1.00  0.00    -0.457 OA
BRANCH   2   3
ATOM      3  C   UNL A   1      33.122  30.279  26.936  1.00  0.00     0.357 C 
ATOM      4  O   UNL A   1      34.000  30.673  27.680  1.00  0.00    -0.244 OA
BRANCH   3   5
ATOM      5  C   UNL A   1      32.853  28.830  26.681  1.00  0.00     0.148 A 
ATOM      6  C   UNL A   1      32.488  26.207  25.922  1.00  0.00     0.019 A 
ATOM      7  C   UNL A   1      31.460  26.893  26.587  1.00  0.00     0.014 A 
ATOM      8  C   UNL A   1      33.686  26.883  25.745  1.00  0.00     0.122 A 
ATOM      9  C   UNL A   1      31.647  28.219  26.991  1.00  0.00     0.037 A 
ATOM     10  N   UNL A   1      33.865  28.181  26.053  1.00  0.00    -0.249 NA
BRANCH   6  11
ATOM     11  C   UNL A   1      32.294  24.926  25.244  1.00  0.00     0.080 A 
ATOM     12  C   UNL A   1      31.432  24.816  24.127  1.00  0.00     0.010 A 
ATOM     13  C   UNL A   1      31.373  23.576  23.478  1.00  0.00     0.033 A 
ATOM     14  C   UNL A   1      32.164  22.524  23.929  1.00  0.00     0.060 A 
ATOM     15  N   UNL A   1      33.062  23.906  25.698  1.00  0.00    -0.254 NA
ATOM     16  Cl  UNL A   1      32.116  21.001  23.139  1.00  0.00    -0.083 Cl
ATOM     17  C   UNL A   1      32.986  22.732  25.026  1.00  0.00     0.132 A 
BRANCH  12  18
ATOM     18  C   UNL A   1      30.626  25.956  23.654  1.00  0.00    -0.016 A 
ATOM     19  C   UNL A   1      29.142  28.257  23.044  1.00  0.00     0.067 A 
ATOM     20  C   UNL A   1      30.497  28.212  22.726  1.00  0.00     0.021 A 
ATOM     21  C   UNL A   1      28.504  27.150  23.608  1.00  0.00     0.021 A 
ATOM     22  C   UNL A   1      31.228  27.058  23.019  1.00  0.00     0.010 A 
ATOM     23  C   UNL A   1      29.247  26.008  23.916  1.00  0.00     0.010 A 
BRANCH  19  24
ATOM     24  S   UNL A   1      28.207  29.730  22.708  1.00  0.00     0.175 S 
ATOM     25  C   UNL A   1      29.142  31.001  23.520  1.00  0.00     0.163 C 
ATOM     26  O   UNL A   1      26.936  29.601  23.398  1.00  0.00    -0.224 OA
ATOM     27  O   UNL A   1      28.250  29.970  21.280  1.00  0.00    -0.224 OA
ENDBRANCH  19  24
ENDBRANCH  12  18
ENDBRANCH   6  11
ENDBRANCH   3   5
ENDBRANCH   2   3
ENDBRANCH   1   2
BRANCH   1  28
ATOM     28  C   UNL A   1      32.282  33.355  27.165  1.00  0.00     0.275 C 
BRANCH  28  29
ATOM     29  O   UNL A   1      32.254  33.938  28.481  1.00  0.00    -0.458 OA
BRANCH  29  30
ATOM     30  C   UNL A   1      33.256  34.811  28.742  1.00  0.00     0.338 C 
ATOM     31  O   UNL A   1      33.195  36.030  28.699  1.00  0.00    -0.246 OA
BRANCH  30  32
ATOM     32  C   UNL A   1      34.458  34.090  29.193  1.00  0.00     0.060 A 
ATOM     33  C   UNL A   1      34.290  33.069  30.122  1.00  0.00     0.016 A 
ATOM     34  C   UNL A   1      35.740  34.493  28.823  1.00  0.00     0.016 A 
ATOM     35  C   UNL A   1      35.387  32.483  30.743  1.00  0.00     0.010 A 
ATOM     36  C   UNL A   1      36.851  33.867  29.409  1.00  0.00     0.010 A 
ATOM     37  C   UNL A   1      36.683  32.878  30.397  1.00  0.00    -0.014 A 
BRANCH  37  38
ATOM     38  C   UNL A   1      37.845  32.276  31.104  1.00  0.00     0.031 A 
ATOM     39  C   UNL A   1      38.589  31.122  30.490  1.00  0.00     0.074 A 
ATOM     40  C   UNL A   1      38.249  32.782  32.286  1.00  0.00     0.049 A 
ATOM     41  N   UNL A   1      39.568  30.410  30.990  1.00  0.00    -0.248 NA
ATOM     42  C   UNL A   1      38.179  30.708  29.138  1.00  0.00     0.031 C 
ATOM     43  C   UNL A   1      37.630  33.915  32.977  1.00  0.00     0.029 A 
ATOM     44  N   UNL A   1      39.273  32.404  33.121  1.00  0.00    -0.354 N 
ATOM     45  C   UNL A   1      39.851  29.433  30.042  1.00  0.00     0.074 A 
ATOM     46  C   UNL A   1      38.943  29.643  28.935  1.00  0.00     0.031 C 
ATOM     47  C   UNL A   1      38.288  34.144  34.124  1.00  0.00     0.029 A 
ATOM     48  C   UNL A   1      39.339  33.144  34.279  1.00  0.00     0.049 A 
ATOM     49  H   UNL A   1      39.898  31.673  32.911  1.00  0.00     0.167 HD
ATOM     50  C   UNL A   1      40.790  28.458  30.083  1.00  0.00     0.034 A 
ATOM     51  C   UNL A   1      40.136  33.015  35.358  1.00  0.00     0.034 A 
ATOM     52  C   UNL A   1      41.733  28.287  31.157  1.00  0.00     0.049 A 
ATOM     53  C   UNL A   1      41.172  31.924  35.377  1.00  0.00     0.074 A 
ATOM     54  C   UNL A   1      42.741  27.347  31.275  1.00  0.00     0.029 A 
ATOM     55  N   UNL A   1      41.794  29.082  32.291  1.00  0.00    -0.354 N 
ATOM     56  N   UNL A   1      41.464  31.048  34.445  1.00  0.00    -0.248 NA
ATOM     57  C   UNL A   1      42.000  31.815  36.586  1.00  0.00     0.031 C 
ATOM     58  C   UNL A   1      43.407  27.569  32.486  1.00  0.00     0.029 A 
ATOM     59  C   UNL A   1      42.821  28.655  33.115  1.00  0.00     0.049 A 
ATOM     60  H   UNL A   1      41.194  29.839  32.483  1.00  0.00     0.167 HD
ATOM     61  C   UNL A   1      42.525  30.302  34.944  1.00  0.00     0.074 A 
ATOM     62  C   UNL A   1      42.841  30.845  36.249  1.00  0.00     0.031 C 
ATOM     63  C   UNL A   1      43.165  29.247  34.383  1.00  0.00     0.034 A 
BRANCH  50  64
ATOM     64  C   UNL A   1      40.870  27.513  28.914  1.00  0.00     0.023 A 
ATOM     65  C   UNL A   1      39.954  26.446  28.818  1.00  0.00     0.012 A 
ATOM     66  C   UNL A   1      41.811  27.711  27.884  1.00  0.00     0.148 A 
ATOM     67  C   UNL A   1      39.990  25.575  27.730  1.00  0.00     0.002 A 
ATOM     68  C   UNL A   1      41.817  26.861  26.784  1.00  0.00     0.091 A 
ATOM     69  F   UNL A   1      42.690  28.717  28.005  1.00  0.00    -0.205 F 
ATOM     70  C   UNL A   1      40.914  25.788  26.709  1.00  0.00     0.022 A 
BRANCH  68  71
ATOM     71  S   UNL A   1      42.924  27.098  25.388  1.00  0.00     0.127 S 
ATOM     72  O   UNL A   1      42.806  25.816  24.696  1.00  0.00    -0.237 OA
ATOM     73  O   UNL A   1      42.307  28.226  24.689  1.00  0.00    -0.237 OA
ATOM     74  O   UNL A   1      44.232  27.386  25.961  1.00  0.00    -0.744 OA
ENDBRANCH  68  71
ENDBRANCH  50  64
BRANCH  51  75
ATOM     75  C   UNL A   1      40.007  33.968  36.496  1.00  0.00     0.023 A 
ATOM     76  C   UNL A   1      40.403  35.308  36.325  1.00  0.00     0.012 A 
ATOM     77  C   UNL A   1      39.466  33.567  37.733  1.00  0.00     0.148 A 
ATOM     78  C   UNL A   1      40.283  36.226  37.370  1.00  0.00     0.002 A 
ATOM     79  C   UNL A   1      39.297  34.498  38.752  1.00  0.00     0.091 A 
ATOM     80  F   UNL A   1      39.120  32.280  37.889  1.00  0.00    -0.205 F 
ATOM     81  C   UNL A   1      39.719  35.825  38.578  1.00  0.00     0.022 A 
BRANCH  79  82
ATOM     82  S   UNL A   1      38.457  34.088  40.286  1.00  0.00     0.127 S 
ATOM     83  O   UNL A   1      39.432  33.222  40.941  1.00  0.00    -0.237 OA
ATOM     84  O   UNL A   1      38.288  35.404  40.906  1.00  0.00    -0.237 OA
ATOM     85  O   UNL A   1      37.207  33.456  39.885  1.00  0.00    -0.744 OA
ENDBRANCH  79  82
ENDBRANCH  51  75
BRANCH  63  86
ATOM     86  C   UNL A   1      44.292  28.622  35.160  1.00  0.00     0.023 A 
ATOM     87  C   UNL A   1      45.606  29.101  34.985  1.00  0.00     0.012 A 
ATOM     88  C   UNL A   1      44.042  27.616  36.113  1.00  0.00     0.148 A 
ATOM     89  C   UNL A   1      46.658  28.569  35.729  1.00  0.00     0.002 A 
ATOM     90  C   UNL A   1      45.090  27.121  36.881  1.00  0.00     0.091 A 
ATOM     91  F   UNL A   1      42.789  27.159  36.248  1.00  0.00    -0.205 F 
ATOM     92  C   UNL A   1      46.399  27.589  36.683  1.00  0.00     0.022 A 
BRANCH  90  93
ATOM     93  S   UNL A   1      44.829  25.921  38.194  1.00  0.00     0.127 S 
ATOM     94  O   UNL A   1      46.180  25.767  38.730  1.00  0.00    -0.237 OA
ATOM     95  O   UNL A   1      43.898  26.621  39.079  1.00  0.00    -0.237 OA
ATOM     96  O   UNL A   1      44.270  24.741  37.547  1.00  0.00    -0.744 OA
ENDBRANCH  90  93
ENDBRANCH  63  86
ENDBRANCH  37  38
ENDBRANCH  30  32
ENDBRANCH  29  30
ENDBRANCH  28  29
ENDBRANCH   1  28
TORSDOF 17
ENDMDL
MODEL 3
REMARK VINA RESULT:     -11.9      1.776      2.274
REMARK SMILES CS(=O)(=O)c1ccc(-c2cc(Cl)cnc2-c2ccc(C(=O)OCCOC(=O)c3ccc(-c4c5nc(c(-c6cccc(S(=O)(=O)[O-])c6F)c6ccc([nH]6)c(-c6cccc(S(=O)(=O)[O-])c6F)c6nc(c(-c7cccc(S(=O)(=O)[O-])c7F)c7ccc4[nH]7)C=C6)C=C5)cc3)nc2)cc1
REMARK SMILES IDX 23 1 22 2 20 3 21 4 19 5 16 6 17 7 92 8 18 9 91 10 15 11
REMARK SMILES IDX 9 12 10 13 11 14 14 15 12 16 13 17 8 18 5 19 6 20 94 21 7 22
REMARK SMILES IDX 93 23 2 24 1 25 3 26 4 27 24 28 25 29 26 30 27 31 28 32
REMARK SMILES IDX 29 33 90 34 30 35 89 36 31 37 32 38 33 39 83 40 34 41 88 42
REMARK SMILES IDX 82 43 84 44 35 45 87 46 81 47 80 48 36 50 68 51 48 52 67 53
REMARK SMILES IDX 49 54 52 55 66 56 85 57 50 58 51 59 65 61 86 62 53 63 37 64
REMARK SMILES IDX 38 65 46 66 39 67 41 68 47 69 40 70 42 71 43 72 44 73 45 74
REMARK SMILES IDX 69 75 70 76 78 77 71 78 73 79 79 80 72 81 74 82 75 83 76 84
REMARK SMILES IDX 77 85 54 86 55 87 63 88 56 89 58 90 64 91 57 92 59 93 60 94
REMARK SMILES IDX 61 95 62 96
REMARK H PARENT 84 49 52 60
REMARK Flexibility Score: inf
ROOT
ATOM      1  C   UNL A   1      33.207  31.801  27.781  1.00  0.00     0.275 C 
ENDROOT
BRANCH   1   2
ATOM      2  O   UNL A   1      33.975  30.998  26.861  1.00  0.00    -0.457 OA
BRANCH   2   3
ATOM      3  C   UNL A   1      34.354  29.785  27.347  1.00  0.00     0.357 C 
ATOM      4  O   UNL A   1      34.988  29.597  28.367  1.00  0.00    -0.244 OA
BRANCH   3   5
ATOM      5  C   UNL A   1      33.839  28.676  26.485  1.00  0.00     0.148 A 
ATOM      6  C   UNL A   1      32.941  26.440  25.150  1.00  0.00     0.019 A 
ATOM      7  C   UNL A   1      33.791  27.347  24.502  1.00  0.00     0.014 A 
ATOM      8  C   UNL A   1      32.530  26.767  26.435  1.00  0.00     0.122 A 
ATOM      9  C   UNL A   1      34.237  28.494  25.169  1.00  0.00     0.037 A 
ATOM     10  N   UNL A   1      33.004  27.820  27.125  1.00  0.00    -0.249 NA
BRANCH   6  11
ATOM     11  C   UNL A   1      32.639  25.106  24.631  1.00  0.00     0.080 A 
ATOM     12  C   UNL A   1      31.566  24.901  23.732  1.00  0.00     0.010 A 
ATOM     13  C   UNL A   1      31.401  23.612  23.209  1.00  0.00     0.033 A 
ATOM     14  C   UNL A   1      32.293  22.604  23.566  1.00  0.00     0.060 A 
ATOM     15  N   UNL A   1      33.508  24.131  24.993  1.00  0.00    -0.254 NA
ATOM     16  Cl  UNL A   1      32.115  21.021  22.926  1.00  0.00    -0.083 Cl
ATOM     17  C   UNL A   1      33.320  22.906  24.446  1.00  0.00     0.132 A 
BRANCH  12  18
ATOM     18  C   UNL A   1      30.653  25.994  23.350  1.00  0.00    -0.016 A 
ATOM     19  C   UNL A   1      29.039  28.237  22.872  1.00  0.00     0.067 A 
ATOM     20  C   UNL A   1      30.266  28.125  22.221  1.00  0.00     0.021 A 
ATOM     21  C   UNL A   1      28.581  27.220  23.712  1.00  0.00     0.021 A 
ATOM     22  C   UNL A   1      31.059  26.998  22.452  1.00  0.00     0.010 A 
ATOM     23  C   UNL A   1      29.390  26.107  23.953  1.00  0.00     0.010 A 
BRANCH  19  24
ATOM     24  S   UNL A   1      28.035  29.680  22.616  1.00  0.00     0.175 S 
ATOM     25  C   UNL A   1      28.943  30.963  23.441  1.00  0.00     0.163 C 
ATOM     26  O   UNL A   1      26.793  29.476  23.340  1.00  0.00    -0.224 OA
ATOM     27  O   UNL A   1      28.022  29.968  21.195  1.00  0.00    -0.224 OA
ENDBRANCH  19  24
ENDBRANCH  12  18
ENDBRANCH   6  11
ENDBRANCH   3   5
ENDBRANCH   2   3
ENDBRANCH   1   2
BRANCH   1  28
ATOM     28  C   UNL A   1      33.681  33.258  27.779  1.00  0.00     0.275 C 
BRANCH  28  29
ATOM     29  O   UNL A   1      32.657  34.167  28.224  1.00  0.00    -0.458 OA
BRANCH  29  30
ATOM     30  C   UNL A   1      33.070  35.107  29.106  1.00  0.00     0.338 C 
ATOM     31  O   UNL A   1      32.582  36.214  29.278  1.00  0.00    -0.246 OA
BRANCH  30  32
ATOM     32  C   UNL A   1      34.168  34.584  29.935  1.00  0.00     0.060 A 
ATOM     33  C   UNL A   1      35.461  34.675  29.430  1.00  0.00     0.016 A 
ATOM     34  C   UNL A   1      33.929  33.892  31.121  1.00  0.00     0.016 A 
ATOM     35  C   UNL A   1      36.518  34.026  30.058  1.00  0.00     0.010 A 
ATOM     36  C   UNL A   1      35.003  33.280  31.786  1.00  0.00     0.010 A 
ATOM     37  C   UNL A   1      36.302  33.317  31.243  1.00  0.00    -0.014 A 
BRANCH  37  38
ATOM     38  C   UNL A   1      37.433  32.588  31.877  1.00  0.00     0.031 A 
ATOM     39  C   UNL A   1      37.923  32.992  33.241  1.00  0.00     0.074 A 
ATOM     40  C   UNL A   1      38.005  31.547  31.240  1.00  0.00     0.049 A 
ATOM     41  N   UNL A   1      38.947  32.538  33.919  1.00  0.00    -0.248 NA
ATOM     42  C   UNL A   1      37.167  34.047  33.935  1.00  0.00     0.031 C 
ATOM     43  C   UNL A   1      37.608  31.039  29.926  1.00  0.00     0.029 A 
ATOM     44  N   UNL A   1      39.048  30.733  31.608  1.00  0.00    -0.354 N 
ATOM     45  C   UNL A   1      38.993  33.288  35.089  1.00  0.00     0.074 A 
ATOM     46  C   UNL A   1      37.891  34.225  35.032  1.00  0.00     0.031 C 
ATOM     47  C   UNL A   1      38.391  29.999  29.600  1.00  0.00     0.029 A 
ATOM     48  C   UNL A   1      39.380  29.799  30.654  1.00  0.00     0.049 A 
ATOM     49  H   UNL A   1      39.515  30.812  32.472  1.00  0.00     0.167 HD
ATOM     50  C   UNL A   1      39.862  33.195  36.122  1.00  0.00     0.034 A 
ATOM     51  C   UNL A   1      40.384  28.901  30.617  1.00  0.00     0.034 A 
ATOM     52  C   UNL A   1      40.919  32.222  36.207  1.00  0.00     0.049 A 
ATOM     53  C   UNL A   1      41.336  28.819  31.780  1.00  0.00     0.074 A 
ATOM     54  C   UNL A   1      41.834  32.031  37.227  1.00  0.00     0.029 A 
ATOM     55  N   UNL A   1      41.195  31.268  35.239  1.00  0.00    -0.354 N 
ATOM     56  N   UNL A   1      41.325  29.496  32.903  1.00  0.00    -0.248 NA
ATOM     57  C   UNL A   1      42.425  27.837  31.679  1.00  0.00     0.031 C 
ATOM     58  C   UNL A   1      42.668  30.964  36.873  1.00  0.00     0.029 A 
ATOM     59  C   UNL A   1      42.265  30.485  35.638  1.00  0.00     0.049 A 
ATOM     60  H   UNL A   1      40.703  31.163  34.393  1.00  0.00     0.167 HD
ATOM     61  C   UNL A   1      42.388  29.005  33.653  1.00  0.00     0.074 A 
ATOM     62  C   UNL A   1      43.005  27.956  32.867  1.00  0.00     0.031 C 
ATOM     63  C   UNL A   1      42.828  29.402  34.872  1.00  0.00     0.034 A 
BRANCH  50  64
ATOM     64  C   UNL A   1      39.690  34.154  37.271  1.00  0.00     0.023 A 
ATOM     65  C   UNL A   1      40.076  35.500  37.116  1.00  0.00     0.012 A 
ATOM     66  C   UNL A   1      39.096  33.739  38.479  1.00  0.00     0.148 A 
ATOM     67  C   UNL A   1      39.900  36.413  38.156  1.00  0.00     0.002 A 
ATOM     68  C   UNL A   1      38.889  34.662  39.497  1.00  0.00     0.091 A 
ATOM     69  F   UNL A   1      38.757  32.449  38.616  1.00  0.00    -0.205 F 
ATOM     70  C   UNL A   1      39.298  35.996  39.341  1.00  0.00     0.022 A 
BRANCH  68  71
ATOM     71  S   UNL A   1      38.059  34.235  41.033  1.00  0.00     0.127 S 
ATOM     72  O   UNL A   1      39.105  33.498  41.740  1.00  0.00    -0.237 OA
ATOM     73  O   UNL A   1      37.754  35.550  41.598  1.00  0.00    -0.237 OA
ATOM     74  O   UNL A   1      36.889  33.457  40.651  1.00  0.00    -0.744 OA
ENDBRANCH  68  71
ENDBRANCH  50  64
BRANCH  51  75
ATOM     75  C   UNL A   1      40.520  27.984  29.451  1.00  0.00     0.023 A 
ATOM     76  C   UNL A   1      39.721  26.827  29.384  1.00  0.00     0.012 A 
ATOM     77  C   UNL A   1      41.408  28.266  28.394  1.00  0.00     0.148 A 
ATOM     78  C   UNL A   1      39.818  25.956  28.297  1.00  0.00     0.002 A 
ATOM     79  C   UNL A   1      41.460  27.424  27.289  1.00  0.00     0.091 A 
ATOM     80  F   UNL A   1      42.182  29.357  28.486  1.00  0.00    -0.205 F 
ATOM     81  C   UNL A   1      40.677  26.260  27.245  1.00  0.00     0.022 A 
BRANCH  79  82
ATOM     82  S   UNL A   1      42.441  27.819  25.836  1.00  0.00     0.127 S 
ATOM     83  O   UNL A   1      43.802  27.707  26.353  1.00  0.00    -0.237 OA
ATOM     84  O   UNL A   1      42.049  26.763  24.902  1.00  0.00    -0.237 OA
ATOM     85  O   UNL A   1      42.017  29.155  25.436  1.00  0.00    -0.744 OA
ENDBRANCH  79  82
ENDBRANCH  51  75
BRANCH  63  86
ATOM     86  C   UNL A   1      44.018  28.685  35.451  1.00  0.00     0.023 A 
ATOM     87  C   UNL A   1      45.317  29.076  35.074  1.00  0.00     0.012 A 
ATOM     88  C   UNL A   1      43.851  27.675  36.419  1.00  0.00     0.148 A 
ATOM     89  C   UNL A   1      46.434  28.458  35.632  1.00  0.00     0.002 A 
ATOM     90  C   UNL A   1      44.970  27.092  37.003  1.00  0.00     0.091 A 
ATOM     91  F   UNL A   1      42.607  27.301  36.748  1.00  0.00    -0.205 F 
ATOM     92  C   UNL A   1      46.261  27.475  36.604  1.00  0.00     0.022 A 
BRANCH  90  93
ATOM     93  S   UNL A   1      44.838  25.882  38.326  1.00  0.00     0.127 S 
ATOM     94  O   UNL A   1      44.160  24.776  37.653  1.00  0.00    -0.237 OA
ATOM     95  O   UNL A   1      46.239  25.626  38.659  1.00  0.00    -0.237 OA
ATOM     96  O   UNL A   1      44.079  26.535  39.385  1.00  0.00    -0.744 OA
ENDBRANCH  90  93
ENDBRANCH  63  86
ENDBRANCH  37  38
ENDBRANCH  30  32
ENDBRANCH  29  30
ENDBRANCH  28  29
ENDBRANCH   1  28
TORSDOF 17
ENDMDL
