MODEL 1
REMARK VINA RESULT:     -11.2      0.000      0.000
REMARK SMILES CC[C@@](C)([NH3+])C(=O)N1CC[NH+]([C@H](C)C(=O)OCCOC(=O)c2ccc(-c3c4nc(c(-c5cccc(S(=O)(=O)[O-])c5F)c5ccc([nH]5)c(-c5cccc(S(=O)(=O)[O-])c5F)c5nc(c(-c6cccc(S(=O)(=O)[O-])c6F)c6ccc3[nH]6)C=C5)C=C4)cc2)CC1
REMARK SMILES IDX 17 1 16 2 14 3 15 4 12 5 13 6 11 7 6 8 7 9 8 10 9 11 86 12
REMARK SMILES IDX 10 13 85 14 3 16 4 17 2 18 1 19 5 20 18 24 19 25 20 26 21 27
REMARK SMILES IDX 22 28 23 29 84 30 24 31 83 32 25 33 26 34 27 35 77 36 28 37
REMARK SMILES IDX 82 38 76 39 78 40 29 41 81 42 75 43 74 44 30 46 62 47 42 48
REMARK SMILES IDX 61 49 43 50 46 51 60 52 79 53 44 54 45 55 59 57 80 58 47 59
REMARK SMILES IDX 31 60 32 61 40 62 33 63 35 64 41 65 34 66 36 67 37 68 38 69
REMARK SMILES IDX 39 70 63 71 64 72 72 73 65 74 67 75 73 76 66 77 68 78 69 79
REMARK SMILES IDX 70 80 71 81 48 82 49 83 57 84 50 85 52 86 58 87 51 88 53 89
REMARK SMILES IDX 54 90 55 91 56 92
REMARK H PARENT 11 15 5 21 5 22 5 23 78 45 46 56
REMARK Flexibility Score: inf
ROOT
ATOM      1  C   UNL A   1      31.402  29.420  24.470  1.00  0.00     0.274 C 
ENDROOT
BRANCH   1   2
ATOM      2  O   UNL A   1      31.888  28.093  24.740  1.00  0.00    -0.458 OA
BRANCH   2   3
ATOM      3  C   UNL A   1      32.763  27.574  23.829  1.00  0.00     0.364 C 
ATOM      4  O   UNL A   1      33.660  28.214  23.294  1.00  0.00    -0.245 OA
BRANCH   3   5
ATOM      5  C   UNL A   1      32.470  26.092  23.508  1.00  0.00     0.292 C 
ATOM      6  C   UNL A   1      32.218  25.826  22.018  1.00  0.00     0.088 C 
BRANCH   5   7
ATOM      7  N   UNL A   1      33.480  25.231  24.169  1.00  0.00    -0.321 N 
ATOM      8  C   UNL A   1      34.690  21.327  25.002  1.00  0.00     0.283 C 
ATOM      9  O   UNL A   1      35.748  20.822  24.608  1.00  0.00    -0.268 OA
ATOM     10  N   UNL A   1      34.559  22.701  25.007  1.00  0.00    -0.326 N 
ATOM     11  C   UNL A   1      35.235  23.472  23.970  1.00  0.00     0.181 C 
ATOM     12  C   UNL A   1      33.894  23.539  26.000  1.00  0.00     0.181 C 
ATOM     13  C   UNL A   1      34.189  24.336  23.239  1.00  0.00     0.284 C 
ATOM     14  C   UNL A   1      32.918  24.527  25.338  1.00  0.00     0.284 C 
ATOM     15  H   UNL A   1      34.202  25.858  24.522  1.00  0.00     0.348 HD
BRANCH   8  16
ATOM     16  C   UNL A   1      33.431  20.429  25.300  1.00  0.00     0.171 C 
ATOM     17  C   UNL A   1      32.157  21.078  24.734  1.00  0.00     0.090 C 
BRANCH  16  18
ATOM     18  C   UNL A   1      33.639  19.026  24.655  1.00  0.00     0.075 C 
ATOM     19  C   UNL A   1      32.600  18.626  23.607  1.00  0.00     0.011 C 
ENDBRANCH  16  18
BRANCH  16  20
ATOM     20  N   UNL A   1      33.270  20.201  26.756  1.00  0.00    -0.345 N 
ATOM     21  H   UNL A   1      32.762  19.329  26.910  1.00  0.00     0.345 HD
ATOM     22  H   UNL A   1      32.746  20.975  27.167  1.00  0.00     0.345 HD
ATOM     23  H   UNL A   1      34.188  20.141  27.195  1.00  0.00     0.345 HD
ENDBRANCH  16  20
ENDBRANCH   8  16
ENDBRANCH   5   7
ENDBRANCH   3   5
ENDBRANCH   2   3
ENDBRANCH   1   2
BRANCH   1  24
ATOM     24  C   UNL A   1      31.485  30.308  25.715  1.00  0.00     0.275 C 
BRANCH  24  25
ATOM     25  O   UNL A   1      32.746  30.160  26.393  1.00  0.00    -0.458 OA
BRANCH  25  26
ATOM     26  C   UNL A   1      33.186  31.267  27.035  1.00  0.00     0.338 C 
ATOM     27  O   UNL A   1      32.575  32.308  27.210  1.00  0.00    -0.246 OA
BRANCH  26  28
ATOM     28  C   UNL A   1      34.497  31.002  27.643  1.00  0.00     0.060 A 
ATOM     29  C   UNL A   1      34.799  29.690  28.017  1.00  0.00     0.016 A 
ATOM     30  C   UNL A   1      35.385  32.041  27.917  1.00  0.00     0.016 A 
ATOM     31  C   UNL A   1      35.988  29.404  28.676  1.00  0.00     0.010 A 
ATOM     32  C   UNL A   1      36.581  31.753  28.577  1.00  0.00     0.010 A 
ATOM     33  C   UNL A   1      36.882  30.437  28.971  1.00  0.00    -0.014 A 
BRANCH  33  34
ATOM     34  C   UNL A   1      38.112  30.150  29.740  1.00  0.00     0.031 A 
ATOM     35  C   UNL A   1      39.132  29.208  29.174  1.00  0.00     0.074 A 
ATOM     36  C   UNL A   1      38.289  30.713  30.948  1.00  0.00     0.049 A 
ATOM     37  N   UNL A   1      40.209  28.726  29.733  1.00  0.00    -0.248 NA
ATOM     38  C   UNL A   1      38.904  28.738  27.797  1.00  0.00     0.031 C 
ATOM     39  C   UNL A   1      37.368  31.655  31.583  1.00  0.00     0.029 A 
ATOM     40  N   UNL A   1      39.291  30.548  31.870  1.00  0.00    -0.354 N 
ATOM     41  C   UNL A   1      40.761  27.856  28.802  1.00  0.00     0.074 A 
ATOM     42  C   UNL A   1      39.905  27.884  27.636  1.00  0.00     0.031 C 
ATOM     43  C   UNL A   1      37.828  31.960  32.807  1.00  0.00     0.029 A 
ATOM     44  C   UNL A   1      39.053  31.204  33.054  1.00  0.00     0.049 A 
ATOM     45  H   UNL A   1      40.100  30.013  31.700  1.00  0.00     0.167 HD
ATOM     46  C   UNL A   1      41.884  27.108  28.910  1.00  0.00     0.034 A 
ATOM     47  C   UNL A   1      39.727  31.168  34.220  1.00  0.00     0.034 A 
ATOM     48  C   UNL A   1      42.748  27.122  30.060  1.00  0.00     0.049 A 
ATOM     49  C   UNL A   1      40.973  30.331  34.313  1.00  0.00     0.074 A 
ATOM     50  C   UNL A   1      43.938  26.442  30.249  1.00  0.00     0.029 A 
ATOM     51  N   UNL A   1      42.512  27.849  31.216  1.00  0.00    -0.354 N 
ATOM     52  N   UNL A   1      41.537  29.587  33.392  1.00  0.00    -0.248 NA
ATOM     53  C   UNL A   1      41.692  30.348  35.595  1.00  0.00     0.031 C 
ATOM     54  C   UNL A   1      44.414  26.748  31.529  1.00  0.00     0.029 A 
ATOM     55  C   UNL A   1      43.529  27.632  32.129  1.00  0.00     0.049 A 
ATOM     56  H   UNL A   1      41.735  28.435  31.367  1.00  0.00     0.167 HD
ATOM     57  C   UNL A   1      42.688  29.068  33.971  1.00  0.00     0.074 A 
ATOM     58  C   UNL A   1      42.753  29.602  35.318  1.00  0.00     0.031 C 
ATOM     59  C   UNL A   1      43.602  28.216  33.445  1.00  0.00     0.034 A 
BRANCH  46  60
ATOM     60  C   UNL A   1      42.250  26.229  27.746  1.00  0.00     0.023 A 
ATOM     61  C   UNL A   1      43.006  26.757  26.681  1.00  0.00     0.012 A 
ATOM     62  C   UNL A   1      41.878  24.870  27.724  1.00  0.00     0.148 A 
ATOM     63  C   UNL A   1      43.363  25.955  25.598  1.00  0.00     0.002 A 
ATOM     64  C   UNL A   1      42.270  24.068  26.658  1.00  0.00     0.091 A 
ATOM     65  F   UNL A   1      41.132  24.393  28.730  1.00  0.00    -0.205 F 
ATOM     66  C   UNL A   1      43.004  24.610  25.591  1.00  0.00     0.022 A 
BRANCH  64  67
ATOM     67  S   UNL A   1      41.912  22.308  26.598  1.00  0.00     0.127 S 
ATOM     68  O   UNL A   1      40.456  22.308  26.460  1.00  0.00    -0.237 OA
ATOM     69  O   UNL A   1      42.637  21.883  25.400  1.00  0.00    -0.237 OA
ATOM     70  O   UNL A   1      42.426  21.755  27.843  1.00  0.00    -0.744 OA
ENDBRANCH  64  67
ENDBRANCH  46  60
BRANCH  47  71
ATOM     71  C   UNL A   1      39.243  31.975  35.375  1.00  0.00     0.023 A 
ATOM     72  C   UNL A   1      39.414  33.371  35.365  1.00  0.00     0.012 A 
ATOM     73  C   UNL A   1      38.567  31.372  36.455  1.00  0.00     0.148 A 
ATOM     74  C   UNL A   1      38.935  34.153  36.416  1.00  0.00     0.002 A 
ATOM     75  C   UNL A   1      38.045  32.162  37.471  1.00  0.00     0.091 A 
ATOM     76  F   UNL A   1      38.432  30.038  36.455  1.00  0.00    -0.205 F 
ATOM     77  C   UNL A   1      38.240  33.551  37.462  1.00  0.00     0.022 A 
BRANCH  75  78
ATOM     78  S   UNL A   1      37.023  31.485  38.786  1.00  0.00     0.127 S 
ATOM     79  O   UNL A   1      36.770  30.131  38.301  1.00  0.00    -0.237 OA
ATOM     80  O   UNL A   1      37.919  31.569  39.941  1.00  0.00    -0.237 OA
ATOM     81  O   UNL A   1      35.860  32.359  38.867  1.00  0.00    -0.744 OA
ENDBRANCH  75  78
ENDBRANCH  47  71
BRANCH  59  82
ATOM     82  C   UNL A   1      44.768  27.822  34.311  1.00  0.00     0.023 A 
ATOM     83  C   UNL A   1      45.934  28.610  34.308  1.00  0.00     0.012 A 
ATOM     84  C   UNL A   1      44.675  26.721  35.185  1.00  0.00     0.148 A 
ATOM     85  C   UNL A   1      47.003  28.294  35.147  1.00  0.00     0.002 A 
ATOM     86  C   UNL A   1      45.727  26.440  36.050  1.00  0.00     0.091 A 
ATOM     87  F   UNL A   1      43.564  25.971  35.156  1.00  0.00    -0.205 F 
ATOM     88  C   UNL A   1      46.895  27.218  36.025  1.00  0.00     0.022 A 
BRANCH  86  89
ATOM     89  S   UNL A   1      45.631  25.131  37.278  1.00  0.00     0.127 S 
ATOM     90  O   UNL A   1      47.017  25.049  37.736  1.00  0.00    -0.237 OA
ATOM     91  O   UNL A   1      44.696  25.687  38.257  1.00  0.00    -0.237 OA
ATOM     92  O   UNL A   1      45.133  23.959  36.570  1.00  0.00    -0.744 OA
ENDBRANCH  86  89
ENDBRANCH  59  82
ENDBRANCH  33  34
ENDBRANCH  26  28
ENDBRANCH  25  26
ENDBRANCH  24  25
ENDBRANCH   1  24
TORSDOF 18
ENDMDL
MODEL 2
REMARK VINA RESULT:     -11.2      5.283     10.314
REMARK SMILES CC[C@@](C)([NH3+])C(=O)N1CC[NH+]([C@H](C)C(=O)OCCOC(=O)c2ccc(-c3c4nc(c(-c5cccc(S(=O)(=O)[O-])c5F)c5ccc([nH]5)c(-c5cccc(S(=O)(=O)[O-])c5F)c5nc(c(-c6cccc(S(=O)(=O)[O-])c6F)c6ccc3[nH]6)C=C5)C=C4)cc2)CC1
REMARK SMILES IDX 17 1 16 2 14 3 15 4 12 5 13 6 11 7 6 8 7 9 8 10 9 11 86 12
REMARK SMILES IDX 10 13 85 14 3 16 4 17 2 18 1 19 5 20 18 24 19 25 20 26 21 27
REMARK SMILES IDX 22 28 23 29 84 30 24 31 83 32 25 33 26 34 27 35 77 36 28 37
REMARK SMILES IDX 82 38 76 39 78 40 29 41 81 42 75 43 74 44 30 46 62 47 42 48
REMARK SMILES IDX 61 49 43 50 46 51 60 52 79 53 44 54 45 55 59 57 80 58 47 59
REMARK SMILES IDX 31 60 32 61 40 62 33 63 35 64 41 65 34 66 36 67 37 68 38 69
REMARK SMILES IDX 39 70 63 71 64 72 72 73 65 74 67 75 73 76 66 77 68 78 69 79
REMARK SMILES IDX 70 80 71 81 48 82 49 83 57 84 50 85 52 86 58 87 51 88 53 89
REMARK SMILES IDX 54 90 55 91 56 92
REMARK H PARENT 11 15 5 21 5 22 5 23 78 45 46 56
REMARK Flexibility Score: inf
ROOT
ATOM      1  C   UNL A   1      35.044  21.254  24.771  1.00  0.00     0.274 C 
ENDROOT
BRANCH   1   2
ATOM      2  O   UNL A   1      34.504  22.054  25.839  1.00  0.00    -0.458 OA
BRANCH   2   3
ATOM      3  C   UNL A   1      34.624  23.406  25.700  1.00  0.00     0.364 C 
ATOM      4  O   UNL A   1      35.625  24.044  26.003  1.00  0.00    -0.245 OA
BRANCH   3   5
ATOM      5  C   UNL A   1      33.336  24.060  25.154  1.00  0.00     0.292 C 
ATOM      6  C   UNL A   1      32.052  23.493  25.775  1.00  0.00     0.088 C 
BRANCH   5   7
ATOM      7  N   UNL A   1      33.480  25.535  25.172  1.00  0.00    -0.321 N 
ATOM      8  C   UNL A   1      31.614  29.204  24.501  1.00  0.00     0.283 C 
ATOM      9  O   UNL A   1      31.409  30.057  25.373  1.00  0.00    -0.268 OA
ATOM     10  N   UNL A   1      32.555  28.220  24.726  1.00  0.00    -0.326 N 
ATOM     11  C   UNL A   1      32.746  27.734  26.087  1.00  0.00     0.181 C 
ATOM     12  C   UNL A   1      33.497  27.641  23.774  1.00  0.00     0.181 C 
ATOM     13  C   UNL A   1      32.550  26.206  26.096  1.00  0.00     0.284 C 
ATOM     14  C   UNL A   1      33.456  26.103  23.810  1.00  0.00     0.284 C 
ATOM     15  H   UNL A   1      34.405  25.726  25.555  1.00  0.00     0.348 HD
BRANCH   8  16
ATOM     16  C   UNL A   1      30.680  29.106  23.236  1.00  0.00     0.171 C 
ATOM     17  C   UNL A   1      30.171  27.668  23.049  1.00  0.00     0.090 C 
BRANCH  16  18
ATOM     18  C   UNL A   1      29.473  30.075  23.415  1.00  0.00     0.075 C 
ATOM     19  C   UNL A   1      28.231  29.731  22.592  1.00  0.00     0.011 C 
ENDBRANCH  16  18
BRANCH  16  20
ATOM     20  N   UNL A   1      31.391  29.547  22.011  1.00  0.00    -0.345 N 
ATOM     21  H   UNL A   1      30.941  30.383  21.638  1.00  0.00     0.345 HD
ATOM     22  H   UNL A   1      31.358  28.803  21.312  1.00  0.00     0.345 HD
ATOM     23  H   UNL A   1      32.363  29.757  22.239  1.00  0.00     0.345 HD
ENDBRANCH  16  20
ENDBRANCH   8  16
ENDBRANCH   5   7
ENDBRANCH   3   5
ENDBRANCH   2   3
ENDBRANCH   1   2
BRANCH   1  24
ATOM     24  C   UNL A   1      36.366  20.598  25.180  1.00  0.00     0.275 C 
BRANCH  24  25
ATOM     25  O   UNL A   1      37.471  21.514  25.079  1.00  0.00    -0.458 OA
BRANCH  25  26
ATOM     26  C   UNL A   1      38.590  21.139  25.742  1.00  0.00     0.338 C 
ATOM     27  O   UNL A   1      39.081  20.024  25.785  1.00  0.00    -0.246 OA
BRANCH  26  28
ATOM     28  C   UNL A   1      39.248  22.321  26.316  1.00  0.00     0.060 A 
ATOM     29  C   UNL A   1      38.810  23.584  25.909  1.00  0.00     0.016 A 
ATOM     30  C   UNL A   1      40.333  22.189  27.180  1.00  0.00     0.016 A 
ATOM     31  C   UNL A   1      39.459  24.729  26.355  1.00  0.00     0.010 A 
ATOM     32  C   UNL A   1      40.983  23.340  27.631  1.00  0.00     0.010 A 
ATOM     33  C   UNL A   1      40.558  24.613  27.209  1.00  0.00    -0.014 A 
BRANCH  33  34
ATOM     34  C   UNL A   1      41.300  25.823  27.625  1.00  0.00     0.031 A 
ATOM     35  C   UNL A   1      40.598  26.878  28.427  1.00  0.00     0.074 A 
ATOM     36  C   UNL A   1      42.583  25.978  27.256  1.00  0.00     0.049 A 
ATOM     37  N   UNL A   1      41.021  28.061  28.782  1.00  0.00    -0.248 NA
ATOM     38  C   UNL A   1      39.233  26.563  28.882  1.00  0.00     0.031 C 
ATOM     39  C   UNL A   1      43.364  25.006  26.490  1.00  0.00     0.029 A 
ATOM     40  N   UNL A   1      43.446  27.027  27.449  1.00  0.00    -0.354 N 
ATOM     41  C   UNL A   1      39.961  28.654  29.456  1.00  0.00     0.074 A 
ATOM     42  C   UNL A   1      38.877  27.697  29.468  1.00  0.00     0.031 C 
ATOM     43  C   UNL A   1      44.581  25.518  26.248  1.00  0.00     0.029 A 
ATOM     44  C   UNL A   1      44.650  26.865  26.806  1.00  0.00     0.049 A 
ATOM     45  H   UNL A   1      43.224  27.816  27.994  1.00  0.00     0.167 HD
ATOM     46  C   UNL A   1      39.903  29.885  30.017  1.00  0.00     0.034 A 
ATOM     47  C   UNL A   1      45.676  27.723  26.652  1.00  0.00     0.034 A 
ATOM     48  C   UNL A   1      41.003  30.811  30.033  1.00  0.00     0.049 A 
ATOM     49  C   UNL A   1      45.588  29.084  27.288  1.00  0.00     0.074 A 
ATOM     50  C   UNL A   1      41.066  32.062  30.621  1.00  0.00     0.029 A 
ATOM     51  N   UNL A   1      42.231  30.589  29.429  1.00  0.00    -0.354 N 
ATOM     52  N   UNL A   1      44.617  29.597  28.004  1.00  0.00    -0.248 NA
ATOM     53  C   UNL A   1      46.745  29.974  27.118  1.00  0.00     0.031 C 
ATOM     54  C   UNL A   1      42.330  32.602  30.359  1.00  0.00     0.029 A 
ATOM     55  C   UNL A   1      43.059  31.681  29.623  1.00  0.00     0.049 A 
ATOM     56  H   UNL A   1      42.479  29.774  28.935  1.00  0.00     0.167 HD
ATOM     57  C   UNL A   1      45.053  30.857  28.393  1.00  0.00     0.074 A 
ATOM     58  C   UNL A   1      46.387  31.021  27.851  1.00  0.00     0.031 C 
ATOM     59  C   UNL A   1      44.405  31.801  29.119  1.00  0.00     0.034 A 
BRANCH  46  60
ATOM     60  C   UNL A   1      38.613  30.289  30.677  1.00  0.00     0.023 A 
ATOM     61  C   UNL A   1      38.376  29.942  32.021  1.00  0.00     0.012 A 
ATOM     62  C   UNL A   1      37.652  31.046  29.978  1.00  0.00     0.148 A 
ATOM     63  C   UNL A   1      37.190  30.316  32.652  1.00  0.00     0.002 A 
ATOM     64  C   UNL A   1      36.489  31.447  30.626  1.00  0.00     0.091 A 
ATOM     65  F   UNL A   1      37.880  31.341  28.690  1.00  0.00    -0.205 F 
ATOM     66  C   UNL A   1      36.253  31.076  31.959  1.00  0.00     0.022 A 
BRANCH  64  67
ATOM     67  S   UNL A   1      35.257  32.486  29.832  1.00  0.00     0.127 S 
ATOM     68  O   UNL A   1      34.308  32.705  30.923  1.00  0.00    -0.237 OA
ATOM     69  O   UNL A   1      36.038  33.666  29.458  1.00  0.00    -0.237 OA
ATOM     70  O   UNL A   1      34.753  31.714  28.704  1.00  0.00    -0.744 OA
ENDBRANCH  64  67
ENDBRANCH  46  60
BRANCH  47  71
ATOM     71  C   UNL A   1      46.881  27.300  25.885  1.00  0.00     0.023 A 
ATOM     72  C   UNL A   1      46.974  27.609  24.516  1.00  0.00     0.012 A 
ATOM     73  C   UNL A   1      47.957  26.645  26.518  1.00  0.00     0.148 A 
ATOM     74  C   UNL A   1      48.109  27.258  23.784  1.00  0.00     0.002 A 
ATOM     75  C   UNL A   1      49.106  26.348  25.796  1.00  0.00     0.091 A 
ATOM     76  F   UNL A   1      47.840  26.343  27.818  1.00  0.00    -0.205 F 
ATOM     77  C   UNL A   1      49.179  26.640  24.426  1.00  0.00     0.022 A 
BRANCH  75  78
ATOM     78  S   UNL A   1      50.581  25.674  26.572  1.00  0.00     0.127 S 
ATOM     79  O   UNL A   1      51.463  25.485  25.424  1.00  0.00    -0.237 OA
ATOM     80  O   UNL A   1      50.970  26.756  27.477  1.00  0.00    -0.237 OA
ATOM     81  O   UNL A   1      50.147  24.457  27.246  1.00  0.00    -0.744 OA
ENDBRANCH  75  78
ENDBRANCH  47  71
BRANCH  59  82
ATOM     82  C   UNL A   1      45.133  33.089  29.398  1.00  0.00     0.023 A 
ATOM     83  C   UNL A   1      45.983  33.180  30.516  1.00  0.00     0.012 A 
ATOM     84  C   UNL A   1      45.037  34.176  28.507  1.00  0.00     0.148 A 
ATOM     85  C   UNL A   1      46.711  34.344  30.758  1.00  0.00     0.002 A 
ATOM     86  C   UNL A   1      45.800  35.316  28.731  1.00  0.00     0.091 A 
ATOM     87  F   UNL A   1      44.205  34.076  27.460  1.00  0.00    -0.205 F 
ATOM     88  C   UNL A   1      46.629  35.407  29.860  1.00  0.00     0.022 A 
BRANCH  86  89
ATOM     89  S   UNL A   1      45.826  36.691  27.574  1.00  0.00     0.127 S 
ATOM     90  O   UNL A   1      44.518  36.568  26.934  1.00  0.00    -0.237 OA
ATOM     91  O   UNL A   1      45.964  37.846  28.463  1.00  0.00    -0.237 OA
ATOM     92  O   UNL A   1      46.975  36.460  26.708  1.00  0.00    -0.744 OA
ENDBRANCH  86  89
ENDBRANCH  59  82
ENDBRANCH  33  34
ENDBRANCH  26  28
ENDBRANCH  25  26
ENDBRANCH  24  25
ENDBRANCH   1  24
TORSDOF 18
ENDMDL
MODEL 3
REMARK VINA RESULT:     -11.2      1.583      2.015
REMARK SMILES CC[C@@](C)([NH3+])C(=O)N1CC[NH+]([C@H](C)C(=O)OCCOC(=O)c2ccc(-c3c4nc(c(-c5cccc(S(=O)(=O)[O-])c5F)c5ccc([nH]5)c(-c5cccc(S(=O)(=O)[O-])c5F)c5nc(c(-c6cccc(S(=O)(=O)[O-])c6F)c6ccc3[nH]6)C=C5)C=C4)cc2)CC1
REMARK SMILES IDX 17 1 16 2 14 3 15 4 12 5 13 6 11 7 6 8 7 9 8 10 9 11 86 12
REMARK SMILES IDX 10 13 85 14 3 16 4 17 2 18 1 19 5 20 18 24 19 25 20 26 21 27
REMARK SMILES IDX 22 28 23 29 84 30 24 31 83 32 25 33 26 34 27 35 77 36 28 37
REMARK SMILES IDX 82 38 76 39 78 40 29 41 81 42 75 43 74 44 30 46 62 47 42 48
REMARK SMILES IDX 61 49 43 50 46 51 60 52 79 53 44 54 45 55 59 57 80 58 47 59
REMARK SMILES IDX 31 60 32 61 40 62 33 63 35 64 41 65 34 66 36 67 37 68 38 69
REMARK SMILES IDX 39 70 63 71 64 72 72 73 65 74 67 75 73 76 66 77 68 78 69 79
REMARK SMILES IDX 70 80 71 81 48 82 49 83 57 84 50 85 52 86 58 87 51 88 53 89
REMARK SMILES IDX 54 90 55 91 56 92
REMARK H PARENT 11 15 5 21 5 22 5 23 78 45 46 56
REMARK Flexibility Score: inf
ROOT
ATOM      1  C   UNL A   1      30.986  29.866  24.611  1.00  0.00     0.274 C 
ENDROOT
BRANCH   1   2
ATOM      2  O   UNL A   1      30.684  28.493  24.301  1.00  0.00    -0.458 OA
BRANCH   2   3
ATOM      3  C   UNL A   1      31.755  27.668  24.117  1.00  0.00     0.364 C 
ATOM      4  O   UNL A   1      32.691  27.909  23.364  1.00  0.00    -0.245 OA
BRANCH   3   5
ATOM      5  C   UNL A   1      31.639  26.361  24.933  1.00  0.00     0.292 C 
ATOM      6  C   UNL A   1      30.310  26.226  25.687  1.00  0.00     0.088 C 
BRANCH   5   7
ATOM      7  N   UNL A   1      32.037  25.210  24.088  1.00  0.00    -0.321 N 
ATOM      8  C   UNL A   1      32.819  21.115  23.962  1.00  0.00     0.283 C 
ATOM      9  O   UNL A   1      32.170  20.297  23.299  1.00  0.00    -0.268 OA
ATOM     10  N   UNL A   1      32.736  22.456  23.648  1.00  0.00    -0.326 N 
ATOM     11  C   UNL A   1      31.476  22.977  23.133  1.00  0.00     0.181 C 
ATOM     12  C   UNL A   1      33.803  23.452  23.664  1.00  0.00     0.181 C 
ATOM     13  C   UNL A   1      31.022  24.144  24.030  1.00  0.00     0.284 C 
ATOM     14  C   UNL A   1      33.382  24.713  24.439  1.00  0.00     0.284 C 
ATOM     15  H   UNL A   1      32.092  25.563  23.134  1.00  0.00     0.348 HD
BRANCH   8  16
ATOM     16  C   UNL A   1      33.569  20.673  25.275  1.00  0.00     0.171 C 
ATOM     17  C   UNL A   1      35.090  20.658  25.051  1.00  0.00     0.090 C 
BRANCH  16  18
ATOM     18  C   UNL A   1      33.215  21.663  26.425  1.00  0.00     0.075 C 
ATOM     19  C   UNL A   1      34.381  22.056  27.333  1.00  0.00     0.011 C 
ENDBRANCH  16  18
BRANCH  16  20
ATOM     20  N   UNL A   1      33.118  19.333  25.724  1.00  0.00    -0.345 N 
ATOM     21  H   UNL A   1      33.354  18.639  25.014  1.00  0.00     0.345 HD
ATOM     22  H   UNL A   1      32.107  19.344  25.865  1.00  0.00     0.345 HD
ATOM     23  H   UNL A   1      33.581  19.094  26.600  1.00  0.00     0.345 HD
ENDBRANCH  16  20
ENDBRANCH   8  16
ENDBRANCH   5   7
ENDBRANCH   3   5
ENDBRANCH   2   3
ENDBRANCH   1   2
BRANCH   1  24
ATOM     24  C   UNL A   1      31.517  30.011  26.041  1.00  0.00     0.275 C 
BRANCH  24  25
ATOM     25  O   UNL A   1      32.909  30.375  26.059  1.00  0.00    -0.458 OA
BRANCH  25  26
ATOM     26  C   UNL A   1      33.232  31.364  26.925  1.00  0.00     0.338 C 
ATOM     27  O   UNL A   1      32.534  32.307  27.259  1.00  0.00    -0.246 OA
BRANCH  26  28
ATOM     28  C   UNL A   1      34.532  31.077  27.546  1.00  0.00     0.060 A 
ATOM     29  C   UNL A   1      34.789  29.770  27.967  1.00  0.00     0.016 A 
ATOM     30  C   UNL A   1      35.454  32.095  27.785  1.00  0.00     0.016 A 
ATOM     31  C   UNL A   1      35.967  29.468  28.640  1.00  0.00     0.010 A 
ATOM     32  C   UNL A   1      36.638  31.791  28.459  1.00  0.00     0.010 A 
ATOM     33  C   UNL A   1      36.894  30.480  28.901  1.00  0.00    -0.014 A 
BRANCH  33  34
ATOM     34  C   UNL A   1      38.112  30.180  29.684  1.00  0.00     0.031 A 
ATOM     35  C   UNL A   1      39.121  29.216  29.135  1.00  0.00     0.074 A 
ATOM     36  C   UNL A   1      38.288  30.750  30.888  1.00  0.00     0.049 A 
ATOM     37  N   UNL A   1      40.185  28.722  29.708  1.00  0.00    -0.248 NA
ATOM     38  C   UNL A   1      38.898  28.738  27.760  1.00  0.00     0.031 C 
ATOM     39  C   UNL A   1      37.376  31.713  31.506  1.00  0.00     0.029 A 
ATOM     40  N   UNL A   1      39.278  30.576  31.820  1.00  0.00    -0.354 N 
ATOM     41  C   UNL A   1      40.731  27.835  28.789  1.00  0.00     0.074 A 
ATOM     42  C   UNL A   1      39.886  27.866  27.615  1.00  0.00     0.031 C 
ATOM     43  C   UNL A   1      37.831  32.020  32.732  1.00  0.00     0.029 A 
ATOM     44  C   UNL A   1      39.040  31.247  32.997  1.00  0.00     0.049 A 
ATOM     45  H   UNL A   1      40.080  30.027  31.663  1.00  0.00     0.167 HD
ATOM     46  C   UNL A   1      41.840  27.069  28.914  1.00  0.00     0.034 A 
ATOM     47  C   UNL A   1      39.703  31.210  34.169  1.00  0.00     0.034 A 
ATOM     48  C   UNL A   1      42.694  27.078  30.071  1.00  0.00     0.049 A 
ATOM     49  C   UNL A   1      40.935  30.354  34.281  1.00  0.00     0.074 A 
ATOM     50  C   UNL A   1      43.871  26.381  30.278  1.00  0.00     0.029 A 
ATOM     51  N   UNL A   1      42.460  27.820  31.219  1.00  0.00    -0.354 N 
ATOM     52  N   UNL A   1      41.494  29.592  33.371  1.00  0.00    -0.248 NA
ATOM     53  C   UNL A   1      41.641  30.369  35.569  1.00  0.00     0.031 C 
ATOM     54  C   UNL A   1      44.340  26.690  31.559  1.00  0.00     0.029 A 
ATOM     55  C   UNL A   1      43.465  27.594  32.143  1.00  0.00     0.049 A 
ATOM     56  H   UNL A   1      41.692  28.420  31.358  1.00  0.00     0.167 HD
ATOM     57  C   UNL A   1      42.632  29.060  33.965  1.00  0.00     0.074 A 
ATOM     58  C   UNL A   1      42.693  29.603  35.308  1.00  0.00     0.031 C 
ATOM     59  C   UNL A   1      43.535  28.187  33.455  1.00  0.00     0.034 A 
BRANCH  46  60
ATOM     60  C   UNL A   1      42.203  26.174  27.761  1.00  0.00     0.023 A 
ATOM     61  C   UNL A   1      43.015  26.667  26.721  1.00  0.00     0.012 A 
ATOM     62  C   UNL A   1      41.770  24.834  27.725  1.00  0.00     0.148 A 
ATOM     63  C   UNL A   1      43.369  25.849  25.648  1.00  0.00     0.002 A 
ATOM     64  C   UNL A   1      42.158  24.014  26.671  1.00  0.00     0.091 A 
ATOM     65  F   UNL A   1      40.972  24.391  28.707  1.00  0.00    -0.205 F 
ATOM     66  C   UNL A   1      42.949  24.522  25.629  1.00  0.00     0.022 A 
BRANCH  64  67
ATOM     67  S   UNL A   1      41.722  22.272  26.597  1.00  0.00     0.127 S 
ATOM     68  O   UNL A   1      42.294  21.772  27.846  1.00  0.00    -0.237 OA
ATOM     69  O   UNL A   1      40.260  22.318  26.572  1.00  0.00    -0.237 OA
ATOM     70  O   UNL A   1      42.331  21.762  25.377  1.00  0.00    -0.744 OA
ENDBRANCH  64  67
ENDBRANCH  46  60
BRANCH  47  71
ATOM     71  C   UNL A   1      39.223  32.034  35.313  1.00  0.00     0.023 A 
ATOM     72  C   UNL A   1      38.317  31.479  36.235  1.00  0.00     0.012 A 
ATOM     73  C   UNL A   1      39.701  33.344  35.521  1.00  0.00     0.148 A 
ATOM     74  C   UNL A   1      37.883  32.217  37.336  1.00  0.00     0.002 A 
ATOM     75  C   UNL A   1      39.307  34.053  36.649  1.00  0.00     0.091 A 
ATOM     76  F   UNL A   1      40.548  33.861  34.620  1.00  0.00    -0.205 F 
ATOM     77  C   UNL A   1      38.387  33.497  37.550  1.00  0.00     0.022 A 
BRANCH  75  78
ATOM     78  S   UNL A   1      40.008  35.653  37.072  1.00  0.00     0.127 S 
ATOM     79  O   UNL A   1      39.653  36.453  35.903  1.00  0.00    -0.237 OA
ATOM     80  O   UNL A   1      39.277  35.991  38.295  1.00  0.00    -0.237 OA
ATOM     81  O   UNL A   1      41.432  35.417  37.271  1.00  0.00    -0.744 OA
ENDBRANCH  75  78
ENDBRANCH  47  71
BRANCH  59  82
ATOM     82  C   UNL A   1      44.687  27.782  34.335  1.00  0.00     0.023 A 
ATOM     83  C   UNL A   1      45.863  28.556  34.343  1.00  0.00     0.012 A 
ATOM     84  C   UNL A   1      44.571  26.685  35.211  1.00  0.00     0.148 A 
ATOM     85  C   UNL A   1      46.918  28.230  35.194  1.00  0.00     0.002 A 
ATOM     86  C   UNL A   1      45.610  26.394  36.088  1.00  0.00     0.091 A 
ATOM     87  F   UNL A   1      43.451  25.948  35.172  1.00  0.00    -0.205 F 
ATOM     88  C   UNL A   1      46.787  27.158  36.074  1.00  0.00     0.022 A 
BRANCH  86  89
ATOM     89  S   UNL A   1      45.485  25.090  37.318  1.00  0.00     0.127 S 
ATOM     90  O   UNL A   1      46.776  25.192  37.995  1.00  0.00    -0.237 OA
ATOM     91  O   UNL A   1      44.339  25.522  38.119  1.00  0.00    -0.237 OA
ATOM     92  O   UNL A   1      45.263  23.858  36.571  1.00  0.00    -0.744 OA
ENDBRANCH  86  89
ENDBRANCH  59  82
ENDBRANCH  33  34
ENDBRANCH  26  28
ENDBRANCH  25  26
ENDBRANCH  24  25
ENDBRANCH   1  24
TORSDOF 18
ENDMDL
