MODEL 1
REMARK VINA RESULT:     -12.1      0.000      0.000
REMARK SMILES O=C(Cc1ccccc1C(=O)OCCOC(=O)c1ccc(-c2c3nc(c(-c4cccc(S(=O)(=O)[O-])c4F)c4ccc([nH]4)c(-c4cccc(S(=O)(=O)[O-])c4F)c4nc(c(-c5cccc(S(=O)(=O)[O-])c5F)c5ccc2[nH]5)C=C4)C=C3)cc1)Nc1cccc(OC[C@@H]2CCCO2)c1
REMARK SMILES IDX 12 1 10 2 11 3 9 4 4 5 5 6 6 7 8 8 7 9 3 10 2 11 1 12 81 13
REMARK SMILES IDX 82 15 83 16 94 17 84 18 86 19 85 20 87 21 88 22 89 23 90 24
REMARK SMILES IDX 93 25 91 26 92 27 13 28 14 29 15 30 16 31 17 32 18 33 19 34
REMARK SMILES IDX 80 35 20 36 79 37 21 38 22 39 23 40 73 41 24 42 78 43 72 44
REMARK SMILES IDX 74 45 25 46 77 47 71 48 70 49 26 51 58 52 38 53 57 54 39 55
REMARK SMILES IDX 42 56 56 57 75 58 40 59 41 60 55 62 76 63 43 64 27 65 28 66
REMARK SMILES IDX 36 67 29 68 31 69 37 70 30 71 32 72 33 73 34 74 35 75 59 76
REMARK SMILES IDX 60 77 68 78 61 79 63 80 69 81 62 82 64 83 65 84 66 85 67 86
REMARK SMILES IDX 44 87 45 88 53 89 46 90 48 91 54 92 47 93 49 94 50 95 51 96
REMARK SMILES IDX 52 97
REMARK H PARENT 81 14 74 50 42 61
REMARK Flexibility Score: inf
ROOT
ATOM      1  O   UNL A   1      35.811  22.824  22.770  1.00  0.00    -0.458 OA
ENDROOT
BRANCH   1   2
ATOM      2  C   UNL A   1      34.652  23.425  23.138  1.00  0.00     0.338 C 
ATOM      3  O   UNL A   1      34.318  24.571  22.880  1.00  0.00    -0.246 OA
BRANCH   2   4
ATOM      4  C   UNL A   1      33.763  22.465  23.856  1.00  0.00     0.063 A 
ATOM      5  C   UNL A   1      33.490  22.560  25.233  1.00  0.00    -0.024 A 
ATOM      6  C   UNL A   1      32.721  21.545  25.840  1.00  0.00     0.005 A 
ATOM      7  C   UNL A   1      32.173  20.508  25.086  1.00  0.00     0.000 A 
ATOM      8  C   UNL A   1      33.164  21.443  23.102  1.00  0.00     0.016 A 
ATOM      9  C   UNL A   1      32.388  20.460  23.715  1.00  0.00     0.001 A 
BRANCH   5  10
ATOM     10  C   UNL A   1      34.015  23.724  26.035  1.00  0.00     0.136 C 
BRANCH  10  11
ATOM     11  C   UNL A   1      33.102  24.917  26.119  1.00  0.00     0.228 C 
ATOM     12  O   UNL A   1      32.103  24.874  26.834  1.00  0.00    -0.274 OA
ATOM     13  N   UNL A   1      33.503  26.003  25.345  1.00  0.00    -0.326 N 
ATOM     14  H   UNL A   1      34.300  25.911  24.775  1.00  0.00     0.169 HD
BRANCH  13  15
ATOM     15  C   UNL A   1      32.809  27.225  25.351  1.00  0.00     0.044 A 
ATOM     16  C   UNL A   1      33.436  28.369  25.838  1.00  0.00     0.026 A 
ATOM     17  C   UNL A   1      31.530  27.310  24.801  1.00  0.00     0.072 A 
ATOM     18  C   UNL A   1      32.825  29.610  25.647  1.00  0.00     0.006 A 
ATOM     19  C   UNL A   1      30.945  28.539  24.544  1.00  0.00     0.121 A 
ATOM     20  C   UNL A   1      31.598  29.694  24.979  1.00  0.00     0.046 A 
BRANCH  19  21
ATOM     21  O   UNL A   1      29.791  28.725  23.839  1.00  0.00    -0.491 OA
BRANCH  21  22
ATOM     22  C   UNL A   1      29.877  28.983  22.429  1.00  0.00     0.261 C 
BRANCH  22  23
ATOM     23  C   UNL A   1      29.573  30.423  21.991  1.00  0.00     0.156 C 
ATOM     24  C   UNL A   1      28.850  31.286  23.006  1.00  0.00     0.038 C 
ATOM     25  O   UNL A   1      28.741  30.437  20.813  1.00  0.00    -0.375 OA
ATOM     26  C   UNL A   1      28.320  32.388  22.121  1.00  0.00     0.031 C 
ATOM     27  C   UNL A   1      27.977  31.654  20.838  1.00  0.00     0.161 C 
ENDBRANCH  22  23
ENDBRANCH  21  22
ENDBRANCH  19  21
ENDBRANCH  13  15
ENDBRANCH  10  11
ENDBRANCH   5  10
ENDBRANCH   2   4
ENDBRANCH   1   2
BRANCH   1  28
ATOM     28  C   UNL A   1      36.895  22.827  23.724  1.00  0.00     0.275 C 
BRANCH  28  29
ATOM     29  C   UNL A   1      36.918  21.524  24.522  1.00  0.00     0.275 C 
BRANCH  29  30
ATOM     30  O   UNL A   1      37.397  21.781  25.853  1.00  0.00    -0.458 OA
BRANCH  30  31
ATOM     31  C   UNL A   1      38.727  21.600  26.019  1.00  0.00     0.338 C 
ATOM     32  O   UNL A   1      39.425  20.726  25.531  1.00  0.00    -0.246 OA
BRANCH  31  33
ATOM     33  C   UNL A   1      39.292  22.736  26.755  1.00  0.00     0.060 A 
ATOM     34  C   UNL A   1      38.722  23.978  26.516  1.00  0.00     0.016 A 
ATOM     35  C   UNL A   1      40.463  22.635  27.499  1.00  0.00     0.016 A 
ATOM     36  C   UNL A   1      39.375  25.140  26.903  1.00  0.00     0.010 A 
ATOM     37  C   UNL A   1      41.060  23.805  27.993  1.00  0.00     0.010 A 
ATOM     38  C   UNL A   1      40.554  25.076  27.657  1.00  0.00    -0.014 A 
BRANCH  38  39
ATOM     39  C   UNL A   1      41.247  26.345  28.035  1.00  0.00     0.031 A 
ATOM     40  C   UNL A   1      40.540  27.401  28.849  1.00  0.00     0.074 A 
ATOM     41  C   UNL A   1      42.538  26.538  27.688  1.00  0.00     0.049 A 
ATOM     42  N   UNL A   1      40.959  28.592  29.202  1.00  0.00    -0.248 NA
ATOM     43  C   UNL A   1      39.178  27.091  29.315  1.00  0.00     0.031 C 
ATOM     44  C   UNL A   1      43.354  25.606  26.906  1.00  0.00     0.029 A 
ATOM     45  N   UNL A   1      43.398  27.577  27.954  1.00  0.00    -0.354 N 
ATOM     46  C   UNL A   1      39.891  29.197  29.856  1.00  0.00     0.074 A 
ATOM     47  C   UNL A   1      38.804  28.242  29.856  1.00  0.00     0.031 C 
ATOM     48  C   UNL A   1      44.599  26.087  26.796  1.00  0.00     0.029 A 
ATOM     49  C   UNL A   1      44.652  27.407  27.412  1.00  0.00     0.049 A 
ATOM     50  H   UNL A   1      43.141  28.367  28.482  1.00  0.00     0.167 HD
ATOM     51  C   UNL A   1      39.821  30.431  30.415  1.00  0.00     0.034 A 
ATOM     52  C   UNL A   1      45.717  28.231  27.371  1.00  0.00     0.034 A 
ATOM     53  C   UNL A   1      40.924  31.357  30.476  1.00  0.00     0.049 A 
ATOM     54  C   UNL A   1      45.617  29.584  28.012  1.00  0.00     0.074 A 
ATOM     55  C   UNL A   1      40.963  32.609  31.065  1.00  0.00     0.029 A 
ATOM     56  N   UNL A   1      42.181  31.133  29.936  1.00  0.00    -0.354 N 
ATOM     57  N   UNL A   1      44.615  30.115  28.669  1.00  0.00    -0.248 NA
ATOM     58  C   UNL A   1      46.802  30.447  27.918  1.00  0.00     0.031 C 
ATOM     59  C   UNL A   1      42.234  33.155  30.854  1.00  0.00     0.029 A 
ATOM     60  C   UNL A   1      43.001  32.226  30.169  1.00  0.00     0.049 A 
ATOM     61  H   UNL A   1      42.452  30.316  29.457  1.00  0.00     0.167 HD
ATOM     62  C   UNL A   1      45.054  31.365  29.085  1.00  0.00     0.074 A 
ATOM     63  C   UNL A   1      46.427  31.494  28.640  1.00  0.00     0.031 C 
ATOM     64  C   UNL A   1      44.376  32.331  29.753  1.00  0.00     0.034 A 
BRANCH  51  65
ATOM     65  C   UNL A   1      38.504  30.859  31.016  1.00  0.00     0.023 A 
ATOM     66  C   UNL A   1      38.246  30.647  32.386  1.00  0.00     0.012 A 
ATOM     67  C   UNL A   1      37.541  31.524  30.229  1.00  0.00     0.148 A 
ATOM     68  C   UNL A   1      37.037  31.053  32.953  1.00  0.00     0.002 A 
ATOM     69  C   UNL A   1      36.360  31.971  30.812  1.00  0.00     0.091 A 
ATOM     70  F   UNL A   1      37.795  31.703  28.925  1.00  0.00    -0.205 F 
ATOM     71  C   UNL A   1      36.101  31.724  32.170  1.00  0.00     0.022 A 
BRANCH  69  72
ATOM     72  S   UNL A   1      35.130  32.920  29.910  1.00  0.00     0.127 S 
ATOM     73  O   UNL A   1      34.672  31.945  28.922  1.00  0.00    -0.237 OA
ATOM     74  O   UNL A   1      34.156  33.232  30.955  1.00  0.00    -0.237 OA
ATOM     75  O   UNL A   1      35.832  34.076  29.367  1.00  0.00    -0.744 OA
ENDBRANCH  69  72
ENDBRANCH  51  65
BRANCH  52  76
ATOM     76  C   UNL A   1      46.972  27.795  26.691  1.00  0.00     0.023 A 
ATOM     77  C   UNL A   1      47.997  27.186  27.439  1.00  0.00     0.012 A 
ATOM     78  C   UNL A   1      47.142  27.961  25.302  1.00  0.00     0.148 A 
ATOM     79  C   UNL A   1      49.180  26.775  26.821  1.00  0.00     0.002 A 
ATOM     80  C   UNL A   1      48.291  27.488  24.683  1.00  0.00     0.091 A 
ATOM     81  F   UNL A   1      46.165  28.564  24.610  1.00  0.00    -0.205 F 
ATOM     82  C   UNL A   1      49.320  26.912  25.442  1.00  0.00     0.022 A 
BRANCH  80  83
ATOM     83  S   UNL A   1      48.487  27.486  22.897  1.00  0.00     0.127 S 
ATOM     84  O   UNL A   1      49.786  28.134  22.739  1.00  0.00    -0.237 OA
ATOM     85  O   UNL A   1      48.469  26.055  22.594  1.00  0.00    -0.237 OA
ATOM     86  O   UNL A   1      47.344  28.223  22.376  1.00  0.00    -0.744 OA
ENDBRANCH  80  83
ENDBRANCH  52  76
BRANCH  64  87
ATOM     87  C   UNL A   1      45.126  33.599  30.073  1.00  0.00     0.023 A 
ATOM     88  C   UNL A   1      45.800  33.727  31.304  1.00  0.00     0.012 A 
ATOM     89  C   UNL A   1      45.174  34.659  29.147  1.00  0.00     0.148 A 
ATOM     90  C   UNL A   1      46.460  34.912  31.632  1.00  0.00     0.002 A 
ATOM     91  C   UNL A   1      45.880  35.815  29.457  1.00  0.00     0.091 A 
ATOM     92  F   UNL A   1      44.511  34.528  27.988  1.00  0.00    -0.205 F 
ATOM     93  C   UNL A   1      46.508  35.950  30.706  1.00  0.00     0.022 A 
BRANCH  91  94
ATOM     94  S   UNL A   1      46.073  37.162  28.287  1.00  0.00     0.127 S 
ATOM     95  O   UNL A   1      44.832  37.909  28.483  1.00  0.00    -0.237 OA
ATOM     96  O   UNL A   1      47.274  37.836  28.783  1.00  0.00    -0.237 OA
ATOM     97  O   UNL A   1      46.231  36.537  26.981  1.00  0.00    -0.744 OA
ENDBRANCH  91  94
ENDBRANCH  64  87
ENDBRANCH  38  39
ENDBRANCH  31  33
ENDBRANCH  30  31
ENDBRANCH  29  30
ENDBRANCH  28  29
ENDBRANCH   1  28
TORSDOF 20
ENDMDL
MODEL 2
REMARK VINA RESULT:     -12.1      1.506      2.054
REMARK SMILES O=C(Cc1ccccc1C(=O)OCCOC(=O)c1ccc(-c2c3nc(c(-c4cccc(S(=O)(=O)[O-])c4F)c4ccc([nH]4)c(-c4cccc(S(=O)(=O)[O-])c4F)c4nc(c(-c5cccc(S(=O)(=O)[O-])c5F)c5ccc2[nH]5)C=C4)C=C3)cc1)Nc1cccc(OC[C@@H]2CCCO2)c1
REMARK SMILES IDX 12 1 10 2 11 3 9 4 4 5 5 6 6 7 8 8 7 9 3 10 2 11 1 12 81 13
REMARK SMILES IDX 82 15 83 16 94 17 84 18 86 19 85 20 87 21 88 22 89 23 90 24
REMARK SMILES IDX 93 25 91 26 92 27 13 28 14 29 15 30 16 31 17 32 18 33 19 34
REMARK SMILES IDX 80 35 20 36 79 37 21 38 22 39 23 40 73 41 24 42 78 43 72 44
REMARK SMILES IDX 74 45 25 46 77 47 71 48 70 49 26 51 58 52 38 53 57 54 39 55
REMARK SMILES IDX 42 56 56 57 75 58 40 59 41 60 55 62 76 63 43 64 27 65 28 66
REMARK SMILES IDX 36 67 29 68 31 69 37 70 30 71 32 72 33 73 34 74 35 75 59 76
REMARK SMILES IDX 60 77 68 78 61 79 63 80 69 81 62 82 64 83 65 84 66 85 67 86
REMARK SMILES IDX 44 87 45 88 53 89 46 90 48 91 54 92 47 93 49 94 50 95 51 96
REMARK SMILES IDX 52 97
REMARK H PARENT 81 14 74 50 42 61
REMARK Flexibility Score: inf
ROOT
ATOM      1  O   UNL A   1      34.611  22.250  25.335  1.00  0.00    -0.458 OA
ENDROOT
BRANCH   1   2
ATOM      2  C   UNL A   1      33.348  21.822  25.586  1.00  0.00     0.338 C 
ATOM      3  O   UNL A   1      32.582  22.278  26.420  1.00  0.00    -0.246 OA
BRANCH   2   4
ATOM      4  C   UNL A   1      32.960  20.736  24.638  1.00  0.00     0.063 A 
ATOM      5  C   UNL A   1      32.616  20.980  23.296  1.00  0.00    -0.024 A 
ATOM      6  C   UNL A   1      32.164  19.901  22.507  1.00  0.00     0.005 A 
ATOM      7  C   UNL A   1      32.130  18.603  23.016  1.00  0.00     0.000 A 
ATOM      8  C   UNL A   1      32.969  19.417  25.120  1.00  0.00     0.016 A 
ATOM      9  C   UNL A   1      32.540  18.359  24.320  1.00  0.00     0.001 A 
BRANCH   5  10
ATOM     10  C   UNL A   1      32.728  22.370  22.721  1.00  0.00     0.136 C 
BRANCH  10  11
ATOM     11  C   UNL A   1      31.937  23.431  23.435  1.00  0.00     0.228 C 
ATOM     12  O   UNL A   1      30.729  23.285  23.605  1.00  0.00    -0.274 OA
ATOM     13  N   UNL A   1      32.691  24.524  23.856  1.00  0.00    -0.326 N 
ATOM     14  H   UNL A   1      33.648  24.558  23.628  1.00  0.00     0.169 HD
BRANCH  13  15
ATOM     15  C   UNL A   1      32.133  25.580  24.597  1.00  0.00     0.044 A 
ATOM     16  C   UNL A   1      32.211  25.561  25.987  1.00  0.00     0.026 A 
ATOM     17  C   UNL A   1      31.574  26.678  23.944  1.00  0.00     0.072 A 
ATOM     18  C   UNL A   1      31.847  26.704  26.702  1.00  0.00     0.006 A 
ATOM     19  C   UNL A   1      31.275  27.842  24.634  1.00  0.00     0.121 A 
ATOM     20  C   UNL A   1      31.407  27.847  26.024  1.00  0.00     0.046 A 
BRANCH  19  21
ATOM     21  O   UNL A   1      30.909  29.023  24.057  1.00  0.00    -0.491 OA
BRANCH  21  22
ATOM     22  C   UNL A   1      29.748  29.048  23.213  1.00  0.00     0.261 C 
BRANCH  22  23
ATOM     23  C   UNL A   1      29.485  30.368  22.473  1.00  0.00     0.156 C 
ATOM     24  C   UNL A   1      28.636  31.384  23.211  1.00  0.00     0.038 C 
ATOM     25  O   UNL A   1      28.802  30.131  21.225  1.00  0.00    -0.375 OA
ATOM     26  C   UNL A   1      28.207  32.279  22.073  1.00  0.00     0.031 C 
ATOM     27  C   UNL A   1      28.029  31.304  20.925  1.00  0.00     0.161 C 
ENDBRANCH  22  23
ENDBRANCH  21  22
ENDBRANCH  19  21
ENDBRANCH  13  15
ENDBRANCH  10  11
ENDBRANCH   5  10
ENDBRANCH   2   4
ENDBRANCH   1   2
BRANCH   1  28
ATOM     28  C   UNL A   1      35.678  21.678  26.122  1.00  0.00     0.275 C 
BRANCH  28  29
ATOM     29  C   UNL A   1      36.536  20.741  25.272  1.00  0.00     0.275 C 
BRANCH  29  30
ATOM     30  O   UNL A   1      37.786  21.379  24.960  1.00  0.00    -0.458 OA
BRANCH  30  31
ATOM     31  C   UNL A   1      38.818  21.019  25.758  1.00  0.00     0.338 C 
ATOM     32  O   UNL A   1      39.349  19.924  25.837  1.00  0.00    -0.246 OA
BRANCH  31  33
ATOM     33  C   UNL A   1      39.361  22.205  26.428  1.00  0.00     0.060 A 
ATOM     34  C   UNL A   1      38.782  23.424  26.102  1.00  0.00     0.016 A 
ATOM     35  C   UNL A   1      40.522  22.165  27.192  1.00  0.00     0.016 A 
ATOM     36  C   UNL A   1      39.418  24.615  26.423  1.00  0.00     0.010 A 
ATOM     37  C   UNL A   1      41.102  23.371  27.617  1.00  0.00     0.010 A 
ATOM     38  C   UNL A   1      40.587  24.612  27.195  1.00  0.00    -0.014 A 
BRANCH  38  39
ATOM     39  C   UNL A   1      41.263  25.910  27.501  1.00  0.00     0.031 A 
ATOM     40  C   UNL A   1      40.586  26.951  28.359  1.00  0.00     0.074 A 
ATOM     41  C   UNL A   1      42.513  26.143  27.047  1.00  0.00     0.049 A 
ATOM     42  N   UNL A   1      40.989  28.161  28.662  1.00  0.00    -0.248 NA
ATOM     43  C   UNL A   1      39.279  26.600  28.939  1.00  0.00     0.031 C 
ATOM     44  C   UNL A   1      43.296  25.229  26.211  1.00  0.00     0.029 A 
ATOM     45  N   UNL A   1      43.354  27.215  27.230  1.00  0.00    -0.354 N 
ATOM     46  C   UNL A   1      39.957  28.738  29.395  1.00  0.00     0.074 A 
ATOM     47  C   UNL A   1      38.910  27.745  29.495  1.00  0.00     0.031 C 
ATOM     48  C   UNL A   1      44.509  25.752  25.994  1.00  0.00     0.029 A 
ATOM     49  C   UNL A   1      44.564  27.082  26.588  1.00  0.00     0.049 A 
ATOM     50  H   UNL A   1      43.112  28.003  27.768  1.00  0.00     0.167 HD
ATOM     51  C   UNL A   1      39.889  29.976  29.944  1.00  0.00     0.034 A 
ATOM     52  C   UNL A   1      45.592  27.942  26.451  1.00  0.00     0.034 A 
ATOM     53  C   UNL A   1      40.958  30.941  29.904  1.00  0.00     0.049 A 
ATOM     54  C   UNL A   1      45.496  29.299  27.083  1.00  0.00     0.074 A 
ATOM     55  C   UNL A   1      41.000  32.202  30.474  1.00  0.00     0.029 A 
ATOM     56  N   UNL A   1      42.175  30.754  29.265  1.00  0.00    -0.354 N 
ATOM     57  N   UNL A   1      44.532  29.804  27.814  1.00  0.00    -0.248 NA
ATOM     58  C   UNL A   1      46.637  30.203  26.883  1.00  0.00     0.031 C 
ATOM     59  C   UNL A   1      42.229  32.789  30.153  1.00  0.00     0.029 A 
ATOM     60  C   UNL A   1      42.970  31.878  29.418  1.00  0.00     0.049 A 
ATOM     61  H   UNL A   1      42.435  29.940  28.774  1.00  0.00     0.167 HD
ATOM     62  C   UNL A   1      44.958  31.075  28.179  1.00  0.00     0.074 A 
ATOM     63  C   UNL A   1      46.285  31.245  27.621  1.00  0.00     0.031 C 
ATOM     64  C   UNL A   1      44.302  32.025  28.889  1.00  0.00     0.034 A 
BRANCH  51  65
ATOM     65  C   UNL A   1      38.610  30.366  30.647  1.00  0.00     0.023 A 
ATOM     66  C   UNL A   1      38.420  30.045  32.006  1.00  0.00     0.012 A 
ATOM     67  C   UNL A   1      37.618  31.102  29.968  1.00  0.00     0.148 A 
ATOM     68  C   UNL A   1      37.248  30.414  32.667  1.00  0.00     0.002 A 
ATOM     69  C   UNL A   1      36.475  31.512  30.647  1.00  0.00     0.091 A 
ATOM     70  F   UNL A   1      37.806  31.386  28.671  1.00  0.00    -0.205 F 
ATOM     71  C   UNL A   1      36.282  31.156  31.992  1.00  0.00     0.022 A 
BRANCH  69  72
ATOM     72  S   UNL A   1      35.214  32.544  29.891  1.00  0.00     0.127 S 
ATOM     73  O   UNL A   1      34.264  32.702  30.991  1.00  0.00    -0.237 OA
ATOM     74  O   UNL A   1      35.966  33.753  29.557  1.00  0.00    -0.237 OA
ATOM     75  O   UNL A   1      34.719  31.799  28.741  1.00  0.00    -0.744 OA
ENDBRANCH  69  72
ENDBRANCH  51  65
BRANCH  52  76
ATOM     76  C   UNL A   1      46.802  27.541  25.676  1.00  0.00     0.023 A 
ATOM     77  C   UNL A   1      46.861  27.792  24.292  1.00  0.00     0.012 A 
ATOM     78  C   UNL A   1      47.905  26.934  26.310  1.00  0.00     0.148 A 
ATOM     79  C   UNL A   1      47.983  27.421  23.548  1.00  0.00     0.002 A 
ATOM     80  C   UNL A   1      49.045  26.632  25.578  1.00  0.00     0.091 A 
ATOM     81  F   UNL A   1      47.822  26.683  27.624  1.00  0.00    -0.205 F 
ATOM     82  C   UNL A   1      49.080  26.855  24.194  1.00  0.00     0.022 A 
BRANCH  80  83
ATOM     83  S   UNL A   1      50.555  26.043  26.354  1.00  0.00     0.127 S 
ATOM     84  O   UNL A   1      50.052  24.971  27.209  1.00  0.00    -0.237 OA
ATOM     85  O   UNL A   1      51.333  25.597  25.198  1.00  0.00    -0.237 OA
ATOM     86  O   UNL A   1      51.116  27.195  27.046  1.00  0.00    -0.744 OA
ENDBRANCH  80  83
ENDBRANCH  52  76
BRANCH  64  87
ATOM     87  C   UNL A   1      45.030  33.323  29.132  1.00  0.00     0.023 A 
ATOM     88  C   UNL A   1      45.836  33.475  30.278  1.00  0.00     0.012 A 
ATOM     89  C   UNL A   1      44.925  34.388  28.217  1.00  0.00     0.148 A 
ATOM     90  C   UNL A   1      46.478  34.686  30.539  1.00  0.00     0.002 A 
ATOM     91  C   UNL A   1      45.612  35.572  28.455  1.00  0.00     0.091 A 
ATOM     92  F   UNL A   1      44.139  34.234  27.141  1.00  0.00    -0.205 F 
ATOM     93  C   UNL A   1      46.374  35.730  29.623  1.00  0.00     0.022 A 
BRANCH  91  94
ATOM     94  S   UNL A   1      45.611  36.932  27.282  1.00  0.00     0.127 S 
ATOM     95  O   UNL A   1      46.240  36.320  26.113  1.00  0.00    -0.237 OA
ATOM     96  O   UNL A   1      44.183  37.211  27.129  1.00  0.00    -0.237 OA
ATOM     97  O   UNL A   1      46.369  38.004  27.914  1.00  0.00    -0.744 OA
ENDBRANCH  91  94
ENDBRANCH  64  87
ENDBRANCH  38  39
ENDBRANCH  31  33
ENDBRANCH  30  31
ENDBRANCH  29  30
ENDBRANCH  28  29
ENDBRANCH   1  28
TORSDOF 20
ENDMDL
MODEL 3
REMARK VINA RESULT:     -11.9      1.143      7.432
REMARK SMILES O=C(Cc1ccccc1C(=O)OCCOC(=O)c1ccc(-c2c3nc(c(-c4cccc(S(=O)(=O)[O-])c4F)c4ccc([nH]4)c(-c4cccc(S(=O)(=O)[O-])c4F)c4nc(c(-c5cccc(S(=O)(=O)[O-])c5F)c5ccc2[nH]5)C=C4)C=C3)cc1)Nc1cccc(OC[C@@H]2CCCO2)c1
REMARK SMILES IDX 12 1 10 2 11 3 9 4 4 5 5 6 6 7 8 8 7 9 3 10 2 11 1 12 81 13
REMARK SMILES IDX 82 15 83 16 94 17 84 18 86 19 85 20 87 21 88 22 89 23 90 24
REMARK SMILES IDX 93 25 91 26 92 27 13 28 14 29 15 30 16 31 17 32 18 33 19 34
REMARK SMILES IDX 80 35 20 36 79 37 21 38 22 39 23 40 73 41 24 42 78 43 72 44
REMARK SMILES IDX 74 45 25 46 77 47 71 48 70 49 26 51 58 52 38 53 57 54 39 55
REMARK SMILES IDX 42 56 56 57 75 58 40 59 41 60 55 62 76 63 43 64 27 65 28 66
REMARK SMILES IDX 36 67 29 68 31 69 37 70 30 71 32 72 33 73 34 74 35 75 59 76
REMARK SMILES IDX 60 77 68 78 61 79 63 80 69 81 62 82 64 83 65 84 66 85 67 86
REMARK SMILES IDX 44 87 45 88 53 89 46 90 48 91 54 92 47 93 49 94 50 95 51 96
REMARK SMILES IDX 52 97
REMARK H PARENT 81 14 74 50 42 61
REMARK Flexibility Score: inf
ROOT
ATOM      1  O   UNL A   1      35.127  21.941  25.029  1.00  0.00    -0.458 OA
ENDROOT
BRANCH   1   2
ATOM      2  C   UNL A   1      33.837  21.675  25.354  1.00  0.00     0.338 C 
ATOM      3  O   UNL A   1      33.186  22.216  26.235  1.00  0.00    -0.246 OA
BRANCH   2   4
ATOM      4  C   UNL A   1      33.258  20.658  24.428  1.00  0.00     0.063 A 
ATOM      5  C   UNL A   1      32.772  20.978  23.147  1.00  0.00    -0.024 A 
ATOM      6  C   UNL A   1      32.150  19.966  22.388  1.00  0.00     0.005 A 
ATOM      7  C   UNL A   1      32.083  18.653  22.855  1.00  0.00     0.000 A 
ATOM      8  C   UNL A   1      33.228  19.323  24.864  1.00  0.00     0.016 A 
ATOM      9  C   UNL A   1      32.629  18.329  24.091  1.00  0.00     0.001 A 
BRANCH   5  10
ATOM     10  C   UNL A   1      32.916  22.379  22.607  1.00  0.00     0.136 C 
BRANCH  10  11
ATOM     11  C   UNL A   1      32.079  23.425  23.290  1.00  0.00     0.228 C 
ATOM     12  O   UNL A   1      30.863  23.274  23.381  1.00  0.00    -0.274 OA
ATOM     13  N   UNL A   1      32.802  24.511  23.779  1.00  0.00    -0.326 N 
ATOM     14  H   UNL A   1      33.771  24.550  23.612  1.00  0.00     0.169 HD
BRANCH  13  15
ATOM     15  C   UNL A   1      32.195  25.551  24.503  1.00  0.00     0.044 A 
ATOM     16  C   UNL A   1      32.157  25.490  25.893  1.00  0.00     0.026 A 
ATOM     17  C   UNL A   1      31.705  26.676  23.840  1.00  0.00     0.072 A 
ATOM     18  C   UNL A   1      31.748  26.616  26.610  1.00  0.00     0.006 A 
ATOM     19  C   UNL A   1      31.362  27.822  24.539  1.00  0.00     0.121 A 
ATOM     20  C   UNL A   1      31.378  27.784  25.934  1.00  0.00     0.046 A 
BRANCH  19  21
ATOM     21  O   UNL A   1      31.058  29.025  23.969  1.00  0.00    -0.491 OA
BRANCH  21  22
ATOM     22  C   UNL A   1      30.357  29.039  22.717  1.00  0.00     0.261 C 
BRANCH  22  23
ATOM     23  C   UNL A   1      29.595  30.332  22.389  1.00  0.00     0.156 C 
ATOM     24  C   UNL A   1      28.306  30.554  23.155  1.00  0.00     0.038 C 
ATOM     25  O   UNL A   1      29.225  30.371  20.995  1.00  0.00    -0.375 OA
ATOM     26  C   UNL A   1      27.631  31.589  22.287  1.00  0.00     0.031 C 
ATOM     27  C   UNL A   1      28.036  31.169  20.886  1.00  0.00     0.161 C 
ENDBRANCH  22  23
ENDBRANCH  21  22
ENDBRANCH  19  21
ENDBRANCH  13  15
ENDBRANCH  10  11
ENDBRANCH   5  10
ENDBRANCH   2   4
ENDBRANCH   1   2
BRANCH   1  28
ATOM     28  C   UNL A   1      36.155  21.426  25.901  1.00  0.00     0.275 C 
BRANCH  28  29
ATOM     29  C   UNL A   1      37.116  20.522  25.131  1.00  0.00     0.275 C 
BRANCH  29  30
ATOM     30  O   UNL A   1      38.373  21.196  24.949  1.00  0.00    -0.458 OA
BRANCH  30  31
ATOM     31  C   UNL A   1      39.305  20.914  25.889  1.00  0.00     0.338 C 
ATOM     32  O   UNL A   1      39.842  19.840  26.105  1.00  0.00    -0.246 OA
BRANCH  31  33
ATOM     33  C   UNL A   1      39.740  22.155  26.540  1.00  0.00     0.060 A 
ATOM     34  C   UNL A   1      39.169  23.333  26.079  1.00  0.00     0.016 A 
ATOM     35  C   UNL A   1      40.810  22.197  27.427  1.00  0.00     0.016 A 
ATOM     36  C   UNL A   1      39.734  24.560  26.393  1.00  0.00     0.010 A 
ATOM     37  C   UNL A   1      41.308  23.444  27.838  1.00  0.00     0.010 A 
ATOM     38  C   UNL A   1      40.811  24.641  27.287  1.00  0.00    -0.014 A 
BRANCH  38  39
ATOM     39  C   UNL A   1      41.414  25.976  27.583  1.00  0.00     0.031 A 
ATOM     40  C   UNL A   1      42.786  26.336  27.067  1.00  0.00     0.074 A 
ATOM     41  C   UNL A   1      40.712  26.894  28.281  1.00  0.00     0.049 A 
ATOM     42  N   UNL A   1      43.496  27.415  27.290  1.00  0.00    -0.248 NA
ATOM     43  C   UNL A   1      43.460  25.353  26.202  1.00  0.00     0.031 C 
ATOM     44  C   UNL A   1      39.373  26.692  28.840  1.00  0.00     0.029 A 
ATOM     45  N   UNL A   1      41.018  28.187  28.634  1.00  0.00    -0.354 N 
ATOM     46  C   UNL A   1      44.721  27.207  26.665  1.00  0.00     0.074 A 
ATOM     47  C   UNL A   1      44.658  25.899  26.048  1.00  0.00     0.031 C 
ATOM     48  C   UNL A   1      38.956  27.825  29.419  1.00  0.00     0.029 A 
ATOM     49  C   UNL A   1      40.031  28.807  29.365  1.00  0.00     0.049 A 
ATOM     50  H   UNL A   1      41.864  28.626  28.388  1.00  0.00     0.167 HD
ATOM     51  C   UNL A   1      45.797  28.029  26.600  1.00  0.00     0.034 A 
ATOM     52  C   UNL A   1      39.999  30.013  29.964  1.00  0.00     0.034 A 
ATOM     53  C   UNL A   1      45.836  29.358  27.154  1.00  0.00     0.049 A 
ATOM     54  C   UNL A   1      41.198  30.909  29.862  1.00  0.00     0.074 A 
ATOM     55  C   UNL A   1      46.864  30.285  27.095  1.00  0.00     0.029 A 
ATOM     56  N   UNL A   1      44.805  29.955  27.864  1.00  0.00    -0.354 N 
ATOM     57  N   UNL A   1      42.325  30.712  29.222  1.00  0.00    -0.248 NA
ATOM     58  C   UNL A   1      41.115  32.204  30.552  1.00  0.00     0.031 C 
ATOM     59  C   UNL A   1      46.465  31.429  27.796  1.00  0.00     0.029 A 
ATOM     60  C   UNL A   1      45.173  31.232  28.256  1.00  0.00     0.049 A 
ATOM     61  H   UNL A   1      43.937  29.532  28.060  1.00  0.00     0.167 HD
ATOM     62  C   UNL A   1      43.078  31.864  29.415  1.00  0.00     0.074 A 
ATOM     63  C   UNL A   1      42.260  32.769  30.197  1.00  0.00     0.031 C 
ATOM     64  C   UNL A   1      44.341  32.138  29.005  1.00  0.00     0.034 A 
BRANCH  51  65
ATOM     65  C   UNL A   1      47.032  27.520  25.895  1.00  0.00     0.023 A 
ATOM     66  C   UNL A   1      47.960  26.712  26.583  1.00  0.00     0.012 A 
ATOM     67  C   UNL A   1      47.243  27.801  24.530  1.00  0.00     0.148 A 
ATOM     68  C   UNL A   1      49.097  26.226  25.935  1.00  0.00     0.002 A 
ATOM     69  C   UNL A   1      48.351  27.271  23.878  1.00  0.00     0.091 A 
ATOM     70  F   UNL A   1      46.360  28.584  23.895  1.00  0.00    -0.205 F 
ATOM     71  C   UNL A   1      49.286  26.495  24.583  1.00  0.00     0.022 A 
BRANCH  69  72
ATOM     72  S   UNL A   1      48.638  27.488  22.117  1.00  0.00     0.127 S 
ATOM     73  O   UNL A   1      48.673  26.102  21.652  1.00  0.00    -0.237 OA
ATOM     74  O   UNL A   1      47.453  28.239  21.704  1.00  0.00    -0.237 OA
ATOM     75  O   UNL A   1      49.893  28.217  22.001  1.00  0.00    -0.744 OA
ENDBRANCH  69  72
ENDBRANCH  51  65
BRANCH  52  76
ATOM     76  C   UNL A   1      38.786  30.439  30.721  1.00  0.00     0.023 A 
ATOM     77  C   UNL A   1      38.698  30.185  32.102  1.00  0.00     0.012 A 
ATOM     78  C   UNL A   1      37.730  31.118  30.080  1.00  0.00     0.148 A 
ATOM     79  C   UNL A   1      37.569  30.573  32.827  1.00  0.00     0.002 A 
ATOM     80  C   UNL A   1      36.642  31.562  30.819  1.00  0.00     0.091 A 
ATOM     81  F   UNL A   1      37.820  31.331  28.760  1.00  0.00    -0.205 F 
ATOM     82  C   UNL A   1      36.549  31.274  32.188  1.00  0.00     0.022 A 
BRANCH  80  83
ATOM     83  S   UNL A   1      35.360  32.601  30.109  1.00  0.00     0.127 S 
ATOM     84  O   UNL A   1      36.104  33.816  29.789  1.00  0.00    -0.237 OA
ATOM     85  O   UNL A   1      34.940  31.811  28.950  1.00  0.00    -0.237 OA
ATOM     86  O   UNL A   1      34.343  32.733  31.143  1.00  0.00    -0.744 OA
ENDBRANCH  80  83
ENDBRANCH  52  76
BRANCH  64  87
ATOM     87  C   UNL A   1      44.900  33.491  29.367  1.00  0.00     0.023 A 
ATOM     88  C   UNL A   1      45.622  33.657  30.565  1.00  0.00     0.012 A 
ATOM     89  C   UNL A   1      44.720  34.595  28.512  1.00  0.00     0.148 A 
ATOM     90  C   UNL A   1      46.105  34.912  30.935  1.00  0.00     0.002 A 
ATOM     91  C   UNL A   1      45.252  35.831  28.859  1.00  0.00     0.091 A 
ATOM     92  F   UNL A   1      44.014  34.425  27.384  1.00  0.00    -0.205 F 
ATOM     93  C   UNL A   1      45.929  35.996  30.078  1.00  0.00     0.022 A 
BRANCH  91  94
ATOM     94  S   UNL A   1      45.155  37.256  27.771  1.00  0.00     0.127 S 
ATOM     95  O   UNL A   1      46.020  36.848  26.666  1.00  0.00    -0.237 OA
ATOM     96  O   UNL A   1      43.729  37.301  27.444  1.00  0.00    -0.237 OA
ATOM     97  O   UNL A   1      45.628  38.389  28.555  1.00  0.00    -0.744 OA
ENDBRANCH  91  94
ENDBRANCH  64  87
ENDBRANCH  38  39
ENDBRANCH  31  33
ENDBRANCH  30  31
ENDBRANCH  29  30
ENDBRANCH  28  29
ENDBRANCH   1  28
TORSDOF 20
ENDMDL
