MODEL 1
REMARK VINA RESULT:     -10.2      0.000      0.000
REMARK SMILES O=C(OCCOC(=O)[C@@]1([NH2+]C2CC2)CC[C@H](OC2CCC2)C1)c1ccc(-c2c3nc(c(-c4cccc(S(=O)(=O)[O-])c4F)c4ccc([nH]4)c(-c4cccc(S(=O)(=O)[O-])c4F)c4nc(c(-c5cccc(S(=O)(=O)[O-])c5F)c5ccc2[nH]5)C=C4)C=C3)cc1
REMARK SMILES IDX 4 1 3 2 2 3 1 4 23 5 24 6 85 7 25 8 84 9 26 10 27 11 28 12
REMARK SMILES IDX 78 13 29 14 83 15 77 16 79 17 30 18 82 19 76 20 75 21 31 23
REMARK SMILES IDX 63 24 43 25 62 26 44 27 47 28 61 29 80 30 45 31 46 32 60 34
REMARK SMILES IDX 81 35 48 36 32 37 33 38 41 39 34 40 36 41 42 42 35 43 37 44
REMARK SMILES IDX 38 45 39 46 40 47 64 48 65 49 73 50 66 51 68 52 74 53 67 54
REMARK SMILES IDX 69 55 70 56 71 57 72 58 49 59 50 60 58 61 51 62 53 63 59 64
REMARK SMILES IDX 52 65 54 66 55 67 56 68 57 69 5 70 6 71 7 72 8 73 9 74 14 75
REMARK SMILES IDX 22 76 15 77 16 78 10 79 11 82 12 83 13 84 17 85 18 86 19 87
REMARK SMILES IDX 21 88 20 89
REMARK H PARENT 79 22 47 33 10 80 10 81
REMARK Flexibility Score: inf
ROOT
ATOM      1  C   UNL A   1      33.729  32.561  28.450  1.00  0.00     0.275 C 
ENDROOT
BRANCH   1   2
ATOM      2  O   UNL A   1      34.340  31.729  27.453  1.00  0.00    -0.458 OA
BRANCH   2   3
ATOM      3  C   UNL A   1      34.791  30.457  27.542  1.00  0.00     0.338 C 
ATOM      4  O   UNL A   1      34.038  29.551  27.181  1.00  0.00    -0.246 OA
BRANCH   3   5
ATOM      5  C   UNL A   1      36.094  30.067  28.177  1.00  0.00     0.060 A 
ATOM      6  C   UNL A   1      36.279  29.564  29.467  1.00  0.00     0.016 A 
ATOM      7  C   UNL A   1      37.221  30.126  27.337  1.00  0.00     0.016 A 
ATOM      8  C   UNL A   1      37.500  29.011  29.864  1.00  0.00     0.010 A 
ATOM      9  C   UNL A   1      38.423  29.515  27.706  1.00  0.00     0.010 A 
ATOM     10  C   UNL A   1      38.570  28.939  28.974  1.00  0.00    -0.014 A 
BRANCH  10  11
ATOM     11  C   UNL A   1      39.862  28.367  29.427  1.00  0.00     0.031 A 
ATOM     12  C   UNL A   1      40.630  29.125  30.470  1.00  0.00     0.074 A 
ATOM     13  C   UNL A   1      40.317  27.182  28.961  1.00  0.00     0.049 A 
ATOM     14  N   UNL A   1      41.704  28.772  31.121  1.00  0.00    -0.248 NA
ATOM     15  C   UNL A   1      40.124  30.463  30.834  1.00  0.00     0.031 C 
ATOM     16  C   UNL A   1      39.688  26.365  27.920  1.00  0.00     0.029 A 
ATOM     17  N   UNL A   1      41.429  26.454  29.310  1.00  0.00    -0.354 N 
ATOM     18  C   UNL A   1      41.979  29.828  31.976  1.00  0.00     0.074 A 
ATOM     19  C   UNL A   1      41.044  30.884  31.681  1.00  0.00     0.031 C 
ATOM     20  C   UNL A   1      40.435  25.267  27.698  1.00  0.00     0.029 A 
ATOM     21  C   UNL A   1      41.581  25.284  28.597  1.00  0.00     0.049 A 
ATOM     22  H   UNL A   1      42.063  26.743  30.007  1.00  0.00     0.167 HD
ATOM     23  C   UNL A   1      42.872  29.890  32.988  1.00  0.00     0.034 A 
ATOM     24  C   UNL A   1      42.526  24.325  28.684  1.00  0.00     0.034 A 
ATOM     25  C   UNL A   1      43.796  28.842  33.288  1.00  0.00     0.049 A 
ATOM     26  C   UNL A   1      43.555  24.440  29.783  1.00  0.00     0.074 A 
ATOM     27  C   UNL A   1      44.748  28.791  34.285  1.00  0.00     0.029 A 
ATOM     28  N   UNL A   1      43.889  27.658  32.572  1.00  0.00    -0.354 N 
ATOM     29  N   UNL A   1      43.690  25.374  30.694  1.00  0.00    -0.248 NA
ATOM     30  C   UNL A   1      44.520  23.337  29.911  1.00  0.00     0.031 C 
ATOM     31  C   UNL A   1      45.440  27.583  34.154  1.00  0.00     0.029 A 
ATOM     32  C   UNL A   1      44.891  26.869  33.099  1.00  0.00     0.049 A 
ATOM     33  H   UNL A   1      43.324  27.418  31.801  1.00  0.00     0.167 HD
ATOM     34  C   UNL A   1      44.715  24.949  31.531  1.00  0.00     0.074 A 
ATOM     35  C   UNL A   1      45.150  23.660  31.032  1.00  0.00     0.031 C 
ATOM     36  C   UNL A   1      45.258  25.565  32.610  1.00  0.00     0.034 A 
BRANCH  23  37
ATOM     37  C   UNL A   1      42.819  31.120  33.846  1.00  0.00     0.023 A 
ATOM     38  C   UNL A   1      43.499  32.285  33.423  1.00  0.00     0.012 A 
ATOM     39  C   UNL A   1      42.164  31.111  35.087  1.00  0.00     0.148 A 
ATOM     40  C   UNL A   1      43.576  33.402  34.252  1.00  0.00     0.002 A 
ATOM     41  C   UNL A   1      42.206  32.244  35.888  1.00  0.00     0.091 A 
ATOM     42  F   UNL A   1      41.550  29.985  35.475  1.00  0.00    -0.205 F 
ATOM     43  C   UNL A   1      42.925  33.383  35.482  1.00  0.00     0.022 A 
BRANCH  41  44
ATOM     44  S   UNL A   1      41.362  32.346  37.468  1.00  0.00     0.127 S 
ATOM     45  O   UNL A   1      40.032  31.846  37.127  1.00  0.00    -0.237 OA
ATOM     46  O   UNL A   1      42.162  31.446  38.295  1.00  0.00    -0.237 OA
ATOM     47  O   UNL A   1      41.411  33.750  37.862  1.00  0.00    -0.744 OA
ENDBRANCH  41  44
ENDBRANCH  23  37
BRANCH  24  48
ATOM     48  C   UNL A   1      42.515  23.134  27.778  1.00  0.00     0.023 A 
ATOM     49  C   UNL A   1      41.566  22.109  27.976  1.00  0.00     0.012 A 
ATOM     50  C   UNL A   1      43.480  22.980  26.762  1.00  0.00     0.148 A 
ATOM     51  C   UNL A   1      41.616  20.932  27.225  1.00  0.00     0.002 A 
ATOM     52  C   UNL A   1      43.495  21.824  25.985  1.00  0.00     0.091 A 
ATOM     53  F   UNL A   1      44.380  23.957  26.588  1.00  0.00    -0.205 F 
ATOM     54  C   UNL A   1      42.579  20.789  26.230  1.00  0.00     0.022 A 
BRANCH  52  55
ATOM     55  S   UNL A   1      44.640  21.585  24.621  1.00  0.00     0.127 S 
ATOM     56  O   UNL A   1      44.317  20.227  24.193  1.00  0.00    -0.237 OA
ATOM     57  O   UNL A   1      44.227  22.637  23.692  1.00  0.00    -0.237 OA
ATOM     58  O   UNL A   1      45.970  21.770  25.186  1.00  0.00    -0.744 OA
ENDBRANCH  52  55
ENDBRANCH  24  48
BRANCH  36  59
ATOM     59  C   UNL A   1      46.348  24.842  33.353  1.00  0.00     0.023 A 
ATOM     60  C   UNL A   1      47.683  25.275  33.240  1.00  0.00     0.012 A 
ATOM     61  C   UNL A   1      46.026  23.798  34.241  1.00  0.00     0.148 A 
ATOM     62  C   UNL A   1      48.690  24.654  33.976  1.00  0.00     0.002 A 
ATOM     63  C   UNL A   1      47.026  23.225  35.016  1.00  0.00     0.091 A 
ATOM     64  F   UNL A   1      44.752  23.390  34.319  1.00  0.00    -0.205 F 
ATOM     65  C   UNL A   1      48.360  23.640  34.874  1.00  0.00     0.022 A 
BRANCH  63  66
ATOM     66  S   UNL A   1      46.671  22.005  36.285  1.00  0.00     0.127 S 
ATOM     67  O   UNL A   1      46.088  20.920  35.498  1.00  0.00    -0.237 OA
ATOM     68  O   UNL A   1      48.001  21.723  36.824  1.00  0.00    -0.237 OA
ATOM     69  O   UNL A   1      45.765  22.654  37.223  1.00  0.00    -0.744 OA
ENDBRANCH  63  66
ENDBRANCH  36  59
ENDBRANCH  10  11
ENDBRANCH   3   5
ENDBRANCH   2   3
ENDBRANCH   1   2
BRANCH   1  70
ATOM     70  C   UNL A   1      33.613  34.045  28.086  1.00  0.00     0.274 C 
BRANCH  70  71
ATOM     71  O   UNL A   1      34.207  34.961  29.021  1.00  0.00    -0.457 OA
BRANCH  71  72
ATOM     72  C   UNL A   1      33.664  34.946  30.280  1.00  0.00     0.368 C 
ATOM     73  O   UNL A   1      32.481  35.189  30.503  1.00  0.00    -0.245 OA
BRANCH  72  74
ATOM     74  C   UNL A   1      34.694  34.613  31.386  1.00  0.00     0.197 C 
ATOM     75  C   UNL A   1      34.435  35.417  32.669  1.00  0.00     0.084 C 
ATOM     76  C   UNL A   1      34.401  33.224  31.961  1.00  0.00     0.113 C 
ATOM     77  C   UNL A   1      35.135  34.633  33.773  1.00  0.00     0.039 C 
ATOM     78  C   UNL A   1      34.929  33.168  33.400  1.00  0.00     0.125 C 
BRANCH  74  79
ATOM     79  N   UNL A   1      36.078  34.576  30.886  1.00  0.00    -0.330 N 
ATOM     80  H   UNL A   1      36.667  34.767  31.697  1.00  0.00     0.347 HD
ATOM     81  H   UNL A   1      36.016  35.234  30.110  1.00  0.00     0.347 HD
BRANCH  79  82
ATOM     82  C   UNL A   1      36.684  33.434  30.223  1.00  0.00     0.183 C 
ATOM     83  C   UNL A   1      37.327  33.445  28.871  1.00  0.00     0.071 C 
ATOM     84  C   UNL A   1      38.169  33.269  30.103  1.00  0.00     0.071 C 
ENDBRANCH  79  82
ENDBRANCH  74  79
BRANCH  78  85
ATOM     85  O   UNL A   1      36.142  32.430  33.425  1.00  0.00    -0.375 OA
BRANCH  85  86
ATOM     86  C   UNL A   1      37.308  32.910  34.142  1.00  0.00     0.118 C 
ATOM     87  C   UNL A   1      38.612  32.085  34.063  1.00  0.00     0.032 C 
ATOM     88  C   UNL A   1      38.113  34.124  33.616  1.00  0.00     0.032 C 
ATOM     89  C   UNL A   1      39.401  33.403  34.058  1.00  0.00     0.005 C 
ENDBRANCH  85  86
ENDBRANCH  78  85
ENDBRANCH  72  74
ENDBRANCH  71  72
ENDBRANCH  70  71
ENDBRANCH   1  70
TORSDOF 18
ENDMDL
MODEL 2
REMARK VINA RESULT:     -10.1      1.318      1.542
REMARK SMILES O=C(OCCOC(=O)[C@@]1([NH2+]C2CC2)CC[C@H](OC2CCC2)C1)c1ccc(-c2c3nc(c(-c4cccc(S(=O)(=O)[O-])c4F)c4ccc([nH]4)c(-c4cccc(S(=O)(=O)[O-])c4F)c4nc(c(-c5cccc(S(=O)(=O)[O-])c5F)c5ccc2[nH]5)C=C4)C=C3)cc1
REMARK SMILES IDX 4 1 3 2 2 3 1 4 23 5 24 6 85 7 25 8 84 9 26 10 27 11 28 12
REMARK SMILES IDX 78 13 29 14 83 15 77 16 79 17 30 18 82 19 76 20 75 21 31 23
REMARK SMILES IDX 63 24 43 25 62 26 44 27 47 28 61 29 80 30 45 31 46 32 60 34
REMARK SMILES IDX 81 35 48 36 32 37 33 38 41 39 34 40 36 41 42 42 35 43 37 44
REMARK SMILES IDX 38 45 39 46 40 47 64 48 65 49 73 50 66 51 68 52 74 53 67 54
REMARK SMILES IDX 69 55 70 56 71 57 72 58 49 59 50 60 58 61 51 62 53 63 59 64
REMARK SMILES IDX 52 65 54 66 55 67 56 68 57 69 5 70 6 71 7 72 8 73 9 74 14 75
REMARK SMILES IDX 22 76 15 77 16 78 10 79 11 82 12 83 13 84 17 85 18 86 19 87
REMARK SMILES IDX 21 88 20 89
REMARK H PARENT 79 22 47 33 10 80 10 81
REMARK Flexibility Score: inf
ROOT
ATOM      1  C   UNL A   1      33.738  32.553  28.464  1.00  0.00     0.275 C 
ENDROOT
BRANCH   1   2
ATOM      2  O   UNL A   1      34.365  31.738  27.463  1.00  0.00    -0.458 OA
BRANCH   2   3
ATOM      3  C   UNL A   1      34.827  30.470  27.542  1.00  0.00     0.338 C 
ATOM      4  O   UNL A   1      34.085  29.561  27.165  1.00  0.00    -0.246 OA
BRANCH   3   5
ATOM      5  C   UNL A   1      36.128  30.084  28.183  1.00  0.00     0.060 A 
ATOM      6  C   UNL A   1      36.306  29.565  29.468  1.00  0.00     0.016 A 
ATOM      7  C   UNL A   1      37.261  30.163  27.354  1.00  0.00     0.016 A 
ATOM      8  C   UNL A   1      37.529  29.019  29.868  1.00  0.00     0.010 A 
ATOM      9  C   UNL A   1      38.466  29.559  27.725  1.00  0.00     0.010 A 
ATOM     10  C   UNL A   1      38.608  28.968  28.987  1.00  0.00    -0.014 A 
BRANCH  10  11
ATOM     11  C   UNL A   1      39.901  28.403  29.444  1.00  0.00     0.031 A 
ATOM     12  C   UNL A   1      40.665  29.167  30.486  1.00  0.00     0.074 A 
ATOM     13  C   UNL A   1      40.361  27.218  28.982  1.00  0.00     0.049 A 
ATOM     14  N   UNL A   1      41.739  28.820  31.140  1.00  0.00    -0.248 NA
ATOM     15  C   UNL A   1      40.153  30.504  30.844  1.00  0.00     0.031 C 
ATOM     16  C   UNL A   1      39.737  26.395  27.942  1.00  0.00     0.029 A 
ATOM     17  N   UNL A   1      41.476  26.495  29.335  1.00  0.00    -0.354 N 
ATOM     18  C   UNL A   1      42.009  29.879  31.992  1.00  0.00     0.074 A 
ATOM     19  C   UNL A   1      41.070  30.930  31.693  1.00  0.00     0.031 C 
ATOM     20  C   UNL A   1      40.488  25.300  27.725  1.00  0.00     0.029 A 
ATOM     21  C   UNL A   1      41.633  25.323  28.626  1.00  0.00     0.049 A 
ATOM     22  H   UNL A   1      42.107  26.789  30.032  1.00  0.00     0.167 HD
ATOM     23  C   UNL A   1      42.899  29.948  33.005  1.00  0.00     0.034 A 
ATOM     24  C   UNL A   1      42.581  24.368  28.718  1.00  0.00     0.034 A 
ATOM     25  C   UNL A   1      43.827  28.904  33.309  1.00  0.00     0.049 A 
ATOM     26  C   UNL A   1      43.609  24.491  29.818  1.00  0.00     0.074 A 
ATOM     27  C   UNL A   1      44.777  28.860  34.309  1.00  0.00     0.029 A 
ATOM     28  N   UNL A   1      43.926  27.719  32.598  1.00  0.00    -0.354 N 
ATOM     29  N   UNL A   1      43.739  25.428  30.727  1.00  0.00    -0.248 NA
ATOM     30  C   UNL A   1      44.577  23.392  29.950  1.00  0.00     0.031 C 
ATOM     31  C   UNL A   1      45.474  27.654  34.183  1.00  0.00     0.029 A 
ATOM     32  C   UNL A   1      44.929  26.935  33.129  1.00  0.00     0.049 A 
ATOM     33  H   UNL A   1      43.363  27.474  31.827  1.00  0.00     0.167 HD
ATOM     34  C   UNL A   1      44.764  25.009  31.567  1.00  0.00     0.074 A 
ATOM     35  C   UNL A   1      45.205  23.721  31.071  1.00  0.00     0.031 C 
ATOM     36  C   UNL A   1      45.302  25.631  32.644  1.00  0.00     0.034 A 
BRANCH  23  37
ATOM     37  C   UNL A   1      42.840  31.181  33.859  1.00  0.00     0.023 A 
ATOM     38  C   UNL A   1      43.499  32.353  33.424  1.00  0.00     0.012 A 
ATOM     39  C   UNL A   1      42.201  31.167  35.108  1.00  0.00     0.148 A 
ATOM     40  C   UNL A   1      43.572  33.473  34.248  1.00  0.00     0.002 A 
ATOM     41  C   UNL A   1      42.237  32.303  35.905  1.00  0.00     0.091 A 
ATOM     42  F   UNL A   1      41.606  30.034  35.508  1.00  0.00    -0.205 F 
ATOM     43  C   UNL A   1      42.936  33.450  35.485  1.00  0.00     0.022 A 
BRANCH  41  44
ATOM     44  S   UNL A   1      41.411  32.400  37.495  1.00  0.00     0.127 S 
ATOM     45  O   UNL A   1      40.097  31.843  37.180  1.00  0.00    -0.237 OA
ATOM     46  O   UNL A   1      42.257  31.546  38.325  1.00  0.00    -0.237 OA
ATOM     47  O   UNL A   1      41.411  33.812  37.864  1.00  0.00    -0.744 OA
ENDBRANCH  41  44
ENDBRANCH  23  37
BRANCH  24  48
ATOM     48  C   UNL A   1      42.577  23.175  27.815  1.00  0.00     0.023 A 
ATOM     49  C   UNL A   1      41.631  22.147  28.013  1.00  0.00     0.012 A 
ATOM     50  C   UNL A   1      43.545  23.021  26.802  1.00  0.00     0.148 A 
ATOM     51  C   UNL A   1      41.686  20.968  27.266  1.00  0.00     0.002 A 
ATOM     52  C   UNL A   1      43.565  21.862  26.029  1.00  0.00     0.091 A 
ATOM     53  F   UNL A   1      44.442  24.000  26.628  1.00  0.00    -0.205 F 
ATOM     54  C   UNL A   1      42.652  20.825  26.275  1.00  0.00     0.022 A 
BRANCH  52  55
ATOM     55  S   UNL A   1      44.715  21.623  24.669  1.00  0.00     0.127 S 
ATOM     56  O   UNL A   1      44.397  20.262  24.244  1.00  0.00    -0.237 OA
ATOM     57  O   UNL A   1      44.301  22.671  23.735  1.00  0.00    -0.237 OA
ATOM     58  O   UNL A   1      46.042  21.813  25.236  1.00  0.00    -0.744 OA
ENDBRANCH  52  55
ENDBRANCH  24  48
BRANCH  36  59
ATOM     59  C   UNL A   1      46.394  24.915  33.392  1.00  0.00     0.023 A 
ATOM     60  C   UNL A   1      46.065  23.960  34.373  1.00  0.00     0.012 A 
ATOM     61  C   UNL A   1      47.742  25.121  33.043  1.00  0.00     0.148 A 
ATOM     62  C   UNL A   1      47.068  23.244  35.023  1.00  0.00     0.002 A 
ATOM     63  C   UNL A   1      48.732  24.361  33.652  1.00  0.00     0.091 A 
ATOM     64  F   UNL A   1      48.033  26.048  32.120  1.00  0.00    -0.205 F 
ATOM     65  C   UNL A   1      48.399  23.433  34.653  1.00  0.00     0.022 A 
BRANCH  63  66
ATOM     66  S   UNL A   1      50.452  24.450  33.147  1.00  0.00     0.127 S 
ATOM     67  O   UNL A   1      50.772  25.848  33.428  1.00  0.00    -0.237 OA
ATOM     68  O   UNL A   1      51.089  23.486  34.045  1.00  0.00    -0.237 OA
ATOM     69  O   UNL A   1      50.478  24.072  31.741  1.00  0.00    -0.744 OA
ENDBRANCH  63  66
ENDBRANCH  36  59
ENDBRANCH  10  11
ENDBRANCH   3   5
ENDBRANCH   2   3
ENDBRANCH   1   2
BRANCH   1  70
ATOM     70  C   UNL A   1      33.619  34.041  28.119  1.00  0.00     0.274 C 
BRANCH  70  71
ATOM     71  O   UNL A   1      34.197  34.947  29.074  1.00  0.00    -0.457 OA
BRANCH  71  72
ATOM     72  C   UNL A   1      33.650  34.902  30.330  1.00  0.00     0.368 C 
ATOM     73  O   UNL A   1      32.459  35.101  30.550  1.00  0.00    -0.245 OA
BRANCH  72  74
ATOM     74  C   UNL A   1      34.687  34.595  31.437  1.00  0.00     0.197 C 
ATOM     75  C   UNL A   1      34.406  35.391  32.720  1.00  0.00     0.084 C 
ATOM     76  C   UNL A   1      34.428  33.198  32.011  1.00  0.00     0.113 C 
ATOM     77  C   UNL A   1      35.124  34.624  33.824  1.00  0.00     0.039 C 
ATOM     78  C   UNL A   1      34.956  33.155  33.450  1.00  0.00     0.125 C 
BRANCH  74  79
ATOM     79  N   UNL A   1      36.072  34.593  30.939  1.00  0.00    -0.330 N 
ATOM     80  H   UNL A   1      36.655  34.804  31.750  1.00  0.00     0.347 HD
ATOM     81  H   UNL A   1      35.993  35.244  30.160  1.00  0.00     0.347 HD
BRANCH  79  82
ATOM     82  C   UNL A   1      36.710  33.465  30.283  1.00  0.00     0.183 C 
ATOM     83  C   UNL A   1      37.360  33.487  28.934  1.00  0.00     0.071 C 
ATOM     84  C   UNL A   1      38.200  33.336  30.171  1.00  0.00     0.071 C 
ENDBRANCH  79  82
ENDBRANCH  74  79
BRANCH  78  85
ATOM     85  O   UNL A   1      36.187  32.447  33.477  1.00  0.00    -0.375 OA
BRANCH  85  86
ATOM     86  C   UNL A   1      37.341  32.958  34.194  1.00  0.00     0.118 C 
ATOM     87  C   UNL A   1      38.664  32.164  34.120  1.00  0.00     0.032 C 
ATOM     88  C   UNL A   1      38.117  34.188  33.664  1.00  0.00     0.032 C 
ATOM     89  C   UNL A   1      39.422  33.500  34.111  1.00  0.00     0.005 C 
ENDBRANCH  85  86
ENDBRANCH  78  85
ENDBRANCH  72  74
ENDBRANCH  71  72
ENDBRANCH  70  71
ENDBRANCH   1  70
TORSDOF 18
ENDMDL
MODEL 3
REMARK VINA RESULT:      -9.9      5.642     11.349
REMARK SMILES O=C(OCCOC(=O)[C@@]1([NH2+]C2CC2)CC[C@H](OC2CCC2)C1)c1ccc(-c2c3nc(c(-c4cccc(S(=O)(=O)[O-])c4F)c4ccc([nH]4)c(-c4cccc(S(=O)(=O)[O-])c4F)c4nc(c(-c5cccc(S(=O)(=O)[O-])c5F)c5ccc2[nH]5)C=C4)C=C3)cc1
REMARK SMILES IDX 4 1 3 2 2 3 1 4 23 5 24 6 85 7 25 8 84 9 26 10 27 11 28 12
REMARK SMILES IDX 78 13 29 14 83 15 77 16 79 17 30 18 82 19 76 20 75 21 31 23
REMARK SMILES IDX 63 24 43 25 62 26 44 27 47 28 61 29 80 30 45 31 46 32 60 34
REMARK SMILES IDX 81 35 48 36 32 37 33 38 41 39 34 40 36 41 42 42 35 43 37 44
REMARK SMILES IDX 38 45 39 46 40 47 64 48 65 49 73 50 66 51 68 52 74 53 67 54
REMARK SMILES IDX 69 55 70 56 71 57 72 58 49 59 50 60 58 61 51 62 53 63 59 64
REMARK SMILES IDX 52 65 54 66 55 67 56 68 57 69 5 70 6 71 7 72 8 73 9 74 14 75
REMARK SMILES IDX 22 76 15 77 16 78 10 79 11 82 12 83 13 84 17 85 18 86 19 87
REMARK SMILES IDX 21 88 20 89
REMARK H PARENT 79 22 47 33 10 80 10 81
REMARK Flexibility Score: inf
ROOT
ATOM      1  C   UNL A   1      36.681  20.618  25.109  1.00  0.00     0.275 C 
ENDROOT
BRANCH   1   2
ATOM      2  O   UNL A   1      37.946  21.280  24.972  1.00  0.00    -0.458 OA
BRANCH   2   3
ATOM      3  C   UNL A   1      39.033  21.249  25.777  1.00  0.00     0.338 C 
ATOM      4  O   UNL A   1      39.561  20.157  25.993  1.00  0.00    -0.246 OA
BRANCH   3   5
ATOM      5  C   UNL A   1      39.556  22.435  26.534  1.00  0.00     0.060 A 
ATOM      6  C   UNL A   1      40.522  22.425  27.543  1.00  0.00     0.016 A 
ATOM      7  C   UNL A   1      39.087  23.688  26.098  1.00  0.00     0.016 A 
ATOM      8  C   UNL A   1      41.103  23.609  28.005  1.00  0.00     0.010 A 
ATOM      9  C   UNL A   1      39.712  24.870  26.509  1.00  0.00     0.010 A 
ATOM     10  C   UNL A   1      40.738  24.840  27.462  1.00  0.00    -0.014 A 
BRANCH  10  11
ATOM     11  C   UNL A   1      41.354  26.083  27.985  1.00  0.00     0.031 A 
ATOM     12  C   UNL A   1      42.804  26.324  27.676  1.00  0.00     0.074 A 
ATOM     13  C   UNL A   1      40.636  26.999  28.673  1.00  0.00     0.049 A 
ATOM     14  N   UNL A   1      43.528  27.385  27.900  1.00  0.00    -0.248 NA
ATOM     15  C   UNL A   1      43.541  25.223  27.027  1.00  0.00     0.031 C 
ATOM     16  C   UNL A   1      39.231  26.870  29.074  1.00  0.00     0.029 A 
ATOM     17  N   UNL A   1      40.995  28.232  29.162  1.00  0.00    -0.354 N 
ATOM     18  C   UNL A   1      44.786  27.083  27.400  1.00  0.00     0.074 A 
ATOM     19  C   UNL A   1      44.768  25.706  26.976  1.00  0.00     0.031 C 
ATOM     20  C   UNL A   1      38.860  27.963  29.766  1.00  0.00     0.029 A 
ATOM     21  C   UNL A   1      39.986  28.885  29.837  1.00  0.00     0.049 A 
ATOM     22  H   UNL A   1      41.895  28.616  29.041  1.00  0.00     0.167 HD
ATOM     23  C   UNL A   1      45.845  27.901  27.219  1.00  0.00     0.034 A 
ATOM     24  C   UNL A   1      39.971  30.101  30.421  1.00  0.00     0.034 A 
ATOM     25  C   UNL A   1      45.864  29.269  27.631  1.00  0.00     0.049 A 
ATOM     26  C   UNL A   1      41.188  30.980  30.262  1.00  0.00     0.074 A 
ATOM     27  C   UNL A   1      46.879  30.194  27.503  1.00  0.00     0.029 A 
ATOM     28  N   UNL A   1      44.811  29.903  28.271  1.00  0.00    -0.354 N 
ATOM     29  N   UNL A   1      42.311  30.730  29.632  1.00  0.00    -0.248 NA
ATOM     30  C   UNL A   1      41.112  32.333  30.833  1.00  0.00     0.031 C 
ATOM     31  C   UNL A   1      46.449  31.386  28.094  1.00  0.00     0.029 A 
ATOM     32  C   UNL A   1      45.152  31.209  28.554  1.00  0.00     0.049 A 
ATOM     33  H   UNL A   1      43.947  29.482  28.490  1.00  0.00     0.167 HD
ATOM     34  C   UNL A   1      43.051  31.906  29.685  1.00  0.00     0.074 A 
ATOM     35  C   UNL A   1      42.238  32.876  30.389  1.00  0.00     0.031 C 
ATOM     36  C   UNL A   1      44.293  32.164  29.206  1.00  0.00     0.034 A 
BRANCH  23  37
ATOM     37  C   UNL A   1      47.022  27.312  26.496  1.00  0.00     0.023 A 
ATOM     38  C   UNL A   1      47.031  27.307  25.082  1.00  0.00     0.012 A 
ATOM     39  C   UNL A   1      48.076  26.708  27.199  1.00  0.00     0.148 A 
ATOM     40  C   UNL A   1      48.044  26.658  24.382  1.00  0.00     0.002 A 
ATOM     41  C   UNL A   1      49.107  26.104  26.493  1.00  0.00     0.091 A 
ATOM     42  F   UNL A   1      48.030  26.703  28.538  1.00  0.00    -0.205 F 
ATOM     43  C   UNL A   1      49.085  26.061  25.087  1.00  0.00     0.022 A 
BRANCH  41  44
ATOM     44  S   UNL A   1      50.522  25.348  27.298  1.00  0.00     0.127 S 
ATOM     45  O   UNL A   1      49.905  24.204  27.967  1.00  0.00    -0.237 OA
ATOM     46  O   UNL A   1      51.370  25.008  26.159  1.00  0.00    -0.237 OA
ATOM     47  O   UNL A   1      51.068  26.364  28.191  1.00  0.00    -0.744 OA
ENDBRANCH  41  44
ENDBRANCH  23  37
BRANCH  24  48
ATOM     48  C   UNL A   1      38.758  30.608  31.138  1.00  0.00     0.023 A 
ATOM     49  C   UNL A   1      38.604  30.362  32.518  1.00  0.00     0.012 A 
ATOM     50  C   UNL A   1      37.728  31.278  30.447  1.00  0.00     0.148 A 
ATOM     51  C   UNL A   1      37.426  30.715  33.182  1.00  0.00     0.002 A 
ATOM     52  C   UNL A   1      36.576  31.668  31.125  1.00  0.00     0.091 A 
ATOM     53  F   UNL A   1      37.883  31.499  29.135  1.00  0.00    -0.205 F 
ATOM     54  C   UNL A   1      36.413  31.368  32.486  1.00  0.00     0.022 A 
BRANCH  52  55
ATOM     55  S   UNL A   1      35.252  32.594  30.336  1.00  0.00     0.127 S 
ATOM     56  O   UNL A   1      34.291  32.731  31.427  1.00  0.00    -0.237 OA
ATOM     57  O   UNL A   1      35.933  33.832  29.957  1.00  0.00    -0.237 OA
ATOM     58  O   UNL A   1      34.818  31.778  29.211  1.00  0.00    -0.744 OA
ENDBRANCH  52  55
ENDBRANCH  24  48
BRANCH  36  59
ATOM     59  C   UNL A   1      44.834  33.557  29.382  1.00  0.00     0.023 A 
ATOM     60  C   UNL A   1      45.554  33.889  30.545  1.00  0.00     0.012 A 
ATOM     61  C   UNL A   1      44.712  34.500  28.344  1.00  0.00     0.148 A 
ATOM     62  C   UNL A   1      46.116  35.156  30.687  1.00  0.00     0.002 A 
ATOM     63  C   UNL A   1      45.326  35.739  28.467  1.00  0.00     0.091 A 
ATOM     64  F   UNL A   1      44.006  34.167  27.254  1.00  0.00    -0.205 F 
ATOM     65  C   UNL A   1      46.016  36.075  29.643  1.00  0.00     0.022 A 
BRANCH  63  66
ATOM     66  S   UNL A   1      45.353  36.930  27.125  1.00  0.00     0.127 S 
ATOM     67  O   UNL A   1      45.997  36.164  26.060  1.00  0.00    -0.237 OA
ATOM     68  O   UNL A   1      43.929  37.192  26.914  1.00  0.00    -0.237 OA
ATOM     69  O   UNL A   1      46.110  38.074  27.618  1.00  0.00    -0.744 OA
ENDBRANCH  63  66
ENDBRANCH  36  59
ENDBRANCH  10  11
ENDBRANCH   3   5
ENDBRANCH   2   3
ENDBRANCH   1   2
BRANCH   1  70
ATOM     70  C   UNL A   1      35.498  21.529  25.455  1.00  0.00     0.274 C 
BRANCH  70  71
ATOM     71  O   UNL A   1      34.587  21.800  24.377  1.00  0.00    -0.457 OA
BRANCH  71  72
ATOM     72  C   UNL A   1      34.709  23.040  23.806  1.00  0.00     0.368 C 
ATOM     73  O   UNL A   1      35.510  23.289  22.909  1.00  0.00    -0.245 OA
BRANCH  72  74
ATOM     74  C   UNL A   1      33.753  24.091  24.418  1.00  0.00     0.197 C 
ATOM     75  C   UNL A   1      34.368  24.776  25.648  1.00  0.00     0.084 C 
ATOM     76  C   UNL A   1      33.698  25.326  23.512  1.00  0.00     0.113 C 
ATOM     77  C   UNL A   1      33.597  26.082  25.798  1.00  0.00     0.039 C 
ATOM     78  C   UNL A   1      33.335  26.546  24.368  1.00  0.00     0.125 C 
BRANCH  74  79
ATOM     79  N   UNL A   1      32.371  23.603  24.544  1.00  0.00    -0.330 N 
ATOM     80  H   UNL A   1      32.201  23.042  23.709  1.00  0.00     0.347 HD
ATOM     81  H   UNL A   1      31.875  24.479  24.704  1.00  0.00     0.347 HD
BRANCH  79  82
ATOM     82  C   UNL A   1      31.876  22.808  25.655  1.00  0.00     0.183 C 
ATOM     83  C   UNL A   1      32.418  22.817  27.051  1.00  0.00     0.071 C 
ATOM     84  C   UNL A   1      31.062  23.398  26.767  1.00  0.00     0.071 C 
ENDBRANCH  79  82
ENDBRANCH  74  79
BRANCH  78  85
ATOM     85  O   UNL A   1      31.972  26.881  24.152  1.00  0.00    -0.375 OA
BRANCH  85  86
ATOM     86  C   UNL A   1      31.590  28.044  23.373  1.00  0.00     0.118 C 
ATOM     87  C   UNL A   1      30.376  27.929  22.425  1.00  0.00     0.032 C 
ATOM     88  C   UNL A   1      30.880  29.244  24.045  1.00  0.00     0.032 C 
ATOM     89  C   UNL A   1      30.011  29.379  22.779  1.00  0.00     0.005 C 
ENDBRANCH  85  86
ENDBRANCH  78  85
ENDBRANCH  72  74
ENDBRANCH  71  72
ENDBRANCH  70  71
ENDBRANCH   1  70
TORSDOF 18
ENDMDL
