MODEL 1
REMARK VINA RESULT:     -14.1      0.000      0.000
REMARK SMILES Cc1coc2cc3c(cc12)[C@@H](C)[C@H](CCC(=O)N[C@@H](Cc1c[nH]c2ccccc12)C(=O)OCCOC(=O)c1ccc(-c2c4nc(c(-c5cccc(S(=O)(=O)[O-])c5F)c5ccc([nH]5)c(-c5cccc(S(=O)(=O)[O-])c5F)c5nc(c(-c6cccc(S(=O)(=O)[O-])c6F)c6ccc2[nH]6)C=C5)C=C4)cc1)C(=O)O3
REMARK SMILES IDX 33 1 32 2 30 3 31 4 19 5 18 6 16 7 17 8 15 10 14 11 13 12
REMARK SMILES IDX 1 13 2 14 3 15 10 16 4 17 5 18 9 19 6 20 8 21 7 22 11 23
REMARK SMILES IDX 103 24 12 25 101 26 102 27 20 28 21 29 22 30 29 31 23 32
REMARK SMILES IDX 24 33 28 34 25 36 27 37 26 38 34 39 35 40 36 41 37 42 38 43
REMARK SMILES IDX 39 44 100 45 40 46 99 47 41 48 42 49 43 50 93 51 44 52 98 53
REMARK SMILES IDX 92 54 94 55 45 56 97 57 91 58 90 59 46 61 78 62 58 63 77 64
REMARK SMILES IDX 59 65 62 66 76 67 95 68 60 69 61 70 75 72 96 73 63 74 47 75
REMARK SMILES IDX 48 76 56 77 49 78 51 79 57 80 50 81 52 82 53 83 54 84 55 85
REMARK SMILES IDX 79 86 80 87 88 88 81 89 83 90 89 91 82 92 84 93 85 94 86 95
REMARK SMILES IDX 87 96 64 97 65 98 73 99 66 100 68 101 74 102 67 103 69 104
REMARK SMILES IDX 70 105 71 106 72 107
REMARK H PARENT 18 9 23 35 94 60 62 71
REMARK Flexibility Score: inf
ROOT
ATOM      1  C   UNL A   1      35.161  23.751  23.866  1.00  0.00     0.274 C 
ENDROOT
BRANCH   1   2
ATOM      2  O   UNL A   1      33.759  23.578  24.143  1.00  0.00    -0.461 OA
BRANCH   2   3
ATOM      3  C   UNL A   1      33.415  23.809  25.424  1.00  0.00     0.329 C 
ATOM      4  O   UNL A   1      33.960  24.659  26.126  1.00  0.00    -0.250 OA
BRANCH   3   5
ATOM      5  C   UNL A   1      32.383  22.823  25.982  1.00  0.00     0.196 C 
BRANCH   5   6
ATOM      6  N   UNL A   1      31.054  23.167  26.641  1.00  0.00    -0.342 N 
ATOM      7  C   UNL A   1      30.044  24.111  26.518  1.00  0.00     0.220 C 
ATOM      8  O   UNL A   1      29.181  24.029  27.411  1.00  0.00    -0.275 OA
ATOM      9  H   UNL A   1      30.853  22.534  27.368  1.00  0.00     0.164 HD
BRANCH   7  10
ATOM     10  C   UNL A   1      29.804  25.237  25.405  1.00  0.00     0.101 C 
BRANCH  10  11
ATOM     11  C   UNL A   1      30.440  25.329  23.931  1.00  0.00     0.026 C 
BRANCH  11  12
ATOM     12  C   UNL A   1      30.144  26.595  23.075  1.00  0.00     0.107 C 
ATOM     13  C   UNL A   1      31.854  32.284  26.830  1.00  0.00     0.048 C 
ATOM     14  C   UNL A   1      32.650  31.042  26.713  1.00  0.00    -0.005 A 
ATOM     15  C   UNL A   1      33.888  30.730  27.232  1.00  0.00     0.199 A 
ATOM     16  C   UNL A   1      32.253  29.906  25.975  1.00  0.00     0.024 A 
ATOM     17  O   UNL A   1      34.318  29.519  26.785  1.00  0.00    -0.464 OA
ATOM     18  C   UNL A   1      33.334  29.034  25.984  1.00  0.00     0.137 A 
ATOM     19  C   UNL A   1      31.097  29.579  25.259  1.00  0.00     0.020 A 
ATOM     20  C   UNL A   1      33.404  27.890  25.215  1.00  0.00     0.095 A 
ATOM     21  C   UNL A   1      31.095  28.414  24.516  1.00  0.00    -0.001 A 
ATOM     22  C   UNL A   1      32.280  27.705  24.423  1.00  0.00     0.138 A 
ATOM     23  C   UNL A   1      29.964  28.042  23.603  1.00  0.00     0.034 C 
ATOM     24  O   UNL A   1      32.453  26.920  23.284  1.00  0.00    -0.426 OA
ATOM     25  C   UNL A   1      30.090  29.046  22.435  1.00  0.00     0.014 C 
ATOM     26  C   UNL A   1      31.401  26.790  22.398  1.00  0.00     0.314 C 
ATOM     27  O   UNL A   1      31.505  26.820  21.179  1.00  0.00    -0.251 OA
ENDBRANCH  11  12
ENDBRANCH  10  11
ENDBRANCH   7  10
ENDBRANCH   5   6
BRANCH   5  28
ATOM     28  C   UNL A   1      32.402  21.719  24.861  1.00  0.00     0.074 C 
BRANCH  28  29
ATOM     29  C   UNL A   1      32.555  20.259  25.157  1.00  0.00    -0.020 A 
ATOM     30  C   UNL A   1      32.746  19.818  26.459  1.00  0.00     0.087 A 
ATOM     31  C   UNL A   1      32.652  19.107  24.321  1.00  0.00     0.003 A 
ATOM     32  N   UNL A   1      33.059  18.493  26.430  1.00  0.00    -0.361 N 
ATOM     33  C   UNL A   1      33.091  18.055  25.130  1.00  0.00     0.046 A 
ATOM     34  C   UNL A   1      32.488  18.842  22.950  1.00  0.00     0.010 A 
ATOM     35  H   UNL A   1      33.234  17.935  27.222  1.00  0.00     0.166 HD
ATOM     36  C   UNL A   1      33.487  16.817  24.614  1.00  0.00     0.026 A 
ATOM     37  C   UNL A   1      32.878  17.617  22.412  1.00  0.00     0.001 A 
ATOM     38  C   UNL A   1      33.401  16.629  23.232  1.00  0.00     0.002 A 
ENDBRANCH  28  29
ENDBRANCH   5  28
ENDBRANCH   3   5
ENDBRANCH   2   3
ENDBRANCH   1   2
BRANCH   1  39
ATOM     39  C   UNL A   1      35.754  22.348  23.870  1.00  0.00     0.275 C 
BRANCH  39  40
ATOM     40  O   UNL A   1      36.051  21.986  25.239  1.00  0.00    -0.458 OA
BRANCH  40  41
ATOM     41  C   UNL A   1      37.082  21.123  25.425  1.00  0.00     0.338 C 
ATOM     42  O   UNL A   1      37.077  19.937  25.135  1.00  0.00    -0.246 OA
BRANCH  41  43
ATOM     43  C   UNL A   1      38.323  21.905  25.697  1.00  0.00     0.060 A 
ATOM     44  C   UNL A   1      39.556  21.354  26.056  1.00  0.00     0.016 A 
ATOM     45  C   UNL A   1      38.155  23.272  25.827  1.00  0.00     0.016 A 
ATOM     46  C   UNL A   1      40.499  22.123  26.783  1.00  0.00     0.010 A 
ATOM     47  C   UNL A   1      39.101  24.014  26.537  1.00  0.00     0.010 A 
ATOM     48  C   UNL A   1      40.207  23.432  27.173  1.00  0.00    -0.014 A 
BRANCH  48  49
ATOM     49  C   UNL A   1      41.146  24.322  27.938  1.00  0.00     0.031 A 
ATOM     50  C   UNL A   1      40.467  25.618  28.189  1.00  0.00     0.074 A 
ATOM     51  C   UNL A   1      42.392  24.149  28.486  1.00  0.00     0.049 A 
ATOM     52  N   UNL A   1      40.556  26.631  27.393  1.00  0.00    -0.248 NA
ATOM     53  C   UNL A   1      39.426  25.762  29.217  1.00  0.00     0.031 C 
ATOM     54  C   UNL A   1      43.240  22.948  28.576  1.00  0.00     0.029 A 
ATOM     55  N   UNL A   1      43.164  25.054  29.205  1.00  0.00    -0.354 N 
ATOM     56  C   UNL A   1      39.780  27.618  27.969  1.00  0.00     0.074 A 
ATOM     57  C   UNL A   1      38.916  26.956  28.907  1.00  0.00     0.031 C 
ATOM     58  C   UNL A   1      44.248  23.134  29.480  1.00  0.00     0.029 A 
ATOM     59  C   UNL A   1      44.248  24.518  29.945  1.00  0.00     0.049 A 
ATOM     60  H   UNL A   1      42.967  26.018  29.202  1.00  0.00     0.167 HD
ATOM     61  C   UNL A   1      40.106  28.927  27.825  1.00  0.00     0.034 A 
ATOM     62  C   UNL A   1      45.055  25.193  30.837  1.00  0.00     0.034 A 
ATOM     63  C   UNL A   1      41.186  29.095  26.880  1.00  0.00     0.049 A 
ATOM     64  C   UNL A   1      45.109  26.572  30.329  1.00  0.00     0.074 A 
ATOM     65  C   UNL A   1      41.380  28.760  25.553  1.00  0.00     0.029 A 
ATOM     66  N   UNL A   1      42.441  29.266  27.413  1.00  0.00    -0.354 N 
ATOM     67  N   UNL A   1      45.631  26.885  29.181  1.00  0.00    -0.248 NA
ATOM     68  C   UNL A   1      44.208  27.539  30.919  1.00  0.00     0.031 C 
ATOM     69  C   UNL A   1      42.727  28.294  25.480  1.00  0.00     0.029 A 
ATOM     70  C   UNL A   1      43.311  28.449  26.737  1.00  0.00     0.049 A 
ATOM     71  H   UNL A   1      42.676  29.872  28.153  1.00  0.00     0.167 HD
ATOM     72  C   UNL A   1      44.730  27.801  28.669  1.00  0.00     0.074 A 
ATOM     73  C   UNL A   1      43.951  28.255  29.824  1.00  0.00     0.031 C 
ATOM     74  C   UNL A   1      44.495  27.867  27.327  1.00  0.00     0.034 A 
BRANCH  61  75
ATOM     75  C   UNL A   1      39.701  30.016  28.774  1.00  0.00     0.023 A 
ATOM     76  C   UNL A   1      40.550  30.253  29.873  1.00  0.00     0.012 A 
ATOM     77  C   UNL A   1      38.450  30.674  28.765  1.00  0.00     0.148 A 
ATOM     78  C   UNL A   1      40.170  31.098  30.918  1.00  0.00     0.002 A 
ATOM     79  C   UNL A   1      38.114  31.583  29.758  1.00  0.00     0.091 A 
ATOM     80  F   UNL A   1      37.522  30.332  27.865  1.00  0.00    -0.205 F 
ATOM     81  C   UNL A   1      38.959  31.778  30.852  1.00  0.00     0.022 A 
BRANCH  79  82
ATOM     82  S   UNL A   1      36.598  32.546  29.695  1.00  0.00     0.127 S 
ATOM     83  O   UNL A   1      35.606  31.562  30.117  1.00  0.00    -0.237 OA
ATOM     84  O   UNL A   1      36.878  33.603  30.667  1.00  0.00    -0.237 OA
ATOM     85  O   UNL A   1      36.488  33.014  28.319  1.00  0.00    -0.744 OA
ENDBRANCH  79  82
ENDBRANCH  61  75
BRANCH  62  86
ATOM     86  C   UNL A   1      45.699  24.962  32.183  1.00  0.00     0.023 A 
ATOM     87  C   UNL A   1      46.777  25.752  32.646  1.00  0.00     0.012 A 
ATOM     88  C   UNL A   1      44.971  24.308  33.200  1.00  0.00     0.148 A 
ATOM     89  C   UNL A   1      47.134  25.802  34.015  1.00  0.00     0.002 A 
ATOM     90  C   UNL A   1      45.399  24.241  34.531  1.00  0.00     0.091 A 
ATOM     91  F   UNL A   1      43.700  24.005  32.937  1.00  0.00    -0.205 F 
ATOM     92  C   UNL A   1      46.473  25.015  34.953  1.00  0.00     0.022 A 
BRANCH  90  93
ATOM     93  S   UNL A   1      44.546  23.253  35.772  1.00  0.00     0.127 S 
ATOM     94  O   UNL A   1      44.510  21.939  35.129  1.00  0.00    -0.237 OA
ATOM     95  O   UNL A   1      45.434  23.346  36.927  1.00  0.00    -0.237 OA
ATOM     96  O   UNL A   1      43.242  23.878  35.946  1.00  0.00    -0.744 OA
ENDBRANCH  90  93
ENDBRANCH  62  86
BRANCH  74  97
ATOM     97  C   UNL A   1      45.397  27.072  26.403  1.00  0.00     0.023 A 
ATOM     98  C   UNL A   1      46.714  27.470  26.085  1.00  0.00     0.012 A 
ATOM     99  C   UNL A   1      44.967  25.801  25.993  1.00  0.00     0.148 A 
ATOM    100  C   UNL A   1      47.578  26.627  25.377  1.00  0.00     0.002 A 
ATOM    101  C   UNL A   1      45.843  24.944  25.334  1.00  0.00     0.091 A 
ATOM    102  F   UNL A   1      43.711  25.436  26.288  1.00  0.00    -0.205 F 
ATOM    103  C   UNL A   1      47.147  25.355  25.015  1.00  0.00     0.022 A 
BRANCH 101 104
ATOM    104  S   UNL A   1      45.394  23.247  24.967  1.00  0.00     0.127 S 
ATOM    105  O   UNL A   1      44.067  23.404  24.375  1.00  0.00    -0.237 OA
ATOM    106  O   UNL A   1      46.441  22.845  24.025  1.00  0.00    -0.237 OA
ATOM    107  O   UNL A   1      45.432  22.536  26.239  1.00  0.00    -0.744 OA
ENDBRANCH 101 104
ENDBRANCH  74  97
ENDBRANCH  48  49
ENDBRANCH  41  43
ENDBRANCH  40  41
ENDBRANCH  39  40
ENDBRANCH   1  39
TORSDOF 20
ENDMDL
MODEL 2
REMARK VINA RESULT:     -14.0      3.278      7.644
REMARK SMILES Cc1coc2cc3c(cc12)[C@@H](C)[C@H](CCC(=O)N[C@@H](Cc1c[nH]c2ccccc12)C(=O)OCCOC(=O)c1ccc(-c2c4nc(c(-c5cccc(S(=O)(=O)[O-])c5F)c5ccc([nH]5)c(-c5cccc(S(=O)(=O)[O-])c5F)c5nc(c(-c6cccc(S(=O)(=O)[O-])c6F)c6ccc2[nH]6)C=C5)C=C4)cc1)C(=O)O3
REMARK SMILES IDX 33 1 32 2 30 3 31 4 19 5 18 6 16 7 17 8 15 10 14 11 13 12
REMARK SMILES IDX 1 13 2 14 3 15 10 16 4 17 5 18 9 19 6 20 8 21 7 22 11 23
REMARK SMILES IDX 103 24 12 25 101 26 102 27 20 28 21 29 22 30 29 31 23 32
REMARK SMILES IDX 24 33 28 34 25 36 27 37 26 38 34 39 35 40 36 41 37 42 38 43
REMARK SMILES IDX 39 44 100 45 40 46 99 47 41 48 42 49 43 50 93 51 44 52 98 53
REMARK SMILES IDX 92 54 94 55 45 56 97 57 91 58 90 59 46 61 78 62 58 63 77 64
REMARK SMILES IDX 59 65 62 66 76 67 95 68 60 69 61 70 75 72 96 73 63 74 47 75
REMARK SMILES IDX 48 76 56 77 49 78 51 79 57 80 50 81 52 82 53 83 54 84 55 85
REMARK SMILES IDX 79 86 80 87 88 88 81 89 83 90 89 91 82 92 84 93 85 94 86 95
REMARK SMILES IDX 87 96 64 97 65 98 73 99 66 100 68 101 74 102 67 103 69 104
REMARK SMILES IDX 70 105 71 106 72 107
REMARK H PARENT 18 9 23 35 94 60 62 71
REMARK Flexibility Score: inf
ROOT
ATOM      1  C   UNL A   1      39.985  20.619  25.973  1.00  0.00     0.274 C 
ENDROOT
BRANCH   1   2
ATOM      2  O   UNL A   1      38.902  21.550  25.801  1.00  0.00    -0.461 OA
BRANCH   2   3
ATOM      3  C   UNL A   1      37.806  21.025  25.222  1.00  0.00     0.329 C 
ATOM      4  O   UNL A   1      37.807  19.945  24.632  1.00  0.00    -0.250 OA
BRANCH   3   5
ATOM      5  C   UNL A   1      36.587  21.952  25.232  1.00  0.00     0.196 C 
BRANCH   5   6
ATOM      6  N   UNL A   1      36.096  22.828  24.087  1.00  0.00    -0.342 N 
ATOM      7  C   UNL A   1      35.165  23.836  23.872  1.00  0.00     0.220 C 
ATOM      8  O   UNL A   1      35.062  24.164  22.676  1.00  0.00    -0.275 OA
ATOM      9  H   UNL A   1      36.580  22.618  23.256  1.00  0.00     0.164 HD
BRANCH   7  10
ATOM     10  C   UNL A   1      34.256  24.650  24.909  1.00  0.00     0.101 C 
BRANCH  10  11
ATOM     11  C   UNL A   1      33.590  26.101  24.721  1.00  0.00     0.026 C 
BRANCH  11  12
ATOM     12  C   UNL A   1      32.946  26.786  25.961  1.00  0.00     0.107 C 
ATOM     13  C   UNL A   1      29.017  32.177  23.750  1.00  0.00     0.048 C 
ATOM     14  C   UNL A   1      29.069  30.828  23.145  1.00  0.00    -0.005 A 
ATOM     15  C   UNL A   1      28.353  30.299  22.093  1.00  0.00     0.199 A 
ATOM     16  C   UNL A   1      29.900  29.781  23.599  1.00  0.00     0.024 A 
ATOM     17  O   UNL A   1      28.620  28.974  21.932  1.00  0.00    -0.464 OA
ATOM     18  C   UNL A   1      29.536  28.649  22.881  1.00  0.00     0.137 A 
ATOM     19  C   UNL A   1      30.879  29.692  24.594  1.00  0.00     0.020 A 
ATOM     20  C   UNL A   1      29.993  27.379  23.166  1.00  0.00     0.095 A 
ATOM     21  C   UNL A   1      31.411  28.449  24.880  1.00  0.00    -0.001 A 
ATOM     22  C   UNL A   1      30.852  27.348  24.256  1.00  0.00     0.138 A 
ATOM     23  C   UNL A   1      32.360  28.220  26.020  1.00  0.00     0.034 C 
ATOM     24  O   UNL A   1      30.952  26.129  24.924  1.00  0.00    -0.426 OA
ATOM     25  C   UNL A   1      31.470  28.373  27.274  1.00  0.00     0.014 C 
ATOM     26  C   UNL A   1      31.705  26.064  26.081  1.00  0.00     0.314 C 
ATOM     27  O   UNL A   1      31.380  25.459  27.095  1.00  0.00    -0.251 OA
ENDBRANCH  11  12
ENDBRANCH  10  11
ENDBRANCH   7  10
ENDBRANCH   5   6
BRANCH   5  28
ATOM     28  C   UNL A   1      35.543  21.050  25.988  1.00  0.00     0.074 C 
BRANCH  28  29
ATOM     29  C   UNL A   1      34.384  20.395  25.303  1.00  0.00    -0.020 A 
ATOM     30  C   UNL A   1      33.149  21.028  25.241  1.00  0.00     0.087 A 
ATOM     31  C   UNL A   1      34.206  19.105  24.721  1.00  0.00     0.003 A 
ATOM     32  N   UNL A   1      32.231  20.147  24.757  1.00  0.00    -0.361 N 
ATOM     33  C   UNL A   1      32.833  18.939  24.512  1.00  0.00     0.046 A 
ATOM     34  C   UNL A   1      35.042  18.018  24.409  1.00  0.00     0.010 A 
ATOM     35  H   UNL A   1      31.279  20.348  24.606  1.00  0.00     0.166 HD
ATOM     36  C   UNL A   1      32.266  17.717  24.137  1.00  0.00     0.026 A 
ATOM     37  C   UNL A   1      34.499  16.789  24.036  1.00  0.00     0.001 A 
ATOM     38  C   UNL A   1      33.126  16.635  23.932  1.00  0.00     0.002 A 
ENDBRANCH  28  29
ENDBRANCH   5  28
ENDBRANCH   3   5
ENDBRANCH   2   3
ENDBRANCH   1   2
BRANCH   1  39
ATOM     39  C   UNL A   1      40.755  21.109  27.193  1.00  0.00     0.275 C 
BRANCH  39  40
ATOM     40  O   UNL A   1      42.105  21.424  26.780  1.00  0.00    -0.458 OA
BRANCH  40  41
ATOM     41  C   UNL A   1      42.287  22.628  26.180  1.00  0.00     0.338 C 
ATOM     42  O   UNL A   1      42.682  22.801  25.037  1.00  0.00    -0.246 OA
BRANCH  41  43
ATOM     43  C   UNL A   1      41.601  23.679  26.988  1.00  0.00     0.060 A 
ATOM     44  C   UNL A   1      40.501  24.428  26.562  1.00  0.00     0.016 A 
ATOM     45  C   UNL A   1      42.264  24.082  28.133  1.00  0.00     0.016 A 
ATOM     46  C   UNL A   1      40.245  25.704  27.122  1.00  0.00     0.010 A 
ATOM     47  C   UNL A   1      41.989  25.339  28.676  1.00  0.00     0.010 A 
ATOM     48  C   UNL A   1      41.095  26.246  28.089  1.00  0.00    -0.014 A 
BRANCH  48  49
ATOM     49  C   UNL A   1      40.899  27.585  28.742  1.00  0.00     0.031 A 
ATOM     50  C   UNL A   1      41.848  28.550  28.132  1.00  0.00     0.074 A 
ATOM     51  C   UNL A   1      40.014  28.075  29.670  1.00  0.00     0.049 A 
ATOM     52  N   UNL A   1      43.029  28.776  28.600  1.00  0.00    -0.248 NA
ATOM     53  C   UNL A   1      41.621  29.120  26.796  1.00  0.00     0.031 C 
ATOM     54  C   UNL A   1      38.853  27.438  30.315  1.00  0.00     0.029 A 
ATOM     55  N   UNL A   1      39.912  29.361  30.187  1.00  0.00    -0.354 N 
ATOM     56  C   UNL A   1      43.586  29.712  27.752  1.00  0.00     0.074 A 
ATOM     57  C   UNL A   1      42.809  29.676  26.544  1.00  0.00     0.031 C 
ATOM     58  C   UNL A   1      38.062  28.374  30.918  1.00  0.00     0.029 A 
ATOM     59  C   UNL A   1      38.707  29.682  30.861  1.00  0.00     0.049 A 
ATOM     60  H   UNL A   1      40.640  30.016  30.088  1.00  0.00     0.167 HD
ATOM     61  C   UNL A   1      44.469  30.631  28.218  1.00  0.00     0.034 A 
ATOM     62  C   UNL A   1      38.324  30.922  31.326  1.00  0.00     0.034 A 
ATOM     63  C   UNL A   1      44.843  30.348  29.586  1.00  0.00     0.049 A 
ATOM     64  C   UNL A   1      39.582  31.596  31.685  1.00  0.00     0.074 A 
ATOM     65  C   UNL A   1      45.412  29.270  30.237  1.00  0.00     0.029 A 
ATOM     66  N   UNL A   1      44.201  31.079  30.556  1.00  0.00    -0.354 N 
ATOM     67  N   UNL A   1      40.370  31.171  32.627  1.00  0.00    -0.248 NA
ATOM     68  C   UNL A   1      40.157  32.502  30.714  1.00  0.00     0.031 C 
ATOM     69  C   UNL A   1      44.697  29.158  31.466  1.00  0.00     0.029 A 
ATOM     70  C   UNL A   1      43.794  30.218  31.544  1.00  0.00     0.049 A 
ATOM     71  H   UNL A   1      44.057  32.053  30.545  1.00  0.00     0.167 HD
ATOM     72  C   UNL A   1      41.627  31.313  32.067  1.00  0.00     0.074 A 
ATOM     73  C   UNL A   1      41.444  32.245  30.951  1.00  0.00     0.031 C 
ATOM     74  C   UNL A   1      42.621  30.428  32.362  1.00  0.00     0.034 A 
BRANCH  61  75
ATOM     75  C   UNL A   1      44.732  31.963  27.580  1.00  0.00     0.023 A 
ATOM     76  C   UNL A   1      45.894  32.073  26.789  1.00  0.00     0.012 A 
ATOM     77  C   UNL A   1      44.028  33.153  27.870  1.00  0.00     0.148 A 
ATOM     78  C   UNL A   1      46.338  33.310  26.317  1.00  0.00     0.002 A 
ATOM     79  C   UNL A   1      44.421  34.367  27.324  1.00  0.00     0.091 A 
ATOM     80  F   UNL A   1      43.048  33.144  28.780  1.00  0.00    -0.205 F 
ATOM     81  C   UNL A   1      45.591  34.455  26.568  1.00  0.00     0.022 A 
BRANCH  79  82
ATOM     82  S   UNL A   1      43.461  35.869  27.551  1.00  0.00     0.127 S 
ATOM     83  O   UNL A   1      44.213  36.824  26.743  1.00  0.00    -0.237 OA
ATOM     84  O   UNL A   1      42.163  35.477  27.001  1.00  0.00    -0.237 OA
ATOM     85  O   UNL A   1      43.452  36.115  28.988  1.00  0.00    -0.744 OA
ENDBRANCH  79  82
ENDBRANCH  61  75
BRANCH  62  86
ATOM     86  C   UNL A   1      37.079  31.775  31.392  1.00  0.00     0.023 A 
ATOM     87  C   UNL A   1      36.844  32.681  32.452  1.00  0.00     0.012 A 
ATOM     88  C   UNL A   1      36.367  32.059  30.207  1.00  0.00     0.148 A 
ATOM     89  C   UNL A   1      35.902  33.732  32.343  1.00  0.00     0.002 A 
ATOM     90  C   UNL A   1      35.338  33.004  30.137  1.00  0.00     0.091 A 
ATOM     91  F   UNL A   1      36.894  31.623  29.063  1.00  0.00    -0.205 F 
ATOM     92  C   UNL A   1      35.118  33.869  31.201  1.00  0.00     0.022 A 
BRANCH  90  93
ATOM     93  S   UNL A   1      34.325  33.223  28.663  1.00  0.00     0.127 S 
ATOM     94  O   UNL A   1      33.930  31.845  28.370  1.00  0.00    -0.237 OA
ATOM     95  O   UNL A   1      33.245  34.083  29.137  1.00  0.00    -0.237 OA
ATOM     96  O   UNL A   1      35.201  33.825  27.669  1.00  0.00    -0.744 OA
ENDBRANCH  90  93
ENDBRANCH  62  86
BRANCH  74  97
ATOM     97  C   UNL A   1      42.381  29.426  33.475  1.00  0.00     0.023 A 
ATOM     98  C   UNL A   1      41.604  28.259  33.305  1.00  0.00     0.012 A 
ATOM     99  C   UNL A   1      43.108  29.574  34.666  1.00  0.00     0.148 A 
ATOM    100  C   UNL A   1      41.550  27.270  34.293  1.00  0.00     0.002 A 
ATOM    101  C   UNL A   1      43.094  28.568  35.626  1.00  0.00     0.091 A 
ATOM    102  F   UNL A   1      43.833  30.691  34.825  1.00  0.00    -0.205 F 
ATOM    103  C   UNL A   1      42.310  27.417  35.449  1.00  0.00     0.022 A 
BRANCH 101 104
ATOM    104  S   UNL A   1      44.157  28.633  37.068  1.00  0.00     0.127 S 
ATOM    105  O   UNL A   1      43.793  27.405  37.772  1.00  0.00    -0.237 OA
ATOM    106  O   UNL A   1      45.494  28.623  36.470  1.00  0.00    -0.237 OA
ATOM    107  O   UNL A   1      43.823  29.873  37.760  1.00  0.00    -0.744 OA
ENDBRANCH 101 104
ENDBRANCH  74  97
ENDBRANCH  48  49
ENDBRANCH  41  43
ENDBRANCH  40  41
ENDBRANCH  39  40
ENDBRANCH   1  39
TORSDOF 20
ENDMDL
MODEL 3
REMARK VINA RESULT:     -13.9      3.302      8.822
REMARK SMILES Cc1coc2cc3c(cc12)[C@@H](C)[C@H](CCC(=O)N[C@@H](Cc1c[nH]c2ccccc12)C(=O)OCCOC(=O)c1ccc(-c2c4nc(c(-c5cccc(S(=O)(=O)[O-])c5F)c5ccc([nH]5)c(-c5cccc(S(=O)(=O)[O-])c5F)c5nc(c(-c6cccc(S(=O)(=O)[O-])c6F)c6ccc2[nH]6)C=C5)C=C4)cc1)C(=O)O3
REMARK SMILES IDX 33 1 32 2 30 3 31 4 19 5 18 6 16 7 17 8 15 10 14 11 13 12
REMARK SMILES IDX 1 13 2 14 3 15 10 16 4 17 5 18 9 19 6 20 8 21 7 22 11 23
REMARK SMILES IDX 103 24 12 25 101 26 102 27 20 28 21 29 22 30 29 31 23 32
REMARK SMILES IDX 24 33 28 34 25 36 27 37 26 38 34 39 35 40 36 41 37 42 38 43
REMARK SMILES IDX 39 44 100 45 40 46 99 47 41 48 42 49 43 50 93 51 44 52 98 53
REMARK SMILES IDX 92 54 94 55 45 56 97 57 91 58 90 59 46 61 78 62 58 63 77 64
REMARK SMILES IDX 59 65 62 66 76 67 95 68 60 69 61 70 75 72 96 73 63 74 47 75
REMARK SMILES IDX 48 76 56 77 49 78 51 79 57 80 50 81 52 82 53 83 54 84 55 85
REMARK SMILES IDX 79 86 80 87 88 88 81 89 83 90 89 91 82 92 84 93 85 94 86 95
REMARK SMILES IDX 87 96 64 97 65 98 73 99 66 100 68 101 74 102 67 103 69 104
REMARK SMILES IDX 70 105 71 106 72 107
REMARK H PARENT 18 9 23 35 94 60 62 71
REMARK Flexibility Score: inf
ROOT
ATOM      1  C   UNL A   1      34.283  31.648  27.333  1.00  0.00     0.274 C 
ENDROOT
BRANCH   1   2
ATOM      2  O   UNL A   1      33.117  30.824  27.157  1.00  0.00    -0.461 OA
BRANCH   2   3
ATOM      3  C   UNL A   1      33.369  29.501  27.143  1.00  0.00     0.329 C 
ATOM      4  O   UNL A   1      34.325  28.991  27.725  1.00  0.00    -0.250 OA
BRANCH   3   5
ATOM      5  C   UNL A   1      32.446  28.698  26.222  1.00  0.00     0.196 C 
BRANCH   5   6
ATOM      6  N   UNL A   1      31.647  27.453  26.588  1.00  0.00    -0.342 N 
ATOM      7  C   UNL A   1      31.626  26.100  26.277  1.00  0.00     0.220 C 
ATOM      8  O   UNL A   1      30.661  25.495  26.777  1.00  0.00    -0.275 OA
ATOM      9  H   UNL A   1      30.938  27.673  27.235  1.00  0.00     0.164 HD
BRANCH   7  10
ATOM     10  C   UNL A   1      32.653  25.214  25.425  1.00  0.00     0.101 C 
BRANCH  10  11
ATOM     11  C   UNL A   1      33.538  23.967  25.921  1.00  0.00     0.026 C 
BRANCH  11  12
ATOM     12  C   UNL A   1      34.830  23.615  25.128  1.00  0.00     0.107 C 
ATOM     13  C   UNL A   1      35.336  16.620  24.670  1.00  0.00     0.048 C 
ATOM     14  C   UNL A   1      34.109  17.423  24.468  1.00  0.00    -0.005 A 
ATOM     15  C   UNL A   1      32.841  17.028  24.099  1.00  0.00     0.199 A 
ATOM     16  C   UNL A   1      34.042  18.826  24.605  1.00  0.00     0.024 A 
ATOM     17  O   UNL A   1      32.027  18.102  23.908  1.00  0.00    -0.464 OA
ATOM     18  C   UNL A   1      32.775  19.204  24.178  1.00  0.00     0.137 A 
ATOM     19  C   UNL A   1      34.967  19.800  24.995  1.00  0.00     0.020 A 
ATOM     20  C   UNL A   1      32.387  20.514  23.987  1.00  0.00     0.095 A 
ATOM     21  C   UNL A   1      34.607  21.129  24.876  1.00  0.00    -0.001 A 
ATOM     22  C   UNL A   1      33.403  21.420  24.258  1.00  0.00     0.138 A 
ATOM     23  C   UNL A   1      35.569  22.252  25.131  1.00  0.00     0.034 C 
ATOM     24  O   UNL A   1      33.302  22.661  23.632  1.00  0.00    -0.426 OA
ATOM     25  C   UNL A   1      36.543  22.180  23.933  1.00  0.00     0.014 C 
ATOM     26  C   UNL A   1      34.337  23.565  23.775  1.00  0.00     0.314 C 
ATOM     27  O   UNL A   1      34.788  24.261  22.874  1.00  0.00    -0.251 OA
ENDBRANCH  11  12
ENDBRANCH  10  11
ENDBRANCH   7  10
ENDBRANCH   5   6
BRANCH   5  28
ATOM     28  C   UNL A   1      31.713  29.862  25.459  1.00  0.00     0.074 C 
BRANCH  28  29
ATOM     29  C   UNL A   1      30.917  29.645  24.209  1.00  0.00    -0.020 A 
ATOM     30  C   UNL A   1      31.287  28.665  23.297  1.00  0.00     0.087 A 
ATOM     31  C   UNL A   1      29.812  30.336  23.633  1.00  0.00     0.003 A 
ATOM     32  N   UNL A   1      30.536  28.811  22.171  1.00  0.00    -0.361 N 
ATOM     33  C   UNL A   1      29.686  29.878  22.317  1.00  0.00     0.046 A 
ATOM     34  C   UNL A   1      28.938  31.358  24.045  1.00  0.00     0.010 A 
ATOM     35  H   UNL A   1      30.594  28.236  21.374  1.00  0.00     0.166 HD
ATOM     36  C   UNL A   1      28.832  30.475  21.385  1.00  0.00     0.026 A 
ATOM     37  C   UNL A   1      28.079  31.970  23.133  1.00  0.00     0.001 A 
ATOM     38  C   UNL A   1      28.052  31.552  21.812  1.00  0.00     0.002 A 
ENDBRANCH  28  29
ENDBRANCH   5  28
ENDBRANCH   3   5
ENDBRANCH   2   3
ENDBRANCH   1   2
BRANCH   1  39
ATOM     39  C   UNL A   1      33.905  32.671  28.396  1.00  0.00     0.275 C 
BRANCH  39  40
ATOM     40  O   UNL A   1      34.463  32.240  29.659  1.00  0.00    -0.458 OA
BRANCH  40  41
ATOM     41  C   UNL A   1      35.455  33.010  30.174  1.00  0.00     0.338 C 
ATOM     42  O   UNL A   1      35.328  34.155  30.580  1.00  0.00    -0.246 OA
BRANCH  41  43
ATOM     43  C   UNL A   1      36.624  32.140  30.498  1.00  0.00     0.060 A 
ATOM     44  C   UNL A   1      37.921  32.598  30.743  1.00  0.00     0.016 A 
ATOM     45  C   UNL A   1      36.434  30.784  30.303  1.00  0.00     0.016 A 
ATOM     46  C   UNL A   1      39.033  31.746  30.526  1.00  0.00     0.010 A 
ATOM     47  C   UNL A   1      37.543  29.959  30.103  1.00  0.00     0.010 A 
ATOM     48  C   UNL A   1      38.856  30.447  30.043  1.00  0.00    -0.014 A 
BRANCH  48  49
ATOM     49  C   UNL A   1      39.973  29.473  29.790  1.00  0.00     0.031 A 
ATOM     50  C   UNL A   1      40.509  29.022  31.099  1.00  0.00     0.074 A 
ATOM     51  C   UNL A   1      40.500  28.896  28.662  1.00  0.00     0.049 A 
ATOM     52  N   UNL A   1      41.490  29.604  31.702  1.00  0.00    -0.248 NA
ATOM     53  C   UNL A   1      39.793  28.048  31.935  1.00  0.00     0.031 C 
ATOM     54  C   UNL A   1      40.077  28.986  27.254  1.00  0.00     0.029 A 
ATOM     55  N   UNL A   1      41.535  27.975  28.553  1.00  0.00    -0.354 N 
ATOM     56  C   UNL A   1      41.669  28.898  32.875  1.00  0.00     0.074 A 
ATOM     57  C   UNL A   1      40.458  28.155  33.088  1.00  0.00     0.031 C 
ATOM     58  C   UNL A   1      40.669  28.006  26.508  1.00  0.00     0.029 A 
ATOM     59  C   UNL A   1      41.648  27.288  27.318  1.00  0.00     0.049 A 
ATOM     60  H   UNL A   1      42.157  27.807  29.297  1.00  0.00     0.167 HD
ATOM     61  C   UNL A   1      42.903  28.771  33.427  1.00  0.00     0.034 A 
ATOM     62  C   UNL A   1      42.494  26.239  27.029  1.00  0.00     0.034 A 
ATOM     63  C   UNL A   1      43.867  29.603  32.744  1.00  0.00     0.049 A 
ATOM     64  C   UNL A   1      43.683  26.472  27.864  1.00  0.00     0.074 A 
ATOM     65  C   UNL A   1      43.974  30.956  32.480  1.00  0.00     0.029 A 
ATOM     66  N   UNL A   1      44.667  28.975  31.819  1.00  0.00    -0.354 N 
ATOM     67  N   UNL A   1      44.456  27.508  27.724  1.00  0.00    -0.248 NA
ATOM     68  C   UNL A   1      43.767  25.763  29.122  1.00  0.00     0.031 C 
ATOM     69  C   UNL A   1      44.452  31.038  31.139  1.00  0.00     0.029 A 
ATOM     70  C   UNL A   1      44.695  29.742  30.682  1.00  0.00     0.049 A 
ATOM     71  H   UNL A   1      45.139  28.121  31.950  1.00  0.00     0.167 HD
ATOM     72  C   UNL A   1      44.705  27.888  29.030  1.00  0.00     0.074 A 
ATOM     73  C   UNL A   1      44.364  26.715  29.840  1.00  0.00     0.031 C 
ATOM     74  C   UNL A   1      44.861  29.204  29.351  1.00  0.00     0.034 A 
BRANCH  61  75
ATOM     75  C   UNL A   1      43.318  27.659  34.343  1.00  0.00     0.023 A 
ATOM     76  C   UNL A   1      43.600  28.004  35.679  1.00  0.00     0.012 A 
ATOM     77  C   UNL A   1      43.641  26.346  33.928  1.00  0.00     0.148 A 
ATOM     78  C   UNL A   1      44.184  27.091  36.560  1.00  0.00     0.002 A 
ATOM     79  C   UNL A   1      44.136  25.414  34.830  1.00  0.00     0.091 A 
ATOM     80  F   UNL A   1      43.593  26.025  32.632  1.00  0.00    -0.205 F 
ATOM     81  C   UNL A   1      44.435  25.789  36.141  1.00  0.00     0.022 A 
BRANCH  79  82
ATOM     82  S   UNL A   1      44.414  23.699  34.370  1.00  0.00     0.127 S 
ATOM     83  O   UNL A   1      45.625  23.804  33.563  1.00  0.00    -0.237 OA
ATOM     84  O   UNL A   1      44.592  23.068  35.678  1.00  0.00    -0.237 OA
ATOM     85  O   UNL A   1      43.209  23.282  33.664  1.00  0.00    -0.744 OA
ENDBRANCH  79  82
ENDBRANCH  61  75
BRANCH  62  86
ATOM     86  C   UNL A   1      42.462  24.926  26.284  1.00  0.00     0.023 A 
ATOM     87  C   UNL A   1      43.519  24.513  25.441  1.00  0.00     0.012 A 
ATOM     88  C   UNL A   1      41.645  23.877  26.760  1.00  0.00     0.148 A 
ATOM     89  C   UNL A   1      43.679  23.162  25.048  1.00  0.00     0.002 A 
ATOM     90  C   UNL A   1      41.710  22.568  26.269  1.00  0.00     0.091 A 
ATOM     91  F   UNL A   1      41.006  24.080  27.912  1.00  0.00    -0.205 F 
ATOM     92  C   UNL A   1      42.751  22.196  25.426  1.00  0.00     0.022 A 
BRANCH  90  93
ATOM     93  S   UNL A   1      40.541  21.291  26.762  1.00  0.00     0.127 S 
ATOM     94  O   UNL A   1      39.268  21.880  26.346  1.00  0.00    -0.237 OA
ATOM     95  O   UNL A   1      40.968  20.138  25.974  1.00  0.00    -0.237 OA
ATOM     96  O   UNL A   1      40.699  21.146  28.202  1.00  0.00    -0.744 OA
ENDBRANCH  90  93
ENDBRANCH  62  86
BRANCH  74  97
ATOM     97  C   UNL A   1      44.972  30.209  28.220  1.00  0.00     0.023 A 
ATOM     98  C   UNL A   1      43.848  30.727  27.539  1.00  0.00     0.012 A 
ATOM     99  C   UNL A   1      46.228  30.779  27.964  1.00  0.00     0.148 A 
ATOM    100  C   UNL A   1      43.973  31.781  26.627  1.00  0.00     0.002 A 
ATOM    101  C   UNL A   1      46.343  31.860  27.096  1.00  0.00     0.091 A 
ATOM    102  F   UNL A   1      47.291  30.273  28.606  1.00  0.00    -0.205 F 
ATOM    103  C   UNL A   1      45.220  32.360  26.418  1.00  0.00     0.022 A 
BRANCH 101 104
ATOM    104  S   UNL A   1      47.894  32.737  26.892  1.00  0.00     0.127 S 
ATOM    105  O   UNL A   1      47.557  33.716  25.861  1.00  0.00    -0.237 OA
ATOM    106  O   UNL A   1      48.110  33.302  28.226  1.00  0.00    -0.237 OA
ATOM    107  O   UNL A   1      48.877  31.733  26.503  1.00  0.00    -0.744 OA
ENDBRANCH 101 104
ENDBRANCH  74  97
ENDBRANCH  48  49
ENDBRANCH  41  43
ENDBRANCH  40  41
ENDBRANCH  39  40
ENDBRANCH   1  39
TORSDOF 20
ENDMDL
