MODEL 1
REMARK VINA RESULT:     -13.0      0.000      0.000
REMARK SMILES O=C(Nc1cccc(C(=O)OCCOC(=O)c2ccc(-c3c4nc(c(-c5cccc(S(=O)(=O)[O-])c5F)c5ccc([nH]5)c(-c5cccc(S(=O)(=O)[O-])c5F)c5nc(c(-c6cccc(S(=O)(=O)[O-])c6F)c6ccc3[nH]6)C=C5)C=C4)cc2)c1)Nc1cc(Cl)c(Cl)cc1Cl
REMARK SMILES IDX 13 1 12 2 11 3 9 4 10 5 8 6 4 7 5 8 80 9 6 10 7 11 3 12 1 13
REMARK SMILES IDX 2 14 81 15 82 18 83 19 89 20 84 21 88 22 90 23 85 24 86 25
REMARK SMILES IDX 87 26 14 27 15 28 16 29 17 30 18 31 79 32 19 33 78 34 20 35
REMARK SMILES IDX 21 36 22 37 72 38 23 39 77 40 71 41 73 42 24 43 76 44 70 45
REMARK SMILES IDX 69 46 25 48 57 49 37 50 56 51 38 52 41 53 55 54 74 55 39 56
REMARK SMILES IDX 40 57 54 59 75 60 42 61 26 62 27 63 35 64 28 65 30 66 36 67
REMARK SMILES IDX 29 68 31 69 32 70 33 71 34 72 58 73 59 74 67 75 60 76 62 77
REMARK SMILES IDX 68 78 61 79 63 80 64 81 65 82 66 83 43 84 44 85 52 86 45 87
REMARK SMILES IDX 47 88 53 89 46 90 48 91 49 92 50 93 51 94
REMARK H PARENT 3 16 81 17 73 47 41 58
REMARK Flexibility Score: inf
ROOT
ATOM      1  C   UNL A   1      31.477  32.258  26.554  1.00  0.00     0.275 C 
ENDROOT
BRANCH   1   2
ATOM      2  C   UNL A   1      31.039  31.124  25.624  1.00  0.00     0.275 C 
BRANCH   2   3
ATOM      3  O   UNL A   1      31.790  29.919  25.884  1.00  0.00    -0.458 OA
BRANCH   3   4
ATOM      4  C   UNL A   1      32.094  29.151  24.810  1.00  0.00     0.338 C 
ATOM      5  O   UNL A   1      33.074  29.259  24.087  1.00  0.00    -0.246 OA
BRANCH   4   6
ATOM      6  C   UNL A   1      31.083  28.081  24.634  1.00  0.00     0.062 A 
ATOM      7  C   UNL A   1      30.042  26.034  25.382  1.00  0.00     0.043 A 
ATOM      8  C   UNL A   1      29.153  26.081  24.306  1.00  0.00     0.026 A 
ATOM      9  C   UNL A   1      31.069  26.978  25.483  1.00  0.00     0.041 A 
ATOM     10  C   UNL A   1      29.163  27.181  23.454  1.00  0.00     0.003 A 
ATOM     11  C   UNL A   1      30.079  28.209  23.666  1.00  0.00     0.016 A 
BRANCH   7  12
ATOM     12  N   UNL A   1      29.811  25.071  26.377  1.00  0.00    -0.308 N 
ATOM     13  O   UNL A   1      30.034  23.102  27.439  1.00  0.00    -0.248 OA
ATOM     14  C   UNL A   1      30.433  23.858  26.557  1.00  0.00     0.323 C 
ATOM     15  N   UNL A   1      31.576  23.668  25.822  1.00  0.00    -0.306 N 
ATOM     16  H   UNL A   1      29.113  25.295  27.033  1.00  0.00     0.171 HD
ATOM     17  H   UNL A   1      31.950  24.473  25.393  1.00  0.00     0.171 HD
BRANCH  15  18
ATOM     18  C   UNL A   1      32.282  22.470  25.602  1.00  0.00     0.063 A 
ATOM     19  C   UNL A   1      31.922  21.762  24.443  1.00  0.00     0.049 A 
ATOM     20  C   UNL A   1      33.255  21.919  26.453  1.00  0.00     0.066 A 
ATOM     21  C   UNL A   1      32.582  20.581  24.086  1.00  0.00     0.061 A 
ATOM     22  C   UNL A   1      33.925  20.746  26.086  1.00  0.00     0.044 A 
ATOM     23  Cl  UNL A   1      33.566  22.488  28.057  1.00  0.00    -0.082 Cl
ATOM     24  Cl  UNL A   1      32.091  19.791  22.631  1.00  0.00    -0.083 Cl
ATOM     25  C   UNL A   1      33.603  20.086  24.899  1.00  0.00     0.061 A 
ATOM     26  Cl  UNL A   1      34.480  18.648  24.514  1.00  0.00    -0.083 Cl
ENDBRANCH  15  18
ENDBRANCH   7  12
ENDBRANCH   4   6
ENDBRANCH   3   4
ENDBRANCH   2   3
ENDBRANCH   1   2
BRANCH   1  27
ATOM     27  O   UNL A   1      32.651  31.883  27.296  1.00  0.00    -0.458 OA
BRANCH  27  28
ATOM     28  C   UNL A   1      33.437  32.914  27.679  1.00  0.00     0.338 C 
ATOM     29  O   UNL A   1      33.112  34.080  27.827  1.00  0.00    -0.246 OA
BRANCH  28  30
ATOM     30  C   UNL A   1      34.767  32.416  28.052  1.00  0.00     0.060 A 
ATOM     31  C   UNL A   1      34.845  31.113  28.524  1.00  0.00     0.016 A 
ATOM     32  C   UNL A   1      35.878  33.247  28.117  1.00  0.00     0.016 A 
ATOM     33  C   UNL A   1      35.978  30.665  29.191  1.00  0.00     0.010 A 
ATOM     34  C   UNL A   1      37.068  32.751  28.670  1.00  0.00     0.010 A 
ATOM     35  C   UNL A   1      37.119  31.470  29.257  1.00  0.00    -0.014 A 
BRANCH  35  36
ATOM     36  C   UNL A   1      38.345  30.971  29.947  1.00  0.00     0.031 A 
ATOM     37  C   UNL A   1      39.236  29.957  29.273  1.00  0.00     0.074 A 
ATOM     38  C   UNL A   1      38.657  31.413  31.185  1.00  0.00     0.049 A 
ATOM     39  N   UNL A   1      40.237  29.278  29.771  1.00  0.00    -0.248 NA
ATOM     40  C   UNL A   1      38.959  29.655  27.858  1.00  0.00     0.031 C 
ATOM     41  C   UNL A   1      37.899  32.406  31.951  1.00  0.00     0.029 A 
ATOM     42  N   UNL A   1      39.684  31.066  32.032  1.00  0.00    -0.354 N 
ATOM     43  C   UNL A   1      40.644  28.405  28.769  1.00  0.00     0.074 A 
ATOM     44  C   UNL A   1      39.801  28.659  27.621  1.00  0.00     0.031 C 
ATOM     45  C   UNL A   1      38.484  32.594  33.141  1.00  0.00     0.029 A 
ATOM     46  C   UNL A   1      39.599  31.666  33.268  1.00  0.00     0.049 A 
ATOM     47  H   UNL A   1      40.409  30.450  31.778  1.00  0.00     0.167 HD
ATOM     48  C   UNL A   1      41.627  27.475  28.806  1.00  0.00     0.034 A 
ATOM     49  C   UNL A   1      40.292  31.453  34.405  1.00  0.00     0.034 A 
ATOM     50  C   UNL A   1      42.511  27.279  29.924  1.00  0.00     0.049 A 
ATOM     51  C   UNL A   1      41.379  30.414  34.410  1.00  0.00     0.074 A 
ATOM     52  C   UNL A   1      43.590  26.416  30.021  1.00  0.00     0.029 A 
ATOM     53  N   UNL A   1      42.419  27.944  31.135  1.00  0.00    -0.354 N 
ATOM     54  N   UNL A   1      41.800  29.657  33.427  1.00  0.00    -0.248 NA
ATOM     55  C   UNL A   1      42.095  30.209  35.676  1.00  0.00     0.031 C 
ATOM     56  C   UNL A   1      44.122  26.527  31.309  1.00  0.00     0.029 A 
ATOM     57  C   UNL A   1      43.406  27.495  31.995  1.00  0.00     0.049 A 
ATOM     58  H   UNL A   1      41.750  28.632  31.353  1.00  0.00     0.167 HD
ATOM     59  C   UNL A   1      42.852  28.913  33.946  1.00  0.00     0.074 A 
ATOM     60  C   UNL A   1      43.021  29.330  35.322  1.00  0.00     0.031 C 
ATOM     61  C   UNL A   1      43.602  27.960  33.343  1.00  0.00     0.034 A 
BRANCH  48  62
ATOM     62  C   UNL A   1      41.810  26.575  27.611  1.00  0.00     0.023 A 
ATOM     63  C   UNL A   1      42.547  27.012  26.494  1.00  0.00     0.012 A 
ATOM     64  C   UNL A   1      41.333  25.249  27.650  1.00  0.00     0.148 A 
ATOM     65  C   UNL A   1      42.790  26.148  25.424  1.00  0.00     0.002 A 
ATOM     66  C   UNL A   1      41.618  24.381  26.605  1.00  0.00     0.091 A 
ATOM     67  F   UNL A   1      40.617  24.860  28.715  1.00  0.00    -0.205 F 
ATOM     68  C   UNL A   1      42.338  24.831  25.486  1.00  0.00     0.022 A 
BRANCH  66  69
ATOM     69  S   UNL A   1      41.158  22.645  26.631  1.00  0.00     0.127 S 
ATOM     70  O   UNL A   1      39.702  22.724  26.528  1.00  0.00    -0.237 OA
ATOM     71  O   UNL A   1      41.827  22.134  25.434  1.00  0.00    -0.237 OA
ATOM     72  O   UNL A   1      41.663  22.111  27.888  1.00  0.00    -0.744 OA
ENDBRANCH  66  69
ENDBRANCH  48  62
BRANCH  49  73
ATOM     73  C   UNL A   1      39.963  32.214  35.645  1.00  0.00     0.023 A 
ATOM     74  C   UNL A   1      40.728  33.343  35.996  1.00  0.00     0.012 A 
ATOM     75  C   UNL A   1      38.901  31.819  36.483  1.00  0.00     0.148 A 
ATOM     76  C   UNL A   1      40.471  34.036  37.180  1.00  0.00     0.002 A 
ATOM     77  C   UNL A   1      38.606  32.554  37.625  1.00  0.00     0.091 A 
ATOM     78  F   UNL A   1      38.194  30.731  36.146  1.00  0.00    -0.205 F 
ATOM     79  C   UNL A   1      39.404  33.649  37.988  1.00  0.00     0.022 A 
BRANCH  77  80
ATOM     80  S   UNL A   1      37.167  32.208  38.640  1.00  0.00     0.127 S 
ATOM     81  O   UNL A   1      37.564  32.772  39.926  1.00  0.00    -0.237 OA
ATOM     82  O   UNL A   1      36.117  32.951  37.940  1.00  0.00    -0.237 OA
ATOM     83  O   UNL A   1      37.000  30.761  38.601  1.00  0.00    -0.744 OA
ENDBRANCH  77  80
ENDBRANCH  49  73
BRANCH  61  84
ATOM     84  C   UNL A   1      44.720  27.343  34.140  1.00  0.00     0.023 A 
ATOM     85  C   UNL A   1      46.000  27.928  34.137  1.00  0.00     0.012 A 
ATOM     86  C   UNL A   1      44.475  26.215  34.947  1.00  0.00     0.148 A 
ATOM     87  C   UNL A   1      47.031  27.377  34.899  1.00  0.00     0.002 A 
ATOM     88  C   UNL A   1      45.490  25.705  35.746  1.00  0.00     0.091 A 
ATOM     89  F   UNL A   1      43.253  25.662  34.920  1.00  0.00    -0.205 F 
ATOM     90  C   UNL A   1      46.772  26.276  35.712  1.00  0.00     0.022 A 
BRANCH  88  91
ATOM     91  S   UNL A   1      45.221  24.356  36.900  1.00  0.00     0.127 S 
ATOM     92  O   UNL A   1      44.870  23.260  35.999  1.00  0.00    -0.237 OA
ATOM     93  O   UNL A   1      46.533  24.228  37.536  1.00  0.00    -0.237 OA
ATOM     94  O   UNL A   1      44.156  24.794  37.792  1.00  0.00    -0.744 OA
ENDBRANCH  88  91
ENDBRANCH  61  84
ENDBRANCH  35  36
ENDBRANCH  28  30
ENDBRANCH  27  28
ENDBRANCH   1  27
TORSDOF 16
ENDMDL
MODEL 2
REMARK VINA RESULT:     -12.6      0.561      7.475
REMARK SMILES O=C(Nc1cccc(C(=O)OCCOC(=O)c2ccc(-c3c4nc(c(-c5cccc(S(=O)(=O)[O-])c5F)c5ccc([nH]5)c(-c5cccc(S(=O)(=O)[O-])c5F)c5nc(c(-c6cccc(S(=O)(=O)[O-])c6F)c6ccc3[nH]6)C=C5)C=C4)cc2)c1)Nc1cc(Cl)c(Cl)cc1Cl
REMARK SMILES IDX 13 1 12 2 11 3 9 4 10 5 8 6 4 7 5 8 80 9 6 10 7 11 3 12 1 13
REMARK SMILES IDX 2 14 81 15 82 18 83 19 89 20 84 21 88 22 90 23 85 24 86 25
REMARK SMILES IDX 87 26 14 27 15 28 16 29 17 30 18 31 79 32 19 33 78 34 20 35
REMARK SMILES IDX 21 36 22 37 72 38 23 39 77 40 71 41 73 42 24 43 76 44 70 45
REMARK SMILES IDX 69 46 25 48 57 49 37 50 56 51 38 52 41 53 55 54 74 55 39 56
REMARK SMILES IDX 40 57 54 59 75 60 42 61 26 62 27 63 35 64 28 65 30 66 36 67
REMARK SMILES IDX 29 68 31 69 32 70 33 71 34 72 58 73 59 74 67 75 60 76 62 77
REMARK SMILES IDX 68 78 61 79 63 80 64 81 65 82 66 83 43 84 44 85 52 86 45 87
REMARK SMILES IDX 47 88 53 89 46 90 48 91 49 92 50 93 51 94
REMARK H PARENT 3 16 81 17 73 47 41 58
REMARK Flexibility Score: inf
ROOT
ATOM      1  C   UNL A   1      32.160  32.618  26.813  1.00  0.00     0.275 C 
ENDROOT
BRANCH   1   2
ATOM      2  C   UNL A   1      31.794  31.132  26.850  1.00  0.00     0.275 C 
BRANCH   2   3
ATOM      3  O   UNL A   1      31.547  30.623  25.523  1.00  0.00    -0.458 OA
BRANCH   3   4
ATOM      4  C   UNL A   1      32.232  29.512  25.162  1.00  0.00     0.338 C 
ATOM      5  O   UNL A   1      33.447  29.378  25.136  1.00  0.00    -0.246 OA
BRANCH   4   6
ATOM      6  C   UNL A   1      31.298  28.407  24.837  1.00  0.00     0.062 A 
ATOM      7  C   UNL A   1      30.240  26.315  25.416  1.00  0.00     0.043 A 
ATOM      8  C   UNL A   1      29.511  26.342  24.225  1.00  0.00     0.026 A 
ATOM      9  C   UNL A   1      31.205  27.295  25.668  1.00  0.00     0.041 A 
ATOM     10  C   UNL A   1      29.599  27.452  23.390  1.00  0.00     0.003 A 
ATOM     11  C   UNL A   1      30.437  28.510  23.738  1.00  0.00     0.016 A 
BRANCH   7  12
ATOM     12  N   UNL A   1      29.907  25.333  26.362  1.00  0.00    -0.308 N 
ATOM     13  O   UNL A   1      29.959  23.313  27.351  1.00  0.00    -0.248 OA
ATOM     14  C   UNL A   1      30.441  24.074  26.516  1.00  0.00     0.323 C 
ATOM     15  N   UNL A   1      31.598  23.838  25.817  1.00  0.00    -0.306 N 
ATOM     16  H   UNL A   1      29.199  25.577  27.000  1.00  0.00     0.171 HD
ATOM     17  H   UNL A   1      32.041  24.631  25.436  1.00  0.00     0.171 HD
BRANCH  15  18
ATOM     18  C   UNL A   1      32.233  22.604  25.576  1.00  0.00     0.063 A 
ATOM     19  C   UNL A   1      31.921  21.996  24.348  1.00  0.00     0.049 A 
ATOM     20  C   UNL A   1      33.091  21.932  26.463  1.00  0.00     0.066 A 
ATOM     21  C   UNL A   1      32.523  20.791  23.968  1.00  0.00     0.061 A 
ATOM     22  C   UNL A   1      33.703  20.735  26.073  1.00  0.00     0.044 A 
ATOM     23  Cl  UNL A   1      33.307  22.379  28.119  1.00  0.00    -0.082 Cl
ATOM     24  Cl  UNL A   1      32.100  20.128  22.430  1.00  0.00    -0.083 Cl
ATOM     25  C   UNL A   1      33.435  20.172  24.825  1.00  0.00     0.061 A 
ATOM     26  Cl  UNL A   1      34.237  18.698  24.416  1.00  0.00    -0.083 Cl
ENDBRANCH  15  18
ENDBRANCH   7  12
ENDBRANCH   4   6
ENDBRANCH   3   4
ENDBRANCH   2   3
ENDBRANCH   1   2
BRANCH   1  27
ATOM     27  O   UNL A   1      32.857  33.000  28.012  1.00  0.00    -0.458 OA
BRANCH  27  28
ATOM     28  C   UNL A   1      33.996  33.699  27.812  1.00  0.00     0.338 C 
ATOM     29  O   UNL A   1      34.100  34.865  27.469  1.00  0.00    -0.246 OA
BRANCH  28  30
ATOM     30  C   UNL A   1      35.155  32.891  28.213  1.00  0.00     0.060 A 
ATOM     31  C   UNL A   1      34.898  31.631  28.736  1.00  0.00     0.016 A 
ATOM     32  C   UNL A   1      36.442  33.411  28.252  1.00  0.00     0.016 A 
ATOM     33  C   UNL A   1      35.880  30.935  29.426  1.00  0.00     0.010 A 
ATOM     34  C   UNL A   1      37.467  32.648  28.832  1.00  0.00     0.010 A 
ATOM     35  C   UNL A   1      37.190  31.422  29.469  1.00  0.00    -0.014 A 
BRANCH  35  36
ATOM     36  C   UNL A   1      38.249  30.652  30.185  1.00  0.00     0.031 A 
ATOM     37  C   UNL A   1      38.565  30.957  31.629  1.00  0.00     0.074 A 
ATOM     38  C   UNL A   1      38.943  29.688  29.542  1.00  0.00     0.049 A 
ATOM     39  N   UNL A   1      39.556  30.526  32.365  1.00  0.00    -0.248 NA
ATOM     40  C   UNL A   1      37.656  31.877  32.335  1.00  0.00     0.031 C 
ATOM     41  C   UNL A   1      38.733  29.272  28.152  1.00  0.00     0.029 A 
ATOM     42  N   UNL A   1      39.984  28.895  29.964  1.00  0.00    -0.354 N 
ATOM     43  C   UNL A   1      39.448  31.192  33.580  1.00  0.00     0.074 A 
ATOM     44  C   UNL A   1      38.276  32.036  33.496  1.00  0.00     0.031 C 
ATOM     45  C   UNL A   1      39.606  28.304  27.840  1.00  0.00     0.029 A 
ATOM     46  C   UNL A   1      40.502  28.097  28.967  1.00  0.00     0.049 A 
ATOM     47  H   UNL A   1      40.326  28.897  30.887  1.00  0.00     0.167 HD
ATOM     48  C   UNL A   1      40.255  31.109  34.665  1.00  0.00     0.034 A 
ATOM     49  C   UNL A   1      41.612  27.332  28.934  1.00  0.00     0.034 A 
ATOM     50  C   UNL A   1      41.375  30.212  34.771  1.00  0.00     0.049 A 
ATOM     51  C   UNL A   1      42.484  27.262  30.156  1.00  0.00     0.074 A 
ATOM     52  C   UNL A   1      42.201  30.000  35.861  1.00  0.00     0.029 A 
ATOM     53  N   UNL A   1      41.831  29.388  33.756  1.00  0.00    -0.354 N 
ATOM     54  N   UNL A   1      42.318  27.836  31.322  1.00  0.00    -0.248 NA
ATOM     55  C   UNL A   1      43.689  26.426  30.065  1.00  0.00     0.031 C 
ATOM     56  C   UNL A   1      43.185  29.079  35.491  1.00  0.00     0.029 A 
ATOM     57  C   UNL A   1      42.940  28.681  34.186  1.00  0.00     0.049 A 
ATOM     58  H   UNL A   1      41.427  29.316  32.862  1.00  0.00     0.167 HD
ATOM     59  C   UNL A   1      43.376  27.404  32.112  1.00  0.00     0.074 A 
ATOM     60  C   UNL A   1      44.162  26.499  31.300  1.00  0.00     0.031 C 
ATOM     61  C   UNL A   1      43.679  27.738  33.389  1.00  0.00     0.034 A 
BRANCH  48  62
ATOM     62  C   UNL A   1      39.979  32.016  35.836  1.00  0.00     0.023 A 
ATOM     63  C   UNL A   1      40.674  33.232  35.978  1.00  0.00     0.012 A 
ATOM     64  C   UNL A   1      38.944  31.701  36.740  1.00  0.00     0.148 A 
ATOM     65  C   UNL A   1      40.357  34.112  37.014  1.00  0.00     0.002 A 
ATOM     66  C   UNL A   1      38.601  32.601  37.739  1.00  0.00     0.091 A 
ATOM     67  F   UNL A   1      38.308  30.529  36.597  1.00  0.00    -0.205 F 
ATOM     68  C   UNL A   1      39.313  33.803  37.885  1.00  0.00     0.022 A 
BRANCH  66  69
ATOM     69  S   UNL A   1      37.216  32.337  38.852  1.00  0.00     0.127 S 
ATOM     70  O   UNL A   1      37.266  30.888  39.046  1.00  0.00    -0.237 OA
ATOM     71  O   UNL A   1      37.610  33.122  40.022  1.00  0.00    -0.237 OA
ATOM     72  O   UNL A   1      36.036  32.829  38.155  1.00  0.00    -0.744 OA
ENDBRANCH  66  69
ENDBRANCH  48  62
BRANCH  49  73
ATOM     73  C   UNL A   1      41.984  26.594  27.692  1.00  0.00     0.023 A 
ATOM     74  C   UNL A   1      42.549  27.293  26.607  1.00  0.00     0.012 A 
ATOM     75  C   UNL A   1      41.771  25.206  27.576  1.00  0.00     0.148 A 
ATOM     76  C   UNL A   1      42.853  26.631  25.417  1.00  0.00     0.002 A 
ATOM     77  C   UNL A   1      42.139  24.541  26.413  1.00  0.00     0.091 A 
ATOM     78  F   UNL A   1      41.213  24.559  28.609  1.00  0.00    -0.205 F 
ATOM     79  C   UNL A   1      42.659  25.255  25.323  1.00  0.00     0.022 A 
BRANCH  77  80
ATOM     80  S   UNL A   1      42.054  22.754  26.265  1.00  0.00     0.127 S 
ATOM     81  O   UNL A   1      42.813  22.320  27.434  1.00  0.00    -0.237 OA
ATOM     82  O   UNL A   1      40.612  22.512  26.342  1.00  0.00    -0.237 OA
ATOM     83  O   UNL A   1      42.642  22.440  24.970  1.00  0.00    -0.744 OA
ENDBRANCH  77  80
ENDBRANCH  49  73
BRANCH  61  84
ATOM     84  C   UNL A   1      44.874  27.075  34.019  1.00  0.00     0.023 A 
ATOM     85  C   UNL A   1      46.148  27.667  33.918  1.00  0.00     0.012 A 
ATOM     86  C   UNL A   1      44.716  25.895  34.772  1.00  0.00     0.148 A 
ATOM     87  C   UNL A   1      47.253  27.072  34.526  1.00  0.00     0.002 A 
ATOM     88  C   UNL A   1      45.810  25.340  35.422  1.00  0.00     0.091 A 
ATOM     89  F   UNL A   1      43.497  25.339  34.839  1.00  0.00    -0.205 F 
ATOM     90  C   UNL A   1      47.082  25.919  35.288  1.00  0.00     0.022 A 
BRANCH  88  91
ATOM     91  S   UNL A   1      45.664  23.916  36.506  1.00  0.00     0.127 S 
ATOM     92  O   UNL A   1      47.064  23.628  36.809  1.00  0.00    -0.237 OA
ATOM     93  O   UNL A   1      44.896  24.459  37.627  1.00  0.00    -0.237 OA
ATOM     94  O   UNL A   1      44.970  22.892  35.737  1.00  0.00    -0.744 OA
ENDBRANCH  88  91
ENDBRANCH  61  84
ENDBRANCH  35  36
ENDBRANCH  28  30
ENDBRANCH  27  28
ENDBRANCH   1  27
TORSDOF 16
ENDMDL
MODEL 3
REMARK VINA RESULT:     -12.4      5.209     10.491
REMARK SMILES O=C(Nc1cccc(C(=O)OCCOC(=O)c2ccc(-c3c4nc(c(-c5cccc(S(=O)(=O)[O-])c5F)c5ccc([nH]5)c(-c5cccc(S(=O)(=O)[O-])c5F)c5nc(c(-c6cccc(S(=O)(=O)[O-])c6F)c6ccc3[nH]6)C=C5)C=C4)cc2)c1)Nc1cc(Cl)c(Cl)cc1Cl
REMARK SMILES IDX 13 1 12 2 11 3 9 4 10 5 8 6 4 7 5 8 80 9 6 10 7 11 3 12 1 13
REMARK SMILES IDX 2 14 81 15 82 18 83 19 89 20 84 21 88 22 90 23 85 24 86 25
REMARK SMILES IDX 87 26 14 27 15 28 16 29 17 30 18 31 79 32 19 33 78 34 20 35
REMARK SMILES IDX 21 36 22 37 72 38 23 39 77 40 71 41 73 42 24 43 76 44 70 45
REMARK SMILES IDX 69 46 25 48 57 49 37 50 56 51 38 52 41 53 55 54 74 55 39 56
REMARK SMILES IDX 40 57 54 59 75 60 42 61 26 62 27 63 35 64 28 65 30 66 36 67
REMARK SMILES IDX 29 68 31 69 32 70 33 71 34 72 58 73 59 74 67 75 60 76 62 77
REMARK SMILES IDX 68 78 61 79 63 80 64 81 65 82 66 83 43 84 44 85 52 86 45 87
REMARK SMILES IDX 47 88 53 89 46 90 48 91 49 92 50 93 51 94
REMARK H PARENT 3 16 81 17 73 47 41 58
REMARK Flexibility Score: inf
ROOT
ATOM      1  C   UNL A   1      34.884  33.575  28.587  1.00  0.00     0.275 C 
ENDROOT
BRANCH   1   2
ATOM      2  C   UNL A   1      33.529  34.150  28.166  1.00  0.00     0.275 C 
BRANCH   2   3
ATOM      3  O   UNL A   1      32.785  34.619  29.310  1.00  0.00    -0.458 OA
BRANCH   3   4
ATOM      4  C   UNL A   1      32.844  35.948  29.569  1.00  0.00     0.338 C 
ATOM      5  O   UNL A   1      32.598  36.857  28.789  1.00  0.00    -0.246 OA
BRANCH   4   6
ATOM      6  C   UNL A   1      33.206  36.185  30.987  1.00  0.00     0.062 A 
ATOM      7  C   UNL A   1      34.010  35.368  33.112  1.00  0.00     0.043 A 
ATOM      8  C   UNL A   1      33.914  36.652  33.654  1.00  0.00     0.026 A 
ATOM      9  C   UNL A   1      33.559  35.122  31.812  1.00  0.00     0.041 A 
ATOM     10  C   UNL A   1      33.562  37.719  32.833  1.00  0.00     0.003 A 
ATOM     11  C   UNL A   1      33.282  37.491  31.488  1.00  0.00     0.016 A 
BRANCH   7  12
ATOM     12  N   UNL A   1      34.644  34.380  33.883  1.00  0.00    -0.308 N 
ATOM     13  O   UNL A   1      36.325  33.050  34.561  1.00  0.00    -0.248 OA
ATOM     14  C   UNL A   1      35.966  34.003  33.875  1.00  0.00     0.323 C 
ATOM     15  N   UNL A   1      36.815  34.852  33.210  1.00  0.00    -0.306 N 
ATOM     16  H   UNL A   1      34.064  33.894  34.512  1.00  0.00     0.171 HD
ATOM     17  H   UNL A   1      36.445  35.734  32.975  1.00  0.00     0.171 HD
BRANCH  15  18
ATOM     18  C   UNL A   1      38.149  34.622  32.821  1.00  0.00     0.063 A 
ATOM     19  C   UNL A   1      38.331  34.263  31.474  1.00  0.00     0.049 A 
ATOM     20  C   UNL A   1      39.273  34.674  33.662  1.00  0.00     0.066 A 
ATOM     21  C   UNL A   1      39.612  34.055  30.951  1.00  0.00     0.061 A 
ATOM     22  C   UNL A   1      40.554  34.480  33.132  1.00  0.00     0.044 A 
ATOM     23  Cl  UNL A   1      39.183  34.772  35.386  1.00  0.00    -0.082 Cl
ATOM     24  Cl  UNL A   1      39.743  33.642  29.279  1.00  0.00    -0.083 Cl
ATOM     25  C   UNL A   1      40.728  34.188  31.779  1.00  0.00     0.061 A 
ATOM     26  Cl  UNL A   1      42.341  33.970  31.202  1.00  0.00    -0.083 Cl
ENDBRANCH  15  18
ENDBRANCH   7  12
ENDBRANCH   4   6
ENDBRANCH   3   4
ENDBRANCH   2   3
ENDBRANCH   1   2
BRANCH   1  27
ATOM     27  O   UNL A   1      35.314  32.561  27.661  1.00  0.00    -0.458 OA
BRANCH  27  28
ATOM     28  C   UNL A   1      34.967  31.298  27.996  1.00  0.00     0.338 C 
ATOM     29  O   UNL A   1      33.850  30.808  27.984  1.00  0.00    -0.246 OA
BRANCH  28  30
ATOM     30  C   UNL A   1      36.172  30.500  28.258  1.00  0.00     0.060 A 
ATOM     31  C   UNL A   1      36.163  29.692  29.387  1.00  0.00     0.016 A 
ATOM     32  C   UNL A   1      37.344  30.670  27.533  1.00  0.00     0.016 A 
ATOM     33  C   UNL A   1      37.342  29.159  29.888  1.00  0.00     0.010 A 
ATOM     34  C   UNL A   1      38.511  30.020  27.964  1.00  0.00     0.010 A 
ATOM     35  C   UNL A   1      38.536  29.295  29.173  1.00  0.00    -0.014 A 
BRANCH  35  36
ATOM     36  C   UNL A   1      39.794  28.691  29.700  1.00  0.00     0.031 A 
ATOM     37  C   UNL A   1      40.505  29.319  30.874  1.00  0.00     0.074 A 
ATOM     38  C   UNL A   1      40.315  27.588  29.120  1.00  0.00     0.049 A 
ATOM     39  N   UNL A   1      41.688  29.050  31.362  1.00  0.00    -0.248 NA
ATOM     40  C   UNL A   1      39.799  30.400  31.586  1.00  0.00     0.031 C 
ATOM     41  C   UNL A   1      39.727  26.863  27.990  1.00  0.00     0.029 A 
ATOM     42  N   UNL A   1      41.472  26.893  29.385  1.00  0.00    -0.354 N 
ATOM     43  C   UNL A   1      41.909  29.985  32.367  1.00  0.00     0.074 A 
ATOM     44  C   UNL A   1      40.725  30.812  32.442  1.00  0.00     0.031 C 
ATOM     45  C   UNL A   1      40.515  25.828  27.665  1.00  0.00     0.029 A 
ATOM     46  C   UNL A   1      41.712  25.872  28.492  1.00  0.00     0.049 A 
ATOM     47  H   UNL A   1      42.068  27.104  30.139  1.00  0.00     0.167 HD
ATOM     48  C   UNL A   1      43.002  30.141  33.151  1.00  0.00     0.034 A 
ATOM     49  C   UNL A   1      42.799  25.095  28.309  1.00  0.00     0.034 A 
ATOM     50  C   UNL A   1      44.145  29.268  33.124  1.00  0.00     0.049 A 
ATOM     51  C   UNL A   1      43.994  25.294  29.199  1.00  0.00     0.074 A 
ATOM     52  C   UNL A   1      45.264  29.299  33.939  1.00  0.00     0.029 A 
ATOM     53  N   UNL A   1      44.323  28.219  32.239  1.00  0.00    -0.354 N 
ATOM     54  N   UNL A   1      44.149  26.129  30.196  1.00  0.00    -0.248 NA
ATOM     55  C   UNL A   1      45.158  24.432  28.949  1.00  0.00     0.031 C 
ATOM     56  C   UNL A   1      46.140  28.295  33.516  1.00  0.00     0.029 A 
ATOM     57  C   UNL A   1      45.543  27.608  32.471  1.00  0.00     0.049 A 
ATOM     58  H   UNL A   1      43.678  27.948  31.546  1.00  0.00     0.167 HD
ATOM     59  C   UNL A   1      45.412  25.870  30.714  1.00  0.00     0.074 A 
ATOM     60  C   UNL A   1      45.968  24.783  29.937  1.00  0.00     0.031 C 
ATOM     61  C   UNL A   1      46.060  26.487  31.731  1.00  0.00     0.034 A 
BRANCH  48  62
ATOM     62  C   UNL A   1      43.038  31.303  34.110  1.00  0.00     0.023 A 
ATOM     63  C   UNL A   1      43.708  32.492  33.766  1.00  0.00     0.012 A 
ATOM     64  C   UNL A   1      42.308  31.243  35.314  1.00  0.00     0.148 A 
ATOM     65  C   UNL A   1      43.667  33.599  34.617  1.00  0.00     0.002 A 
ATOM     66  C   UNL A   1      42.231  32.362  36.133  1.00  0.00     0.091 A 
ATOM     67  F   UNL A   1      41.693  30.094  35.631  1.00  0.00    -0.205 F 
ATOM     68  C   UNL A   1      42.920  33.538  35.791  1.00  0.00     0.022 A 
BRANCH  66  69
ATOM     69  S   UNL A   1      41.223  32.412  37.618  1.00  0.00     0.127 S 
ATOM     70  O   UNL A   1      39.971  31.824  37.145  1.00  0.00    -0.237 OA
ATOM     71  O   UNL A   1      41.986  31.564  38.535  1.00  0.00    -0.237 OA
ATOM     72  O   UNL A   1      41.143  33.814  38.006  1.00  0.00    -0.744 OA
ENDBRANCH  66  69
ENDBRANCH  48  62
BRANCH  49  73
ATOM     73  C   UNL A   1      42.825  24.079  27.217  1.00  0.00     0.023 A 
ATOM     74  C   UNL A   1      43.471  24.376  26.001  1.00  0.00     0.012 A 
ATOM     75  C   UNL A   1      42.206  22.823  27.374  1.00  0.00     0.148 A 
ATOM     76  C   UNL A   1      43.459  23.460  24.948  1.00  0.00     0.002 A 
ATOM     77  C   UNL A   1      42.258  21.889  26.347  1.00  0.00     0.091 A 
ATOM     78  F   UNL A   1      41.579  22.562  28.530  1.00  0.00    -0.205 F 
ATOM     79  C   UNL A   1      42.863  22.213  25.124  1.00  0.00     0.022 A 
BRANCH  77  80
ATOM     80  S   UNL A   1      41.640  20.214  26.545  1.00  0.00     0.127 S 
ATOM     81  O   UNL A   1      42.287  19.802  27.786  1.00  0.00    -0.237 OA
ATOM     82  O   UNL A   1      40.196  20.434  26.645  1.00  0.00    -0.237 OA
ATOM     83  O   UNL A   1      42.053  19.501  25.343  1.00  0.00    -0.744 OA
ENDBRANCH  77  80
ENDBRANCH  49  73
BRANCH  61  84
ATOM     84  C   UNL A   1      47.418  25.964  32.113  1.00  0.00     0.023 A 
ATOM     85  C   UNL A   1      48.570  26.428  31.448  1.00  0.00     0.012 A 
ATOM     86  C   UNL A   1      47.553  25.058  33.184  1.00  0.00     0.148 A 
ATOM     87  C   UNL A   1      49.833  25.969  31.820  1.00  0.00     0.002 A 
ATOM     88  C   UNL A   1      48.818  24.649  33.585  1.00  0.00     0.091 A 
ATOM     89  F   UNL A   1      46.442  24.616  33.790  1.00  0.00    -0.205 F 
ATOM     90  C   UNL A   1      49.958  25.092  32.895  1.00  0.00     0.022 A 
BRANCH  88  91
ATOM     91  S   UNL A   1      49.081  23.604  35.021  1.00  0.00     0.127 S 
ATOM     92  O   UNL A   1      48.419  22.366  34.613  1.00  0.00    -0.237 OA
ATOM     93  O   UNL A   1      50.541  23.525  35.083  1.00  0.00    -0.237 OA
ATOM     94  O   UNL A   1      48.465  24.298  36.144  1.00  0.00    -0.744 OA
ENDBRANCH  88  91
ENDBRANCH  61  84
ENDBRANCH  35  36
ENDBRANCH  28  30
ENDBRANCH  27  28
ENDBRANCH   1  27
TORSDOF 16
ENDMDL
