MODEL 1
REMARK VINA RESULT:     -11.2      0.000      0.000
REMARK SMILES [NH3+][C@H](C(=O)OCCOC(=O)c1ccc(-c2c3nc(c(-c4cccc(S(=O)(=O)[O-])c4F)c4ccc([nH]4)c(-c4cccc(S(=O)(=O)[O-])c4F)c4nc(c(-c5cccc(S(=O)(=O)[O-])c5F)c5ccc2[nH]5)C=C4)C=C3)cc1)c1ccc(Cl)c(OC(F)(F)F)c1
REMARK SMILES IDX 6 1 5 2 3 3 4 4 2 5 1 6 74 10 75 11 85 12 76 13 79 14 77 15
REMARK SMILES IDX 78 16 80 17 81 18 82 19 83 20 84 21 7 22 8 23 9 24 10 25
REMARK SMILES IDX 11 26 12 27 73 28 13 29 72 30 14 31 15 32 16 33 66 34 17 35
REMARK SMILES IDX 71 36 65 37 67 38 18 39 70 40 64 41 63 42 19 44 51 45 31 46
REMARK SMILES IDX 50 47 32 48 35 49 49 50 68 51 33 52 34 53 48 55 69 56 36 57
REMARK SMILES IDX 20 58 21 59 29 60 22 61 24 62 30 63 23 64 25 65 26 66 27 67
REMARK SMILES IDX 28 68 52 69 53 70 61 71 54 72 56 73 62 74 55 75 57 76 58 77
REMARK SMILES IDX 59 78 60 79 37 80 38 81 46 82 39 83 41 84 47 85 40 86 42 87
REMARK SMILES IDX 43 88 44 89 45 90
REMARK H PARENT 1 7 1 8 1 9 67 43 35 54
REMARK Flexibility Score: inf
ROOT
ATOM      1  C   UNL A   1      35.352  21.532  26.115  1.00  0.00     0.274 C 
ENDROOT
BRANCH   1   2
ATOM      2  O   UNL A   1      34.015  20.994  26.118  1.00  0.00    -0.457 OA
BRANCH   2   3
ATOM      3  C   UNL A   1      33.092  21.648  25.357  1.00  0.00     0.369 C 
ATOM      4  O   UNL A   1      32.991  21.538  24.139  1.00  0.00    -0.245 OA
BRANCH   3   5
ATOM      5  C   UNL A   1      32.229  22.622  26.196  1.00  0.00     0.323 C 
BRANCH   5   6
ATOM      6  N   UNL A   1      32.327  22.276  27.637  1.00  0.00    -0.342 N 
ATOM      7  H   UNL A   1      31.893  21.368  27.800  1.00  0.00     0.345 HD
ATOM      8  H   UNL A   1      31.847  22.986  28.191  1.00  0.00     0.345 HD
ATOM      9  H   UNL A   1      33.308  22.237  27.913  1.00  0.00     0.345 HD
ENDBRANCH   5   6
BRANCH   5  10
ATOM     10  C   UNL A   1      32.507  24.098  25.919  1.00  0.00     0.025 A 
ATOM     11  C   UNL A   1      33.845  24.515  25.826  1.00  0.00     0.012 A 
ATOM     12  C   UNL A   1      31.492  25.067  25.756  1.00  0.00     0.059 A 
ATOM     13  C   UNL A   1      34.165  25.849  25.584  1.00  0.00     0.025 A 
ATOM     14  C   UNL A   1      31.801  26.413  25.502  1.00  0.00     0.148 A 
ATOM     15  C   UNL A   1      33.150  26.790  25.420  1.00  0.00     0.083 A 
ATOM     16  Cl  UNL A   1      33.616  28.425  25.098  1.00  0.00    -0.080 Cl
BRANCH  14  17
ATOM     17  O   UNL A   1      30.891  27.416  25.296  1.00  0.00    -0.404 OA
BRANCH  17  18
ATOM     18  C   UNL A   1      30.222  27.493  24.054  1.00  0.00     0.573 C 
ATOM     19  F   UNL A   1      29.881  28.767  23.769  1.00  0.00    -0.132 F 
ATOM     20  F   UNL A   1      30.986  26.996  23.062  1.00  0.00    -0.132 F 
ATOM     21  F   UNL A   1      29.091  26.758  24.125  1.00  0.00    -0.132 F 
ENDBRANCH  17  18
ENDBRANCH  14  17
ENDBRANCH   5  10
ENDBRANCH   3   5
ENDBRANCH   2   3
ENDBRANCH   1   2
BRANCH   1  22
ATOM     22  C   UNL A   1      36.251  20.721  25.187  1.00  0.00     0.275 C 
BRANCH  22  23
ATOM     23  O   UNL A   1      37.460  21.453  24.929  1.00  0.00    -0.458 OA
BRANCH  23  24
ATOM     24  C   UNL A   1      38.554  21.048  25.613  1.00  0.00     0.338 C 
ATOM     25  O   UNL A   1      38.978  19.914  25.737  1.00  0.00    -0.246 OA
BRANCH  24  26
ATOM     26  C   UNL A   1      39.205  22.229  26.194  1.00  0.00     0.060 A 
ATOM     27  C   UNL A   1      38.619  23.485  26.028  1.00  0.00     0.016 A 
ATOM     28  C   UNL A   1      40.438  22.099  26.830  1.00  0.00     0.016 A 
ATOM     29  C   UNL A   1      39.295  24.630  26.444  1.00  0.00     0.010 A 
ATOM     30  C   UNL A   1      41.084  23.244  27.305  1.00  0.00     0.010 A 
ATOM     31  C   UNL A   1      40.536  24.520  27.087  1.00  0.00    -0.014 A 
BRANCH  31  32
ATOM     32  C   UNL A   1      41.279  25.737  27.509  1.00  0.00     0.031 A 
ATOM     33  C   UNL A   1      40.600  26.780  28.355  1.00  0.00     0.074 A 
ATOM     34  C   UNL A   1      42.552  25.921  27.108  1.00  0.00     0.049 A 
ATOM     35  N   UNL A   1      41.030  27.964  28.708  1.00  0.00    -0.248 NA
ATOM     36  C   UNL A   1      39.256  26.456  28.860  1.00  0.00     0.031 C 
ATOM     37  C   UNL A   1      43.323  24.987  26.287  1.00  0.00     0.029 A 
ATOM     38  N   UNL A   1      43.414  26.970  27.317  1.00  0.00    -0.354 N 
ATOM     39  C   UNL A   1      39.990  28.550  29.419  1.00  0.00     0.074 A 
ATOM     40  C   UNL A   1      38.908  27.589  29.455  1.00  0.00     0.031 C 
ATOM     41  C   UNL A   1      44.542  25.502  26.063  1.00  0.00     0.029 A 
ATOM     42  C   UNL A   1      44.621  26.824  26.676  1.00  0.00     0.049 A 
ATOM     43  H   UNL A   1      43.189  27.750  27.874  1.00  0.00     0.167 HD
ATOM     44  C   UNL A   1      39.942  29.773  29.999  1.00  0.00     0.034 A 
ATOM     45  C   UNL A   1      45.664  27.670  26.567  1.00  0.00     0.034 A 
ATOM     46  C   UNL A   1      41.041  30.700  30.023  1.00  0.00     0.049 A 
ATOM     47  C   UNL A   1      45.593  29.014  27.238  1.00  0.00     0.074 A 
ATOM     48  C   UNL A   1      41.109  31.939  30.636  1.00  0.00     0.029 A 
ATOM     49  N   UNL A   1      42.269  30.490  29.414  1.00  0.00    -0.354 N 
ATOM     50  N   UNL A   1      44.634  29.517  27.975  1.00  0.00    -0.248 NA
ATOM     51  C   UNL A   1      46.756  29.900  27.077  1.00  0.00     0.031 C 
ATOM     52  C   UNL A   1      42.376  32.480  30.393  1.00  0.00     0.029 A 
ATOM     53  C   UNL A   1      43.100  31.575  29.634  1.00  0.00     0.049 A 
ATOM     54  H   UNL A   1      42.513  29.686  28.900  1.00  0.00     0.167 HD
ATOM     55  C   UNL A   1      45.082  30.767  28.384  1.00  0.00     0.074 A 
ATOM     56  C   UNL A   1      46.412  30.934  27.833  1.00  0.00     0.031 C 
ATOM     57  C   UNL A   1      44.441  31.703  29.127  1.00  0.00     0.034 A 
BRANCH  44  58
ATOM     58  C   UNL A   1      38.668  30.168  30.695  1.00  0.00     0.023 A 
ATOM     59  C   UNL A   1      38.473  29.815  32.045  1.00  0.00     0.012 A 
ATOM     60  C   UNL A   1      37.688  30.935  30.032  1.00  0.00     0.148 A 
ATOM     61  C   UNL A   1      37.314  30.199  32.718  1.00  0.00     0.002 A 
ATOM     62  C   UNL A   1      36.552  31.344  30.720  1.00  0.00     0.091 A 
ATOM     63  F   UNL A   1      37.878  31.237  28.739  1.00  0.00    -0.205 F 
ATOM     64  C   UNL A   1      36.359  30.971  32.060  1.00  0.00     0.022 A 
BRANCH  62  65
ATOM     65  S   UNL A   1      35.305  32.399  29.971  1.00  0.00     0.127 S 
ATOM     66  O   UNL A   1      34.801  31.546  28.895  1.00  0.00    -0.237 OA
ATOM     67  O   UNL A   1      34.365  32.606  31.074  1.00  0.00    -0.237 OA
ATOM     68  O   UNL A   1      36.007  33.602  29.547  1.00  0.00    -0.744 OA
ENDBRANCH  62  65
ENDBRANCH  44  58
BRANCH  45  69
ATOM     69  C   UNL A   1      46.882  27.247  25.818  1.00  0.00     0.023 A 
ATOM     70  C   UNL A   1      47.793  26.364  26.430  1.00  0.00     0.012 A 
ATOM     71  C   UNL A   1      47.117  27.668  24.495  1.00  0.00     0.148 A 
ATOM     72  C   UNL A   1      48.923  25.921  25.743  1.00  0.00     0.002 A 
ATOM     73  C   UNL A   1      48.214  27.177  23.796  1.00  0.00     0.091 A 
ATOM     74  F   UNL A   1      46.253  28.529  23.937  1.00  0.00    -0.205 F 
ATOM     75  C   UNL A   1      49.126  26.314  24.422  1.00  0.00     0.022 A 
BRANCH  73  76
ATOM     76  S   UNL A   1      48.461  27.522  22.050  1.00  0.00     0.127 S 
ATOM     77  O   UNL A   1      49.623  28.405  22.081  1.00  0.00    -0.237 OA
ATOM     78  O   UNL A   1      48.716  26.188  21.505  1.00  0.00    -0.237 OA
ATOM     79  O   UNL A   1      47.214  28.122  21.596  1.00  0.00    -0.744 OA
ENDBRANCH  73  76
ENDBRANCH  45  69
BRANCH  57  80
ATOM     80  C   UNL A   1      45.172  32.988  29.407  1.00  0.00     0.023 A 
ATOM     81  C   UNL A   1      45.996  33.081  30.545  1.00  0.00     0.012 A 
ATOM     82  C   UNL A   1      45.104  34.072  28.509  1.00  0.00     0.148 A 
ATOM     83  C   UNL A   1      46.724  34.243  30.799  1.00  0.00     0.002 A 
ATOM     84  C   UNL A   1      45.864  35.212  28.749  1.00  0.00     0.091 A 
ATOM     85  F   UNL A   1      44.296  33.972  27.443  1.00  0.00    -0.205 F 
ATOM     86  C   UNL A   1      46.668  35.302  29.896  1.00  0.00     0.022 A 
BRANCH  84  87
ATOM     87  S   UNL A   1      45.910  36.585  27.591  1.00  0.00     0.127 S 
ATOM     88  O   UNL A   1      44.526  37.054  27.626  1.00  0.00    -0.237 OA
ATOM     89  O   UNL A   1      46.876  37.491  28.215  1.00  0.00    -0.237 OA
ATOM     90  O   UNL A   1      46.353  36.019  26.324  1.00  0.00    -0.744 OA
ENDBRANCH  84  87
ENDBRANCH  57  80
ENDBRANCH  31  32
ENDBRANCH  24  26
ENDBRANCH  23  24
ENDBRANCH  22  23
ENDBRANCH   1  22
TORSDOF 18
ENDMDL
MODEL 2
REMARK VINA RESULT:     -11.2      5.612     10.237
REMARK SMILES [NH3+][C@H](C(=O)OCCOC(=O)c1ccc(-c2c3nc(c(-c4cccc(S(=O)(=O)[O-])c4F)c4ccc([nH]4)c(-c4cccc(S(=O)(=O)[O-])c4F)c4nc(c(-c5cccc(S(=O)(=O)[O-])c5F)c5ccc2[nH]5)C=C4)C=C3)cc1)c1ccc(Cl)c(OC(F)(F)F)c1
REMARK SMILES IDX 6 1 5 2 3 3 4 4 2 5 1 6 74 10 75 11 85 12 76 13 79 14 77 15
REMARK SMILES IDX 78 16 80 17 81 18 82 19 83 20 84 21 7 22 8 23 9 24 10 25
REMARK SMILES IDX 11 26 12 27 73 28 13 29 72 30 14 31 15 32 16 33 66 34 17 35
REMARK SMILES IDX 71 36 65 37 67 38 18 39 70 40 64 41 63 42 19 44 51 45 31 46
REMARK SMILES IDX 50 47 32 48 35 49 49 50 68 51 33 52 34 53 48 55 69 56 36 57
REMARK SMILES IDX 20 58 21 59 29 60 22 61 24 62 30 63 23 64 25 65 26 66 27 67
REMARK SMILES IDX 28 68 52 69 53 70 61 71 54 72 56 73 62 74 55 75 57 76 58 77
REMARK SMILES IDX 59 78 60 79 37 80 38 81 46 82 39 83 41 84 47 85 40 86 42 87
REMARK SMILES IDX 43 88 44 89 45 90
REMARK H PARENT 1 7 1 8 1 9 67 43 35 54
REMARK Flexibility Score: inf
ROOT
ATOM      1  C   UNL A   1      32.617  28.530  25.755  1.00  0.00     0.274 C 
ENDROOT
BRANCH   1   2
ATOM      2  O   UNL A   1      33.608  27.942  24.890  1.00  0.00    -0.457 OA
BRANCH   2   3
ATOM      3  C   UNL A   1      33.408  28.080  23.549  1.00  0.00     0.369 C 
ATOM      4  O   UNL A   1      33.876  28.985  22.864  1.00  0.00    -0.245 OA
BRANCH   3   5
ATOM      5  C   UNL A   1      32.443  27.005  22.989  1.00  0.00     0.323 C 
BRANCH   5   6
ATOM      6  N   UNL A   1      32.761  25.680  23.580  1.00  0.00    -0.342 N 
ATOM      7  H   UNL A   1      33.756  25.632  23.795  1.00  0.00     0.345 HD
ATOM      8  H   UNL A   1      32.521  24.944  22.914  1.00  0.00     0.345 HD
ATOM      9  H   UNL A   1      32.221  25.551  24.436  1.00  0.00     0.345 HD
ENDBRANCH   5   6
BRANCH   5  10
ATOM     10  C   UNL A   1      30.965  27.370  23.109  1.00  0.00     0.025 A 
ATOM     11  C   UNL A   1      30.106  26.458  23.742  1.00  0.00     0.012 A 
ATOM     12  C   UNL A   1      30.414  28.574  22.615  1.00  0.00     0.059 A 
ATOM     13  C   UNL A   1      28.746  26.727  23.876  1.00  0.00     0.025 A 
ATOM     14  C   UNL A   1      29.047  28.862  22.752  1.00  0.00     0.148 A 
ATOM     15  C   UNL A   1      28.221  27.922  23.387  1.00  0.00     0.083 A 
ATOM     16  Cl  UNL A   1      26.528  28.205  23.606  1.00  0.00    -0.080 Cl
BRANCH  14  17
ATOM     17  O   UNL A   1      28.428  30.011  22.337  1.00  0.00    -0.404 OA
BRANCH  17  18
ATOM     18  C   UNL A   1      28.500  31.164  23.152  1.00  0.00     0.573 C 
ATOM     19  F   UNL A   1      27.278  31.509  23.606  1.00  0.00    -0.132 F 
ATOM     20  F   UNL A   1      29.332  30.967  24.194  1.00  0.00    -0.132 F 
ATOM     21  F   UNL A   1      28.982  32.187  22.414  1.00  0.00    -0.132 F 
ENDBRANCH  17  18
ENDBRANCH  14  17
ENDBRANCH   5  10
ENDBRANCH   3   5
ENDBRANCH   2   3
ENDBRANCH   1   2
BRANCH   1  22
ATOM     22  C   UNL A   1      32.734  30.051  25.743  1.00  0.00     0.275 C 
BRANCH  22  23
ATOM     23  O   UNL A   1      32.587  30.556  27.079  1.00  0.00    -0.458 OA
BRANCH  23  24
ATOM     24  C   UNL A   1      33.283  31.679  27.369  1.00  0.00     0.338 C 
ATOM     25  O   UNL A   1      32.920  32.833  27.246  1.00  0.00    -0.246 OA
BRANCH  24  26
ATOM     26  C   UNL A   1      34.596  31.290  27.900  1.00  0.00     0.060 A 
ATOM     27  C   UNL A   1      34.784  29.992  28.378  1.00  0.00     0.016 A 
ATOM     28  C   UNL A   1      35.612  32.238  28.001  1.00  0.00     0.016 A 
ATOM     29  C   UNL A   1      35.973  29.650  29.018  1.00  0.00     0.010 A 
ATOM     30  C   UNL A   1      36.828  31.874  28.586  1.00  0.00     0.010 A 
ATOM     31  C   UNL A   1      37.008  30.589  29.129  1.00  0.00    -0.014 A 
BRANCH  31  32
ATOM     32  C   UNL A   1      38.270  30.245  29.835  1.00  0.00     0.031 A 
ATOM     33  C   UNL A   1      39.256  29.301  29.201  1.00  0.00     0.074 A 
ATOM     34  C   UNL A   1      38.517  30.752  31.059  1.00  0.00     0.049 A 
ATOM     35  N   UNL A   1      40.339  28.774  29.711  1.00  0.00    -0.248 NA
ATOM     36  C   UNL A   1      38.983  28.886  27.816  1.00  0.00     0.031 C 
ATOM     37  C   UNL A   1      37.643  31.676  31.783  1.00  0.00     0.029 A 
ATOM     38  N   UNL A   1      39.566  30.543  31.920  1.00  0.00    -0.354 N 
ATOM     39  C   UNL A   1      40.840  27.918  28.738  1.00  0.00     0.074 A 
ATOM     40  C   UNL A   1      39.948  28.001  27.601  1.00  0.00     0.031 C 
ATOM     41  C   UNL A   1      38.191  31.955  32.975  1.00  0.00     0.029 A 
ATOM     42  C   UNL A   1      39.424  31.190  33.125  1.00  0.00     0.049 A 
ATOM     43  H   UNL A   1      40.346  29.985  31.695  1.00  0.00     0.167 HD
ATOM     44  C   UNL A   1      41.950  27.142  28.781  1.00  0.00     0.034 A 
ATOM     45  C   UNL A   1      40.184  31.148  34.238  1.00  0.00     0.034 A 
ATOM     46  C   UNL A   1      42.874  27.111  29.882  1.00  0.00     0.049 A 
ATOM     47  C   UNL A   1      41.420  30.293  34.251  1.00  0.00     0.074 A 
ATOM     48  C   UNL A   1      44.056  26.401  29.993  1.00  0.00     0.029 A 
ATOM     49  N   UNL A   1      42.726  27.828  31.060  1.00  0.00    -0.354 N 
ATOM     50  N   UNL A   1      41.923  29.556  33.291  1.00  0.00    -0.248 NA
ATOM     51  C   UNL A   1      42.206  30.279  35.494  1.00  0.00     0.031 C 
ATOM     52  C   UNL A   1      44.621  26.684  31.242  1.00  0.00     0.029 A 
ATOM     53  C   UNL A   1      43.793  27.575  31.905  1.00  0.00     0.049 A 
ATOM     54  H   UNL A   1      41.972  28.427  31.265  1.00  0.00     0.167 HD
ATOM     55  C   UNL A   1      43.091  29.005  33.804  1.00  0.00     0.074 A 
ATOM     56  C   UNL A   1      43.236  29.517  35.152  1.00  0.00     0.031 C 
ATOM     57  C   UNL A   1      43.953  28.136  33.222  1.00  0.00     0.034 A 
BRANCH  44  58
ATOM     58  C   UNL A   1      42.249  26.284  27.581  1.00  0.00     0.023 A 
ATOM     59  C   UNL A   1      42.941  26.837  26.485  1.00  0.00     0.012 A 
ATOM     60  C   UNL A   1      41.898  24.919  27.560  1.00  0.00     0.148 A 
ATOM     61  C   UNL A   1      43.257  26.052  25.377  1.00  0.00     0.002 A 
ATOM     62  C   UNL A   1      42.249  24.135  26.467  1.00  0.00     0.091 A 
ATOM     63  F   UNL A   1      41.216  24.417  28.599  1.00  0.00    -0.205 F 
ATOM     64  C   UNL A   1      42.922  24.701  25.372  1.00  0.00     0.022 A 
BRANCH  62  65
ATOM     65  S   UNL A   1      41.917  22.370  26.407  1.00  0.00     0.127 S 
ATOM     66  O   UNL A   1      40.459  22.344  26.309  1.00  0.00    -0.237 OA
ATOM     67  O   UNL A   1      42.617  21.959  25.189  1.00  0.00    -0.237 OA
ATOM     68  O   UNL A   1      42.477  21.821  27.635  1.00  0.00    -0.744 OA
ENDBRANCH  62  65
ENDBRANCH  44  58
BRANCH  45  69
ATOM     69  C   UNL A   1      39.808  31.978  35.418  1.00  0.00     0.023 A 
ATOM     70  C   UNL A   1      40.292  33.296  35.513  1.00  0.00     0.012 A 
ATOM     71  C   UNL A   1      38.939  31.491  36.413  1.00  0.00     0.148 A 
ATOM     72  C   UNL A   1      39.930  34.110  36.587  1.00  0.00     0.002 A 
ATOM     73  C   UNL A   1      38.536  32.326  37.449  1.00  0.00     0.091 A 
ATOM     74  F   UNL A   1      38.508  30.225  36.320  1.00  0.00    -0.205 F 
ATOM     75  C   UNL A   1      39.041  33.631  37.546  1.00  0.00     0.022 A 
BRANCH  73  76
ATOM     76  S   UNL A   1      37.283  31.830  38.638  1.00  0.00     0.127 S 
ATOM     77  O   UNL A   1      36.198  32.759  38.336  1.00  0.00    -0.237 OA
ATOM     78  O   UNL A   1      37.028  30.440  38.254  1.00  0.00    -0.237 OA
ATOM     79  O   UNL A   1      37.910  31.980  39.944  1.00  0.00    -0.744 OA
ENDBRANCH  73  76
ENDBRANCH  45  69
BRANCH  57  80
ATOM     80  C   UNL A   1      45.143  27.691  34.028  1.00  0.00     0.023 A 
ATOM     81  C   UNL A   1      46.323  28.459  34.000  1.00  0.00     0.012 A 
ATOM     82  C   UNL A   1      45.070  26.563  34.868  1.00  0.00     0.148 A 
ATOM     83  C   UNL A   1      47.422  28.098  34.778  1.00  0.00     0.002 A 
ATOM     84  C   UNL A   1      46.156  26.231  35.670  1.00  0.00     0.091 A 
ATOM     85  F   UNL A   1      43.946  25.831  34.863  1.00  0.00    -0.205 F 
ATOM     86  C   UNL A   1      47.335  26.993  35.621  1.00  0.00     0.022 A 
BRANCH  84  87
ATOM     87  S   UNL A   1      46.093  24.872  36.844  1.00  0.00     0.127 S 
ATOM     88  O   UNL A   1      47.412  24.954  37.469  1.00  0.00    -0.237 OA
ATOM     89  O   UNL A   1      44.982  25.260  37.716  1.00  0.00    -0.237 OA
ATOM     90  O   UNL A   1      45.842  23.677  36.052  1.00  0.00    -0.744 OA
ENDBRANCH  84  87
ENDBRANCH  57  80
ENDBRANCH  31  32
ENDBRANCH  24  26
ENDBRANCH  23  24
ENDBRANCH  22  23
ENDBRANCH   1  22
TORSDOF 18
ENDMDL
MODEL 3
REMARK VINA RESULT:     -11.1      5.363     10.014
REMARK SMILES [NH3+][C@H](C(=O)OCCOC(=O)c1ccc(-c2c3nc(c(-c4cccc(S(=O)(=O)[O-])c4F)c4ccc([nH]4)c(-c4cccc(S(=O)(=O)[O-])c4F)c4nc(c(-c5cccc(S(=O)(=O)[O-])c5F)c5ccc2[nH]5)C=C4)C=C3)cc1)c1ccc(Cl)c(OC(F)(F)F)c1
REMARK SMILES IDX 6 1 5 2 3 3 4 4 2 5 1 6 74 10 75 11 85 12 76 13 79 14 77 15
REMARK SMILES IDX 78 16 80 17 81 18 82 19 83 20 84 21 7 22 8 23 9 24 10 25
REMARK SMILES IDX 11 26 12 27 73 28 13 29 72 30 14 31 15 32 16 33 66 34 17 35
REMARK SMILES IDX 71 36 65 37 67 38 18 39 70 40 64 41 63 42 19 44 51 45 31 46
REMARK SMILES IDX 50 47 32 48 35 49 49 50 68 51 33 52 34 53 48 55 69 56 36 57
REMARK SMILES IDX 20 58 21 59 29 60 22 61 24 62 30 63 23 64 25 65 26 66 27 67
REMARK SMILES IDX 28 68 52 69 53 70 61 71 54 72 56 73 62 74 55 75 57 76 58 77
REMARK SMILES IDX 59 78 60 79 37 80 38 81 46 82 39 83 41 84 47 85 40 86 42 87
REMARK SMILES IDX 43 88 44 89 45 90
REMARK H PARENT 1 7 1 8 1 9 67 43 35 54
REMARK Flexibility Score: inf
ROOT
ATOM      1  C   UNL A   1      31.221  29.543  24.485  1.00  0.00     0.274 C 
ENDROOT
BRANCH   1   2
ATOM      2  O   UNL A   1      31.221  28.365  23.656  1.00  0.00    -0.457 OA
BRANCH   2   3
ATOM      3  C   UNL A   1      30.003  27.886  23.275  1.00  0.00     0.369 C 
ATOM      4  O   UNL A   1      29.319  28.360  22.373  1.00  0.00    -0.245 OA
BRANCH   3   5
ATOM      5  C   UNL A   1      29.530  26.715  24.172  1.00  0.00     0.323 C 
BRANCH   5   6
ATOM      6  N   UNL A   1      28.129  26.351  23.836  1.00  0.00    -0.342 N 
ATOM      7  H   UNL A   1      27.494  26.785  24.505  1.00  0.00     0.345 HD
ATOM      8  H   UNL A   1      28.023  25.337  23.876  1.00  0.00     0.345 HD
ATOM      9  H   UNL A   1      27.908  26.678  22.896  1.00  0.00     0.345 HD
ENDBRANCH   5   6
BRANCH   5  10
ATOM     10  C   UNL A   1      30.472  25.513  24.177  1.00  0.00     0.025 A 
ATOM     11  C   UNL A   1      30.236  24.482  23.253  1.00  0.00     0.012 A 
ATOM     12  C   UNL A   1      31.565  25.380  25.062  1.00  0.00     0.059 A 
ATOM     13  C   UNL A   1      31.053  23.355  23.212  1.00  0.00     0.025 A 
ATOM     14  C   UNL A   1      32.402  24.253  25.025  1.00  0.00     0.148 A 
ATOM     15  C   UNL A   1      32.130  23.243  24.090  1.00  0.00     0.083 A 
ATOM     16  Cl  UNL A   1      33.120  21.828  23.971  1.00  0.00    -0.080 Cl
BRANCH  14  17
ATOM     17  O   UNL A   1      33.501  24.050  25.815  1.00  0.00    -0.404 OA
BRANCH  17  18
ATOM     18  C   UNL A   1      34.704  24.726  25.510  1.00  0.00     0.573 C 
ATOM     19  F   UNL A   1      34.908  24.768  24.177  1.00  0.00    -0.132 F 
ATOM     20  F   UNL A   1      34.692  25.979  26.006  1.00  0.00    -0.132 F 
ATOM     21  F   UNL A   1      35.732  24.057  26.075  1.00  0.00    -0.132 F 
ENDBRANCH  17  18
ENDBRANCH  14  17
ENDBRANCH   5  10
ENDBRANCH   3   5
ENDBRANCH   2   3
ENDBRANCH   1   2
BRANCH   1  22
ATOM     22  C   UNL A   1      32.551  29.679  25.219  1.00  0.00     0.275 C 
BRANCH  22  23
ATOM     23  O   UNL A   1      32.310  30.009  26.596  1.00  0.00    -0.458 OA
BRANCH  23  24
ATOM     24  C   UNL A   1      32.838  31.178  27.025  1.00  0.00     0.338 C 
ATOM     25  O   UNL A   1      32.327  32.282  26.995  1.00  0.00    -0.246 OA
BRANCH  24  26
ATOM     26  C   UNL A   1      34.171  30.912  27.581  1.00  0.00     0.060 A 
ATOM     27  C   UNL A   1      34.527  29.603  27.909  1.00  0.00     0.016 A 
ATOM     28  C   UNL A   1      35.032  31.972  27.855  1.00  0.00     0.016 A 
ATOM     29  C   UNL A   1      35.727  29.352  28.572  1.00  0.00     0.010 A 
ATOM     30  C   UNL A   1      36.264  31.711  28.461  1.00  0.00     0.010 A 
ATOM     31  C   UNL A   1      36.608  30.405  28.855  1.00  0.00    -0.014 A 
BRANCH  31  32
ATOM     32  C   UNL A   1      37.877  30.153  29.587  1.00  0.00     0.031 A 
ATOM     33  C   UNL A   1      38.930  29.261  28.987  1.00  0.00     0.074 A 
ATOM     34  C   UNL A   1      38.073  30.698  30.803  1.00  0.00     0.049 A 
ATOM     35  N   UNL A   1      40.035  28.812  29.523  1.00  0.00    -0.248 NA
ATOM     36  C   UNL A   1      38.705  28.802  27.606  1.00  0.00     0.031 C 
ATOM     37  C   UNL A   1      37.132  31.580  31.496  1.00  0.00     0.029 A 
ATOM     38  N   UNL A   1      39.119  30.572  31.684  1.00  0.00    -0.354 N 
ATOM     39  C   UNL A   1      40.604  27.969  28.575  1.00  0.00     0.074 A 
ATOM     40  C   UNL A   1      39.726  27.975  27.424  1.00  0.00     0.031 C 
ATOM     41  C   UNL A   1      37.642  31.916  32.690  1.00  0.00     0.029 A 
ATOM     42  C   UNL A   1      38.918  31.231  32.873  1.00  0.00     0.049 A 
ATOM     43  H   UNL A   1      39.935  30.058  31.482  1.00  0.00     0.167 HD
ATOM     44  C   UNL A   1      41.758  27.264  28.650  1.00  0.00     0.034 A 
ATOM     45  C   UNL A   1      39.661  31.259  33.998  1.00  0.00     0.034 A 
ATOM     46  C   UNL A   1      42.664  27.312  29.766  1.00  0.00     0.049 A 
ATOM     47  C   UNL A   1      40.947  30.482  34.047  1.00  0.00     0.074 A 
ATOM     48  C   UNL A   1      43.886  26.679  29.909  1.00  0.00     0.029 A 
ATOM     49  N   UNL A   1      42.453  28.041  30.926  1.00  0.00    -0.354 N 
ATOM     50  N   UNL A   1      41.509  29.759  33.110  1.00  0.00    -0.248 NA
ATOM     51  C   UNL A   1      41.712  30.541  35.302  1.00  0.00     0.031 C 
ATOM     52  C   UNL A   1      44.412  27.021  31.160  1.00  0.00     0.029 A 
ATOM     53  C   UNL A   1      43.520  27.872  31.793  1.00  0.00     0.049 A 
ATOM     54  H   UNL A   1      41.661  28.596  31.108  1.00  0.00     0.167 HD
ATOM     55  C   UNL A   1      42.701  29.292  33.652  1.00  0.00     0.074 A 
ATOM     56  C   UNL A   1      42.793  29.838  34.990  1.00  0.00     0.031 C 
ATOM     57  C   UNL A   1      43.624  28.467  33.099  1.00  0.00     0.034 A 
BRANCH  44  58
ATOM     58  C   UNL A   1      42.129  26.404  27.473  1.00  0.00     0.023 A 
ATOM     59  C   UNL A   1      42.813  26.975  26.381  1.00  0.00     0.012 A 
ATOM     60  C   UNL A   1      41.853  25.022  27.470  1.00  0.00     0.148 A 
ATOM     61  C   UNL A   1      43.195  26.190  25.295  1.00  0.00     0.002 A 
ATOM     62  C   UNL A   1      42.269  24.239  26.399  1.00  0.00     0.091 A 
ATOM     63  F   UNL A   1      41.176  24.501  28.504  1.00  0.00    -0.205 F 
ATOM     64  C   UNL A   1      42.933  24.822  25.308  1.00  0.00     0.022 A 
BRANCH  62  65
ATOM     65  S   UNL A   1      42.034  22.458  26.364  1.00  0.00     0.127 S 
ATOM     66  O   UNL A   1      40.589  22.352  26.169  1.00  0.00    -0.237 OA
ATOM     67  O   UNL A   1      42.836  22.057  25.207  1.00  0.00    -0.237 OA
ATOM     68  O   UNL A   1      42.537  21.968  27.641  1.00  0.00    -0.744 OA
ENDBRANCH  62  65
ENDBRANCH  44  58
BRANCH  45  69
ATOM     69  C   UNL A   1      39.216  32.086  35.155  1.00  0.00     0.023 A 
ATOM     70  C   UNL A   1      38.360  31.517  36.118  1.00  0.00     0.012 A 
ATOM     71  C   UNL A   1      39.672  33.406  35.336  1.00  0.00     0.148 A 
ATOM     72  C   UNL A   1      37.955  32.254  37.231  1.00  0.00     0.002 A 
ATOM     73  C   UNL A   1      39.311  34.114  36.477  1.00  0.00     0.091 A 
ATOM     74  F   UNL A   1      40.466  33.940  34.396  1.00  0.00    -0.205 F 
ATOM     75  C   UNL A   1      38.441  33.545  37.419  1.00  0.00     0.022 A 
BRANCH  73  76
ATOM     76  S   UNL A   1      40.013  35.723  36.858  1.00  0.00     0.127 S 
ATOM     77  O   UNL A   1      39.368  36.038  38.130  1.00  0.00    -0.237 OA
ATOM     78  O   UNL A   1      41.443  35.422  36.950  1.00  0.00    -0.237 OA
ATOM     79  O   UNL A   1      39.657  36.576  35.733  1.00  0.00    -0.744 OA
ENDBRANCH  73  76
ENDBRANCH  45  69
BRANCH  57  80
ATOM     80  C   UNL A   1      44.827  28.112  33.933  1.00  0.00     0.023 A 
ATOM     81  C   UNL A   1      45.948  28.964  33.926  1.00  0.00     0.012 A 
ATOM     82  C   UNL A   1      44.818  26.983  34.775  1.00  0.00     0.148 A 
ATOM     83  C   UNL A   1      47.053  28.686  34.728  1.00  0.00     0.002 A 
ATOM     84  C   UNL A   1      45.909  26.734  35.602  1.00  0.00     0.091 A 
ATOM     85  F   UNL A   1      43.751  26.171  34.750  1.00  0.00    -0.205 F 
ATOM     86  C   UNL A   1      47.030  27.580  35.574  1.00  0.00     0.022 A 
BRANCH  84  87
ATOM     87  S   UNL A   1      45.920  25.378  36.779  1.00  0.00     0.127 S 
ATOM     88  O   UNL A   1      47.219  25.554  37.427  1.00  0.00    -0.237 OA
ATOM     89  O   UNL A   1      44.769  25.689  37.630  1.00  0.00    -0.237 OA
ATOM     90  O   UNL A   1      45.768  24.165  35.987  1.00  0.00    -0.744 OA
ENDBRANCH  84  87
ENDBRANCH  57  80
ENDBRANCH  31  32
ENDBRANCH  24  26
ENDBRANCH  23  24
ENDBRANCH  22  23
ENDBRANCH   1  22
TORSDOF 18
ENDMDL
