MODEL 1
REMARK VINA RESULT:     -12.0      0.000      0.000
REMARK SMILES O=C(OCCOC(=O)c1ccc(-c2ccc(Cl)cc2)cc1F)c1ccc(-c2c3nc(c(-c4cccc(S(=O)(=O)[O-])c4F)c4ccc([nH]4)c(-c4cccc(S(=O)(=O)[O-])c4F)c4nc(c(-c5cccc(S(=O)(=O)[O-])c5F)c5ccc2[nH]5)C=C4)C=C3)cc1
REMARK SMILES IDX 4 1 3 2 2 3 1 4 23 5 24 6 85 7 25 8 84 9 26 10 27 11 28 12
REMARK SMILES IDX 78 13 29 14 83 15 77 16 79 17 30 18 82 19 76 20 75 21 31 23
REMARK SMILES IDX 63 24 43 25 62 26 44 27 47 28 61 29 80 30 45 31 46 32 60 34
REMARK SMILES IDX 81 35 48 36 32 37 33 38 41 39 34 40 36 41 42 42 35 43 37 44
REMARK SMILES IDX 38 45 39 46 40 47 64 48 65 49 73 50 66 51 68 52 74 53 67 54
REMARK SMILES IDX 69 55 70 56 71 57 72 58 49 59 50 60 58 61 51 62 53 63 59 64
REMARK SMILES IDX 52 65 54 66 55 67 56 68 57 69 5 70 6 71 7 72 8 73 9 74 10 75
REMARK SMILES IDX 21 76 11 77 20 78 22 79 12 80 13 81 14 82 19 83 15 84 18 85
REMARK SMILES IDX 16 86 17 87
REMARK H PARENT 79 22 47 33
REMARK Flexibility Score: inf
ROOT
ATOM      1  C   UNL A   1      31.966  33.010  26.527  1.00  0.00     0.275 C 
ENDROOT
BRANCH   1   2
ATOM      2  O   UNL A   1      32.500  33.688  27.676  1.00  0.00    -0.458 OA
BRANCH   2   3
ATOM      3  C   UNL A   1      33.768  34.066  27.959  1.00  0.00     0.338 C 
ATOM      4  O   UNL A   1      34.119  35.198  27.627  1.00  0.00    -0.246 OA
BRANCH   3   5
ATOM      5  C   UNL A   1      34.811  33.164  28.555  1.00  0.00     0.060 A 
ATOM      6  C   UNL A   1      34.609  31.880  29.073  1.00  0.00     0.016 A 
ATOM      7  C   UNL A   1      36.126  33.663  28.557  1.00  0.00     0.016 A 
ATOM      8  C   UNL A   1      35.675  31.091  29.512  1.00  0.00     0.010 A 
ATOM      9  C   UNL A   1      37.199  32.881  28.991  1.00  0.00     0.010 A 
ATOM     10  C   UNL A   1      36.974  31.587  29.476  1.00  0.00    -0.014 A 
BRANCH  10  11
ATOM     11  C   UNL A   1      38.067  30.852  30.141  1.00  0.00     0.031 A 
ATOM     12  C   UNL A   1      38.391  31.241  31.551  1.00  0.00     0.074 A 
ATOM     13  C   UNL A   1      38.738  29.865  29.519  1.00  0.00     0.049 A 
ATOM     14  N   UNL A   1      39.345  30.806  32.324  1.00  0.00    -0.248 NA
ATOM     15  C   UNL A   1      37.497  32.228  32.187  1.00  0.00     0.031 C 
ATOM     16  C   UNL A   1      38.401  29.308  28.213  1.00  0.00     0.029 A 
ATOM     17  N   UNL A   1      39.863  29.173  29.887  1.00  0.00    -0.354 N 
ATOM     18  C   UNL A   1      39.163  31.457  33.535  1.00  0.00     0.074 A 
ATOM     19  C   UNL A   1      38.039  32.351  33.387  1.00  0.00     0.031 C 
ATOM     20  C   UNL A   1      39.357  28.442  27.835  1.00  0.00     0.029 A 
ATOM     21  C   UNL A   1      40.362  28.367  28.887  1.00  0.00     0.049 A 
ATOM     22  H   UNL A   1      40.273  29.245  30.779  1.00  0.00     0.167 HD
ATOM     23  C   UNL A   1      39.852  31.287  34.682  1.00  0.00     0.034 A 
ATOM     24  C   UNL A   1      41.503  27.652  28.837  1.00  0.00     0.034 A 
ATOM     25  C   UNL A   1      40.960  30.385  34.808  1.00  0.00     0.049 A 
ATOM     26  C   UNL A   1      42.341  27.596  30.090  1.00  0.00     0.074 A 
ATOM     27  C   UNL A   1      41.735  30.127  35.921  1.00  0.00     0.029 A 
ATOM     28  N   UNL A   1      41.456  29.601  33.776  1.00  0.00    -0.354 N 
ATOM     29  N   UNL A   1      42.113  28.153  31.257  1.00  0.00    -0.248 NA
ATOM     30  C   UNL A   1      43.549  26.761  30.050  1.00  0.00     0.031 C 
ATOM     31  C   UNL A   1      42.725  29.213  35.552  1.00  0.00     0.029 A 
ATOM     32  C   UNL A   1      42.542  28.872  34.219  1.00  0.00     0.049 A 
ATOM     33  H   UNL A   1      41.089  29.570  32.863  1.00  0.00     0.167 HD
ATOM     34  C   UNL A   1      43.107  27.684  32.107  1.00  0.00     0.074 A 
ATOM     35  C   UNL A   1      43.937  26.793  31.318  1.00  0.00     0.031 C 
ATOM     36  C   UNL A   1      43.316  27.958  33.418  1.00  0.00     0.034 A 
BRANCH  23  37
ATOM     37  C   UNL A   1      39.413  32.072  35.883  1.00  0.00     0.023 A 
ATOM     38  C   UNL A   1      39.912  33.375  36.086  1.00  0.00     0.012 A 
ATOM     39  C   UNL A   1      38.469  31.541  36.780  1.00  0.00     0.148 A 
ATOM     40  C   UNL A   1      39.487  34.133  37.175  1.00  0.00     0.002 A 
ATOM     41  C   UNL A   1      38.017  32.318  37.837  1.00  0.00     0.091 A 
ATOM     42  F   UNL A   1      38.035  30.288  36.580  1.00  0.00    -0.205 F 
ATOM     43  C   UNL A   1      38.531  33.610  38.042  1.00  0.00     0.022 A 
BRANCH  41  44
ATOM     44  S   UNL A   1      36.739  31.766  38.968  1.00  0.00     0.127 S 
ATOM     45  O   UNL A   1      37.393  31.944  40.264  1.00  0.00    -0.237 OA
ATOM     46  O   UNL A   1      35.661  32.714  38.692  1.00  0.00    -0.237 OA
ATOM     47  O   UNL A   1      36.451  30.383  38.611  1.00  0.00    -0.744 OA
ENDBRANCH  41  44
ENDBRANCH  23  37
BRANCH  24  48
ATOM     48  C   UNL A   1      41.868  26.859  27.624  1.00  0.00     0.023 A 
ATOM     49  C   UNL A   1      42.367  27.533  26.492  1.00  0.00     0.012 A 
ATOM     50  C   UNL A   1      41.725  25.457  27.570  1.00  0.00     0.148 A 
ATOM     51  C   UNL A   1      42.667  26.840  25.318  1.00  0.00     0.002 A 
ATOM     52  C   UNL A   1      42.067  24.764  26.408  1.00  0.00     0.091 A 
ATOM     53  F   UNL A   1      41.241  24.822  28.647  1.00  0.00    -0.205 F 
ATOM     54  C   UNL A   1      42.521  25.458  25.277  1.00  0.00     0.022 A 
BRANCH  52  55
ATOM     55  S   UNL A   1      42.026  22.970  26.295  1.00  0.00     0.127 S 
ATOM     56  O   UNL A   1      42.849  22.575  27.434  1.00  0.00    -0.237 OA
ATOM     57  O   UNL A   1      40.598  22.681  26.437  1.00  0.00    -0.237 OA
ATOM     58  O   UNL A   1      42.560  22.651  24.978  1.00  0.00    -0.744 OA
ENDBRANCH  52  55
ENDBRANCH  24  48
BRANCH  36  59
ATOM     59  C   UNL A   1      44.467  27.269  34.100  1.00  0.00     0.023 A 
ATOM     60  C   UNL A   1      45.743  27.864  34.087  1.00  0.00     0.012 A 
ATOM     61  C   UNL A   1      44.255  26.094  34.846  1.00  0.00     0.148 A 
ATOM     62  C   UNL A   1      46.799  27.282  34.784  1.00  0.00     0.002 A 
ATOM     63  C   UNL A   1      45.297  25.554  35.588  1.00  0.00     0.091 A 
ATOM     64  F   UNL A   1      43.035  25.537  34.831  1.00  0.00    -0.205 F 
ATOM     65  C   UNL A   1      46.573  26.138  35.546  1.00  0.00     0.022 A 
BRANCH  63  66
ATOM     66  S   UNL A   1      45.067  24.159  36.694  1.00  0.00     0.127 S 
ATOM     67  O   UNL A   1      44.425  23.183  35.814  1.00  0.00    -0.237 OA
ATOM     68  O   UNL A   1      46.443  23.831  37.068  1.00  0.00    -0.237 OA
ATOM     69  O   UNL A   1      44.243  24.646  37.792  1.00  0.00    -0.744 OA
ENDBRANCH  63  66
ENDBRANCH  36  59
ENDBRANCH  10  11
ENDBRANCH   3   5
ENDBRANCH   2   3
ENDBRANCH   1   2
BRANCH   1  70
ATOM     70  C   UNL A   1      31.505  31.572  26.795  1.00  0.00     0.275 C 
BRANCH  70  71
ATOM     71  O   UNL A   1      32.294  30.572  26.132  1.00  0.00    -0.458 OA
BRANCH  71  72
ATOM     72  C   UNL A   1      31.607  29.726  25.317  1.00  0.00     0.341 C 
ATOM     73  O   UNL A   1      30.665  30.017  24.605  1.00  0.00    -0.246 OA
BRANCH  72  74
ATOM     74  C   UNL A   1      32.265  28.406  25.277  1.00  0.00     0.095 A 
ATOM     75  C   UNL A   1      33.226  28.162  24.292  1.00  0.00     0.019 A 
ATOM     76  C   UNL A   1      31.938  27.402  26.178  1.00  0.00     0.138 A 
ATOM     77  C   UNL A   1      33.903  26.935  24.263  1.00  0.00     0.010 A 
ATOM     78  C   UNL A   1      32.570  26.158  26.108  1.00  0.00     0.049 A 
ATOM     79  F   UNL A   1      31.012  27.606  27.126  1.00  0.00    -0.206 F 
ATOM     80  C   UNL A   1      33.590  25.912  25.173  1.00  0.00    -0.015 A 
BRANCH  80  81
ATOM     81  C   UNL A   1      34.278  24.611  25.124  1.00  0.00    -0.018 A 
ATOM     82  C   UNL A   1      34.777  24.120  23.908  1.00  0.00     0.010 A 
ATOM     83  C   UNL A   1      34.463  23.821  26.273  1.00  0.00     0.010 A 
ATOM     84  C   UNL A   1      35.467  22.905  23.842  1.00  0.00     0.021 A 
ATOM     85  C   UNL A   1      35.146  22.598  26.209  1.00  0.00     0.021 A 
ATOM     86  C   UNL A   1      35.652  22.149  24.992  1.00  0.00     0.041 A 
ATOM     87  Cl  UNL A   1      36.520  20.665  24.915  1.00  0.00    -0.084 Cl
ENDBRANCH  80  81
ENDBRANCH  72  74
ENDBRANCH  71  72
ENDBRANCH  70  71
ENDBRANCH   1  70
TORSDOF 15
ENDMDL
MODEL 2
REMARK VINA RESULT:     -12.0      2.562      8.993
REMARK SMILES O=C(OCCOC(=O)c1ccc(-c2ccc(Cl)cc2)cc1F)c1ccc(-c2c3nc(c(-c4cccc(S(=O)(=O)[O-])c4F)c4ccc([nH]4)c(-c4cccc(S(=O)(=O)[O-])c4F)c4nc(c(-c5cccc(S(=O)(=O)[O-])c5F)c5ccc2[nH]5)C=C4)C=C3)cc1
REMARK SMILES IDX 4 1 3 2 2 3 1 4 23 5 24 6 85 7 25 8 84 9 26 10 27 11 28 12
REMARK SMILES IDX 78 13 29 14 83 15 77 16 79 17 30 18 82 19 76 20 75 21 31 23
REMARK SMILES IDX 63 24 43 25 62 26 44 27 47 28 61 29 80 30 45 31 46 32 60 34
REMARK SMILES IDX 81 35 48 36 32 37 33 38 41 39 34 40 36 41 42 42 35 43 37 44
REMARK SMILES IDX 38 45 39 46 40 47 64 48 65 49 73 50 66 51 68 52 74 53 67 54
REMARK SMILES IDX 69 55 70 56 71 57 72 58 49 59 50 60 58 61 51 62 53 63 59 64
REMARK SMILES IDX 52 65 54 66 55 67 56 68 57 69 5 70 6 71 7 72 8 73 9 74 10 75
REMARK SMILES IDX 21 76 11 77 20 78 22 79 12 80 13 81 14 82 19 83 15 84 18 85
REMARK SMILES IDX 16 86 17 87
REMARK H PARENT 79 22 47 33
REMARK Flexibility Score: inf
ROOT
ATOM      1  C   UNL A   1      43.612  20.982  25.546  1.00  0.00     0.275 C 
ENDROOT
BRANCH   1   2
ATOM      2  O   UNL A   1      44.066  22.233  26.086  1.00  0.00    -0.458 OA
BRANCH   2   3
ATOM      3  C   UNL A   1      43.822  23.502  25.682  1.00  0.00     0.338 C 
ATOM      4  O   UNL A   1      44.089  23.796  24.517  1.00  0.00    -0.246 OA
BRANCH   3   5
ATOM      5  C   UNL A   1      43.349  24.606  26.584  1.00  0.00     0.060 A 
ATOM      6  C   UNL A   1      43.724  25.952  26.526  1.00  0.00     0.016 A 
ATOM      7  C   UNL A   1      42.410  24.237  27.564  1.00  0.00     0.016 A 
ATOM      8  C   UNL A   1      43.142  26.912  27.358  1.00  0.00     0.010 A 
ATOM      9  C   UNL A   1      41.819  25.190  28.398  1.00  0.00     0.010 A 
ATOM     10  C   UNL A   1      42.190  26.536  28.299  1.00  0.00    -0.014 A 
BRANCH  10  11
ATOM     11  C   UNL A   1      41.739  27.499  29.323  1.00  0.00     0.031 A 
ATOM     12  C   UNL A   1      42.448  27.472  30.642  1.00  0.00     0.074 A 
ATOM     13  C   UNL A   1      40.746  28.375  29.084  1.00  0.00     0.049 A 
ATOM     14  N   UNL A   1      42.200  28.155  31.723  1.00  0.00    -0.248 NA
ATOM     15  C   UNL A   1      43.619  26.579  30.745  1.00  0.00     0.031 C 
ATOM     16  C   UNL A   1      40.101  28.588  27.793  1.00  0.00     0.029 A 
ATOM     17  N   UNL A   1      40.082  29.231  29.925  1.00  0.00    -0.354 N 
ATOM     18  C   UNL A   1      43.181  27.783  32.628  1.00  0.00     0.074 A 
ATOM     19  C   UNL A   1      44.005  26.781  31.995  1.00  0.00     0.031 C 
ATOM     20  C   UNL A   1      39.062  29.427  27.945  1.00  0.00     0.029 A 
ATOM     21  C   UNL A   1      38.986  29.830  29.342  1.00  0.00     0.049 A 
ATOM     22  H   UNL A   1      40.361  29.401  30.853  1.00  0.00     0.167 HD
ATOM     23  C   UNL A   1      43.397  28.271  33.867  1.00  0.00     0.034 A 
ATOM     24  C   UNL A   1      38.035  30.614  29.886  1.00  0.00     0.034 A 
ATOM     25  C   UNL A   1      42.570  29.274  34.473  1.00  0.00     0.049 A 
ATOM     26  C   UNL A   1      38.218  31.030  31.324  1.00  0.00     0.074 A 
ATOM     27  C   UNL A   1      42.693  29.846  35.723  1.00  0.00     0.029 A 
ATOM     28  N   UNL A   1      41.458  29.844  33.871  1.00  0.00    -0.354 N 
ATOM     29  N   UNL A   1      39.199  30.734  32.147  1.00  0.00    -0.248 NA
ATOM     30  C   UNL A   1      37.213  31.939  31.891  1.00  0.00     0.031 C 
ATOM     31  C   UNL A   1      41.631  30.738  35.892  1.00  0.00     0.029 A 
ATOM     32  C   UNL A   1      40.870  30.749  34.732  1.00  0.00     0.049 A 
ATOM     33  H   UNL A   1      41.135  29.633  32.965  1.00  0.00     0.167 HD
ATOM     34  C   UNL A   1      38.966  31.472  33.301  1.00  0.00     0.074 A 
ATOM     35  C   UNL A   1      37.752  32.230  33.067  1.00  0.00     0.031 C 
ATOM     36  C   UNL A   1      39.688  31.523  34.447  1.00  0.00     0.034 A 
BRANCH  23  37
ATOM     37  C   UNL A   1      44.578  27.743  34.629  1.00  0.00     0.023 A 
ATOM     38  C   UNL A   1      45.812  28.421  34.563  1.00  0.00     0.012 A 
ATOM     39  C   UNL A   1      44.451  26.607  35.447  1.00  0.00     0.148 A 
ATOM     40  C   UNL A   1      46.909  27.966  35.292  1.00  0.00     0.002 A 
ATOM     41  C   UNL A   1      45.535  26.185  36.206  1.00  0.00     0.091 A 
ATOM     42  F   UNL A   1      43.275  25.963  35.467  1.00  0.00    -0.205 F 
ATOM     43  C   UNL A   1      46.766  26.857  36.122  1.00  0.00     0.022 A 
BRANCH  41  44
ATOM     44  S   UNL A   1      45.437  24.814  37.357  1.00  0.00     0.127 S 
ATOM     45  O   UNL A   1      44.361  25.251  38.247  1.00  0.00    -0.237 OA
ATOM     46  O   UNL A   1      45.086  23.702  36.475  1.00  0.00    -0.237 OA
ATOM     47  O   UNL A   1      46.748  24.715  37.983  1.00  0.00    -0.744 OA
ENDBRANCH  41  44
ENDBRANCH  23  37
BRANCH  24  48
ATOM     48  C   UNL A   1      36.902  31.141  29.065  1.00  0.00     0.023 A 
ATOM     49  C   UNL A   1      36.856  32.517  28.768  1.00  0.00     0.012 A 
ATOM     50  C   UNL A   1      35.871  30.308  28.582  1.00  0.00     0.148 A 
ATOM     51  C   UNL A   1      35.789  33.062  28.053  1.00  0.00     0.002 A 
ATOM     52  C   UNL A   1      34.829  30.851  27.831  1.00  0.00     0.091 A 
ATOM     53  F   UNL A   1      35.916  29.001  28.877  1.00  0.00    -0.205 F 
ATOM     54  C   UNL A   1      34.778  32.230  27.582  1.00  0.00     0.022 A 
BRANCH  52  55
ATOM     55  S   UNL A   1      33.541  29.845  27.081  1.00  0.00     0.127 S 
ATOM     56  O   UNL A   1      32.501  30.834  26.813  1.00  0.00    -0.237 OA
ATOM     57  O   UNL A   1      34.210  29.318  25.891  1.00  0.00    -0.237 OA
ATOM     58  O   UNL A   1      33.217  28.827  28.070  1.00  0.00    -0.744 OA
ENDBRANCH  52  55
ENDBRANCH  24  48
BRANCH  36  59
ATOM     59  C   UNL A   1      39.209  32.450  35.533  1.00  0.00     0.023 A 
ATOM     60  C   UNL A   1      38.327  31.971  36.521  1.00  0.00     0.012 A 
ATOM     61  C   UNL A   1      39.723  33.757  35.633  1.00  0.00     0.148 A 
ATOM     62  C   UNL A   1      37.942  32.791  37.578  1.00  0.00     0.002 A 
ATOM     63  C   UNL A   1      39.382  34.547  36.723  1.00  0.00     0.091 A 
ATOM     64  F   UNL A   1      40.549  34.196  34.672  1.00  0.00    -0.205 F 
ATOM     65  C   UNL A   1      38.481  34.071  37.688  1.00  0.00     0.022 A 
BRANCH  63  66
ATOM     66  S   UNL A   1      40.123  36.157  37.011  1.00  0.00     0.127 S 
ATOM     67  O   UNL A   1      39.822  36.852  35.761  1.00  0.00    -0.237 OA
ATOM     68  O   UNL A   1      39.373  36.638  38.172  1.00  0.00    -0.237 OA
ATOM     69  O   UNL A   1      41.537  35.911  37.265  1.00  0.00    -0.744 OA
ENDBRANCH  63  66
ENDBRANCH  36  59
ENDBRANCH  10  11
ENDBRANCH   3   5
ENDBRANCH   2   3
ENDBRANCH   1   2
BRANCH   1  70
ATOM     70  C   UNL A   1      42.265  20.501  26.100  1.00  0.00     0.275 C 
BRANCH  70  71
ATOM     71  O   UNL A   1      41.148  21.312  25.704  1.00  0.00    -0.458 OA
BRANCH  71  72
ATOM     72  C   UNL A   1      40.211  21.534  26.667  1.00  0.00     0.341 C 
ATOM     73  O   UNL A   1      40.376  21.437  27.867  1.00  0.00    -0.246 OA
BRANCH  72  74
ATOM     74  C   UNL A   1      38.979  22.080  26.067  1.00  0.00     0.095 A 
ATOM     75  C   UNL A   1      38.311  21.326  25.098  1.00  0.00     0.019 A 
ATOM     76  C   UNL A   1      38.483  23.324  26.428  1.00  0.00     0.138 A 
ATOM     77  C   UNL A   1      37.110  21.797  24.549  1.00  0.00     0.010 A 
ATOM     78  C   UNL A   1      37.319  23.820  25.834  1.00  0.00     0.049 A 
ATOM     79  F   UNL A   1      39.109  24.073  27.348  1.00  0.00    -0.206 F 
ATOM     80  C   UNL A   1      36.590  23.051  24.911  1.00  0.00    -0.015 A 
BRANCH  80  81
ATOM     81  C   UNL A   1      35.345  23.561  24.312  1.00  0.00    -0.018 A 
ATOM     82  C   UNL A   1      34.820  24.797  24.717  1.00  0.00     0.010 A 
ATOM     83  C   UNL A   1      34.644  22.844  23.325  1.00  0.00     0.010 A 
ATOM     84  C   UNL A   1      33.660  25.320  24.137  1.00  0.00     0.021 A 
ATOM     85  C   UNL A   1      33.475  23.361  22.749  1.00  0.00     0.021 A 
ATOM     86  C   UNL A   1      32.992  24.602  23.153  1.00  0.00     0.041 A 
ATOM     87  Cl  UNL A   1      31.577  25.255  22.423  1.00  0.00    -0.084 Cl
ENDBRANCH  80  81
ENDBRANCH  72  74
ENDBRANCH  71  72
ENDBRANCH  70  71
ENDBRANCH   1  70
TORSDOF 15
ENDMDL
MODEL 3
REMARK VINA RESULT:     -11.9      5.404     11.232
REMARK SMILES O=C(OCCOC(=O)c1ccc(-c2ccc(Cl)cc2)cc1F)c1ccc(-c2c3nc(c(-c4cccc(S(=O)(=O)[O-])c4F)c4ccc([nH]4)c(-c4cccc(S(=O)(=O)[O-])c4F)c4nc(c(-c5cccc(S(=O)(=O)[O-])c5F)c5ccc2[nH]5)C=C4)C=C3)cc1
REMARK SMILES IDX 4 1 3 2 2 3 1 4 23 5 24 6 85 7 25 8 84 9 26 10 27 11 28 12
REMARK SMILES IDX 78 13 29 14 83 15 77 16 79 17 30 18 82 19 76 20 75 21 31 23
REMARK SMILES IDX 63 24 43 25 62 26 44 27 47 28 61 29 80 30 45 31 46 32 60 34
REMARK SMILES IDX 81 35 48 36 32 37 33 38 41 39 34 40 36 41 42 42 35 43 37 44
REMARK SMILES IDX 38 45 39 46 40 47 64 48 65 49 73 50 66 51 68 52 74 53 67 54
REMARK SMILES IDX 69 55 70 56 71 57 72 58 49 59 50 60 58 61 51 62 53 63 59 64
REMARK SMILES IDX 52 65 54 66 55 67 56 68 57 69 5 70 6 71 7 72 8 73 9 74 10 75
REMARK SMILES IDX 21 76 11 77 20 78 22 79 12 80 13 81 14 82 19 83 15 84 18 85
REMARK SMILES IDX 16 86 17 87
REMARK H PARENT 79 22 47 33
REMARK Flexibility Score: inf
ROOT
ATOM      1  C   UNL A   1      39.038  19.267  25.737  1.00  0.00     0.275 C 
ENDROOT
BRANCH   1   2
ATOM      2  O   UNL A   1      40.473  19.299  25.783  1.00  0.00    -0.458 OA
BRANCH   2   3
ATOM      3  C   UNL A   1      41.308  19.869  26.683  1.00  0.00     0.338 C 
ATOM      4  O   UNL A   1      41.848  19.138  27.513  1.00  0.00    -0.246 OA
BRANCH   3   5
ATOM      5  C   UNL A   1      41.539  21.348  26.809  1.00  0.00     0.060 A 
ATOM      6  C   UNL A   1      41.514  22.290  25.774  1.00  0.00     0.016 A 
ATOM      7  C   UNL A   1      41.776  21.824  28.111  1.00  0.00     0.016 A 
ATOM      8  C   UNL A   1      41.646  23.658  26.025  1.00  0.00     0.010 A 
ATOM      9  C   UNL A   1      41.905  23.191  28.372  1.00  0.00     0.010 A 
ATOM     10  C   UNL A   1      41.845  24.115  27.323  1.00  0.00    -0.014 A 
BRANCH  10  11
ATOM     11  C   UNL A   1      42.206  25.525  27.565  1.00  0.00     0.031 A 
ATOM     12  C   UNL A   1      43.605  25.938  27.225  1.00  0.00     0.074 A 
ATOM     13  C   UNL A   1      41.319  26.410  28.057  1.00  0.00     0.049 A 
ATOM     14  N   UNL A   1      44.190  27.087  27.410  1.00  0.00    -0.248 NA
ATOM     15  C   UNL A   1      44.447  24.930  26.552  1.00  0.00     0.031 C 
ATOM     16  C   UNL A   1      39.900  26.150  28.273  1.00  0.00     0.029 A 
ATOM     17  N   UNL A   1      41.484  27.699  28.493  1.00  0.00    -0.354 N 
ATOM     18  C   UNL A   1      45.460  26.944  26.873  1.00  0.00     0.074 A 
ATOM     19  C   UNL A   1      45.585  25.587  26.395  1.00  0.00     0.031 C 
ATOM     20  C   UNL A   1      39.343  27.199  28.903  1.00  0.00     0.029 A 
ATOM     21  C   UNL A   1      40.365  28.215  29.111  1.00  0.00     0.049 A 
ATOM     22  H   UNL A   1      42.319  28.206  28.375  1.00  0.00     0.167 HD
ATOM     23  C   UNL A   1      46.423  27.882  26.753  1.00  0.00     0.034 A 
ATOM     24  C   UNL A   1      40.197  29.379  29.769  1.00  0.00     0.034 A 
ATOM     25  C   UNL A   1      46.273  29.228  27.227  1.00  0.00     0.049 A 
ATOM     26  C   UNL A   1      41.344  30.358  29.750  1.00  0.00     0.074 A 
ATOM     27  C   UNL A   1      47.180  30.266  27.159  1.00  0.00     0.029 A 
ATOM     28  N   UNL A   1      45.143  29.714  27.867  1.00  0.00    -0.354 N 
ATOM     29  N   UNL A   1      42.515  30.241  29.166  1.00  0.00    -0.248 NA
ATOM     30  C   UNL A   1      41.131  31.652  30.411  1.00  0.00     0.031 C 
ATOM     31  C   UNL A   1      46.611  31.374  27.793  1.00  0.00     0.029 A 
ATOM     32  C   UNL A   1      45.335  31.035  28.220  1.00  0.00     0.049 A 
ATOM     33  H   UNL A   1      44.326  29.194  28.044  1.00  0.00     0.167 HD
ATOM     34  C   UNL A   1      43.149  31.466  29.330  1.00  0.00     0.074 A 
ATOM     35  C   UNL A   1      42.229  32.311  30.067  1.00  0.00     0.031 C 
ATOM     36  C   UNL A   1      44.377  31.861  28.911  1.00  0.00     0.034 A 
BRANCH  23  37
ATOM     37  C   UNL A   1      47.699  27.488  26.069  1.00  0.00     0.023 A 
ATOM     38  C   UNL A   1      48.748  26.920  26.821  1.00  0.00     0.012 A 
ATOM     39  C   UNL A   1      47.840  27.633  24.677  1.00  0.00     0.148 A 
ATOM     40  C   UNL A   1      49.926  26.515  26.198  1.00  0.00     0.002 A 
ATOM     41  C   UNL A   1      48.998  27.186  24.057  1.00  0.00     0.091 A 
ATOM     42  F   UNL A   1      46.839  28.205  23.992  1.00  0.00    -0.205 F 
ATOM     43  C   UNL A   1      50.046  26.636  24.815  1.00  0.00     0.022 A 
BRANCH  41  44
ATOM     44  S   UNL A   1      49.223  27.231  22.278  1.00  0.00     0.127 S 
ATOM     45  O   UNL A   1      50.675  27.098  22.160  1.00  0.00    -0.237 OA
ATOM     46  O   UNL A   1      48.465  26.058  21.847  1.00  0.00    -0.237 OA
ATOM     47  O   UNL A   1      48.687  28.510  21.833  1.00  0.00    -0.744 OA
ENDBRANCH  41  44
ENDBRANCH  23  37
BRANCH  24  48
ATOM     48  C   UNL A   1      38.888  29.731  30.398  1.00  0.00     0.023 A 
ATOM     49  C   UNL A   1      38.578  29.207  31.669  1.00  0.00     0.012 A 
ATOM     50  C   UNL A   1      37.946  30.566  29.761  1.00  0.00     0.148 A 
ATOM     51  C   UNL A   1      37.345  29.463  32.270  1.00  0.00     0.002 A 
ATOM     52  C   UNL A   1      36.732  30.853  30.386  1.00  0.00     0.091 A 
ATOM     53  F   UNL A   1      38.243  31.054  28.548  1.00  0.00    -0.205 F 
ATOM     54  C   UNL A   1      36.425  30.288  31.632  1.00  0.00     0.022 A 
BRANCH  52  55
ATOM     55  S   UNL A   1      35.529  31.998  29.697  1.00  0.00     0.127 S 
ATOM     56  O   UNL A   1      34.900  31.190  28.658  1.00  0.00    -0.237 OA
ATOM     57  O   UNL A   1      34.678  32.288  30.852  1.00  0.00    -0.237 OA
ATOM     58  O   UNL A   1      36.301  33.144  29.237  1.00  0.00    -0.744 OA
ENDBRANCH  52  55
ENDBRANCH  24  48
BRANCH  36  59
ATOM     59  C   UNL A   1      44.793  33.277  29.206  1.00  0.00     0.023 A 
ATOM     60  C   UNL A   1      45.466  33.571  30.407  1.00  0.00     0.012 A 
ATOM     61  C   UNL A   1      44.616  34.289  28.242  1.00  0.00     0.148 A 
ATOM     62  C   UNL A   1      45.932  34.859  30.657  1.00  0.00     0.002 A 
ATOM     63  C   UNL A   1      45.137  35.555  28.472  1.00  0.00     0.091 A 
ATOM     64  F   UNL A   1      43.958  33.989  27.112  1.00  0.00    -0.205 F 
ATOM     65  C   UNL A   1      45.782  35.845  29.685  1.00  0.00     0.022 A 
BRANCH  63  66
ATOM     66  S   UNL A   1      45.101  36.849  27.228  1.00  0.00     0.127 S 
ATOM     67  O   UNL A   1      43.672  36.940  26.935  1.00  0.00    -0.237 OA
ATOM     68  O   UNL A   1      45.649  37.993  27.957  1.00  0.00    -0.237 OA
ATOM     69  O   UNL A   1      45.935  36.377  26.130  1.00  0.00    -0.744 OA
ENDBRANCH  63  66
ENDBRANCH  36  59
ENDBRANCH  10  11
ENDBRANCH   3   5
ENDBRANCH   2   3
ENDBRANCH   1   2
BRANCH   1  70
ATOM     70  C   UNL A   1      38.401  20.436  24.976  1.00  0.00     0.275 C 
BRANCH  70  71
ATOM     71  O   UNL A   1      37.342  21.092  25.693  1.00  0.00    -0.458 OA
BRANCH  71  72
ATOM     72  C   UNL A   1      36.098  20.957  25.158  1.00  0.00     0.341 C 
ATOM     73  O   UNL A   1      35.552  19.913  24.860  1.00  0.00    -0.246 OA
BRANCH  72  74
ATOM     74  C   UNL A   1      35.407  22.260  25.131  1.00  0.00     0.095 A 
ATOM     75  C   UNL A   1      34.658  22.648  26.245  1.00  0.00     0.019 A 
ATOM     76  C   UNL A   1      35.469  23.094  24.024  1.00  0.00     0.138 A 
ATOM     77  C   UNL A   1      34.033  23.903  26.267  1.00  0.00     0.010 A 
ATOM     78  C   UNL A   1      34.795  24.318  24.024  1.00  0.00     0.049 A 
ATOM     79  F   UNL A   1      36.172  22.743  22.938  1.00  0.00    -0.206 F 
ATOM     80  C   UNL A   1      34.094  24.762  25.158  1.00  0.00    -0.015 A 
BRANCH  80  81
ATOM     81  C   UNL A   1      33.413  26.068  25.168  1.00  0.00    -0.018 A 
ATOM     82  C   UNL A   1      33.572  26.957  24.094  1.00  0.00     0.010 A 
ATOM     83  C   UNL A   1      32.587  26.470  26.233  1.00  0.00     0.010 A 
ATOM     84  C   UNL A   1      32.906  28.186  24.063  1.00  0.00     0.021 A 
ATOM     85  C   UNL A   1      31.926  27.707  26.210  1.00  0.00     0.021 A 
ATOM     86  C   UNL A   1      32.083  28.557  25.118  1.00  0.00     0.041 A 
ATOM     87  Cl  UNL A   1      31.246  30.060  25.070  1.00  0.00    -0.084 Cl
ENDBRANCH  80  81
ENDBRANCH  72  74
ENDBRANCH  71  72
ENDBRANCH  70  71
ENDBRANCH   1  70
TORSDOF 15
ENDMDL
