MODEL 1
REMARK VINA RESULT:     -12.9      0.000      0.000
REMARK SMILES CS(=O)(=O)c1ccc(C2=NN(c3ccc(C(=O)OCCOC(=O)c4ccc(-c5c6nc(c(-c7cccc(S(=O)(=O)[O-])c7F)c7ccc([nH]7)c(-c7cccc(S(=O)(=O)[O-])c7F)c7nc(c(-c8cccc(S(=O)(=O)[O-])c8F)c8ccc5[nH]8)C=C7)C=C6)cc4)cc3)[C@H](c3ccc(Cl)cc3)C2)cc1
REMARK SMILES IDX 19 1 18 2 16 3 17 4 15 5 12 6 13 7 88 8 14 9 87 10 11 11
REMARK SMILES IDX 9 12 10 13 97 14 89 15 8 16 5 17 6 18 99 19 7 20 98 21 2 22
REMARK SMILES IDX 1 23 3 24 4 25 90 26 91 27 96 28 92 29 95 30 93 31 94 32
REMARK SMILES IDX 20 33 21 34 22 35 23 36 24 37 25 38 86 39 26 40 85 41 27 42
REMARK SMILES IDX 28 43 29 44 79 45 30 46 84 47 78 48 80 49 31 50 83 51 77 52
REMARK SMILES IDX 76 53 32 55 64 56 44 57 63 58 45 59 48 60 62 61 81 62 46 63
REMARK SMILES IDX 47 64 61 66 82 67 49 68 33 69 34 70 42 71 35 72 37 73 43 74
REMARK SMILES IDX 36 75 38 76 39 77 40 78 41 79 65 80 66 81 74 82 67 83 69 84
REMARK SMILES IDX 75 85 68 86 70 87 71 88 72 89 73 90 50 91 51 92 59 93 52 94
REMARK SMILES IDX 54 95 60 96 53 97 55 98 56 99 57 100 58 101
REMARK H PARENT 80 54 48 65
REMARK Flexibility Score: inf
ROOT
ATOM      1  C   UNL A   1      38.859  20.205  25.750  1.00  0.00     0.275 C 
ENDROOT
BRANCH   1   2
ATOM      2  O   UNL A   1      39.143  21.515  25.217  1.00  0.00    -0.458 OA
BRANCH   2   3
ATOM      3  C   UNL A   1      38.612  22.553  25.910  1.00  0.00     0.338 C 
ATOM      4  O   UNL A   1      39.108  23.105  26.875  1.00  0.00    -0.246 OA
BRANCH   3   5
ATOM      5  C   UNL A   1      37.327  23.001  25.317  1.00  0.00     0.060 A 
ATOM      6  C   UNL A   1      34.760  23.659  24.381  1.00  0.00     0.060 A 
ATOM      7  C   UNL A   1      35.156  24.035  25.665  1.00  0.00     0.029 A 
ATOM      8  C   UNL A   1      35.692  23.027  23.542  1.00  0.00     0.029 A 
ATOM      9  C   UNL A   1      36.411  23.669  26.142  1.00  0.00     0.018 A 
ATOM     10  C   UNL A   1      36.973  22.703  24.001  1.00  0.00     0.018 A 
BRANCH   6  11
ATOM     11  N   UNL A   1      33.416  23.757  23.993  1.00  0.00    -0.257 N 
ATOM     12  C   UNL A   1      31.722  25.065  23.935  1.00  0.00     0.071 C 
ATOM     13  N   UNL A   1      32.962  24.965  23.565  1.00  0.00    -0.176 NA
ATOM     14  C   UNL A   1      31.189  23.926  24.757  1.00  0.00     0.091 C 
ATOM     15  C   UNL A   1      32.434  23.032  24.827  1.00  0.00     0.144 C 
BRANCH  12  16
ATOM     16  C   UNL A   1      30.872  26.201  23.532  1.00  0.00    -0.002 A 
ATOM     17  C   UNL A   1      29.182  28.323  22.902  1.00  0.00     0.067 A 
ATOM     18  C   UNL A   1      28.667  27.207  23.566  1.00  0.00     0.021 A 
ATOM     19  C   UNL A   1      30.535  28.385  22.548  1.00  0.00     0.021 A 
ATOM     20  C   UNL A   1      29.513  26.141  23.866  1.00  0.00     0.011 A 
ATOM     21  C   UNL A   1      31.385  27.319  22.868  1.00  0.00     0.011 A 
BRANCH  17  22
ATOM     22  S   UNL A   1      28.115  29.714  22.595  1.00  0.00     0.175 S 
ATOM     23  C   UNL A   1      28.870  31.039  23.501  1.00  0.00     0.163 C 
ATOM     24  O   UNL A   1      26.830  29.413  23.197  1.00  0.00    -0.224 OA
ATOM     25  O   UNL A   1      28.206  30.018  21.178  1.00  0.00    -0.224 OA
ENDBRANCH  17  22
ENDBRANCH  12  16
BRANCH  15  26
ATOM     26  C   UNL A   1      32.341  21.589  24.346  1.00  0.00    -0.023 A 
ATOM     27  C   UNL A   1      32.115  21.229  23.011  1.00  0.00     0.007 A 
ATOM     28  C   UNL A   1      32.633  20.561  25.267  1.00  0.00     0.007 A 
ATOM     29  C   UNL A   1      32.207  19.892  22.607  1.00  0.00     0.021 A 
ATOM     30  C   UNL A   1      32.764  19.232  24.859  1.00  0.00     0.021 A 
ATOM     31  C   UNL A   1      32.554  18.904  23.526  1.00  0.00     0.041 A 
ATOM     32  Cl  UNL A   1      32.754  17.277  23.004  1.00  0.00    -0.084 Cl
ENDBRANCH  15  26
ENDBRANCH   6  11
ENDBRANCH   3   5
ENDBRANCH   2   3
ENDBRANCH   1   2
BRANCH   1  33
ATOM     33  C   UNL A   1      40.102  19.582  26.388  1.00  0.00     0.275 C 
BRANCH  33  34
ATOM     34  O   UNL A   1      41.124  19.349  25.402  1.00  0.00    -0.458 OA
BRANCH  34  35
ATOM     35  C   UNL A   1      42.386  19.579  25.827  1.00  0.00     0.338 C 
ATOM     36  O   UNL A   1      43.336  18.815  25.777  1.00  0.00    -0.246 OA
BRANCH  35  37
ATOM     37  C   UNL A   1      42.519  20.961  26.306  1.00  0.00     0.060 A 
ATOM     38  C   UNL A   1      42.690  21.962  25.358  1.00  0.00     0.016 A 
ATOM     39  C   UNL A   1      42.678  21.247  27.658  1.00  0.00     0.016 A 
ATOM     40  C   UNL A   1      43.158  23.215  25.732  1.00  0.00     0.010 A 
ATOM     41  C   UNL A   1      43.024  22.548  28.045  1.00  0.00     0.010 A 
ATOM     42  C   UNL A   1      43.321  23.537  27.086  1.00  0.00    -0.014 A 
BRANCH  42  43
ATOM     43  C   UNL A   1      43.819  24.886  27.489  1.00  0.00     0.031 A 
ATOM     44  C   UNL A   1      42.858  25.929  28.006  1.00  0.00     0.074 A 
ATOM     45  C   UNL A   1      45.132  25.186  27.385  1.00  0.00     0.049 A 
ATOM     46  N   UNL A   1      43.060  27.203  28.227  1.00  0.00    -0.248 NA
ATOM     47  C   UNL A   1      41.484  25.488  28.296  1.00  0.00     0.031 C 
ATOM     48  C   UNL A   1      46.179  24.271  26.926  1.00  0.00     0.029 A 
ATOM     49  N   UNL A   1      45.810  26.354  27.645  1.00  0.00    -0.354 N 
ATOM     50  C   UNL A   1      41.828  27.728  28.603  1.00  0.00     0.074 A 
ATOM     51  C   UNL A   1      40.883  26.634  28.586  1.00  0.00     0.031 C 
ATOM     52  C   UNL A   1      47.363  24.900  26.951  1.00  0.00     0.029 A 
ATOM     53  C   UNL A   1      47.150  26.290  27.332  1.00  0.00     0.049 A 
ATOM     54  H   UNL A   1      45.380  27.157  28.018  1.00  0.00     0.167 HD
ATOM     55  C   UNL A   1      41.514  29.004  28.936  1.00  0.00     0.034 A 
ATOM     56  C   UNL A   1      48.095  27.249  27.296  1.00  0.00     0.034 A 
ATOM     57  C   UNL A   1      42.473  30.075  29.014  1.00  0.00     0.049 A 
ATOM     58  C   UNL A   1      47.716  28.656  27.655  1.00  0.00     0.074 A 
ATOM     59  C   UNL A   1      42.262  31.393  29.383  1.00  0.00     0.029 A 
ATOM     60  N   UNL A   1      43.823  29.954  28.724  1.00  0.00    -0.354 N 
ATOM     61  N   UNL A   1      46.557  29.125  28.046  1.00  0.00    -0.248 NA
ATOM     62  C   UNL A   1      48.780  29.668  27.582  1.00  0.00     0.031 C 
ATOM     63  C   UNL A   1      43.480  32.074  29.289  1.00  0.00     0.029 A 
ATOM     64  C   UNL A   1      44.457  31.173  28.901  1.00  0.00     0.049 A 
ATOM     65  H   UNL A   1      44.265  29.124  28.434  1.00  0.00     0.167 HD
ATOM     66  C   UNL A   1      46.758  30.476  28.299  1.00  0.00     0.074 A 
ATOM     67  C   UNL A   1      48.157  30.745  28.039  1.00  0.00     0.031 C 
ATOM     68  C   UNL A   1      45.861  31.412  28.695  1.00  0.00     0.034 A 
BRANCH  55  69
ATOM     69  C   UNL A   1      40.074  29.320  29.258  1.00  0.00     0.023 A 
ATOM     70  C   UNL A   1      39.155  29.566  28.219  1.00  0.00     0.012 A 
ATOM     71  C   UNL A   1      39.617  29.305  30.592  1.00  0.00     0.148 A 
ATOM     72  C   UNL A   1      37.813  29.825  28.502  1.00  0.00     0.002 A 
ATOM     73  C   UNL A   1      38.270  29.515  30.864  1.00  0.00     0.091 A 
ATOM     74  F   UNL A   1      40.507  29.084  31.570  1.00  0.00    -0.205 F 
ATOM     75  C   UNL A   1      37.369  29.788  29.821  1.00  0.00     0.022 A 
BRANCH  73  76
ATOM     76  S   UNL A   1      37.582  29.407  32.521  1.00  0.00     0.127 S 
ATOM     77  O   UNL A   1      38.436  30.339  33.256  1.00  0.00    -0.237 OA
ATOM     78  O   UNL A   1      36.210  29.871  32.312  1.00  0.00    -0.237 OA
ATOM     79  O   UNL A   1      37.699  28.011  32.916  1.00  0.00    -0.744 OA
ENDBRANCH  73  76
ENDBRANCH  55  69
BRANCH  56  80
ATOM     80  C   UNL A   1      49.492  26.910  26.895  1.00  0.00     0.023 A 
ATOM     81  C   UNL A   1      49.788  26.678  25.539  1.00  0.00     0.012 A 
ATOM     82  C   UNL A   1      50.529  26.833  27.847  1.00  0.00     0.148 A 
ATOM     83  C   UNL A   1      51.084  26.343  25.142  1.00  0.00     0.002 A 
ATOM     84  C   UNL A   1      51.828  26.564  27.436  1.00  0.00     0.091 A 
ATOM     85  F   UNL A   1      50.225  27.040  29.136  1.00  0.00    -0.205 F 
ATOM     86  C   UNL A   1      52.106  26.299  26.087  1.00  0.00     0.022 A 
BRANCH  84  87
ATOM     87  S   UNL A   1      53.225  26.626  28.563  1.00  0.00     0.127 S 
ATOM     88  O   UNL A   1      52.659  26.035  29.772  1.00  0.00    -0.237 OA
ATOM     89  O   UNL A   1      54.209  25.794  27.872  1.00  0.00    -0.237 OA
ATOM     90  O   UNL A   1      53.591  28.033  28.657  1.00  0.00    -0.744 OA
ENDBRANCH  84  87
ENDBRANCH  56  80
BRANCH  68  91
ATOM     91  C   UNL A   1      46.376  32.807  28.937  1.00  0.00     0.023 A 
ATOM     92  C   UNL A   1      46.920  33.153  30.190  1.00  0.00     0.012 A 
ATOM     93  C   UNL A   1      46.375  33.755  27.896  1.00  0.00     0.148 A 
ATOM     94  C   UNL A   1      47.421  34.435  30.413  1.00  0.00     0.002 A 
ATOM     95  C   UNL A   1      46.924  35.012  28.109  1.00  0.00     0.091 A 
ATOM     96  F   UNL A   1      45.834  33.409  26.719  1.00  0.00    -0.205 F 
ATOM     97  C   UNL A   1      47.435  35.359  29.370  1.00  0.00     0.022 A 
BRANCH  95  98
ATOM     98  S   UNL A   1      47.074  36.230  26.797  1.00  0.00     0.127 S 
ATOM     99  O   UNL A   1      47.770  35.467  25.762  1.00  0.00    -0.237 OA
ATOM    100  O   UNL A   1      45.674  36.534  26.496  1.00  0.00    -0.237 OA
ATOM    101  O   UNL A   1      47.826  37.341  27.364  1.00  0.00    -0.744 OA
ENDBRANCH  95  98
ENDBRANCH  68  91
ENDBRANCH  42  43
ENDBRANCH  35  37
ENDBRANCH  34  35
ENDBRANCH  33  34
ENDBRANCH   1  33
TORSDOF 18
ENDMDL
MODEL 2
REMARK VINA RESULT:     -12.8      1.831      2.200
REMARK SMILES CS(=O)(=O)c1ccc(C2=NN(c3ccc(C(=O)OCCOC(=O)c4ccc(-c5c6nc(c(-c7cccc(S(=O)(=O)[O-])c7F)c7ccc([nH]7)c(-c7cccc(S(=O)(=O)[O-])c7F)c7nc(c(-c8cccc(S(=O)(=O)[O-])c8F)c8ccc5[nH]8)C=C7)C=C6)cc4)cc3)[C@H](c3ccc(Cl)cc3)C2)cc1
REMARK SMILES IDX 19 1 18 2 16 3 17 4 15 5 12 6 13 7 88 8 14 9 87 10 11 11
REMARK SMILES IDX 9 12 10 13 97 14 89 15 8 16 5 17 6 18 99 19 7 20 98 21 2 22
REMARK SMILES IDX 1 23 3 24 4 25 90 26 91 27 96 28 92 29 95 30 93 31 94 32
REMARK SMILES IDX 20 33 21 34 22 35 23 36 24 37 25 38 86 39 26 40 85 41 27 42
REMARK SMILES IDX 28 43 29 44 79 45 30 46 84 47 78 48 80 49 31 50 83 51 77 52
REMARK SMILES IDX 76 53 32 55 64 56 44 57 63 58 45 59 48 60 62 61 81 62 46 63
REMARK SMILES IDX 47 64 61 66 82 67 49 68 33 69 34 70 42 71 35 72 37 73 43 74
REMARK SMILES IDX 36 75 38 76 39 77 40 78 41 79 65 80 66 81 74 82 67 83 69 84
REMARK SMILES IDX 75 85 68 86 70 87 71 88 72 89 73 90 50 91 51 92 59 93 52 94
REMARK SMILES IDX 54 95 60 96 53 97 55 98 56 99 57 100 58 101
REMARK H PARENT 80 54 48 65
REMARK Flexibility Score: inf
ROOT
ATOM      1  C   UNL A   1      39.469  20.474  26.418  1.00  0.00     0.275 C 
ENDROOT
BRANCH   1   2
ATOM      2  O   UNL A   1      38.913  21.360  25.426  1.00  0.00    -0.458 OA
BRANCH   2   3
ATOM      3  C   UNL A   1      38.558  22.590  25.876  1.00  0.00     0.338 C 
ATOM      4  O   UNL A   1      39.199  23.293  26.635  1.00  0.00    -0.246 OA
BRANCH   3   5
ATOM      5  C   UNL A   1      37.270  23.033  25.285  1.00  0.00     0.060 A 
ATOM      6  C   UNL A   1      34.699  23.671  24.347  1.00  0.00     0.060 A 
ATOM      7  C   UNL A   1      35.074  24.008  25.648  1.00  0.00     0.029 A 
ATOM      8  C   UNL A   1      35.652  23.090  23.496  1.00  0.00     0.029 A 
ATOM      9  C   UNL A   1      36.332  23.650  26.125  1.00  0.00     0.018 A 
ATOM     10  C   UNL A   1      36.936  22.776  23.956  1.00  0.00     0.018 A 
BRANCH   6  11
ATOM     11  N   UNL A   1      33.357  23.756  23.949  1.00  0.00    -0.257 N 
ATOM     12  C   UNL A   1      31.649  25.044  23.883  1.00  0.00     0.071 C 
ATOM     13  N   UNL A   1      32.892  24.960  23.523  1.00  0.00    -0.176 NA
ATOM     14  C   UNL A   1      31.122  23.895  24.695  1.00  0.00     0.091 C 
ATOM     15  C   UNL A   1      32.377  23.016  24.771  1.00  0.00     0.144 C 
BRANCH  12  16
ATOM     16  C   UNL A   1      30.789  26.172  23.479  1.00  0.00    -0.002 A 
ATOM     17  C   UNL A   1      29.100  28.298  22.858  1.00  0.00     0.067 A 
ATOM     18  C   UNL A   1      28.651  27.291  23.715  1.00  0.00     0.021 A 
ATOM     19  C   UNL A   1      30.386  28.249  22.307  1.00  0.00     0.021 A 
ATOM     20  C   UNL A   1      29.494  26.220  24.011  1.00  0.00     0.011 A 
ATOM     21  C   UNL A   1      31.236  27.182  22.621  1.00  0.00     0.011 A 
BRANCH  17  22
ATOM     22  S   UNL A   1      28.049  29.701  22.550  1.00  0.00     0.175 S 
ATOM     23  C   UNL A   1      28.799  31.009  23.484  1.00  0.00     0.163 C 
ATOM     24  O   UNL A   1      26.752  29.403  23.126  1.00  0.00    -0.224 OA
ATOM     25  O   UNL A   1      28.167  30.021  21.139  1.00  0.00    -0.224 OA
ENDBRANCH  17  22
ENDBRANCH  12  16
BRANCH  15  26
ATOM     26  C   UNL A   1      32.305  21.573  24.282  1.00  0.00    -0.023 A 
ATOM     27  C   UNL A   1      32.141  21.218  22.937  1.00  0.00     0.007 A 
ATOM     28  C   UNL A   1      32.551  20.543  25.214  1.00  0.00     0.007 A 
ATOM     29  C   UNL A   1      32.251  19.881  22.534  1.00  0.00     0.021 A 
ATOM     30  C   UNL A   1      32.698  19.215  24.809  1.00  0.00     0.021 A 
ATOM     31  C   UNL A   1      32.552  18.890  23.466  1.00  0.00     0.041 A 
ATOM     32  Cl  UNL A   1      32.774  17.265  22.950  1.00  0.00    -0.084 Cl
ENDBRANCH  15  26
ENDBRANCH   6  11
ENDBRANCH   3   5
ENDBRANCH   2   3
ENDBRANCH   1   2
BRANCH   1  33
ATOM     33  C   UNL A   1      40.305  19.368  25.771  1.00  0.00     0.275 C 
BRANCH  33  34
ATOM     34  O   UNL A   1      41.612  19.296  26.369  1.00  0.00    -0.458 OA
BRANCH  34  35
ATOM     35  C   UNL A   1      42.546  20.081  25.789  1.00  0.00     0.338 C 
ATOM     36  O   UNL A   1      43.277  19.795  24.854  1.00  0.00    -0.246 OA
BRANCH  35  37
ATOM     37  C   UNL A   1      42.525  21.424  26.382  1.00  0.00     0.060 A 
ATOM     38  C   UNL A   1      42.546  22.513  25.520  1.00  0.00     0.016 A 
ATOM     39  C   UNL A   1      42.689  21.614  27.750  1.00  0.00     0.016 A 
ATOM     40  C   UNL A   1      42.870  23.780  25.992  1.00  0.00     0.010 A 
ATOM     41  C   UNL A   1      42.886  22.911  28.241  1.00  0.00     0.010 A 
ATOM     42  C   UNL A   1      43.032  24.005  27.365  1.00  0.00    -0.014 A 
BRANCH  42  43
ATOM     43  C   UNL A   1      43.376  25.367  27.873  1.00  0.00     0.031 A 
ATOM     44  C   UNL A   1      42.297  26.266  28.429  1.00  0.00     0.074 A 
ATOM     45  C   UNL A   1      44.651  25.809  27.831  1.00  0.00     0.049 A 
ATOM     46  N   UNL A   1      42.359  27.536  28.741  1.00  0.00    -0.248 NA
ATOM     47  C   UNL A   1      40.971  25.665  28.645  1.00  0.00     0.031 C 
ATOM     48  C   UNL A   1      45.800  25.041  27.345  1.00  0.00     0.029 A 
ATOM     49  N   UNL A   1      45.196  27.019  28.191  1.00  0.00    -0.354 N 
ATOM     50  C   UNL A   1      41.069  27.902  29.112  1.00  0.00     0.074 A 
ATOM     51  C   UNL A   1      40.245  26.720  28.993  1.00  0.00     0.031 C 
ATOM     52  C   UNL A   1      46.910  25.786  27.450  1.00  0.00     0.029 A 
ATOM     53  C   UNL A   1      46.542  27.116  27.916  1.00  0.00     0.049 A 
ATOM     54  H   UNL A   1      44.675  27.745  28.602  1.00  0.00     0.167 HD
ATOM     55  C   UNL A   1      40.614  29.112  29.521  1.00  0.00     0.034 A 
ATOM     56  C   UNL A   1      47.381  28.168  27.974  1.00  0.00     0.034 A 
ATOM     57  C   UNL A   1      41.452  30.269  29.700  1.00  0.00     0.049 A 
ATOM     58  C   UNL A   1      46.847  29.500  28.415  1.00  0.00     0.074 A 
ATOM     59  C   UNL A   1      41.094  31.529  30.150  1.00  0.00     0.029 A 
ATOM     60  N   UNL A   1      42.814  30.309  29.445  1.00  0.00    -0.354 N 
ATOM     61  N   UNL A   1      45.636  29.818  28.800  1.00  0.00    -0.248 NA
ATOM     62  C   UNL A   1      47.800  30.620  28.444  1.00  0.00     0.031 C 
ATOM     63  C   UNL A   1      42.235  32.337  30.140  1.00  0.00     0.029 A 
ATOM     64  C   UNL A   1      43.311  31.572  29.723  1.00  0.00     0.049 A 
ATOM     65  H   UNL A   1      43.348  29.552  29.115  1.00  0.00     0.167 HD
ATOM     66  C   UNL A   1      45.687  31.161  29.149  1.00  0.00     0.074 A 
ATOM     67  C   UNL A   1      47.055  31.592  28.952  1.00  0.00     0.031 C 
ATOM     68  C   UNL A   1      44.687  31.969  29.579  1.00  0.00     0.034 A 
BRANCH  55  69
ATOM     69  C   UNL A   1      39.141  29.254  29.818  1.00  0.00     0.023 A 
ATOM     70  C   UNL A   1      38.648  28.955  31.103  1.00  0.00     0.012 A 
ATOM     71  C   UNL A   1      38.256  29.753  28.840  1.00  0.00     0.148 A 
ATOM     72  C   UNL A   1      37.294  29.117  31.401  1.00  0.00     0.002 A 
ATOM     73  C   UNL A   1      36.918  29.957  29.157  1.00  0.00     0.091 A 
ATOM     74  F   UNL A   1      38.740  30.018  27.618  1.00  0.00    -0.205 F 
ATOM     75  C   UNL A   1      36.433  29.628  30.433  1.00  0.00     0.022 A 
BRANCH  73  76
ATOM     76  S   UNL A   1      35.746  30.688  28.008  1.00  0.00     0.127 S 
ATOM     77  O   UNL A   1      34.564  30.848  28.854  1.00  0.00    -0.237 OA
ATOM     78  O   UNL A   1      36.412  31.941  27.648  1.00  0.00    -0.237 OA
ATOM     79  O   UNL A   1      35.605  29.737  26.915  1.00  0.00    -0.744 OA
ENDBRANCH  73  76
ENDBRANCH  55  69
BRANCH  56  80
ATOM     80  C   UNL A   1      48.816  28.005  27.596  1.00  0.00     0.023 A 
ATOM     81  C   UNL A   1      49.775  27.763  28.597  1.00  0.00     0.012 A 
ATOM     82  C   UNL A   1      49.231  28.073  26.251  1.00  0.00     0.148 A 
ATOM     83  C   UNL A   1      51.125  27.624  28.270  1.00  0.00     0.002 A 
ATOM     84  C   UNL A   1      50.566  27.870  25.926  1.00  0.00     0.091 A 
ATOM     85  F   UNL A   1      48.306  28.323  25.312  1.00  0.00    -0.205 F 
ATOM     86  C   UNL A   1      51.518  27.665  26.935  1.00  0.00     0.022 A 
BRANCH  84  87
ATOM     87  S   UNL A   1      51.136  27.764  24.226  1.00  0.00     0.127 S 
ATOM     88  O   UNL A   1      50.085  26.961  23.608  1.00  0.00    -0.237 OA
ATOM     89  O   UNL A   1      51.154  29.171  23.825  1.00  0.00    -0.237 OA
ATOM     90  O   UNL A   1      52.452  27.144  24.291  1.00  0.00    -0.744 OA
ENDBRANCH  84  87
ENDBRANCH  56  80
BRANCH  68  91
ATOM     91  C   UNL A   1      45.045  33.389  29.930  1.00  0.00     0.023 A 
ATOM     92  C   UNL A   1      45.560  33.695  31.205  1.00  0.00     0.012 A 
ATOM     93  C   UNL A   1      44.927  34.410  28.967  1.00  0.00     0.148 A 
ATOM     94  C   UNL A   1      45.918  35.003  31.529  1.00  0.00     0.002 A 
ATOM     95  C   UNL A   1      45.336  35.700  29.278  1.00  0.00     0.091 A 
ATOM     96  F   UNL A   1      44.417  34.100  27.767  1.00  0.00    -0.205 F 
ATOM     97  C   UNL A   1      45.817  36.002  30.562  1.00  0.00     0.022 A 
BRANCH  95  98
ATOM     98  S   UNL A   1      45.335  37.027  28.068  1.00  0.00     0.127 S 
ATOM     99  O   UNL A   1      44.046  37.666  28.327  1.00  0.00    -0.237 OA
ATOM    100  O   UNL A   1      46.500  37.815  28.473  1.00  0.00    -0.237 OA
ATOM    101  O   UNL A   1      45.462  36.385  26.767  1.00  0.00    -0.744 OA
ENDBRANCH  95  98
ENDBRANCH  68  91
ENDBRANCH  42  43
ENDBRANCH  35  37
ENDBRANCH  34  35
ENDBRANCH  33  34
ENDBRANCH   1  33
TORSDOF 18
ENDMDL
MODEL 3
REMARK VINA RESULT:     -12.7      5.278     12.053
REMARK SMILES CS(=O)(=O)c1ccc(C2=NN(c3ccc(C(=O)OCCOC(=O)c4ccc(-c5c6nc(c(-c7cccc(S(=O)(=O)[O-])c7F)c7ccc([nH]7)c(-c7cccc(S(=O)(=O)[O-])c7F)c7nc(c(-c8cccc(S(=O)(=O)[O-])c8F)c8ccc5[nH]8)C=C7)C=C6)cc4)cc3)[C@H](c3ccc(Cl)cc3)C2)cc1
REMARK SMILES IDX 19 1 18 2 16 3 17 4 15 5 12 6 13 7 88 8 14 9 87 10 11 11
REMARK SMILES IDX 9 12 10 13 97 14 89 15 8 16 5 17 6 18 99 19 7 20 98 21 2 22
REMARK SMILES IDX 1 23 3 24 4 25 90 26 91 27 96 28 92 29 95 30 93 31 94 32
REMARK SMILES IDX 20 33 21 34 22 35 23 36 24 37 25 38 86 39 26 40 85 41 27 42
REMARK SMILES IDX 28 43 29 44 79 45 30 46 84 47 78 48 80 49 31 50 83 51 77 52
REMARK SMILES IDX 76 53 32 55 64 56 44 57 63 58 45 59 48 60 62 61 81 62 46 63
REMARK SMILES IDX 47 64 61 66 82 67 49 68 33 69 34 70 42 71 35 72 37 73 43 74
REMARK SMILES IDX 36 75 38 76 39 77 40 78 41 79 65 80 66 81 74 82 67 83 69 84
REMARK SMILES IDX 75 85 68 86 70 87 71 88 72 89 73 90 50 91 51 92 59 93 52 94
REMARK SMILES IDX 54 95 60 96 53 97 55 98 56 99 57 100 58 101
REMARK H PARENT 80 54 48 65
REMARK Flexibility Score: inf
ROOT
ATOM      1  C   UNL A   1      41.946  19.186  26.679  1.00  0.00     0.275 C 
ENDROOT
BRANCH   1   2
ATOM      2  O   UNL A   1      42.314  19.643  25.361  1.00  0.00    -0.458 OA
BRANCH   2   3
ATOM      3  C   UNL A   1      43.624  19.500  25.038  1.00  0.00     0.338 C 
ATOM      4  O   UNL A   1      44.200  18.453  24.810  1.00  0.00    -0.246 OA
BRANCH   3   5
ATOM      5  C   UNL A   1      44.305  20.815  24.942  1.00  0.00     0.060 A 
ATOM      6  C   UNL A   1      45.729  23.237  25.017  1.00  0.00     0.060 A 
ATOM      7  C   UNL A   1      46.403  22.035  24.802  1.00  0.00     0.029 A 
ATOM      8  C   UNL A   1      44.328  23.223  25.109  1.00  0.00     0.029 A 
ATOM      9  C   UNL A   1      45.701  20.832  24.810  1.00  0.00     0.018 A 
ATOM     10  C   UNL A   1      43.614  22.021  25.065  1.00  0.00     0.018 A 
BRANCH   6  11
ATOM     11  N   UNL A   1      46.442  24.410  25.304  1.00  0.00    -0.257 N 
ATOM     12  C   UNL A   1      48.067  25.648  24.665  1.00  0.00     0.071 C 
ATOM     13  N   UNL A   1      46.955  25.117  24.262  1.00  0.00    -0.176 NA
ATOM     14  C   UNL A   1      48.498  25.290  26.060  1.00  0.00     0.091 C 
ATOM     15  C   UNL A   1      47.347  24.363  26.472  1.00  0.00     0.144 C 
BRANCH  12  16
ATOM     16  C   UNL A   1      48.838  26.587  23.828  1.00  0.00    -0.002 A 
ATOM     17  C   UNL A   1      50.421  28.279  22.284  1.00  0.00     0.067 A 
ATOM     18  C   UNL A   1      50.946  27.722  23.453  1.00  0.00     0.021 A 
ATOM     19  C   UNL A   1      49.110  27.998  21.883  1.00  0.00     0.021 A 
ATOM     20  C   UNL A   1      50.145  26.888  24.231  1.00  0.00     0.011 A 
ATOM     21  C   UNL A   1      48.315  27.145  22.658  1.00  0.00     0.011 A 
BRANCH  17  22
ATOM     22  S   UNL A   1      51.476  29.277  21.254  1.00  0.00     0.175 S 
ATOM     23  C   UNL A   1      53.115  28.809  21.743  1.00  0.00     0.163 C 
ATOM     24  O   UNL A   1      51.258  30.662  21.627  1.00  0.00    -0.224 OA
ATOM     25  O   UNL A   1      51.266  28.846  19.884  1.00  0.00    -0.224 OA
ENDBRANCH  17  22
ENDBRANCH  12  16
BRANCH  15  26
ATOM     26  C   UNL A   1      46.550  24.685  27.732  1.00  0.00    -0.023 A 
ATOM     27  C   UNL A   1      45.351  24.047  28.075  1.00  0.00     0.007 A 
ATOM     28  C   UNL A   1      47.119  25.573  28.669  1.00  0.00     0.007 A 
ATOM     29  C   UNL A   1      44.758  24.267  29.325  1.00  0.00     0.021 A 
ATOM     30  C   UNL A   1      46.550  25.764  29.930  1.00  0.00     0.021 A 
ATOM     31  C   UNL A   1      45.371  25.104  30.254  1.00  0.00     0.041 A 
ATOM     32  Cl  UNL A   1      44.685  25.299  31.819  1.00  0.00    -0.084 Cl
ENDBRANCH  15  26
ENDBRANCH   6  11
ENDBRANCH   3   5
ENDBRANCH   2   3
ENDBRANCH   1   2
BRANCH   1  33
ATOM     33  C   UNL A   1      40.767  19.984  27.237  1.00  0.00     0.275 C 
BRANCH  33  34
ATOM     34  O   UNL A   1      41.051  21.394  27.229  1.00  0.00    -0.458 OA
BRANCH  34  35
ATOM     35  C   UNL A   1      40.067  22.169  26.721  1.00  0.00     0.338 C 
ATOM     36  O   UNL A   1      39.162  21.824  25.978  1.00  0.00    -0.246 OA
BRANCH  35  37
ATOM     37  C   UNL A   1      40.159  23.531  27.261  1.00  0.00     0.060 A 
ATOM     38  C   UNL A   1      39.614  24.564  26.509  1.00  0.00     0.016 A 
ATOM     39  C   UNL A   1      40.941  23.817  28.376  1.00  0.00     0.016 A 
ATOM     40  C   UNL A   1      39.955  25.885  26.773  1.00  0.00     0.010 A 
ATOM     41  C   UNL A   1      41.177  25.155  28.719  1.00  0.00     0.010 A 
ATOM     42  C   UNL A   1      40.733  26.206  27.894  1.00  0.00    -0.014 A 
BRANCH  42  43
ATOM     43  C   UNL A   1      41.096  27.626  28.181  1.00  0.00     0.031 A 
ATOM     44  C   UNL A   1      42.525  28.091  28.034  1.00  0.00     0.074 A 
ATOM     45  C   UNL A   1      40.151  28.504  28.582  1.00  0.00     0.049 A 
ATOM     46  N   UNL A   1      43.071  29.220  28.410  1.00  0.00    -0.248 NA
ATOM     47  C   UNL A   1      43.470  27.160  27.397  1.00  0.00     0.031 C 
ATOM     48  C   UNL A   1      38.726  28.203  28.744  1.00  0.00     0.029 A 
ATOM     49  N   UNL A   1      40.248  29.827  28.944  1.00  0.00    -0.354 N 
ATOM     50  C   UNL A   1      44.428  29.102  28.131  1.00  0.00     0.074 A 
ATOM     51  C   UNL A   1      44.624  27.794  27.546  1.00  0.00     0.031 C 
ATOM     52  C   UNL A   1      38.082  29.305  29.154  1.00  0.00     0.029 A 
ATOM     53  C   UNL A   1      39.057  30.364  29.380  1.00  0.00     0.049 A 
ATOM     54  H   UNL A   1      41.086  30.340  28.896  1.00  0.00     0.167 HD
ATOM     55  C   UNL A   1      45.419  30.004  28.336  1.00  0.00     0.034 A 
ATOM     56  C   UNL A   1      38.780  31.551  29.953  1.00  0.00     0.034 A 
ATOM     57  C   UNL A   1      45.207  31.329  28.858  1.00  0.00     0.049 A 
ATOM     58  C   UNL A   1      39.900  32.524  30.184  1.00  0.00     0.074 A 
ATOM     59  C   UNL A   1      46.140  32.332  29.064  1.00  0.00     0.029 A 
ATOM     60  N   UNL A   1      43.980  31.840  29.251  1.00  0.00    -0.354 N 
ATOM     61  N   UNL A   1      41.169  32.411  29.876  1.00  0.00    -0.248 NA
ATOM     62  C   UNL A   1      39.549  33.797  30.829  1.00  0.00     0.031 C 
ATOM     63  C   UNL A   1      45.479  33.438  29.608  1.00  0.00     0.029 A 
ATOM     64  C   UNL A   1      44.130  33.140  29.702  1.00  0.00     0.049 A 
ATOM     65  H   UNL A   1      43.127  31.350  29.214  1.00  0.00     0.167 HD
ATOM     66  C   UNL A   1      41.761  33.608  30.257  1.00  0.00     0.074 A 
ATOM     67  C   UNL A   1      40.707  34.442  30.797  1.00  0.00     0.031 C 
ATOM     68  C   UNL A   1      43.062  33.979  30.181  1.00  0.00     0.034 A 
BRANCH  55  69
ATOM     69  C   UNL A   1      46.830  29.601  27.987  1.00  0.00     0.023 A 
ATOM     70  C   UNL A   1      47.304  29.757  26.669  1.00  0.00     0.012 A 
ATOM     71  C   UNL A   1      47.711  29.131  28.983  1.00  0.00     0.148 A 
ATOM     72  C   UNL A   1      48.619  29.422  26.340  1.00  0.00     0.002 A 
ATOM     73  C   UNL A   1      49.032  28.845  28.659  1.00  0.00     0.091 A 
ATOM     74  F   UNL A   1      47.240  28.974  30.228  1.00  0.00    -0.205 F 
ATOM     75  C   UNL A   1      49.484  28.977  27.336  1.00  0.00     0.022 A 
BRANCH  73  76
ATOM     76  S   UNL A   1      50.249  28.345  29.884  1.00  0.00     0.127 S 
ATOM     77  O   UNL A   1      50.853  27.180  29.241  1.00  0.00    -0.237 OA
ATOM     78  O   UNL A   1      51.115  29.523  29.952  1.00  0.00    -0.237 OA
ATOM     79  O   UNL A   1      49.503  28.067  31.103  1.00  0.00    -0.744 OA
ENDBRANCH  73  76
ENDBRANCH  55  69
BRANCH  56  80
ATOM     80  C   UNL A   1      37.382  31.881  30.358  1.00  0.00     0.023 A 
ATOM     81  C   UNL A   1      36.917  31.490  31.627  1.00  0.00     0.012 A 
ATOM     82  C   UNL A   1      36.520  32.594  29.500  1.00  0.00     0.148 A 
ATOM     83  C   UNL A   1      35.607  31.773  32.022  1.00  0.00     0.002 A 
ATOM     84  C   UNL A   1      35.241  32.928  29.925  1.00  0.00     0.091 A 
ATOM     85  F   UNL A   1      36.975  32.943  28.288  1.00  0.00    -0.205 F 
ATOM     86  C   UNL A   1      34.775  32.502  31.177  1.00  0.00     0.022 A 
BRANCH  84  87
ATOM     87  S   UNL A   1      34.154  33.984  28.961  1.00  0.00     0.127 S 
ATOM     88  O   UNL A   1      35.095  34.953  28.406  1.00  0.00    -0.237 OA
ATOM     89  O   UNL A   1      33.597  33.040  27.993  1.00  0.00    -0.237 OA
ATOM     90  O   UNL A   1      33.182  34.515  29.907  1.00  0.00    -0.744 OA
ENDBRANCH  84  87
ENDBRANCH  56  80
BRANCH  68  91
ATOM     91  C   UNL A   1      43.415  35.371  30.634  1.00  0.00     0.023 A 
ATOM     92  C   UNL A   1      43.833  35.600  31.959  1.00  0.00     0.012 A 
ATOM     93  C   UNL A   1      43.391  36.442  29.720  1.00  0.00     0.148 A 
ATOM     94  C   UNL A   1      44.185  36.883  32.378  1.00  0.00     0.002 A 
ATOM     95  C   UNL A   1      43.795  37.706  30.129  1.00  0.00     0.091 A 
ATOM     96  F   UNL A   1      42.972  36.205  28.469  1.00  0.00    -0.205 F 
ATOM     97  C   UNL A   1      44.178  37.932  31.461  1.00  0.00     0.022 A 
BRANCH  95  98
ATOM     98  S   UNL A   1      43.912  39.093  28.994  1.00  0.00     0.127 S 
ATOM     99  O   UNL A   1      42.507  39.325  28.662  1.00  0.00    -0.237 OA
ATOM    100  O   UNL A   1      44.522  40.127  29.831  1.00  0.00    -0.237 OA
ATOM    101  O   UNL A   1      44.746  38.640  27.890  1.00  0.00    -0.744 OA
ENDBRANCH  95  98
ENDBRANCH  68  91
ENDBRANCH  42  43
ENDBRANCH  35  37
ENDBRANCH  34  35
ENDBRANCH  33  34
ENDBRANCH   1  33
TORSDOF 18
ENDMDL
