MODEL 1
REMARK VINA RESULT:     -10.5      0.000      0.000
REMARK SMILES O=C(COCC(=O)OCCOC(=O)c1ccc(-c2c3nc(c(-c4cccc(S(=O)(=O)[O-])c4F)c4ccc([nH]4)c(-c4cccc(S(=O)(=O)[O-])c4F)c4nc(c(-c5cccc(S(=O)(=O)[O-])c5F)c5ccc2[nH]5)C=C4)C=C3)cc1)Nc1cccc([N+](=O)[O-])c1
REMARK SMILES IDX 9 1 8 2 6 3 7 4 5 5 4 6 3 7 2 8 1 9 77 10 78 12 79 13 86 14
REMARK SMILES IDX 80 15 82 16 81 17 83 18 84 19 85 20 10 21 11 22 12 23 13 24
REMARK SMILES IDX 14 25 15 26 76 27 16 28 75 29 17 30 18 31 19 32 69 33 20 34
REMARK SMILES IDX 74 35 68 36 70 37 21 38 73 39 67 40 66 41 22 43 54 44 34 45
REMARK SMILES IDX 53 46 35 47 38 48 52 49 71 50 36 51 37 52 51 54 72 55 39 56
REMARK SMILES IDX 23 57 24 58 32 59 25 60 27 61 33 62 26 63 28 64 29 65 30 66
REMARK SMILES IDX 31 67 55 68 56 69 64 70 57 71 59 72 65 73 58 74 60 75 61 76
REMARK SMILES IDX 62 77 63 78 40 79 41 80 49 81 42 82 44 83 50 84 43 85 45 86
REMARK SMILES IDX 46 87 47 88 48 89
REMARK H PARENT 77 11 70 42 38 53
REMARK Flexibility Score: inf
ROOT
ATOM      1  C   UNL A   1      33.669  34.211  28.405  1.00  0.00     0.274 C 
ENDROOT
BRANCH   1   2
ATOM      2  O   UNL A   1      34.244  35.524  28.567  1.00  0.00    -0.460 OA
BRANCH   2   3
ATOM      3  C   UNL A   1      33.388  36.470  29.030  1.00  0.00     0.332 C 
ATOM      4  O   UNL A   1      33.276  37.601  28.567  1.00  0.00    -0.250 OA
BRANCH   3   5
ATOM      5  C   UNL A   1      32.564  36.017  30.245  1.00  0.00     0.283 C 
BRANCH   5   6
ATOM      6  O   UNL A   1      32.145  36.828  31.322  1.00  0.00    -0.360 OA
BRANCH   6   7
ATOM      7  C   UNL A   1      32.480  36.377  32.623  1.00  0.00     0.261 C 
BRANCH   7   8
ATOM      8  C   UNL A   1      33.859  35.744  32.903  1.00  0.00     0.250 C 
ATOM      9  O   UNL A   1      34.862  36.450  32.937  1.00  0.00    -0.272 OA
ATOM     10  N   UNL A   1      33.825  34.375  33.097  1.00  0.00    -0.324 N 
ATOM     11  H   UNL A   1      32.938  33.950  33.077  1.00  0.00     0.170 HD
BRANCH  10  12
ATOM     12  C   UNL A   1      34.929  33.522  33.322  1.00  0.00     0.048 A 
ATOM     13  C   UNL A   1      35.153  32.495  32.393  1.00  0.00     0.026 A 
ATOM     14  C   UNL A   1      35.791  33.641  34.415  1.00  0.00     0.111 A 
ATOM     15  C   UNL A   1      36.232  31.615  32.535  1.00  0.00     0.009 A 
ATOM     16  C   UNL A   1      36.845  32.728  34.577  1.00  0.00     0.271 A 
ATOM     17  C   UNL A   1      37.083  31.725  33.632  1.00  0.00     0.086 A 
BRANCH  16  18
ATOM     18  N   UNL A   1      37.647  32.769  35.801  1.00  0.00     0.062 N 
ATOM     19  O   UNL A   1      38.464  33.693  35.916  1.00  0.00    -0.258 OA
ATOM     20  O   UNL A   1      37.516  31.840  36.611  1.00  0.00    -0.258 OA
ENDBRANCH  16  18
ENDBRANCH  10  12
ENDBRANCH   7   8
ENDBRANCH   6   7
ENDBRANCH   5   6
ENDBRANCH   3   5
ENDBRANCH   2   3
ENDBRANCH   1   2
BRANCH   1  21
ATOM     21  C   UNL A   1      34.691  33.096  28.632  1.00  0.00     0.275 C 
BRANCH  21  22
ATOM     22  O   UNL A   1      34.825  32.259  27.469  1.00  0.00    -0.458 OA
BRANCH  22  23
ATOM     23  C   UNL A   1      34.575  30.946  27.684  1.00  0.00     0.338 C 
ATOM     24  O   UNL A   1      33.514  30.369  27.528  1.00  0.00    -0.246 OA
BRANCH  23  25
ATOM     25  C   UNL A   1      35.815  30.253  28.066  1.00  0.00     0.060 A 
ATOM     26  C   UNL A   1      35.892  29.671  29.330  1.00  0.00     0.016 A 
ATOM     27  C   UNL A   1      36.938  30.297  27.239  1.00  0.00     0.016 A 
ATOM     28  C   UNL A   1      37.110  29.188  29.799  1.00  0.00     0.010 A 
ATOM     29  C   UNL A   1      38.149  29.760  27.693  1.00  0.00     0.010 A 
ATOM     30  C   UNL A   1      38.257  29.235  28.991  1.00  0.00    -0.014 A 
BRANCH  30  31
ATOM     31  C   UNL A   1      39.545  28.725  29.535  1.00  0.00     0.031 A 
ATOM     32  C   UNL A   1      40.164  29.328  30.769  1.00  0.00     0.074 A 
ATOM     33  C   UNL A   1      40.149  27.684  28.930  1.00  0.00     0.049 A 
ATOM     34  N   UNL A   1      41.206  28.916  31.445  1.00  0.00    -0.248 NA
ATOM     35  C   UNL A   1      39.535  30.538  31.320  1.00  0.00     0.031 C 
ATOM     36  C   UNL A   1      39.680  27.038  27.702  1.00  0.00     0.029 A 
ATOM     37  N   UNL A   1      41.286  26.989  29.257  1.00  0.00    -0.354 N 
ATOM     38  C   UNL A   1      41.371  29.823  32.487  1.00  0.00     0.074 A 
ATOM     39  C   UNL A   1      40.334  30.820  32.341  1.00  0.00     0.031 C 
ATOM     40  C   UNL A   1      40.514  26.036  27.387  1.00  0.00     0.029 A 
ATOM     41  C   UNL A   1      41.589  25.981  28.372  1.00  0.00     0.049 A 
ATOM     42  H   UNL A   1      41.832  27.192  30.051  1.00  0.00     0.167 HD
ATOM     43  C   UNL A   1      42.273  29.803  33.499  1.00  0.00     0.034 A 
ATOM     44  C   UNL A   1      42.619  25.110  28.351  1.00  0.00     0.034 A 
ATOM     45  C   UNL A   1      43.272  28.783  33.674  1.00  0.00     0.049 A 
ATOM     46  C   UNL A   1      43.628  25.139  29.464  1.00  0.00     0.074 A 
ATOM     47  C   UNL A   1      44.129  28.590  34.745  1.00  0.00     0.029 A 
ATOM     48  N   UNL A   1      43.566  27.796  32.748  1.00  0.00    -0.354 N 
ATOM     49  N   UNL A   1      43.633  25.867  30.553  1.00  0.00    -0.248 NA
ATOM     50  C   UNL A   1      44.757  24.204  29.359  1.00  0.00     0.031 C 
ATOM     51  C   UNL A   1      44.954  27.495  34.455  1.00  0.00     0.029 A 
ATOM     52  C   UNL A   1      44.612  27.010  33.204  1.00  0.00     0.049 A 
ATOM     53  H   UNL A   1      43.099  27.672  31.890  1.00  0.00     0.167 HD
ATOM     54  C   UNL A   1      44.749  25.465  31.275  1.00  0.00     0.074 A 
ATOM     55  C   UNL A   1      45.383  24.410  30.510  1.00  0.00     0.031 C 
ATOM     56  C   UNL A   1      45.215  25.937  32.457  1.00  0.00     0.034 A 
BRANCH  43  57
ATOM     57  C   UNL A   1      42.163  30.872  34.556  1.00  0.00     0.023 A 
ATOM     58  C   UNL A   1      41.320  30.648  35.662  1.00  0.00     0.012 A 
ATOM     59  C   UNL A   1      42.930  32.051  34.503  1.00  0.00     0.148 A 
ATOM     60  C   UNL A   1      41.221  31.587  36.688  1.00  0.00     0.002 A 
ATOM     61  C   UNL A   1      42.848  32.971  35.545  1.00  0.00     0.091 A 
ATOM     62  F   UNL A   1      43.710  32.261  33.433  1.00  0.00    -0.205 F 
ATOM     63  C   UNL A   1      41.991  32.743  36.634  1.00  0.00     0.022 A 
BRANCH  61  64
ATOM     64  S   UNL A   1      43.851  34.463  35.588  1.00  0.00     0.127 S 
ATOM     65  O   UNL A   1      43.313  35.151  36.761  1.00  0.00    -0.237 OA
ATOM     66  O   UNL A   1      45.203  33.931  35.762  1.00  0.00    -0.237 OA
ATOM     67  O   UNL A   1      43.628  35.124  34.310  1.00  0.00    -0.744 OA
ENDBRANCH  61  64
ENDBRANCH  43  57
BRANCH  44  68
ATOM     68  C   UNL A   1      42.701  24.095  27.264  1.00  0.00     0.023 A 
ATOM     69  C   UNL A   1      43.536  24.337  26.156  1.00  0.00     0.012 A 
ATOM     70  C   UNL A   1      42.002  22.877  27.345  1.00  0.00     0.148 A 
ATOM     71  C   UNL A   1      43.662  23.388  25.142  1.00  0.00     0.002 A 
ATOM     72  C   UNL A   1      42.175  21.912  26.360  1.00  0.00     0.091 A 
ATOM     73  F   UNL A   1      41.187  22.676  28.391  1.00  0.00    -0.205 F 
ATOM     74  C   UNL A   1      42.996  22.169  25.251  1.00  0.00     0.022 A 
BRANCH  72  75
ATOM     75  S   UNL A   1      41.462  20.269  26.508  1.00  0.00     0.127 S 
ATOM     76  O   UNL A   1      41.930  19.857  27.828  1.00  0.00    -0.237 OA
ATOM     77  O   UNL A   1      40.028  20.544  26.420  1.00  0.00    -0.237 OA
ATOM     78  O   UNL A   1      41.993  19.521  25.376  1.00  0.00    -0.744 OA
ENDBRANCH  72  75
ENDBRANCH  44  68
BRANCH  56  79
ATOM     79  C   UNL A   1      46.478  25.320  32.996  1.00  0.00     0.023 A 
ATOM     80  C   UNL A   1      47.721  25.889  32.656  1.00  0.00     0.012 A 
ATOM     81  C   UNL A   1      46.441  24.211  33.861  1.00  0.00     0.148 A 
ATOM     82  C   UNL A   1      48.909  25.346  33.144  1.00  0.00     0.002 A 
ATOM     83  C   UNL A   1      47.628  23.697  34.375  1.00  0.00     0.091 A 
ATOM     84  F   UNL A   1      45.255  23.660  34.156  1.00  0.00    -0.205 F 
ATOM     85  C   UNL A   1      48.863  24.257  34.011  1.00  0.00     0.022 A 
BRANCH  83  86
ATOM     86  S   UNL A   1      47.621  22.345  35.558  1.00  0.00     0.127 S 
ATOM     87  O   UNL A   1      49.041  22.212  35.876  1.00  0.00    -0.237 OA
ATOM     88  O   UNL A   1      46.801  22.871  36.651  1.00  0.00    -0.237 OA
ATOM     89  O   UNL A   1      47.016  21.226  34.847  1.00  0.00    -0.744 OA
ENDBRANCH  83  86
ENDBRANCH  56  79
ENDBRANCH  30  31
ENDBRANCH  23  25
ENDBRANCH  22  23
ENDBRANCH  21  22
ENDBRANCH   1  21
TORSDOF 19
ENDMDL
MODEL 2
REMARK VINA RESULT:     -10.3      5.603     11.519
REMARK SMILES O=C(COCC(=O)OCCOC(=O)c1ccc(-c2c3nc(c(-c4cccc(S(=O)(=O)[O-])c4F)c4ccc([nH]4)c(-c4cccc(S(=O)(=O)[O-])c4F)c4nc(c(-c5cccc(S(=O)(=O)[O-])c5F)c5ccc2[nH]5)C=C4)C=C3)cc1)Nc1cccc([N+](=O)[O-])c1
REMARK SMILES IDX 9 1 8 2 6 3 7 4 5 5 4 6 3 7 2 8 1 9 77 10 78 12 79 13 86 14
REMARK SMILES IDX 80 15 82 16 81 17 83 18 84 19 85 20 10 21 11 22 12 23 13 24
REMARK SMILES IDX 14 25 15 26 76 27 16 28 75 29 17 30 18 31 19 32 69 33 20 34
REMARK SMILES IDX 74 35 68 36 70 37 21 38 73 39 67 40 66 41 22 43 54 44 34 45
REMARK SMILES IDX 53 46 35 47 38 48 52 49 71 50 36 51 37 52 51 54 72 55 39 56
REMARK SMILES IDX 23 57 24 58 32 59 25 60 27 61 33 62 26 63 28 64 29 65 30 66
REMARK SMILES IDX 31 67 55 68 56 69 64 70 57 71 59 72 65 73 58 74 60 75 61 76
REMARK SMILES IDX 62 77 63 78 40 79 41 80 49 81 42 82 44 83 50 84 43 85 45 86
REMARK SMILES IDX 46 87 47 88 48 89
REMARK H PARENT 77 11 70 42 38 53
REMARK Flexibility Score: inf
ROOT
ATOM      1  C   UNL A   1      35.925  20.526  25.104  1.00  0.00     0.274 C 
ENDROOT
BRANCH   1   2
ATOM      2  O   UNL A   1      35.378  21.598  25.899  1.00  0.00    -0.460 OA
BRANCH   2   3
ATOM      3  C   UNL A   1      34.196  21.316  26.504  1.00  0.00     0.332 C 
ATOM      4  O   UNL A   1      33.452  20.391  26.192  1.00  0.00    -0.250 OA
BRANCH   3   5
ATOM      5  C   UNL A   1      33.825  22.299  27.625  1.00  0.00     0.283 C 
BRANCH   5   6
ATOM      6  O   UNL A   1      32.521  22.695  27.994  1.00  0.00    -0.360 OA
BRANCH   6   7
ATOM      7  C   UNL A   1      31.618  22.968  26.935  1.00  0.00     0.261 C 
BRANCH   7   8
ATOM      8  C   UNL A   1      31.802  24.220  26.052  1.00  0.00     0.250 C 
ATOM      9  O   UNL A   1      32.453  24.149  25.015  1.00  0.00    -0.272 OA
ATOM     10  N   UNL A   1      31.182  25.355  26.544  1.00  0.00    -0.324 N 
ATOM     11  H   UNL A   1      30.663  25.248  27.373  1.00  0.00     0.170 HD
BRANCH  10  12
ATOM     12  C   UNL A   1      31.216  26.651  25.982  1.00  0.00     0.048 A 
ATOM     13  C   UNL A   1      31.870  27.655  26.711  1.00  0.00     0.026 A 
ATOM     14  C   UNL A   1      30.630  26.981  24.757  1.00  0.00     0.111 A 
ATOM     15  C   UNL A   1      31.961  28.963  26.219  1.00  0.00     0.009 A 
ATOM     16  C   UNL A   1      30.684  28.305  24.290  1.00  0.00     0.271 A 
ATOM     17  C   UNL A   1      31.364  29.295  25.006  1.00  0.00     0.086 A 
BRANCH  16  18
ATOM     18  N   UNL A   1      29.939  28.669  23.084  1.00  0.00     0.062 N 
ATOM     19  O   UNL A   1      30.297  28.155  22.016  1.00  0.00    -0.258 OA
ATOM     20  O   UNL A   1      29.047  29.524  23.191  1.00  0.00    -0.258 OA
ENDBRANCH  16  18
ENDBRANCH  10  12
ENDBRANCH   7   8
ENDBRANCH   6   7
ENDBRANCH   5   6
ENDBRANCH   3   5
ENDBRANCH   2   3
ENDBRANCH   1   2
BRANCH   1  21
ATOM     21  C   UNL A   1      37.441  20.643  24.934  1.00  0.00     0.275 C 
BRANCH  21  22
ATOM     22  O   UNL A   1      37.968  21.769  25.658  1.00  0.00    -0.458 OA
BRANCH  22  23
ATOM     23  C   UNL A   1      39.208  21.584  26.170  1.00  0.00     0.338 C 
ATOM     24  O   UNL A   1      39.895  20.583  26.078  1.00  0.00    -0.246 OA
BRANCH  23  25
ATOM     25  C   UNL A   1      39.678  22.823  26.809  1.00  0.00     0.060 A 
ATOM     26  C   UNL A   1      39.112  24.034  26.414  1.00  0.00     0.016 A 
ATOM     27  C   UNL A   1      40.762  22.803  27.686  1.00  0.00     0.016 A 
ATOM     28  C   UNL A   1      39.669  25.234  26.845  1.00  0.00     0.010 A 
ATOM     29  C   UNL A   1      41.286  24.012  28.162  1.00  0.00     0.010 A 
ATOM     30  C   UNL A   1      40.769  25.240  27.716  1.00  0.00    -0.014 A 
BRANCH  30  31
ATOM     31  C   UNL A   1      41.349  26.543  28.140  1.00  0.00     0.031 A 
ATOM     32  C   UNL A   1      42.784  26.891  27.846  1.00  0.00     0.074 A 
ATOM     33  C   UNL A   1      40.563  27.439  28.769  1.00  0.00     0.049 A 
ATOM     34  N   UNL A   1      43.403  28.031  28.027  1.00  0.00    -0.248 NA
ATOM     35  C   UNL A   1      43.633  25.837  27.271  1.00  0.00     0.031 C 
ATOM     36  C   UNL A   1      39.169  27.210  29.154  1.00  0.00     0.029 A 
ATOM     37  N   UNL A   1      40.821  28.717  29.198  1.00  0.00    -0.354 N 
ATOM     38  C   UNL A   1      44.714  27.828  27.608  1.00  0.00     0.074 A 
ATOM     39  C   UNL A   1      44.807  26.448  27.184  1.00  0.00     0.031 C 
ATOM     40  C   UNL A   1      38.692  28.312  29.752  1.00  0.00     0.029 A 
ATOM     41  C   UNL A   1      39.749  29.317  29.815  1.00  0.00     0.049 A 
ATOM     42  H   UNL A   1      41.691  29.161  29.075  1.00  0.00     0.167 HD
ATOM     43  C   UNL A   1      45.733  28.718  27.539  1.00  0.00     0.034 A 
ATOM     44  C   UNL A   1      39.627  30.538  30.374  1.00  0.00     0.034 A 
ATOM     45  C   UNL A   1      45.627  30.103  27.912  1.00  0.00     0.049 A 
ATOM     46  C   UNL A   1      40.789  31.490  30.321  1.00  0.00     0.074 A 
ATOM     47  C   UNL A   1      46.553  31.117  27.736  1.00  0.00     0.029 A 
ATOM     48  N   UNL A   1      44.538  30.668  28.555  1.00  0.00    -0.354 N 
ATOM     49  N   UNL A   1      41.945  31.345  29.722  1.00  0.00    -0.248 NA
ATOM     50  C   UNL A   1      40.617  32.785  30.993  1.00  0.00     0.031 C 
ATOM     51  C   UNL A   1      46.029  32.292  28.291  1.00  0.00     0.029 A 
ATOM     52  C   UNL A   1      44.779  32.007  28.814  1.00  0.00     0.049 A 
ATOM     53  H   UNL A   1      43.713  30.186  28.793  1.00  0.00     0.167 HD
ATOM     54  C   UNL A   1      42.631  32.536  29.926  1.00  0.00     0.074 A 
ATOM     55  C   UNL A   1      41.749  33.402  30.681  1.00  0.00     0.031 C 
ATOM     56  C   UNL A   1      43.883  32.875  29.534  1.00  0.00     0.034 A 
BRANCH  43  57
ATOM     57  C   UNL A   1      47.038  28.244  26.951  1.00  0.00     0.023 A 
ATOM     58  C   UNL A   1      48.099  27.929  27.822  1.00  0.00     0.012 A 
ATOM     59  C   UNL A   1      47.200  28.043  25.568  1.00  0.00     0.148 A 
ATOM     60  C   UNL A   1      49.309  27.443  27.330  1.00  0.00     0.002 A 
ATOM     61  C   UNL A   1      48.402  27.531  25.084  1.00  0.00     0.091 A 
ATOM     62  F   UNL A   1      46.191  28.369  24.748  1.00  0.00    -0.205 F 
ATOM     63  C   UNL A   1      49.458  27.236  25.963  1.00  0.00     0.022 A 
BRANCH  61  64
ATOM     64  S   UNL A   1      48.661  27.174  23.341  1.00  0.00     0.127 S 
ATOM     65  O   UNL A   1      50.120  27.148  23.255  1.00  0.00    -0.237 OA
ATOM     66  O   UNL A   1      48.019  25.868  23.186  1.00  0.00    -0.237 OA
ATOM     67  O   UNL A   1      48.004  28.254  22.618  1.00  0.00    -0.744 OA
ENDBRANCH  61  64
ENDBRANCH  43  57
BRANCH  44  68
ATOM     68  C   UNL A   1      38.327  30.946  30.975  1.00  0.00     0.023 A 
ATOM     69  C   UNL A   1      38.101  30.727  32.348  1.00  0.00     0.012 A 
ATOM     70  C   UNL A   1      37.337  31.592  30.210  1.00  0.00     0.148 A 
ATOM     71  C   UNL A   1      36.908  31.134  32.945  1.00  0.00     0.002 A 
ATOM     72  C   UNL A   1      36.174  32.044  30.822  1.00  0.00     0.091 A 
ATOM     73  F   UNL A   1      37.555  31.764  28.898  1.00  0.00    -0.205 F 
ATOM     74  C   UNL A   1      35.952  31.806  32.187  1.00  0.00     0.022 A 
BRANCH  72  75
ATOM     75  S   UNL A   1      34.967  33.041  29.941  1.00  0.00     0.127 S 
ATOM     76  O   UNL A   1      34.391  32.069  29.017  1.00  0.00    -0.237 OA
ATOM     77  O   UNL A   1      34.075  33.473  31.017  1.00  0.00    -0.237 OA
ATOM     78  O   UNL A   1      35.736  34.123  29.338  1.00  0.00    -0.744 OA
ENDBRANCH  72  75
ENDBRANCH  44  68
BRANCH  56  79
ATOM     79  C   UNL A   1      44.379  34.243  29.921  1.00  0.00     0.023 A 
ATOM     80  C   UNL A   1      45.142  34.390  31.097  1.00  0.00     0.012 A 
ATOM     81  C   UNL A   1      44.130  35.370  29.116  1.00  0.00     0.148 A 
ATOM     82  C   UNL A   1      45.623  35.641  31.480  1.00  0.00     0.002 A 
ATOM     83  C   UNL A   1      44.645  36.609  29.485  1.00  0.00     0.091 A 
ATOM     84  F   UNL A   1      43.380  35.223  28.014  1.00  0.00    -0.205 F 
ATOM     85  C   UNL A   1      45.383  36.748  30.671  1.00  0.00     0.022 A 
BRANCH  83  86
ATOM     86  S   UNL A   1      44.433  38.053  28.438  1.00  0.00     0.127 S 
ATOM     87  O   UNL A   1      45.279  39.039  29.106  1.00  0.00    -0.237 OA
ATOM     88  O   UNL A   1      44.940  37.595  27.143  1.00  0.00    -0.237 OA
ATOM     89  O   UNL A   1      43.001  38.322  28.453  1.00  0.00    -0.744 OA
ENDBRANCH  83  86
ENDBRANCH  56  79
ENDBRANCH  30  31
ENDBRANCH  23  25
ENDBRANCH  22  23
ENDBRANCH  21  22
ENDBRANCH   1  21
TORSDOF 19
ENDMDL
MODEL 3
REMARK VINA RESULT:     -10.2      4.205      7.211
REMARK SMILES O=C(COCC(=O)OCCOC(=O)c1ccc(-c2c3nc(c(-c4cccc(S(=O)(=O)[O-])c4F)c4ccc([nH]4)c(-c4cccc(S(=O)(=O)[O-])c4F)c4nc(c(-c5cccc(S(=O)(=O)[O-])c5F)c5ccc2[nH]5)C=C4)C=C3)cc1)Nc1cccc([N+](=O)[O-])c1
REMARK SMILES IDX 9 1 8 2 6 3 7 4 5 5 4 6 3 7 2 8 1 9 77 10 78 12 79 13 86 14
REMARK SMILES IDX 80 15 82 16 81 17 83 18 84 19 85 20 10 21 11 22 12 23 13 24
REMARK SMILES IDX 14 25 15 26 76 27 16 28 75 29 17 30 18 31 19 32 69 33 20 34
REMARK SMILES IDX 74 35 68 36 70 37 21 38 73 39 67 40 66 41 22 43 54 44 34 45
REMARK SMILES IDX 53 46 35 47 38 48 52 49 71 50 36 51 37 52 51 54 72 55 39 56
REMARK SMILES IDX 23 57 24 58 32 59 25 60 27 61 33 62 26 63 28 64 29 65 30 66
REMARK SMILES IDX 31 67 55 68 56 69 64 70 57 71 59 72 65 73 58 74 60 75 61 76
REMARK SMILES IDX 62 77 63 78 40 79 41 80 49 81 42 82 44 83 50 84 43 85 45 86
REMARK SMILES IDX 46 87 47 88 48 89
REMARK H PARENT 77 11 70 42 38 53
REMARK Flexibility Score: inf
ROOT
ATOM      1  C   UNL A   1      31.256  29.641  24.733  1.00  0.00     0.274 C 
ENDROOT
BRANCH   1   2
ATOM      2  O   UNL A   1      30.141  29.841  23.840  1.00  0.00    -0.460 OA
BRANCH   2   3
ATOM      3  C   UNL A   1      30.013  28.902  22.867  1.00  0.00     0.332 C 
ATOM      4  O   UNL A   1      29.904  29.145  21.669  1.00  0.00    -0.250 OA
BRANCH   3   5
ATOM      5  C   UNL A   1      29.974  27.462  23.400  1.00  0.00     0.283 C 
BRANCH   5   6
ATOM      6  O   UNL A   1      30.936  26.455  23.162  1.00  0.00    -0.360 OA
BRANCH   6   7
ATOM      7  C   UNL A   1      30.535  25.122  23.426  1.00  0.00     0.261 C 
BRANCH   7   8
ATOM      8  C   UNL A   1      31.426  24.187  24.271  1.00  0.00     0.250 C 
ATOM      9  O   UNL A   1      31.518  24.358  25.483  1.00  0.00    -0.272 OA
ATOM     10  N   UNL A   1      32.064  23.201  23.541  1.00  0.00    -0.324 N 
ATOM     11  H   UNL A   1      31.863  23.167  22.578  1.00  0.00     0.170 HD
BRANCH  10  12
ATOM     12  C   UNL A   1      32.975  22.237  24.031  1.00  0.00     0.048 A 
ATOM     13  C   UNL A   1      34.301  22.645  24.234  1.00  0.00     0.026 A 
ATOM     14  C   UNL A   1      32.627  20.913  24.308  1.00  0.00     0.111 A 
ATOM     15  C   UNL A   1      35.262  21.756  24.730  1.00  0.00     0.009 A 
ATOM     16  C   UNL A   1      33.605  20.013  24.761  1.00  0.00     0.271 A 
ATOM     17  C   UNL A   1      34.919  20.432  24.993  1.00  0.00     0.086 A 
BRANCH  16  18
ATOM     18  N   UNL A   1      33.265  18.597  24.903  1.00  0.00     0.062 N 
ATOM     19  O   UNL A   1      34.080  17.769  24.473  1.00  0.00    -0.258 OA
ATOM     20  O   UNL A   1      32.153  18.313  25.374  1.00  0.00    -0.258 OA
ENDBRANCH  16  18
ENDBRANCH  10  12
ENDBRANCH   7   8
ENDBRANCH   6   7
ENDBRANCH   5   6
ENDBRANCH   3   5
ENDBRANCH   2   3
ENDBRANCH   1   2
BRANCH   1  21
ATOM     21  C   UNL A   1      31.407  30.784  25.738  1.00  0.00     0.275 C 
BRANCH  21  22
ATOM     22  O   UNL A   1      32.463  30.522  26.680  1.00  0.00    -0.458 OA
BRANCH  22  23
ATOM     23  C   UNL A   1      33.075  31.627  27.168  1.00  0.00     0.338 C 
ATOM     24  O   UNL A   1      32.603  32.746  27.255  1.00  0.00    -0.246 OA
BRANCH  23  25
ATOM     25  C   UNL A   1      34.409  31.279  27.679  1.00  0.00     0.060 A 
ATOM     26  C   UNL A   1      34.685  29.944  27.972  1.00  0.00     0.016 A 
ATOM     27  C   UNL A   1      35.332  32.276  27.995  1.00  0.00     0.016 A 
ATOM     28  C   UNL A   1      35.857  29.608  28.643  1.00  0.00     0.010 A 
ATOM     29  C   UNL A   1      36.536  31.927  28.622  1.00  0.00     0.010 A 
ATOM     30  C   UNL A   1      36.793  30.595  28.986  1.00  0.00    -0.014 A 
BRANCH  30  31
ATOM     31  C   UNL A   1      38.025  30.199  29.719  1.00  0.00     0.031 A 
ATOM     32  C   UNL A   1      38.298  30.698  31.114  1.00  0.00     0.074 A 
ATOM     33  C   UNL A   1      38.895  29.351  29.135  1.00  0.00     0.049 A 
ATOM     34  N   UNL A   1      39.253  30.344  31.937  1.00  0.00    -0.248 NA
ATOM     35  C   UNL A   1      37.387  31.715  31.659  1.00  0.00     0.031 C 
ATOM     36  C   UNL A   1      38.774  28.829  27.772  1.00  0.00     0.029 A 
ATOM     37  N   UNL A   1      40.052  28.783  29.607  1.00  0.00    -0.354 N 
ATOM     38  C   UNL A   1      39.070  31.105  33.088  1.00  0.00     0.074 A 
ATOM     39  C   UNL A   1      37.926  31.956  32.847  1.00  0.00     0.031 C 
ATOM     40  C   UNL A   1      39.806  28.011  27.523  1.00  0.00     0.029 A 
ATOM     41  C   UNL A   1      40.676  27.966  28.693  1.00  0.00     0.049 A 
ATOM     42  H   UNL A   1      40.401  28.945  30.513  1.00  0.00     0.167 HD
ATOM     43  C   UNL A   1      39.760  31.066  34.253  1.00  0.00     0.034 A 
ATOM     44  C   UNL A   1      41.822  27.261  28.784  1.00  0.00     0.034 A 
ATOM     45  C   UNL A   1      40.866  30.183  34.511  1.00  0.00     0.049 A 
ATOM     46  C   UNL A   1      42.590  27.270  30.075  1.00  0.00     0.074 A 
ATOM     47  C   UNL A   1      41.531  29.959  35.705  1.00  0.00     0.029 A 
ATOM     48  N   UNL A   1      41.485  29.390  33.558  1.00  0.00    -0.354 N 
ATOM     49  N   UNL A   1      42.274  27.827  31.218  1.00  0.00    -0.248 NA
ATOM     50  C   UNL A   1      43.859  26.528  30.097  1.00  0.00     0.031 C 
ATOM     51  C   UNL A   1      42.565  29.044  35.467  1.00  0.00     0.029 A 
ATOM     52  C   UNL A   1      42.545  28.701  34.125  1.00  0.00     0.049 A 
ATOM     53  H   UNL A   1      41.211  29.327  32.614  1.00  0.00     0.167 HD
ATOM     54  C   UNL A   1      43.290  27.486  32.101  1.00  0.00     0.074 A 
ATOM     55  C   UNL A   1      44.220  26.652  31.367  1.00  0.00     0.031 C 
ATOM     56  C   UNL A   1      43.445  27.844  33.400  1.00  0.00     0.034 A 
BRANCH  43  57
ATOM     57  C   UNL A   1      39.283  31.945  35.380  1.00  0.00     0.023 A 
ATOM     58  C   UNL A   1      38.362  31.419  36.307  1.00  0.00     0.012 A 
ATOM     59  C   UNL A   1      39.782  33.247  35.570  1.00  0.00     0.148 A 
ATOM     60  C   UNL A   1      37.926  32.177  37.393  1.00  0.00     0.002 A 
ATOM     61  C   UNL A   1      39.364  33.989  36.672  1.00  0.00     0.091 A 
ATOM     62  F   UNL A   1      40.639  33.744  34.667  1.00  0.00    -0.205 F 
ATOM     63  C   UNL A   1      38.433  33.458  37.580  1.00  0.00     0.022 A 
BRANCH  61  64
ATOM     64  S   UNL A   1      40.012  35.629  37.026  1.00  0.00     0.127 S 
ATOM     65  O   UNL A   1      39.331  35.955  38.278  1.00  0.00    -0.237 OA
ATOM     66  O   UNL A   1      41.447  35.380  37.161  1.00  0.00    -0.237 OA
ATOM     67  O   UNL A   1      39.652  36.450  35.878  1.00  0.00    -0.744 OA
ENDBRANCH  61  64
ENDBRANCH  43  57
BRANCH  44  68
ATOM     68  C   UNL A   1      42.271  26.435  27.628  1.00  0.00     0.023 A 
ATOM     69  C   UNL A   1      43.159  26.990  26.687  1.00  0.00     0.012 A 
ATOM     70  C   UNL A   1      41.865  25.095  27.483  1.00  0.00     0.148 A 
ATOM     71  C   UNL A   1      43.625  26.228  25.616  1.00  0.00     0.002 A 
ATOM     72  C   UNL A   1      42.377  24.325  26.447  1.00  0.00     0.091 A 
ATOM     73  F   UNL A   1      40.994  24.593  28.371  1.00  0.00    -0.205 F 
ATOM     74  C   UNL A   1      43.248  24.892  25.504  1.00  0.00     0.022 A 
BRANCH  72  75
ATOM     75  S   UNL A   1      42.048  22.562  26.326  1.00  0.00     0.127 S 
ATOM     76  O   UNL A   1      40.589  22.532  26.269  1.00  0.00    -0.237 OA
ATOM     77  O   UNL A   1      42.721  22.206  25.077  1.00  0.00    -0.237 OA
ATOM     78  O   UNL A   1      42.656  21.980  27.515  1.00  0.00    -0.744 OA
ENDBRANCH  72  75
ENDBRANCH  44  68
BRANCH  56  79
ATOM     79  C   UNL A   1      44.672  27.338  34.111  1.00  0.00     0.023 A 
ATOM     80  C   UNL A   1      45.844  28.121  34.100  1.00  0.00     0.012 A 
ATOM     81  C   UNL A   1      44.662  26.121  34.817  1.00  0.00     0.148 A 
ATOM     82  C   UNL A   1      46.995  27.685  34.756  1.00  0.00     0.002 A 
ATOM     83  C   UNL A   1      45.803  25.711  35.501  1.00  0.00     0.091 A 
ATOM     84  F   UNL A   1      43.550  25.372  34.798  1.00  0.00    -0.205 F 
ATOM     85  C   UNL A   1      46.972  26.486  35.463  1.00  0.00     0.022 A 
BRANCH  83  86
ATOM     86  S   UNL A   1      45.804  24.214  36.494  1.00  0.00     0.127 S 
ATOM     87  O   UNL A   1      44.689  24.455  37.407  1.00  0.00    -0.237 OA
ATOM     88  O   UNL A   1      45.561  23.164  35.502  1.00  0.00    -0.237 OA
ATOM     89  O   UNL A   1      47.129  24.164  37.099  1.00  0.00    -0.744 OA
ENDBRANCH  83  86
ENDBRANCH  56  79
ENDBRANCH  30  31
ENDBRANCH  23  25
ENDBRANCH  22  23
ENDBRANCH  21  22
ENDBRANCH   1  21
TORSDOF 19
ENDMDL
