MODEL 1
REMARK VINA RESULT:     -12.1      0.000      0.000
REMARK SMILES Cc1cscc1-c1ncc(C(=O)OCCOC(=O)c2ccc(-c3c4nc(c(-c5cccc(S(=O)(=O)[O-])c5F)c5ccc([nH]5)c(-c5cccc(S(=O)(=O)[O-])c5F)c5nc(c(-c6cccc(S(=O)(=O)[O-])c6F)c6ccc3[nH]6)C=C5)C=C4)cc2)c(=O)[nH]1
REMARK SMILES IDX 15 1 14 2 13 3 11 4 12 5 10 6 7 7 8 8 84 9 9 10 82 11 83 13
REMARK SMILES IDX 6 14 1 15 2 16 3 17 4 18 5 19 16 20 17 21 18 22 19 23 20 24
REMARK SMILES IDX 81 25 21 26 80 27 22 28 23 29 24 30 74 31 25 32 79 33 73 34
REMARK SMILES IDX 75 35 26 36 78 37 72 38 71 39 27 41 59 42 39 43 58 44 40 45
REMARK SMILES IDX 43 46 57 47 76 48 41 49 42 50 56 52 77 53 44 54 28 55 29 56
REMARK SMILES IDX 37 57 30 58 32 59 38 60 31 61 33 62 34 63 35 64 36 65 60 66
REMARK SMILES IDX 61 67 69 68 62 69 64 70 70 71 63 72 65 73 66 74 67 75 68 76
REMARK SMILES IDX 45 77 46 78 54 79 47 80 49 81 55 82 48 83 50 84 51 85 52 86
REMARK SMILES IDX 53 87
REMARK H PARENT 84 12 75 40 43 51
REMARK Flexibility Score: inf
ROOT
ATOM      1  C   UNL A   1      36.080  21.183  24.628  1.00  0.00     0.275 C 
ENDROOT
BRANCH   1   2
ATOM      2  C   UNL A   1      34.861  20.359  25.036  1.00  0.00     0.275 C 
BRANCH   2   3
ATOM      3  O   UNL A   1      33.708  21.206  25.232  1.00  0.00    -0.458 OA
BRANCH   3   4
ATOM      4  C   UNL A   1      33.638  21.833  26.431  1.00  0.00     0.345 C 
ATOM      5  O   UNL A   1      33.983  21.363  27.506  1.00  0.00    -0.246 OA
BRANCH   4   6
ATOM      6  C   UNL A   1      33.173  23.219  26.291  1.00  0.00     0.143 A 
ATOM      7  C   UNL A   1      32.643  25.892  26.104  1.00  0.00     0.141 A 
ATOM      8  N   UNL A   1      33.787  25.472  25.683  1.00  0.00    -0.237 NA
ATOM      9  N   UNL A   1      31.675  25.068  26.609  1.00  0.00    -0.306 N 
ATOM     10  C   UNL A   1      34.037  24.134  25.828  1.00  0.00     0.135 A 
ATOM     11  C   UNL A   1      31.852  23.712  26.714  1.00  0.00     0.265 A 
ATOM     12  H   UNL A   1      30.822  25.461  26.908  1.00  0.00     0.171 HD
ATOM     13  O   UNL A   1      30.980  22.990  27.183  1.00  0.00    -0.269 OA
BRANCH   7  14
ATOM     14  C   UNL A   1      32.375  27.317  26.075  1.00  0.00     0.031 A 
ATOM     15  C   UNL A   1      30.543  27.320  24.219  1.00  0.00     0.046 C 
ATOM     16  C   UNL A   1      31.451  27.999  25.196  1.00  0.00    -0.029 A 
ATOM     17  C   UNL A   1      31.521  29.370  25.364  1.00  0.00     0.069 A 
ATOM     18  S   UNL A   1      32.643  29.837  26.561  1.00  0.00    -0.151 S 
ATOM     19  C   UNL A   1      33.071  28.214  26.866  1.00  0.00     0.077 A 
ENDBRANCH   7  14
ENDBRANCH   4   6
ENDBRANCH   3   4
ENDBRANCH   2   3
ENDBRANCH   1   2
BRANCH   1  20
ATOM     20  O   UNL A   1      36.817  21.570  25.798  1.00  0.00    -0.458 OA
BRANCH  20  21
ATOM     21  C   UNL A   1      38.147  21.320  25.774  1.00  0.00     0.338 C 
ATOM     22  O   UNL A   1      38.707  20.321  25.357  1.00  0.00    -0.246 OA
BRANCH  21  23
ATOM     23  C   UNL A   1      38.870  22.483  26.314  1.00  0.00     0.060 A 
ATOM     24  C   UNL A   1      38.389  23.764  26.062  1.00  0.00     0.016 A 
ATOM     25  C   UNL A   1      40.079  22.309  26.985  1.00  0.00     0.016 A 
ATOM     26  C   UNL A   1      39.157  24.880  26.387  1.00  0.00     0.010 A 
ATOM     27  C   UNL A   1      40.789  23.433  27.422  1.00  0.00     0.010 A 
ATOM     28  C   UNL A   1      40.354  24.734  27.104  1.00  0.00    -0.014 A 
BRANCH  28  29
ATOM     29  C   UNL A   1      41.140  25.927  27.534  1.00  0.00     0.031 A 
ATOM     30  C   UNL A   1      40.515  26.976  28.417  1.00  0.00     0.074 A 
ATOM     31  C   UNL A   1      42.410  26.092  27.108  1.00  0.00     0.049 A 
ATOM     32  N   UNL A   1      40.960  28.166  28.729  1.00  0.00    -0.248 NA
ATOM     33  C   UNL A   1      39.211  26.651  29.019  1.00  0.00     0.031 C 
ATOM     34  C   UNL A   1      43.152  25.152  26.266  1.00  0.00     0.029 A 
ATOM     35  N   UNL A   1      43.301  27.117  27.317  1.00  0.00    -0.354 N 
ATOM     36  C   UNL A   1      39.963  28.760  29.494  1.00  0.00     0.074 A 
ATOM     37  C   UNL A   1      38.891  27.793  29.611  1.00  0.00     0.031 C 
ATOM     38  C   UNL A   1      44.390  25.621  26.059  1.00  0.00     0.029 A 
ATOM     39  C   UNL A   1      44.504  26.939  26.671  1.00  0.00     0.049 A 
ATOM     40  H   UNL A   1      43.101  27.902  27.874  1.00  0.00     0.167 HD
ATOM     41  C   UNL A   1      39.944  29.991  30.059  1.00  0.00     0.034 A 
ATOM     42  C   UNL A   1      45.566  27.758  26.539  1.00  0.00     0.034 A 
ATOM     43  C   UNL A   1      41.042  30.920  30.009  1.00  0.00     0.049 A 
ATOM     44  C   UNL A   1      45.513  29.127  27.155  1.00  0.00     0.074 A 
ATOM     45  C   UNL A   1      41.138  32.172  30.592  1.00  0.00     0.029 A 
ATOM     46  N   UNL A   1      42.242  30.695  29.351  1.00  0.00    -0.354 N 
ATOM     47  N   UNL A   1      44.576  29.657  27.901  1.00  0.00    -0.248 NA
ATOM     48  C   UNL A   1      46.660  30.011  26.905  1.00  0.00     0.031 C 
ATOM     49  C   UNL A   1      42.393  32.707  30.277  1.00  0.00     0.029 A 
ATOM     50  C   UNL A   1      43.080  31.785  29.504  1.00  0.00     0.049 A 
ATOM     51  H   UNL A   1      42.464  29.878  28.847  1.00  0.00     0.167 HD
ATOM     52  C   UNL A   1      45.021  30.935  28.217  1.00  0.00     0.074 A 
ATOM     53  C   UNL A   1      46.328  31.087  27.608  1.00  0.00     0.031 C 
ATOM     54  C   UNL A   1      44.393  31.905  28.926  1.00  0.00     0.034 A 
BRANCH  41  55
ATOM     55  C   UNL A   1      38.705  30.398  30.812  1.00  0.00     0.023 A 
ATOM     56  C   UNL A   1      38.578  30.069  32.176  1.00  0.00     0.012 A 
ATOM     57  C   UNL A   1      37.689  31.146  30.185  1.00  0.00     0.148 A 
ATOM     58  C   UNL A   1      37.446  30.451  32.897  1.00  0.00     0.002 A 
ATOM     59  C   UNL A   1      36.580  31.555  30.919  1.00  0.00     0.091 A 
ATOM     60  F   UNL A   1      37.811  31.429  28.879  1.00  0.00    -0.205 F 
ATOM     61  C   UNL A   1      36.453  31.202  32.272  1.00  0.00     0.022 A 
BRANCH  59  62
ATOM     62  S   UNL A   1      35.288  32.582  30.207  1.00  0.00     0.127 S 
ATOM     63  O   UNL A   1      34.393  32.766  31.348  1.00  0.00    -0.237 OA
ATOM     64  O   UNL A   1      36.023  33.784  29.811  1.00  0.00    -0.237 OA
ATOM     65  O   UNL A   1      34.748  31.816  29.092  1.00  0.00    -0.744 OA
ENDBRANCH  59  62
ENDBRANCH  41  55
BRANCH  42  66
ATOM     66  C   UNL A   1      46.772  27.290  25.797  1.00  0.00     0.023 A 
ATOM     67  C   UNL A   1      47.601  26.315  26.383  1.00  0.00     0.012 A 
ATOM     68  C   UNL A   1      47.064  27.748  24.497  1.00  0.00     0.148 A 
ATOM     69  C   UNL A   1      48.700  25.807  25.688  1.00  0.00     0.002 A 
ATOM     70  C   UNL A   1      48.123  27.193  23.787  1.00  0.00     0.091 A 
ATOM     71  F   UNL A   1      46.282  28.700  23.967  1.00  0.00    -0.205 F 
ATOM     72  C   UNL A   1      48.950  26.231  24.386  1.00  0.00     0.022 A 
BRANCH  70  73
ATOM     73  S   UNL A   1      48.414  27.573  22.056  1.00  0.00     0.127 S 
ATOM     74  O   UNL A   1      49.589  28.438  22.132  1.00  0.00    -0.237 OA
ATOM     75  O   UNL A   1      48.660  26.248  21.486  1.00  0.00    -0.237 OA
ATOM     76  O   UNL A   1      47.187  28.204  21.586  1.00  0.00    -0.744 OA
ENDBRANCH  70  73
ENDBRANCH  42  66
BRANCH  54  77
ATOM     77  C   UNL A   1      45.108  33.219  29.083  1.00  0.00     0.023 A 
ATOM     78  C   UNL A   1      45.928  33.426  30.211  1.00  0.00     0.012 A 
ATOM     79  C   UNL A   1      45.031  34.213  28.088  1.00  0.00     0.148 A 
ATOM     80  C   UNL A   1      46.645  34.613  30.356  1.00  0.00     0.002 A 
ATOM     81  C   UNL A   1      45.778  35.378  28.222  1.00  0.00     0.091 A 
ATOM     82  F   UNL A   1      44.230  34.001  27.035  1.00  0.00    -0.205 F 
ATOM     83  C   UNL A   1      46.579  35.582  29.358  1.00  0.00     0.022 A 
BRANCH  81  84
ATOM     84  S   UNL A   1      45.818  36.648  26.953  1.00  0.00     0.127 S 
ATOM     85  O   UNL A   1      46.346  35.910  25.808  1.00  0.00    -0.237 OA
ATOM     86  O   UNL A   1      44.407  37.020  26.842  1.00  0.00    -0.237 OA
ATOM     87  O   UNL A   1      46.680  37.703  27.468  1.00  0.00    -0.744 OA
ENDBRANCH  81  84
ENDBRANCH  54  77
ENDBRANCH  28  29
ENDBRANCH  21  23
ENDBRANCH  20  21
ENDBRANCH   1  20
TORSDOF 15
ENDMDL
MODEL 2
REMARK VINA RESULT:     -12.0      5.472     10.312
REMARK SMILES Cc1cscc1-c1ncc(C(=O)OCCOC(=O)c2ccc(-c3c4nc(c(-c5cccc(S(=O)(=O)[O-])c5F)c5ccc([nH]5)c(-c5cccc(S(=O)(=O)[O-])c5F)c5nc(c(-c6cccc(S(=O)(=O)[O-])c6F)c6ccc3[nH]6)C=C5)C=C4)cc2)c(=O)[nH]1
REMARK SMILES IDX 15 1 14 2 13 3 11 4 12 5 10 6 7 7 8 8 84 9 9 10 82 11 83 13
REMARK SMILES IDX 6 14 1 15 2 16 3 17 4 18 5 19 16 20 17 21 18 22 19 23 20 24
REMARK SMILES IDX 81 25 21 26 80 27 22 28 23 29 24 30 74 31 25 32 79 33 73 34
REMARK SMILES IDX 75 35 26 36 78 37 72 38 71 39 27 41 59 42 39 43 58 44 40 45
REMARK SMILES IDX 43 46 57 47 76 48 41 49 42 50 56 52 77 53 44 54 28 55 29 56
REMARK SMILES IDX 37 57 30 58 32 59 38 60 31 61 33 62 34 63 35 64 36 65 60 66
REMARK SMILES IDX 61 67 69 68 62 69 64 70 70 71 63 72 65 73 66 74 67 75 68 76
REMARK SMILES IDX 45 77 46 78 54 79 47 80 49 81 55 82 48 83 50 84 51 85 52 86
REMARK SMILES IDX 53 87
REMARK H PARENT 84 12 75 40 43 51
REMARK Flexibility Score: inf
ROOT
ATOM      1  C   UNL A   1      31.831  29.394  25.805  1.00  0.00     0.275 C 
ENDROOT
BRANCH   1   2
ATOM      2  C   UNL A   1      31.140  29.312  24.445  1.00  0.00     0.275 C 
BRANCH   2   3
ATOM      3  O   UNL A   1      31.423  28.053  23.798  1.00  0.00    -0.458 OA
BRANCH   3   4
ATOM      4  C   UNL A   1      32.628  27.967  23.184  1.00  0.00     0.345 C 
ATOM      5  O   UNL A   1      33.198  28.874  22.595  1.00  0.00    -0.246 OA
BRANCH   4   6
ATOM      6  C   UNL A   1      33.244  26.648  23.384  1.00  0.00     0.143 A 
ATOM      7  C   UNL A   1      34.586  24.353  24.005  1.00  0.00     0.141 A 
ATOM      8  N   UNL A   1      34.302  25.165  24.965  1.00  0.00    -0.237 NA
ATOM      9  N   UNL A   1      34.227  24.566  22.703  1.00  0.00    -0.306 N 
ATOM     10  C   UNL A   1      33.665  26.324  24.615  1.00  0.00     0.135 A 
ATOM     11  C   UNL A   1      33.531  25.680  22.311  1.00  0.00     0.265 A 
ATOM     12  H   UNL A   1      34.477  23.898  22.024  1.00  0.00     0.171 HD
ATOM     13  O   UNL A   1      33.230  25.864  21.137  1.00  0.00    -0.269 OA
BRANCH   7  14
ATOM     14  C   UNL A   1      35.361  23.164  24.311  1.00  0.00     0.031 A 
ATOM     15  C   UNL A   1      33.400  21.446  24.383  1.00  0.00     0.046 C 
ATOM     16  C   UNL A   1      34.838  21.834  24.528  1.00  0.00    -0.029 A 
ATOM     17  C   UNL A   1      35.841  20.958  24.903  1.00  0.00     0.069 A 
ATOM     18  S   UNL A   1      37.378  21.696  24.969  1.00  0.00    -0.151 S 
ATOM     19  C   UNL A   1      36.728  23.208  24.515  1.00  0.00     0.077 A 
ENDBRANCH   7  14
ENDBRANCH   4   6
ENDBRANCH   3   4
ENDBRANCH   2   3
ENDBRANCH   1   2
BRANCH   1  20
ATOM     20  O   UNL A   1      32.945  30.297  25.728  1.00  0.00    -0.458 OA
BRANCH  20  21
ATOM     21  C   UNL A   1      33.100  31.141  26.775  1.00  0.00     0.338 C 
ATOM     22  O   UNL A   1      32.309  31.975  27.180  1.00  0.00    -0.246 OA
BRANCH  21  23
ATOM     23  C   UNL A   1      34.401  30.886  27.416  1.00  0.00     0.060 A 
ATOM     24  C   UNL A   1      34.740  29.587  27.782  1.00  0.00     0.016 A 
ATOM     25  C   UNL A   1      35.242  31.947  27.744  1.00  0.00     0.016 A 
ATOM     26  C   UNL A   1      35.867  29.349  28.565  1.00  0.00     0.010 A 
ATOM     27  C   UNL A   1      36.439  31.690  28.423  1.00  0.00     0.010 A 
ATOM     28  C   UNL A   1      36.754  30.393  28.869  1.00  0.00    -0.014 A 
BRANCH  28  29
ATOM     29  C   UNL A   1      38.010  30.133  29.632  1.00  0.00     0.031 A 
ATOM     30  C   UNL A   1      39.104  29.284  29.037  1.00  0.00     0.074 A 
ATOM     31  C   UNL A   1      38.162  30.631  30.876  1.00  0.00     0.049 A 
ATOM     32  N   UNL A   1      40.167  28.784  29.612  1.00  0.00    -0.248 NA
ATOM     33  C   UNL A   1      38.980  28.940  27.611  1.00  0.00     0.031 C 
ATOM     34  C   UNL A   1      37.198  31.485  31.573  1.00  0.00     0.029 A 
ATOM     35  N   UNL A   1      39.184  30.485  31.784  1.00  0.00    -0.354 N 
ATOM     36  C   UNL A   1      40.795  28.006  28.646  1.00  0.00     0.074 A 
ATOM     37  C   UNL A   1      39.999  28.109  27.441  1.00  0.00     0.031 C 
ATOM     38  C   UNL A   1      37.685  31.814  32.777  1.00  0.00     0.029 A 
ATOM     39  C   UNL A   1      38.950  31.121  32.982  1.00  0.00     0.049 A 
ATOM     40  H   UNL A   1      40.005  29.975  31.596  1.00  0.00     0.167 HD
ATOM     41  C   UNL A   1      41.935  27.281  28.748  1.00  0.00     0.034 A 
ATOM     42  C   UNL A   1      39.646  31.115  34.137  1.00  0.00     0.034 A 
ATOM     43  C   UNL A   1      42.767  27.243  29.921  1.00  0.00     0.049 A 
ATOM     44  C   UNL A   1      40.895  30.287  34.232  1.00  0.00     0.074 A 
ATOM     45  C   UNL A   1      43.967  26.578  30.105  1.00  0.00     0.029 A 
ATOM     46  N   UNL A   1      42.495  27.908  31.107  1.00  0.00    -0.354 N 
ATOM     47  N   UNL A   1      41.489  29.584  33.300  1.00  0.00    -0.248 NA
ATOM     48  C   UNL A   1      41.564  30.244  35.540  1.00  0.00     0.031 C 
ATOM     49  C   UNL A   1      44.416  26.834  31.406  1.00  0.00     0.029 A 
ATOM     50  C   UNL A   1      43.498  27.663  32.029  1.00  0.00     0.049 A 
ATOM     51  H   UNL A   1      41.704  28.471  31.269  1.00  0.00     0.167 HD
ATOM     52  C   UNL A   1      42.607  29.021  33.903  1.00  0.00     0.074 A 
ATOM     53  C   UNL A   1      42.624  29.491  35.274  1.00  0.00     0.031 C 
ATOM     54  C   UNL A   1      43.522  28.171  33.377  1.00  0.00     0.034 A 
BRANCH  41  55
ATOM     55  C   UNL A   1      42.373  26.491  27.542  1.00  0.00     0.023 A 
ATOM     56  C   UNL A   1      43.131  27.119  26.534  1.00  0.00     0.012 A 
ATOM     57  C   UNL A   1      42.076  25.118  27.429  1.00  0.00     0.148 A 
ATOM     58  C   UNL A   1      43.561  26.401  25.418  1.00  0.00     0.002 A 
ATOM     59  C   UNL A   1      42.539  24.400  26.331  1.00  0.00     0.091 A 
ATOM     60  F   UNL A   1      41.331  24.540  28.384  1.00  0.00    -0.205 F 
ATOM     61  C   UNL A   1      43.274  25.041  25.321  1.00  0.00     0.022 A 
BRANCH  59  62
ATOM     62  S   UNL A   1      42.272  22.631  26.164  1.00  0.00     0.127 S 
ATOM     63  O   UNL A   1      40.813  22.550  26.171  1.00  0.00    -0.237 OA
ATOM     64  O   UNL A   1      42.892  22.338  24.871  1.00  0.00    -0.237 OA
ATOM     65  O   UNL A   1      42.948  22.024  27.303  1.00  0.00    -0.744 OA
ENDBRANCH  59  62
ENDBRANCH  41  55
BRANCH  42  66
ATOM     66  C   UNL A   1      39.171  31.933  35.289  1.00  0.00     0.023 A 
ATOM     67  C   UNL A   1      38.323  31.344  36.245  1.00  0.00     0.012 A 
ATOM     68  C   UNL A   1      39.605  33.260  35.482  1.00  0.00     0.148 A 
ATOM     69  C   UNL A   1      37.913  32.061  37.370  1.00  0.00     0.002 A 
ATOM     70  C   UNL A   1      39.243  33.948  36.634  1.00  0.00     0.091 A 
ATOM     71  F   UNL A   1      40.387  33.816  34.545  1.00  0.00    -0.205 F 
ATOM     72  C   UNL A   1      38.387  33.355  37.574  1.00  0.00     0.022 A 
BRANCH  70  73
ATOM     73  S   UNL A   1      39.936  35.554  37.044  1.00  0.00     0.127 S 
ATOM     74  O   UNL A   1      41.365  35.259  37.102  1.00  0.00    -0.237 OA
ATOM     75  O   UNL A   1      39.522  36.369  35.900  1.00  0.00    -0.237 OA
ATOM     76  O   UNL A   1      39.311  35.936  38.303  1.00  0.00    -0.744 OA
ENDBRANCH  70  73
ENDBRANCH  42  66
BRANCH  54  77
ATOM     77  C   UNL A   1      44.621  27.691  34.284  1.00  0.00     0.023 A 
ATOM     78  C   UNL A   1      45.790  28.466  34.420  1.00  0.00     0.012 A 
ATOM     79  C   UNL A   1      44.470  26.521  35.054  1.00  0.00     0.148 A 
ATOM     80  C   UNL A   1      46.802  28.073  35.295  1.00  0.00     0.002 A 
ATOM     81  C   UNL A   1      45.467  26.156  35.952  1.00  0.00     0.091 A 
ATOM     82  F   UNL A   1      43.358  25.790  34.894  1.00  0.00    -0.205 F 
ATOM     83  C   UNL A   1      46.636  26.927  36.067  1.00  0.00     0.022 A 
BRANCH  81  84
ATOM     84  S   UNL A   1      45.309  24.740  37.045  1.00  0.00     0.127 S 
ATOM     85  O   UNL A   1      44.350  25.230  38.033  1.00  0.00    -0.237 OA
ATOM     86  O   UNL A   1      44.786  23.711  36.145  1.00  0.00    -0.237 OA
ATOM     87  O   UNL A   1      46.648  24.473  37.552  1.00  0.00    -0.744 OA
ENDBRANCH  81  84
ENDBRANCH  54  77
ENDBRANCH  28  29
ENDBRANCH  21  23
ENDBRANCH  20  21
ENDBRANCH   1  20
TORSDOF 15
ENDMDL
MODEL 3
REMARK VINA RESULT:     -11.7      1.464      1.780
REMARK SMILES Cc1cscc1-c1ncc(C(=O)OCCOC(=O)c2ccc(-c3c4nc(c(-c5cccc(S(=O)(=O)[O-])c5F)c5ccc([nH]5)c(-c5cccc(S(=O)(=O)[O-])c5F)c5nc(c(-c6cccc(S(=O)(=O)[O-])c6F)c6ccc3[nH]6)C=C5)C=C4)cc2)c(=O)[nH]1
REMARK SMILES IDX 15 1 14 2 13 3 11 4 12 5 10 6 7 7 8 8 84 9 9 10 82 11 83 13
REMARK SMILES IDX 6 14 1 15 2 16 3 17 4 18 5 19 16 20 17 21 18 22 19 23 20 24
REMARK SMILES IDX 81 25 21 26 80 27 22 28 23 29 24 30 74 31 25 32 79 33 73 34
REMARK SMILES IDX 75 35 26 36 78 37 72 38 71 39 27 41 59 42 39 43 58 44 40 45
REMARK SMILES IDX 43 46 57 47 76 48 41 49 42 50 56 52 77 53 44 54 28 55 29 56
REMARK SMILES IDX 37 57 30 58 32 59 38 60 31 61 33 62 34 63 35 64 36 65 60 66
REMARK SMILES IDX 61 67 69 68 62 69 64 70 70 71 63 72 65 73 66 74 67 75 68 76
REMARK SMILES IDX 45 77 46 78 54 79 47 80 49 81 55 82 48 83 50 84 51 85 52 86
REMARK SMILES IDX 53 87
REMARK H PARENT 84 12 75 40 43 51
REMARK Flexibility Score: inf
ROOT
ATOM      1  C   UNL A   1      35.527  21.009  25.561  1.00  0.00     0.275 C 
ENDROOT
BRANCH   1   2
ATOM      2  C   UNL A   1      34.770  21.771  26.647  1.00  0.00     0.275 C 
BRANCH   2   3
ATOM      3  O   UNL A   1      33.350  21.521  26.557  1.00  0.00    -0.458 OA
BRANCH   3   4
ATOM      4  C   UNL A   1      32.739  21.995  25.444  1.00  0.00     0.345 C 
ATOM      5  O   UNL A   1      32.413  21.332  24.470  1.00  0.00    -0.246 OA
BRANCH   4   6
ATOM      6  C   UNL A   1      32.415  23.422  25.570  1.00  0.00     0.143 A 
ATOM      7  C   UNL A   1      32.158  26.135  25.744  1.00  0.00     0.141 A 
ATOM      8  N   UNL A   1      32.991  25.661  24.882  1.00  0.00    -0.237 NA
ATOM      9  N   UNL A   1      31.379  25.353  26.552  1.00  0.00    -0.306 N 
ATOM     10  C   UNL A   1      33.126  24.300  24.847  1.00  0.00     0.135 A 
ATOM     11  C   UNL A   1      31.430  23.983  26.509  1.00  0.00     0.265 A 
ATOM     12  H   UNL A   1      30.762  25.787  27.185  1.00  0.00     0.171 HD
ATOM     13  O   UNL A   1      30.736  23.297  27.251  1.00  0.00    -0.269 OA
BRANCH   7  14
ATOM     14  C   UNL A   1      32.063  27.575  25.896  1.00  0.00     0.031 A 
ATOM     15  C   UNL A   1      30.629  28.084  23.779  1.00  0.00     0.046 C 
ATOM     16  C   UNL A   1      31.405  28.491  24.991  1.00  0.00    -0.029 A 
ATOM     17  C   UNL A   1      31.596  29.803  25.382  1.00  0.00     0.069 A 
ATOM     18  S   UNL A   1      32.517  29.944  26.812  1.00  0.00    -0.151 S 
ATOM     19  C   UNL A   1      32.693  28.250  26.926  1.00  0.00     0.077 A 
ENDBRANCH   7  14
ENDBRANCH   4   6
ENDBRANCH   3   4
ENDBRANCH   2   3
ENDBRANCH   1   2
BRANCH   1  20
ATOM     20  O   UNL A   1      36.648  21.788  25.115  1.00  0.00    -0.458 OA
BRANCH  20  21
ATOM     21  C   UNL A   1      37.866  21.371  25.530  1.00  0.00     0.338 C 
ATOM     22  O   UNL A   1      38.339  20.251  25.436  1.00  0.00    -0.246 OA
BRANCH  21  23
ATOM     23  C   UNL A   1      38.598  22.508  26.112  1.00  0.00     0.060 A 
ATOM     24  C   UNL A   1      38.202  23.806  25.802  1.00  0.00     0.016 A 
ATOM     25  C   UNL A   1      39.738  22.290  26.882  1.00  0.00     0.016 A 
ATOM     26  C   UNL A   1      38.994  24.890  26.174  1.00  0.00     0.010 A 
ATOM     27  C   UNL A   1      40.463  23.387  27.361  1.00  0.00     0.010 A 
ATOM     28  C   UNL A   1      40.119  24.700  26.989  1.00  0.00    -0.014 A 
BRANCH  28  29
ATOM     29  C   UNL A   1      40.924  25.863  27.466  1.00  0.00     0.031 A 
ATOM     30  C   UNL A   1      40.297  26.920  28.338  1.00  0.00     0.074 A 
ATOM     31  C   UNL A   1      42.214  25.994  27.092  1.00  0.00     0.049 A 
ATOM     32  N   UNL A   1      40.767  28.092  28.683  1.00  0.00    -0.248 NA
ATOM     33  C   UNL A   1      38.962  26.628  28.884  1.00  0.00     0.031 C 
ATOM     34  C   UNL A   1      42.959  25.041  26.267  1.00  0.00     0.029 A 
ATOM     35  N   UNL A   1      43.128  26.987  27.349  1.00  0.00    -0.354 N 
ATOM     36  C   UNL A   1      39.759  28.707  29.417  1.00  0.00     0.074 A 
ATOM     37  C   UNL A   1      38.654  27.773  29.479  1.00  0.00     0.031 C 
ATOM     38  C   UNL A   1      44.218  25.474  26.114  1.00  0.00     0.029 A 
ATOM     39  C   UNL A   1      44.349  26.780  26.748  1.00  0.00     0.049 A 
ATOM     40  H   UNL A   1      42.930  27.772  27.909  1.00  0.00     0.167 HD
ATOM     41  C   UNL A   1      39.756  29.931  29.998  1.00  0.00     0.034 A 
ATOM     42  C   UNL A   1      45.440  27.567  26.668  1.00  0.00     0.034 A 
ATOM     43  C   UNL A   1      40.883  30.826  30.003  1.00  0.00     0.049 A 
ATOM     44  C   UNL A   1      45.405  28.929  27.301  1.00  0.00     0.074 A 
ATOM     45  C   UNL A   1      40.995  32.067  30.606  1.00  0.00     0.029 A 
ATOM     46  N   UNL A   1      42.100  30.571  29.389  1.00  0.00    -0.354 N 
ATOM     47  N   UNL A   1      44.457  29.479  28.017  1.00  0.00    -0.248 NA
ATOM     48  C   UNL A   1      46.588  29.780  27.108  1.00  0.00     0.031 C 
ATOM     49  C   UNL A   1      42.276  32.566  30.348  1.00  0.00     0.029 A 
ATOM     50  C   UNL A   1      42.964  31.633  29.590  1.00  0.00     0.049 A 
ATOM     51  H   UNL A   1      42.316  29.754  28.883  1.00  0.00     0.167 HD
ATOM     52  C   UNL A   1      44.928  30.739  28.368  1.00  0.00     0.074 A 
ATOM     53  C   UNL A   1      46.261  30.857  27.811  1.00  0.00     0.031 C 
ATOM     54  C   UNL A   1      44.303  31.719  29.065  1.00  0.00     0.034 A 
BRANCH  41  55
ATOM     55  C   UNL A   1      38.501  30.367  30.708  1.00  0.00     0.023 A 
ATOM     56  C   UNL A   1      38.300  30.005  32.054  1.00  0.00     0.012 A 
ATOM     57  C   UNL A   1      37.545  31.173  30.059  1.00  0.00     0.148 A 
ATOM     58  C   UNL A   1      37.153  30.413  32.736  1.00  0.00     0.002 A 
ATOM     59  C   UNL A   1      36.421  31.606  30.756  1.00  0.00     0.091 A 
ATOM     60  F   UNL A   1      37.737  31.488  28.769  1.00  0.00    -0.205 F 
ATOM     61  C   UNL A   1      36.220  31.221  32.091  1.00  0.00     0.022 A 
BRANCH  59  62
ATOM     62  S   UNL A   1      35.205  32.706  30.019  1.00  0.00     0.127 S 
ATOM     63  O   UNL A   1      34.617  31.851  28.990  1.00  0.00    -0.237 OA
ATOM     64  O   UNL A   1      34.318  32.998  31.147  1.00  0.00    -0.237 OA
ATOM     65  O   UNL A   1      35.958  33.856  29.537  1.00  0.00    -0.744 OA
ENDBRANCH  59  62
ENDBRANCH  41  55
BRANCH  42  66
ATOM     66  C   UNL A   1      46.659  27.071  25.968  1.00  0.00     0.023 A 
ATOM     67  C   UNL A   1      46.779  27.268  24.579  1.00  0.00     0.012 A 
ATOM     68  C   UNL A   1      47.724  26.473  26.671  1.00  0.00     0.148 A 
ATOM     69  C   UNL A   1      47.935  26.874  23.903  1.00  0.00     0.002 A 
ATOM     70  C   UNL A   1      48.897  26.141  26.002  1.00  0.00     0.091 A 
ATOM     71  F   UNL A   1      47.580  26.265  27.988  1.00  0.00    -0.205 F 
ATOM     72  C   UNL A   1      49.000  26.328  24.616  1.00  0.00     0.022 A 
BRANCH  70  73
ATOM     73  S   UNL A   1      50.365  25.580  26.873  1.00  0.00     0.127 S 
ATOM     74  O   UNL A   1      50.697  26.748  27.685  1.00  0.00    -0.237 OA
ATOM     75  O   UNL A   1      49.857  24.431  27.625  1.00  0.00    -0.237 OA
ATOM     76  O   UNL A   1      51.324  25.232  25.832  1.00  0.00    -0.744 OA
ENDBRANCH  70  73
ENDBRANCH  42  66
BRANCH  54  77
ATOM     77  C   UNL A   1      45.051  33.008  29.267  1.00  0.00     0.023 A 
ATOM     78  C   UNL A   1      45.887  33.148  30.393  1.00  0.00     0.012 A 
ATOM     79  C   UNL A   1      44.988  34.043  28.315  1.00  0.00     0.148 A 
ATOM     80  C   UNL A   1      46.634  34.311  30.579  1.00  0.00     0.002 A 
ATOM     81  C   UNL A   1      45.765  35.183  28.487  1.00  0.00     0.091 A 
ATOM     82  F   UNL A   1      44.172  33.894  27.262  1.00  0.00    -0.205 F 
ATOM     83  C   UNL A   1      46.581  35.321  29.622  1.00  0.00     0.022 A 
BRANCH  81  84
ATOM     84  S   UNL A   1      45.823  36.503  27.271  1.00  0.00     0.127 S 
ATOM     85  O   UNL A   1      46.886  37.353  27.803  1.00  0.00    -0.237 OA
ATOM     86  O   UNL A   1      46.173  35.782  26.047  1.00  0.00    -0.237 OA
ATOM     87  O   UNL A   1      44.493  37.098  27.261  1.00  0.00    -0.744 OA
ENDBRANCH  81  84
ENDBRANCH  54  77
ENDBRANCH  28  29
ENDBRANCH  21  23
ENDBRANCH  20  21
ENDBRANCH   1  20
TORSDOF 15
ENDMDL
