MODEL 1
REMARK VINA RESULT:      -9.7      0.000      0.000
REMARK SMILES Cc1cccc(N2CCN(c3ncc(NC(=O)c4ccccc4F)cc3C(=O)OCCOC(=O)c3ccc(-c4c5nc(c(-c6cccc(S(=O)(=O)[O-])c6F)c6ccc([nH]6)c(-c6cccc(S(=O)(=O)[O-])c6F)c6nc(c(-c7cccc(S(=O)(=O)[O-])c7F)c7ccc4[nH]7)C=C6)C=C5)cc3)C[C@@H]2C)c1
REMARK SMILES IDX 31 1 30 2 29 3 27 4 28 5 26 6 11 7 12 8 13 9 25 10 14 11
REMARK SMILES IDX 10 12 7 13 8 14 99 15 9 16 98 17 100 18 6 19 1 20 2 21 3 22
REMARK SMILES IDX 101 23 4 24 5 25 15 26 16 27 17 29 18 30 19 31 23 32 20 33
REMARK SMILES IDX 22 34 24 35 21 36 32 37 33 38 34 39 35 40 36 41 97 42 37 43
REMARK SMILES IDX 96 44 38 45 39 46 40 47 90 48 41 49 95 50 89 51 91 52 42 53
REMARK SMILES IDX 94 54 88 55 87 56 43 58 75 59 55 60 74 61 56 62 59 63 73 64
REMARK SMILES IDX 92 65 57 66 58 67 72 69 93 70 60 71 44 72 45 73 53 74 46 75
REMARK SMILES IDX 48 76 54 77 47 78 49 79 50 80 51 81 52 82 76 83 77 84 85 85
REMARK SMILES IDX 78 86 80 87 86 88 79 89 81 90 82 91 83 92 84 93 61 94 62 95
REMARK SMILES IDX 70 96 63 97 65 98 71 99 64 100 66 101 67 102 68 103 69 104
REMARK H PARENT 15 28 91 57 59 68
REMARK Flexibility Score: inf
ROOT
ATOM      1  C   UNL A   1      45.000  27.510  25.409  1.00  0.00     0.275 C 
ENDROOT
BRANCH   1   2
ATOM      2  C   UNL A   1      45.930  28.738  25.506  1.00  0.00     0.275 C 
BRANCH   2   3
ATOM      3  O   UNL A   1      47.357  28.601  25.673  1.00  0.00    -0.458 OA
BRANCH   3   4
ATOM      4  C   UNL A   1      47.978  27.946  26.697  1.00  0.00     0.342 C 
ATOM      5  O   UNL A   1      49.022  27.325  26.608  1.00  0.00    -0.246 OA
BRANCH   4   6
ATOM      6  C   UNL A   1      47.343  28.405  27.977  1.00  0.00     0.104 A 
ATOM      7  C   UNL A   1      46.552  27.728  28.951  1.00  0.00     0.143 A 
ATOM      8  N   UNL A   1      46.403  28.367  30.151  1.00  0.00    -0.236 NA
ATOM      9  C   UNL A   1      46.788  29.655  30.340  1.00  0.00     0.139 A 
ATOM     10  C   UNL A   1      47.729  29.761  28.208  1.00  0.00     0.047 A 
ATOM     11  C   UNL A   1      47.462  30.397  29.401  1.00  0.00     0.061 A 
BRANCH   7  12
ATOM     12  N   UNL A   1      45.714  26.600  28.822  1.00  0.00    -0.352 N 
ATOM     13  N   UNL A   1      43.537  24.553  28.553  1.00  0.00    -0.365 N 
ATOM     14  C   UNL A   1      43.280  25.852  29.212  1.00  0.00     0.138 C 
ATOM     15  C   UNL A   1      44.941  24.206  28.159  1.00  0.00     0.098 C 
ATOM     16  C   UNL A   1      44.486  26.681  29.681  1.00  0.00     0.139 C 
ATOM     17  C   UNL A   1      46.106  25.188  28.687  1.00  0.00     0.142 C 
ATOM     18  C   UNL A   1      45.034  23.952  26.653  1.00  0.00     0.033 C 
BRANCH  13  19
ATOM     19  C   UNL A   1      42.421  23.828  28.083  1.00  0.00     0.037 A 
ATOM     20  C   UNL A   1      38.934  24.419  26.566  1.00  0.00     0.044 C 
ATOM     21  C   UNL A   1      40.101  23.737  27.213  1.00  0.00    -0.049 A 
ATOM     22  C   UNL A   1      40.049  22.357  27.399  1.00  0.00     0.003 A 
ATOM     23  C   UNL A   1      41.260  24.458  27.598  1.00  0.00     0.029 A 
ATOM     24  C   UNL A   1      41.186  21.695  27.828  1.00  0.00     0.002 A 
ATOM     25  C   UNL A   1      42.361  22.418  28.096  1.00  0.00     0.026 A 
ENDBRANCH  13  19
ENDBRANCH   7  12
BRANCH  11  26
ATOM     26  N   UNL A   1      48.006  31.678  29.614  1.00  0.00    -0.320 N 
ATOM     27  C   UNL A   1      47.353  32.893  29.618  1.00  0.00     0.258 C 
ATOM     28  H   UNL A   1      48.976  31.710  29.781  1.00  0.00     0.170 HD
ATOM     29  O   UNL A   1      47.979  33.949  29.691  1.00  0.00    -0.269 OA
BRANCH  27  30
ATOM     30  C   UNL A   1      45.876  32.958  29.620  1.00  0.00     0.075 A 
ATOM     31  C   UNL A   1      45.207  32.999  30.848  1.00  0.00     0.017 A 
ATOM     32  C   UNL A   1      45.131  32.961  28.439  1.00  0.00     0.135 A 
ATOM     33  C   UNL A   1      43.819  33.152  30.878  1.00  0.00     0.001 A 
ATOM     34  C   UNL A   1      43.757  33.171  28.464  1.00  0.00     0.040 A 
ATOM     35  F   UNL A   1      45.711  32.761  27.247  1.00  0.00    -0.206 F 
ATOM     36  C   UNL A   1      43.100  33.277  29.688  1.00  0.00     0.003 A 
ENDBRANCH  27  30
ENDBRANCH  11  26
ENDBRANCH   4   6
ENDBRANCH   3   4
ENDBRANCH   2   3
ENDBRANCH   1   2
BRANCH   1  37
ATOM     37  O   UNL A   1      43.775  27.459  26.144  1.00  0.00    -0.458 OA
BRANCH  37  38
ATOM     38  C   UNL A   1      42.701  28.178  25.764  1.00  0.00     0.338 C 
ATOM     39  O   UNL A   1      42.385  28.210  24.586  1.00  0.00    -0.246 OA
BRANCH  38  40
ATOM     40  C   UNL A   1      41.942  28.835  26.849  1.00  0.00     0.060 A 
ATOM     41  C   UNL A   1      40.576  28.556  27.006  1.00  0.00     0.016 A 
ATOM     42  C   UNL A   1      42.632  29.549  27.812  1.00  0.00     0.016 A 
ATOM     43  C   UNL A   1      39.921  28.810  28.193  1.00  0.00     0.010 A 
ATOM     44  C   UNL A   1      41.981  29.841  28.984  1.00  0.00     0.010 A 
ATOM     45  C   UNL A   1      40.628  29.492  29.153  1.00  0.00    -0.014 A 
BRANCH  45  46
ATOM     46  C   UNL A   1      39.967  30.079  30.295  1.00  0.00     0.031 A 
ATOM     47  C   UNL A   1      39.288  31.378  30.189  1.00  0.00     0.074 A 
ATOM     48  C   UNL A   1      39.954  29.228  31.345  1.00  0.00     0.049 A 
ATOM     49  N   UNL A   1      39.011  32.105  31.211  1.00  0.00    -0.248 NA
ATOM     50  C   UNL A   1      38.926  32.025  28.922  1.00  0.00     0.031 C 
ATOM     51  C   UNL A   1      39.005  29.057  32.415  1.00  0.00     0.029 A 
ATOM     52  N   UNL A   1      40.958  28.297  31.653  1.00  0.00    -0.354 N 
ATOM     53  C   UNL A   1      38.094  33.045  30.785  1.00  0.00     0.074 A 
ATOM     54  C   UNL A   1      38.224  33.085  29.350  1.00  0.00     0.031 C 
ATOM     55  C   UNL A   1      39.559  28.273  33.364  1.00  0.00     0.029 A 
ATOM     56  C   UNL A   1      40.972  28.130  33.040  1.00  0.00     0.049 A 
ATOM     57  H   UNL A   1      41.547  27.843  31.007  1.00  0.00     0.167 HD
ATOM     58  C   UNL A   1      37.143  33.444  31.677  1.00  0.00     0.034 A 
ATOM     59  C   UNL A   1      42.032  28.445  33.858  1.00  0.00     0.034 A 
ATOM     60  C   UNL A   1      37.383  32.778  32.963  1.00  0.00     0.049 A 
ATOM     61  C   UNL A   1      41.652  29.424  34.937  1.00  0.00     0.074 A 
ATOM     62  C   UNL A   1      36.894  31.578  33.457  1.00  0.00     0.029 A 
ATOM     63  N   UNL A   1      38.477  33.116  33.743  1.00  0.00    -0.354 N 
ATOM     64  N   UNL A   1      40.551  30.107  34.898  1.00  0.00    -0.248 NA
ATOM     65  C   UNL A   1      42.553  29.858  36.003  1.00  0.00     0.031 C 
ATOM     66  C   UNL A   1      37.730  31.174  34.522  1.00  0.00     0.029 A 
ATOM     67  C   UNL A   1      38.722  32.123  34.681  1.00  0.00     0.049 A 
ATOM     68  H   UNL A   1      39.005  33.941  33.644  1.00  0.00     0.167 HD
ATOM     69  C   UNL A   1      40.686  31.194  35.705  1.00  0.00     0.074 A 
ATOM     70  C   UNL A   1      41.903  30.942  36.458  1.00  0.00     0.031 C 
ATOM     71  C   UNL A   1      39.842  32.255  35.598  1.00  0.00     0.034 A 
BRANCH  58  72
ATOM     72  C   UNL A   1      35.787  34.045  31.350  1.00  0.00     0.023 A 
ATOM     73  C   UNL A   1      35.198  33.601  30.138  1.00  0.00     0.012 A 
ATOM     74  C   UNL A   1      35.056  35.013  32.075  1.00  0.00     0.148 A 
ATOM     75  C   UNL A   1      34.015  34.123  29.621  1.00  0.00     0.002 A 
ATOM     76  C   UNL A   1      33.863  35.544  31.554  1.00  0.00     0.091 A 
ATOM     77  F   UNL A   1      35.484  35.400  33.280  1.00  0.00    -0.205 F 
ATOM     78  C   UNL A   1      33.351  35.107  30.324  1.00  0.00     0.022 A 
BRANCH  76  79
ATOM     79  S   UNL A   1      32.902  36.832  32.369  1.00  0.00     0.127 S 
ATOM     80  O   UNL A   1      32.932  37.910  31.380  1.00  0.00    -0.237 OA
ATOM     81  O   UNL A   1      31.596  36.195  32.528  1.00  0.00    -0.237 OA
ATOM     82  O   UNL A   1      33.602  37.139  33.611  1.00  0.00    -0.744 OA
ENDBRANCH  76  79
ENDBRANCH  58  72
BRANCH  59  83
ATOM     83  C   UNL A   1      43.344  28.631  33.149  1.00  0.00     0.023 A 
ATOM     84  C   UNL A   1      43.796  29.954  33.014  1.00  0.00     0.012 A 
ATOM     85  C   UNL A   1      44.279  27.581  33.249  1.00  0.00     0.148 A 
ATOM     86  C   UNL A   1      45.100  30.236  33.394  1.00  0.00     0.002 A 
ATOM     87  C   UNL A   1      45.573  27.864  33.610  1.00  0.00     0.091 A 
ATOM     88  F   UNL A   1      43.893  26.314  33.060  1.00  0.00    -0.205 F 
ATOM     89  C   UNL A   1      45.956  29.196  33.767  1.00  0.00     0.022 A 
BRANCH  87  90
ATOM     90  S   UNL A   1      46.692  26.512  33.977  1.00  0.00     0.127 S 
ATOM     91  O   UNL A   1      46.805  25.862  32.674  1.00  0.00    -0.237 OA
ATOM     92  O   UNL A   1      47.901  27.200  34.419  1.00  0.00    -0.237 OA
ATOM     93  O   UNL A   1      46.021  25.762  35.025  1.00  0.00    -0.744 OA
ENDBRANCH  87  90
ENDBRANCH  59  83
BRANCH  71  94
ATOM     94  C   UNL A   1      39.983  33.514  36.390  1.00  0.00     0.023 A 
ATOM     95  C   UNL A   1      39.176  33.813  37.498  1.00  0.00     0.012 A 
ATOM     96  C   UNL A   1      41.033  34.402  36.070  1.00  0.00     0.148 A 
ATOM     97  C   UNL A   1      39.326  35.018  38.186  1.00  0.00     0.002 A 
ATOM     98  C   UNL A   1      41.259  35.530  36.838  1.00  0.00     0.091 A 
ATOM     99  F   UNL A   1      41.802  34.172  34.994  1.00  0.00    -0.205 F 
ATOM    100  C   UNL A   1      40.377  35.871  37.865  1.00  0.00     0.022 A 
BRANCH  98 101
ATOM    101  S   UNL A   1      42.756  36.486  36.602  1.00  0.00     0.127 S 
ATOM    102  O   UNL A   1      43.784  35.448  36.606  1.00  0.00    -0.237 OA
ATOM    103  O   UNL A   1      42.527  37.113  35.299  1.00  0.00    -0.237 OA
ATOM    104  O   UNL A   1      42.786  37.425  37.716  1.00  0.00    -0.744 OA
ENDBRANCH  98 101
ENDBRANCH  71  94
ENDBRANCH  45  46
ENDBRANCH  38  40
ENDBRANCH  37  38
ENDBRANCH   1  37
TORSDOF 18
ENDMDL
MODEL 2
REMARK VINA RESULT:      -9.6      7.069     10.762
REMARK SMILES Cc1cccc(N2CCN(c3ncc(NC(=O)c4ccccc4F)cc3C(=O)OCCOC(=O)c3ccc(-c4c5nc(c(-c6cccc(S(=O)(=O)[O-])c6F)c6ccc([nH]6)c(-c6cccc(S(=O)(=O)[O-])c6F)c6nc(c(-c7cccc(S(=O)(=O)[O-])c7F)c7ccc4[nH]7)C=C6)C=C5)cc3)C[C@@H]2C)c1
REMARK SMILES IDX 31 1 30 2 29 3 27 4 28 5 26 6 11 7 12 8 13 9 25 10 14 11
REMARK SMILES IDX 10 12 7 13 8 14 99 15 9 16 98 17 100 18 6 19 1 20 2 21 3 22
REMARK SMILES IDX 101 23 4 24 5 25 15 26 16 27 17 29 18 30 19 31 23 32 20 33
REMARK SMILES IDX 22 34 24 35 21 36 32 37 33 38 34 39 35 40 36 41 97 42 37 43
REMARK SMILES IDX 96 44 38 45 39 46 40 47 90 48 41 49 95 50 89 51 91 52 42 53
REMARK SMILES IDX 94 54 88 55 87 56 43 58 75 59 55 60 74 61 56 62 59 63 73 64
REMARK SMILES IDX 92 65 57 66 58 67 72 69 93 70 60 71 44 72 45 73 53 74 46 75
REMARK SMILES IDX 48 76 54 77 47 78 49 79 50 80 51 81 52 82 76 83 77 84 85 85
REMARK SMILES IDX 78 86 80 87 86 88 79 89 81 90 82 91 83 92 84 93 61 94 62 95
REMARK SMILES IDX 70 96 63 97 65 98 71 99 64 100 66 101 67 102 68 103 69 104
REMARK H PARENT 15 28 91 57 59 68
REMARK Flexibility Score: inf
ROOT
ATOM      1  C   UNL A   1      48.563  21.327  34.791  1.00  0.00     0.275 C 
ENDROOT
BRANCH   1   2
ATOM      2  C   UNL A   1      49.176  20.889  36.138  1.00  0.00     0.275 C 
BRANCH   2   3
ATOM      3  O   UNL A   1      48.399  20.857  37.354  1.00  0.00    -0.458 OA
BRANCH   3   4
ATOM      4  C   UNL A   1      47.155  20.309  37.487  1.00  0.00     0.342 C 
ATOM      5  O   UNL A   1      46.820  19.212  37.076  1.00  0.00    -0.246 OA
BRANCH   4   6
ATOM      6  C   UNL A   1      46.406  21.128  38.496  1.00  0.00     0.104 A 
ATOM      7  C   UNL A   1      46.027  20.872  39.846  1.00  0.00     0.143 A 
ATOM      8  N   UNL A   1      45.629  21.960  40.574  1.00  0.00    -0.236 NA
ATOM      9  C   UNL A   1      45.392  23.168  40.001  1.00  0.00     0.139 A 
ATOM     10  C   UNL A   1      46.141  22.411  37.926  1.00  0.00     0.047 A 
ATOM     11  C   UNL A   1      45.639  23.450  38.680  1.00  0.00     0.061 A 
BRANCH   7  12
ATOM     12  N   UNL A   1      45.787  19.651  40.511  1.00  0.00    -0.352 N 
ATOM     13  N   UNL A   1      44.797  17.252  42.016  1.00  0.00    -0.365 N 
ATOM     14  C   UNL A   1      44.235  18.594  42.275  1.00  0.00     0.138 C 
ATOM     15  C   UNL A   1      45.980  17.124  41.104  1.00  0.00     0.098 C 
ATOM     16  C   UNL A   1      45.027  19.820  41.794  1.00  0.00     0.139 C 
ATOM     17  C   UNL A   1      46.692  18.497  40.644  1.00  0.00     0.142 C 
ATOM     18  C   UNL A   1      45.654  16.213  39.918  1.00  0.00     0.033 C 
BRANCH  13  19
ATOM     19  C   UNL A   1      44.032  16.135  42.418  1.00  0.00     0.037 A 
ATOM     20  C   UNL A   1      44.054  13.323  45.044  1.00  0.00     0.044 C 
ATOM     21  C   UNL A   1      43.705  14.120  43.824  1.00  0.00    -0.049 A 
ATOM     22  C   UNL A   1      42.626  13.708  43.042  1.00  0.00     0.003 A 
ATOM     23  C   UNL A   1      44.419  15.294  43.477  1.00  0.00     0.029 A 
ATOM     24  C   UNL A   1      42.185  14.531  42.022  1.00  0.00     0.002 A 
ATOM     25  C   UNL A   1      42.840  15.749  41.768  1.00  0.00     0.026 A 
ENDBRANCH  13  19
ENDBRANCH   7  12
BRANCH  11  26
ATOM     26  N   UNL A   1      45.548  24.724  38.089  1.00  0.00    -0.320 N 
ATOM     27  C   UNL A   1      46.555  25.644  37.886  1.00  0.00     0.258 C 
ATOM     28  H   UNL A   1      44.652  24.992  37.783  1.00  0.00     0.170 HD
ATOM     29  O   UNL A   1      46.306  26.776  37.472  1.00  0.00    -0.269 OA
BRANCH  27  30
ATOM     30  C   UNL A   1      47.973  25.270  38.078  1.00  0.00     0.075 A 
ATOM     31  C   UNL A   1      48.695  24.788  36.982  1.00  0.00     0.017 A 
ATOM     32  C   UNL A   1      48.603  25.365  39.320  1.00  0.00     0.135 A 
ATOM     33  C   UNL A   1      50.058  24.513  37.115  1.00  0.00     0.001 A 
ATOM     34  C   UNL A   1      49.970  25.148  39.443  1.00  0.00     0.040 A 
ATOM     35  F   UNL A   1      47.915  25.664  40.432  1.00  0.00    -0.206 F 
ATOM     36  C   UNL A   1      50.703  24.731  38.335  1.00  0.00     0.003 A 
ENDBRANCH  27  30
ENDBRANCH  11  26
ENDBRANCH   4   6
ENDBRANCH   3   4
ENDBRANCH   2   3
ENDBRANCH   1   2
BRANCH   1  37
ATOM     37  O   UNL A   1      47.641  22.416  34.726  1.00  0.00    -0.458 OA
BRANCH  37  38
ATOM     38  C   UNL A   1      46.356  22.224  34.372  1.00  0.00     0.338 C 
ATOM     39  O   UNL A   1      45.899  21.094  34.357  1.00  0.00    -0.246 OA
BRANCH  38  40
ATOM     40  C   UNL A   1      45.572  23.444  34.083  1.00  0.00     0.060 A 
ATOM     41  C   UNL A   1      46.135  24.704  34.333  1.00  0.00     0.016 A 
ATOM     42  C   UNL A   1      44.384  23.327  33.382  1.00  0.00     0.016 A 
ATOM     43  C   UNL A   1      45.639  25.845  33.737  1.00  0.00     0.010 A 
ATOM     44  C   UNL A   1      43.860  24.460  32.814  1.00  0.00     0.010 A 
ATOM     45  C   UNL A   1      44.477  25.709  33.017  1.00  0.00    -0.014 A 
BRANCH  45  46
ATOM     46  C   UNL A   1      43.706  26.862  32.614  1.00  0.00     0.031 A 
ATOM     47  C   UNL A   1      42.634  27.391  33.469  1.00  0.00     0.074 A 
ATOM     48  C   UNL A   1      44.200  27.411  31.481  1.00  0.00     0.049 A 
ATOM     49  N   UNL A   1      41.700  28.152  33.025  1.00  0.00    -0.248 NA
ATOM     50  C   UNL A   1      42.461  27.053  34.886  1.00  0.00     0.031 C 
ATOM     51  C   UNL A   1      44.214  28.774  31.016  1.00  0.00     0.029 A 
ATOM     52  N   UNL A   1      44.810  26.706  30.432  1.00  0.00    -0.354 N 
ATOM     53  C   UNL A   1      41.102  28.723  34.131  1.00  0.00     0.074 A 
ATOM     54  C   UNL A   1      41.462  27.876  35.241  1.00  0.00     0.031 C 
ATOM     55  C   UNL A   1      44.576  28.784  29.716  1.00  0.00     0.029 A 
ATOM     56  C   UNL A   1      44.558  27.404  29.249  1.00  0.00     0.049 A 
ATOM     57  H   UNL A   1      45.323  25.869  30.516  1.00  0.00     0.167 HD
ATOM     58  C   UNL A   1      40.632  29.996  34.005  1.00  0.00     0.034 A 
ATOM     59  C   UNL A   1      43.838  26.913  28.185  1.00  0.00     0.034 A 
ATOM     60  C   UNL A   1      40.839  30.449  32.624  1.00  0.00     0.049 A 
ATOM     61  C   UNL A   1      42.668  27.792  27.831  1.00  0.00     0.074 A 
ATOM     62  C   UNL A   1      41.908  31.120  32.051  1.00  0.00     0.029 A 
ATOM     63  N   UNL A   1      40.101  29.908  31.583  1.00  0.00    -0.354 N 
ATOM     64  N   UNL A   1      42.229  28.717  28.626  1.00  0.00    -0.248 NA
ATOM     65  C   UNL A   1      41.790  27.564  26.685  1.00  0.00     0.031 C 
ATOM     66  C   UNL A   1      41.830  30.949  30.651  1.00  0.00     0.029 A 
ATOM     67  C   UNL A   1      40.718  30.178  30.369  1.00  0.00     0.049 A 
ATOM     68  H   UNL A   1      39.262  29.404  31.690  1.00  0.00     0.167 HD
ATOM     69  C   UNL A   1      40.947  29.016  28.280  1.00  0.00     0.074 A 
ATOM     70  C   UNL A   1      40.751  28.355  27.000  1.00  0.00     0.031 C 
ATOM     71  C   UNL A   1      40.129  29.685  29.134  1.00  0.00     0.034 A 
BRANCH  58  72
ATOM     72  C   UNL A   1      40.399  30.993  35.127  1.00  0.00     0.023 A 
ATOM     73  C   UNL A   1      41.560  31.654  35.607  1.00  0.00     0.012 A 
ATOM     74  C   UNL A   1      39.188  31.321  35.775  1.00  0.00     0.148 A 
ATOM     75  C   UNL A   1      41.558  32.515  36.702  1.00  0.00     0.002 A 
ATOM     76  C   UNL A   1      39.183  32.187  36.883  1.00  0.00     0.091 A 
ATOM     77  F   UNL A   1      38.034  30.830  35.311  1.00  0.00    -0.205 F 
ATOM     78  C   UNL A   1      40.368  32.773  37.350  1.00  0.00     0.022 A 
BRANCH  76  79
ATOM     79  S   UNL A   1      37.701  32.605  37.819  1.00  0.00     0.127 S 
ATOM     80  O   UNL A   1      38.218  33.556  38.805  1.00  0.00    -0.237 OA
ATOM     81  O   UNL A   1      36.843  33.203  36.796  1.00  0.00    -0.237 OA
ATOM     82  O   UNL A   1      37.213  31.356  38.390  1.00  0.00    -0.744 OA
ENDBRANCH  76  79
ENDBRANCH  58  72
BRANCH  59  83
ATOM     83  C   UNL A   1      43.641  25.423  28.190  1.00  0.00     0.023 A 
ATOM     84  C   UNL A   1      42.396  24.961  28.648  1.00  0.00     0.012 A 
ATOM     85  C   UNL A   1      44.344  24.682  27.219  1.00  0.00     0.148 A 
ATOM     86  C   UNL A   1      41.713  24.047  27.861  1.00  0.00     0.002 A 
ATOM     87  C   UNL A   1      43.669  23.766  26.450  1.00  0.00     0.091 A 
ATOM     88  F   UNL A   1      45.643  24.919  27.001  1.00  0.00    -0.205 F 
ATOM     89  C   UNL A   1      42.325  23.516  26.722  1.00  0.00     0.022 A 
BRANCH  87  90
ATOM     90  S   UNL A   1      44.507  23.010  25.057  1.00  0.00     0.127 S 
ATOM     91  O   UNL A   1      43.409  22.303  24.402  1.00  0.00    -0.237 OA
ATOM     92  O   UNL A   1      45.015  24.161  24.318  1.00  0.00    -0.237 OA
ATOM     93  O   UNL A   1      45.544  22.189  25.661  1.00  0.00    -0.744 OA
ENDBRANCH  87  90
ENDBRANCH  59  83
BRANCH  71  94
ATOM     94  C   UNL A   1      38.689  29.970  28.857  1.00  0.00     0.023 A 
ATOM     95  C   UNL A   1      37.796  28.996  28.384  1.00  0.00     0.012 A 
ATOM     96  C   UNL A   1      38.178  31.248  29.168  1.00  0.00     0.148 A 
ATOM     97  C   UNL A   1      36.466  29.319  28.110  1.00  0.00     0.002 A 
ATOM     98  C   UNL A   1      36.831  31.524  29.019  1.00  0.00     0.091 A 
ATOM     99  F   UNL A   1      39.007  32.218  29.585  1.00  0.00    -0.205 F 
ATOM    100  C   UNL A   1      35.979  30.581  28.440  1.00  0.00     0.022 A 
BRANCH  98 101
ATOM    101  S   UNL A   1      36.149  33.041  29.684  1.00  0.00     0.127 S 
ATOM    102  O   UNL A   1      34.726  32.891  29.389  1.00  0.00    -0.237 OA
ATOM    103  O   UNL A   1      36.490  32.943  31.105  1.00  0.00    -0.237 OA
ATOM    104  O   UNL A   1      36.843  34.111  28.980  1.00  0.00    -0.744 OA
ENDBRANCH  98 101
ENDBRANCH  71  94
ENDBRANCH  45  46
ENDBRANCH  38  40
ENDBRANCH  37  38
ENDBRANCH   1  37
TORSDOF 18
ENDMDL
MODEL 3
REMARK VINA RESULT:      -9.4      6.063     12.620
REMARK SMILES Cc1cccc(N2CCN(c3ncc(NC(=O)c4ccccc4F)cc3C(=O)OCCOC(=O)c3ccc(-c4c5nc(c(-c6cccc(S(=O)(=O)[O-])c6F)c6ccc([nH]6)c(-c6cccc(S(=O)(=O)[O-])c6F)c6nc(c(-c7cccc(S(=O)(=O)[O-])c7F)c7ccc4[nH]7)C=C6)C=C5)cc3)C[C@@H]2C)c1
REMARK SMILES IDX 31 1 30 2 29 3 27 4 28 5 26 6 11 7 12 8 13 9 25 10 14 11
REMARK SMILES IDX 10 12 7 13 8 14 99 15 9 16 98 17 100 18 6 19 1 20 2 21 3 22
REMARK SMILES IDX 101 23 4 24 5 25 15 26 16 27 17 29 18 30 19 31 23 32 20 33
REMARK SMILES IDX 22 34 24 35 21 36 32 37 33 38 34 39 35 40 36 41 97 42 37 43
REMARK SMILES IDX 96 44 38 45 39 46 40 47 90 48 41 49 95 50 89 51 91 52 42 53
REMARK SMILES IDX 94 54 88 55 87 56 43 58 75 59 55 60 74 61 56 62 59 63 73 64
REMARK SMILES IDX 92 65 57 66 58 67 72 69 93 70 60 71 44 72 45 73 53 74 46 75
REMARK SMILES IDX 48 76 54 77 47 78 49 79 50 80 51 81 52 82 76 83 77 84 85 85
REMARK SMILES IDX 78 86 80 87 86 88 79 89 81 90 82 91 83 92 84 93 61 94 62 95
REMARK SMILES IDX 70 96 63 97 65 98 71 99 64 100 66 101 67 102 68 103 69 104
REMARK H PARENT 15 28 91 57 59 68
REMARK Flexibility Score: inf
ROOT
ATOM      1  C   UNL A   1      33.975  28.674  27.677  1.00  0.00     0.275 C 
ENDROOT
BRANCH   1   2
ATOM      2  C   UNL A   1      33.104  28.062  26.560  1.00  0.00     0.275 C 
BRANCH   2   3
ATOM      3  O   UNL A   1      32.935  26.634  26.422  1.00  0.00    -0.458 OA
BRANCH   3   4
ATOM      4  C   UNL A   1      33.596  25.839  25.530  1.00  0.00     0.342 C 
ATOM      5  O   UNL A   1      34.786  25.579  25.564  1.00  0.00    -0.246 OA
BRANCH   4   6
ATOM      6  C   UNL A   1      32.563  25.095  24.736  1.00  0.00     0.104 A 
ATOM      7  C   UNL A   1      31.548  25.534  23.836  1.00  0.00     0.143 A 
ATOM      8  N   UNL A   1      30.989  24.567  23.047  1.00  0.00    -0.236 NA
ATOM      9  C   UNL A   1      31.214  23.244  23.251  1.00  0.00     0.139 A 
ATOM     10  C   UNL A   1      32.772  23.695  24.926  1.00  0.00     0.047 A 
ATOM     11  C   UNL A   1      32.104  22.753  24.175  1.00  0.00     0.061 A 
BRANCH   7  12
ATOM     12  N   UNL A   1      30.864  26.766  23.762  1.00  0.00    -0.352 N 
ATOM     13  N   UNL A   1      29.707  29.471  23.177  1.00  0.00    -0.365 N 
ATOM     14  C   UNL A   1      31.084  29.129  22.760  1.00  0.00     0.138 C 
ATOM     15  C   UNL A   1      28.948  28.505  24.036  1.00  0.00     0.098 C 
ATOM     16  C   UNL A   1      31.763  27.917  23.417  1.00  0.00     0.139 C 
ATOM     17  C   UNL A   1      29.777  27.254  24.627  1.00  0.00     0.142 C 
ATOM     18  C   UNL A   1      27.653  28.070  23.347  1.00  0.00     0.033 C 
BRANCH  13  19
ATOM     19  C   UNL A   1      29.079  30.556  22.526  1.00  0.00     0.037 A 
ATOM     20  C   UNL A   1      27.468  31.449  19.148  1.00  0.00     0.044 C 
ATOM     21  C   UNL A   1      28.079  31.593  20.509  1.00  0.00    -0.049 A 
ATOM     22  C   UNL A   1      28.068  32.847  21.118  1.00  0.00     0.003 A 
ATOM     23  C   UNL A   1      28.623  30.479  21.198  1.00  0.00     0.029 A 
ATOM     24  C   UNL A   1      28.464  32.955  22.439  1.00  0.00     0.002 A 
ATOM     25  C   UNL A   1      28.894  31.814  23.139  1.00  0.00     0.026 A 
ENDBRANCH  13  19
ENDBRANCH   7  12
BRANCH  11  26
ATOM     26  N   UNL A   1      32.473  21.402  24.311  1.00  0.00    -0.320 N 
ATOM     27  C   UNL A   1      33.743  20.867  24.385  1.00  0.00     0.258 C 
ATOM     28  H   UNL A   1      31.731  20.757  24.359  1.00  0.00     0.170 HD
ATOM     29  O   UNL A   1      33.919  19.650  24.373  1.00  0.00    -0.269 OA
BRANCH  27  30
ATOM     30  C   UNL A   1      34.922  21.740  24.565  1.00  0.00     0.075 A 
ATOM     31  C   UNL A   1      35.564  21.752  25.808  1.00  0.00     0.017 A 
ATOM     32  C   UNL A   1      35.400  22.562  23.543  1.00  0.00     0.135 A 
ATOM     33  C   UNL A   1      36.733  22.498  25.978  1.00  0.00     0.001 A 
ATOM     34  C   UNL A   1      36.594  23.259  23.690  1.00  0.00     0.040 A 
ATOM     35  F   UNL A   1      34.728  22.709  22.392  1.00  0.00    -0.206 F 
ATOM     36  C   UNL A   1      37.268  23.219  24.908  1.00  0.00     0.003 A 
ENDBRANCH  27  30
ENDBRANCH  11  26
ENDBRANCH   4   6
ENDBRANCH   3   4
ENDBRANCH   2   3
ENDBRANCH   1   2
BRANCH   1  37
ATOM     37  O   UNL A   1      33.908  30.070  27.976  1.00  0.00    -0.458 OA
BRANCH  37  38
ATOM     38  C   UNL A   1      35.023  30.819  28.073  1.00  0.00     0.338 C 
ATOM     39  O   UNL A   1      34.930  32.034  28.108  1.00  0.00    -0.246 OA
BRANCH  38  40
ATOM     40  C   UNL A   1      36.296  30.077  28.194  1.00  0.00     0.060 A 
ATOM     41  C   UNL A   1      37.161  30.001  27.093  1.00  0.00     0.016 A 
ATOM     42  C   UNL A   1      36.705  29.648  29.445  1.00  0.00     0.016 A 
ATOM     43  C   UNL A   1      38.495  29.682  27.245  1.00  0.00     0.010 A 
ATOM     44  C   UNL A   1      38.021  29.293  29.603  1.00  0.00     0.010 A 
ATOM     45  C   UNL A   1      38.895  29.289  28.499  1.00  0.00    -0.014 A 
BRANCH  45  46
ATOM     46  C   UNL A   1      40.169  28.644  28.712  1.00  0.00     0.031 A 
ATOM     47  C   UNL A   1      40.300  27.183  28.627  1.00  0.00     0.074 A 
ATOM     48  C   UNL A   1      41.163  29.552  28.841  1.00  0.00     0.049 A 
ATOM     49  N   UNL A   1      41.282  26.539  29.148  1.00  0.00    -0.248 NA
ATOM     50  C   UNL A   1      39.303  26.295  28.019  1.00  0.00     0.031 C 
ATOM     51  C   UNL A   1      42.559  29.486  28.493  1.00  0.00     0.029 A 
ATOM     52  N   UNL A   1      41.035  30.823  29.422  1.00  0.00    -0.354 N 
ATOM     53  C   UNL A   1      41.265  25.278  28.587  1.00  0.00     0.074 A 
ATOM     54  C   UNL A   1      39.933  25.111  28.062  1.00  0.00     0.031 C 
ATOM     55  C   UNL A   1      43.196  30.533  29.058  1.00  0.00     0.029 A 
ATOM     56  C   UNL A   1      42.266  31.156  29.991  1.00  0.00     0.049 A 
ATOM     57  H   UNL A   1      40.223  31.381  29.426  1.00  0.00     0.167 HD
ATOM     58  C   UNL A   1      42.465  24.666  28.381  1.00  0.00     0.034 A 
ATOM     59  C   UNL A   1      42.479  31.369  31.333  1.00  0.00     0.034 A 
ATOM     60  C   UNL A   1      43.538  25.529  28.891  1.00  0.00     0.049 A 
ATOM     61  C   UNL A   1      43.541  30.463  31.896  1.00  0.00     0.074 A 
ATOM     62  C   UNL A   1      44.281  26.508  28.252  1.00  0.00     0.029 A 
ATOM     63  N   UNL A   1      43.698  25.728  30.253  1.00  0.00    -0.354 N 
ATOM     64  N   UNL A   1      43.968  29.416  31.261  1.00  0.00    -0.248 NA
ATOM     65  C   UNL A   1      44.038  30.537  33.269  1.00  0.00     0.031 C 
ATOM     66  C   UNL A   1      44.866  27.327  29.244  1.00  0.00     0.029 A 
ATOM     67  C   UNL A   1      44.483  26.850  30.483  1.00  0.00     0.049 A 
ATOM     68  H   UNL A   1      43.310  25.157  30.956  1.00  0.00     0.167 HD
ATOM     69  C   UNL A   1      44.545  28.570  32.158  1.00  0.00     0.074 A 
ATOM     70  C   UNL A   1      44.666  29.354  33.375  1.00  0.00     0.031 C 
ATOM     71  C   UNL A   1      44.767  27.265  31.847  1.00  0.00     0.034 A 
BRANCH  58  72
ATOM     72  C   UNL A   1      42.761  23.562  27.380  1.00  0.00     0.023 A 
ATOM     73  C   UNL A   1      43.569  23.940  26.275  1.00  0.00     0.012 A 
ATOM     74  C   UNL A   1      42.309  22.223  27.388  1.00  0.00     0.148 A 
ATOM     75  C   UNL A   1      43.850  23.095  25.204  1.00  0.00     0.002 A 
ATOM     76  C   UNL A   1      42.590  21.370  26.306  1.00  0.00     0.091 A 
ATOM     77  F   UNL A   1      41.639  21.757  28.446  1.00  0.00    -0.205 F 
ATOM     78  C   UNL A   1      43.349  21.810  25.213  1.00  0.00     0.022 A 
BRANCH  76  79
ATOM     79  S   UNL A   1      41.994  19.673  26.192  1.00  0.00     0.127 S 
ATOM     80  O   UNL A   1      42.689  19.183  24.999  1.00  0.00    -0.237 OA
ATOM     81  O   UNL A   1      42.467  19.090  27.447  1.00  0.00    -0.237 OA
ATOM     82  O   UNL A   1      40.546  19.757  26.050  1.00  0.00    -0.744 OA
ENDBRANCH  76  79
ENDBRANCH  58  72
BRANCH  59  83
ATOM     83  C   UNL A   1      41.233  31.603  32.141  1.00  0.00     0.023 A 
ATOM     84  C   UNL A   1      40.568  30.457  32.605  1.00  0.00     0.012 A 
ATOM     85  C   UNL A   1      41.171  32.796  32.890  1.00  0.00     0.148 A 
ATOM     86  C   UNL A   1      40.229  30.401  33.948  1.00  0.00     0.002 A 
ATOM     87  C   UNL A   1      40.822  32.741  34.216  1.00  0.00     0.091 A 
ATOM     88  F   UNL A   1      41.517  33.961  32.331  1.00  0.00    -0.205 F 
ATOM     89  C   UNL A   1      40.434  31.518  34.763  1.00  0.00     0.022 A 
BRANCH  87  90
ATOM     90  S   UNL A   1      40.984  34.216  35.223  1.00  0.00     0.127 S 
ATOM     91  O   UNL A   1      39.742  34.187  35.990  1.00  0.00    -0.237 OA
ATOM     92  O   UNL A   1      42.187  33.946  36.004  1.00  0.00    -0.237 OA
ATOM     93  O   UNL A   1      41.133  35.295  34.261  1.00  0.00    -0.744 OA
ENDBRANCH  87  90
ENDBRANCH  59  83
BRANCH  71  94
ATOM     94  C   UNL A   1      45.316  26.263  32.808  1.00  0.00     0.023 A 
ATOM     95  C   UNL A   1      46.666  25.879  32.824  1.00  0.00     0.012 A 
ATOM     96  C   UNL A   1      44.463  25.742  33.806  1.00  0.00     0.148 A 
ATOM     97  C   UNL A   1      47.124  24.914  33.722  1.00  0.00     0.002 A 
ATOM     98  C   UNL A   1      44.954  24.887  34.775  1.00  0.00     0.091 A 
ATOM     99  F   UNL A   1      43.158  26.054  33.801  1.00  0.00    -0.205 F 
ATOM    100  C   UNL A   1      46.271  24.427  34.708  1.00  0.00     0.022 A 
BRANCH  98 101
ATOM    101  S   UNL A   1      43.942  24.467  36.193  1.00  0.00     0.127 S 
ATOM    102  O   UNL A   1      42.870  23.686  35.581  1.00  0.00    -0.237 OA
ATOM    103  O   UNL A   1      44.866  23.689  37.021  1.00  0.00    -0.237 OA
ATOM    104  O   UNL A   1      43.555  25.745  36.775  1.00  0.00    -0.744 OA
ENDBRANCH  98 101
ENDBRANCH  71  94
ENDBRANCH  45  46
ENDBRANCH  38  40
ENDBRANCH  37  38
ENDBRANCH   1  37
TORSDOF 18
ENDMDL
