MODEL 1
REMARK VINA RESULT:     -10.6      0.000      0.000
REMARK SMILES CCc1cccc2c3c([nH]c12)[C@](CC)(CC(=O)OCCOC(=O)c1ccc(-c2c4nc(c(-c5cccc(S(=O)(=O)[O-])c5F)c5ccc([nH]5)c(-c5cccc(S(=O)(=O)[O-])c5F)c5nc(c(-c6cccc(S(=O)(=O)[O-])c6F)c6ccc2[nH]6)C=C5)C=C4)cc1)OCC3
REMARK SMILES IDX 20 1 19 2 18 3 16 4 17 5 15 6 12 7 3 8 4 9 11 10 5 11 7 12
REMARK SMILES IDX 10 13 6 14 8 15 9 16 89 18 88 19 87 20 2 21 1 22 13 23 14 24
REMARK SMILES IDX 21 25 22 26 23 27 24 28 25 29 86 30 26 31 85 32 27 33 28 34
REMARK SMILES IDX 29 35 79 36 30 37 84 38 78 39 80 40 31 41 83 42 77 43 76 44
REMARK SMILES IDX 32 46 64 47 44 48 63 49 45 50 48 51 62 52 81 53 46 54 47 55
REMARK SMILES IDX 61 57 82 58 49 59 33 60 34 61 42 62 35 63 37 64 43 65 36 66
REMARK SMILES IDX 38 67 39 68 40 69 41 70 65 71 66 72 74 73 67 74 69 75 75 76
REMARK SMILES IDX 68 77 70 78 71 79 72 80 73 81 50 82 51 83 59 84 52 85 54 86
REMARK SMILES IDX 60 87 53 88 55 89 56 90 57 91 58 92
REMARK H PARENT 10 17 80 45 48 56
REMARK Flexibility Score: inf
ROOT
ATOM      1  C   UNL A   1      33.860  33.994  29.563  1.00  0.00     0.275 C 
ENDROOT
BRANCH   1   2
ATOM      2  C   UNL A   1      34.016  34.976  30.726  1.00  0.00     0.274 C 
BRANCH   2   3
ATOM      3  O   UNL A   1      35.141  34.614  31.565  1.00  0.00    -0.462 OA
BRANCH   3   4
ATOM      4  C   UNL A   1      35.142  35.138  32.810  1.00  0.00     0.309 C 
ATOM      5  O   UNL A   1      34.919  36.328  33.024  1.00  0.00    -0.252 OA
BRANCH   4   6
ATOM      6  C   UNL A   1      35.571  34.231  33.947  1.00  0.00     0.164 C 
BRANCH   6   7
ATOM      7  C   UNL A   1      36.740  33.221  33.988  1.00  0.00     0.118 C 
ATOM      8  C   UNL A   1      41.093  34.391  31.655  1.00  0.00    -0.024 A 
ATOM      9  C   UNL A   1      42.279  34.998  32.117  1.00  0.00     0.006 A 
ATOM     10  C   UNL A   1      40.080  34.194  32.619  1.00  0.00     0.049 A 
ATOM     11  C   UNL A   1      42.451  35.362  33.449  1.00  0.00     0.001 A 
ATOM     12  C   UNL A   1      40.232  34.536  33.965  1.00  0.00     0.003 A 
ATOM     13  N   UNL A   1      38.810  33.654  32.493  1.00  0.00    -0.356 N 
ATOM     14  C   UNL A   1      41.443  35.117  34.386  1.00  0.00     0.010 A 
ATOM     15  C   UNL A   1      39.038  34.149  34.633  1.00  0.00    -0.014 A 
ATOM     16  C   UNL A   1      38.129  33.726  33.688  1.00  0.00     0.052 A 
ATOM     17  H   UNL A   1      38.444  33.273  31.662  1.00  0.00     0.166 HD
ATOM     18  C   UNL A   1      38.729  34.077  36.083  1.00  0.00     0.066 C 
ATOM     19  C   UNL A   1      37.347  33.441  36.348  1.00  0.00     0.166 C 
ATOM     20  O   UNL A   1      36.847  32.600  35.297  1.00  0.00    -0.368 OA
BRANCH   8  21
ATOM     21  C   UNL A   1      40.983  33.995  30.203  1.00  0.00     0.034 C 
ATOM     22  C   UNL A   1      42.184  34.466  29.394  1.00  0.00     0.009 C 
ENDBRANCH   8  21
BRANCH   7  23
ATOM     23  C   UNL A   1      36.405  32.049  33.001  1.00  0.00     0.039 C 
ATOM     24  C   UNL A   1      37.225  30.773  33.190  1.00  0.00     0.007 C 
ENDBRANCH   7  23
ENDBRANCH   6   7
ENDBRANCH   4   6
ENDBRANCH   3   4
ENDBRANCH   2   3
ENDBRANCH   1   2
BRANCH   1  25
ATOM     25  O   UNL A   1      34.654  32.832  29.830  1.00  0.00    -0.458 OA
BRANCH  25  26
ATOM     26  C   UNL A   1      35.244  32.264  28.752  1.00  0.00     0.338 C 
ATOM     27  O   UNL A   1      35.064  32.554  27.583  1.00  0.00    -0.246 OA
BRANCH  26  28
ATOM     28  C   UNL A   1      36.377  31.489  29.291  1.00  0.00     0.060 A 
ATOM     29  C   UNL A   1      37.637  32.067  29.427  1.00  0.00     0.016 A 
ATOM     30  C   UNL A   1      36.209  30.106  29.383  1.00  0.00     0.016 A 
ATOM     31  C   UNL A   1      38.746  31.240  29.498  1.00  0.00     0.010 A 
ATOM     32  C   UNL A   1      37.318  29.276  29.422  1.00  0.00     0.010 A 
ATOM     33  C   UNL A   1      38.586  29.850  29.419  1.00  0.00    -0.014 A 
BRANCH  33  34
ATOM     34  C   UNL A   1      39.774  29.028  29.561  1.00  0.00     0.031 A 
ATOM     35  C   UNL A   1      40.295  29.011  30.943  1.00  0.00     0.074 A 
ATOM     36  C   UNL A   1      40.390  28.310  28.606  1.00  0.00     0.049 A 
ATOM     37  N   UNL A   1      41.278  29.709  31.405  1.00  0.00    -0.248 NA
ATOM     38  C   UNL A   1      39.547  28.252  31.953  1.00  0.00     0.031 C 
ATOM     39  C   UNL A   1      39.915  27.924  27.282  1.00  0.00     0.029 A 
ATOM     40  N   UNL A   1      41.598  27.683  28.699  1.00  0.00    -0.354 N 
ATOM     41  C   UNL A   1      41.399  29.328  32.733  1.00  0.00     0.074 A 
ATOM     42  C   UNL A   1      40.211  28.581  33.061  1.00  0.00     0.031 C 
ATOM     43  C   UNL A   1      40.725  26.959  26.785  1.00  0.00     0.029 A 
ATOM     44  C   UNL A   1      41.842  26.761  27.692  1.00  0.00     0.049 A 
ATOM     45  H   UNL A   1      42.242  27.868  29.420  1.00  0.00     0.167 HD
ATOM     46  C   UNL A   1      42.567  29.455  33.414  1.00  0.00     0.034 A 
ATOM     47  C   UNL A   1      42.858  25.864  27.671  1.00  0.00     0.034 A 
ATOM     48  C   UNL A   1      43.530  30.265  32.726  1.00  0.00     0.049 A 
ATOM     49  C   UNL A   1      43.932  26.405  28.544  1.00  0.00     0.074 A 
ATOM     50  C   UNL A   1      43.555  31.563  32.255  1.00  0.00     0.029 A 
ATOM     51  N   UNL A   1      44.556  29.609  32.088  1.00  0.00    -0.354 N 
ATOM     52  N   UNL A   1      44.618  27.483  28.275  1.00  0.00    -0.248 NA
ATOM     53  C   UNL A   1      43.998  25.953  29.925  1.00  0.00     0.031 C 
ATOM     54  C   UNL A   1      44.280  31.496  31.030  1.00  0.00     0.029 A 
ATOM     55  C   UNL A   1      44.671  30.167  30.842  1.00  0.00     0.049 A 
ATOM     56  H   UNL A   1      45.102  28.877  32.455  1.00  0.00     0.167 HD
ATOM     57  C   UNL A   1      44.849  28.072  29.511  1.00  0.00     0.074 A 
ATOM     58  C   UNL A   1      44.546  27.032  30.489  1.00  0.00     0.031 C 
ATOM     59  C   UNL A   1      44.988  29.424  29.640  1.00  0.00     0.034 A 
BRANCH  46  60
ATOM     60  C   UNL A   1      42.946  28.575  34.565  1.00  0.00     0.023 A 
ATOM     61  C   UNL A   1      43.340  29.184  35.771  1.00  0.00     0.012 A 
ATOM     62  C   UNL A   1      43.140  27.182  34.438  1.00  0.00     0.148 A 
ATOM     63  C   UNL A   1      43.894  28.433  36.811  1.00  0.00     0.002 A 
ATOM     64  C   UNL A   1      43.601  26.429  35.507  1.00  0.00     0.091 A 
ATOM     65  F   UNL A   1      43.006  26.598  33.242  1.00  0.00    -0.205 F 
ATOM     66  C   UNL A   1      44.001  27.051  36.690  1.00  0.00     0.022 A 
BRANCH  64  67
ATOM     67  S   UNL A   1      43.667  24.638  35.406  1.00  0.00     0.127 S 
ATOM     68  O   UNL A   1      44.160  24.286  36.734  1.00  0.00    -0.237 OA
ATOM     69  O   UNL A   1      42.269  24.294  35.149  1.00  0.00    -0.237 OA
ATOM     70  O   UNL A   1      44.560  24.361  34.287  1.00  0.00    -0.744 OA
ENDBRANCH  64  67
ENDBRANCH  46  60
BRANCH  47  71
ATOM     71  C   UNL A   1      42.876  24.471  27.154  1.00  0.00     0.023 A 
ATOM     72  C   UNL A   1      41.702  23.692  27.216  1.00  0.00     0.012 A 
ATOM     73  C   UNL A   1      43.942  23.986  26.361  1.00  0.00     0.148 A 
ATOM     74  C   UNL A   1      41.578  22.501  26.486  1.00  0.00     0.002 A 
ATOM     75  C   UNL A   1      43.824  22.791  25.656  1.00  0.00     0.091 A 
ATOM     76  F   UNL A   1      45.037  24.740  26.206  1.00  0.00    -0.205 F 
ATOM     77  C   UNL A   1      42.637  22.053  25.703  1.00  0.00     0.022 A 
BRANCH  75  78
ATOM     78  S   UNL A   1      45.169  22.164  24.641  1.00  0.00     0.127 S 
ATOM     79  O   UNL A   1      44.599  20.931  24.096  1.00  0.00    -0.237 OA
ATOM     80  O   UNL A   1      45.346  23.240  23.670  1.00  0.00    -0.237 OA
ATOM     81  O   UNL A   1      46.280  21.947  25.561  1.00  0.00    -0.744 OA
ENDBRANCH  75  78
ENDBRANCH  47  71
BRANCH  59  82
ATOM     82  C   UNL A   1      45.161  30.258  28.397  1.00  0.00     0.023 A 
ATOM     83  C   UNL A   1      44.048  30.718  27.663  1.00  0.00     0.012 A 
ATOM     84  C   UNL A   1      46.431  30.797  28.126  1.00  0.00     0.148 A 
ATOM     85  C   UNL A   1      44.200  31.701  26.683  1.00  0.00     0.002 A 
ATOM     86  C   UNL A   1      46.571  31.805  27.181  1.00  0.00     0.091 A 
ATOM     87  F   UNL A   1      47.472  30.358  28.851  1.00  0.00    -0.205 F 
ATOM     88  C   UNL A   1      45.456  32.257  26.453  1.00  0.00     0.022 A 
BRANCH  86  89
ATOM     89  S   UNL A   1      48.125  32.666  26.922  1.00  0.00     0.127 S 
ATOM     90  O   UNL A   1      48.416  33.183  28.258  1.00  0.00    -0.237 OA
ATOM     91  O   UNL A   1      49.006  31.583  26.482  1.00  0.00    -0.237 OA
ATOM     92  O   UNL A   1      47.867  33.683  25.911  1.00  0.00    -0.744 OA
ENDBRANCH  86  89
ENDBRANCH  59  82
ENDBRANCH  33  34
ENDBRANCH  26  28
ENDBRANCH  25  26
ENDBRANCH   1  25
TORSDOF 17
ENDMDL
MODEL 2
REMARK VINA RESULT:     -10.5      4.931     10.023
REMARK SMILES CCc1cccc2c3c([nH]c12)[C@](CC)(CC(=O)OCCOC(=O)c1ccc(-c2c4nc(c(-c5cccc(S(=O)(=O)[O-])c5F)c5ccc([nH]5)c(-c5cccc(S(=O)(=O)[O-])c5F)c5nc(c(-c6cccc(S(=O)(=O)[O-])c6F)c6ccc2[nH]6)C=C5)C=C4)cc1)OCC3
REMARK SMILES IDX 20 1 19 2 18 3 16 4 17 5 15 6 12 7 3 8 4 9 11 10 5 11 7 12
REMARK SMILES IDX 10 13 6 14 8 15 9 16 89 18 88 19 87 20 2 21 1 22 13 23 14 24
REMARK SMILES IDX 21 25 22 26 23 27 24 28 25 29 86 30 26 31 85 32 27 33 28 34
REMARK SMILES IDX 29 35 79 36 30 37 84 38 78 39 80 40 31 41 83 42 77 43 76 44
REMARK SMILES IDX 32 46 64 47 44 48 63 49 45 50 48 51 62 52 81 53 46 54 47 55
REMARK SMILES IDX 61 57 82 58 49 59 33 60 34 61 42 62 35 63 37 64 43 65 36 66
REMARK SMILES IDX 38 67 39 68 40 69 41 70 65 71 66 72 74 73 67 74 69 75 75 76
REMARK SMILES IDX 68 77 70 78 71 79 72 80 73 81 50 82 51 83 59 84 52 85 54 86
REMARK SMILES IDX 60 87 53 88 55 89 56 90 57 91 58 92
REMARK H PARENT 10 17 80 45 48 56
REMARK Flexibility Score: inf
ROOT
ATOM      1  C   UNL A   1      35.621  20.126  24.934  1.00  0.00     0.275 C 
ENDROOT
BRANCH   1   2
ATOM      2  C   UNL A   1      34.313  20.911  25.041  1.00  0.00     0.274 C 
BRANCH   2   3
ATOM      3  O   UNL A   1      33.909  21.429  23.748  1.00  0.00    -0.462 OA
BRANCH   3   4
ATOM      4  C   UNL A   1      33.994  22.768  23.595  1.00  0.00     0.309 C 
ATOM      5  O   UNL A   1      34.341  23.290  22.537  1.00  0.00    -0.252 OA
BRANCH   4   6
ATOM      6  C   UNL A   1      33.780  23.626  24.827  1.00  0.00     0.164 C 
BRANCH   6   7
ATOM      7  C   UNL A   1      32.451  24.126  25.437  1.00  0.00     0.118 C 
ATOM      8  C   UNL A   1      31.639  29.121  25.820  1.00  0.00    -0.024 A 
ATOM      9  C   UNL A   1      30.998  30.043  24.966  1.00  0.00     0.006 A 
ATOM     10  C   UNL A   1      31.647  27.776  25.389  1.00  0.00     0.049 A 
ATOM     11  C   UNL A   1      30.389  29.647  23.779  1.00  0.00     0.001 A 
ATOM     12  C   UNL A   1      31.030  27.350  24.210  1.00  0.00     0.003 A 
ATOM     13  N   UNL A   1      32.200  26.647  25.971  1.00  0.00    -0.356 N 
ATOM     14  C   UNL A   1      30.381  28.302  23.401  1.00  0.00     0.010 A 
ATOM     15  C   UNL A   1      31.200  25.940  24.134  1.00  0.00    -0.014 A 
ATOM     16  C   UNL A   1      32.031  25.547  25.161  1.00  0.00     0.052 A 
ATOM     17  H   UNL A   1      32.653  26.634  26.846  1.00  0.00     0.166 HD
ATOM     18  C   UNL A   1      30.582  24.946  23.222  1.00  0.00     0.066 C 
ATOM     19  C   UNL A   1      30.941  23.497  23.618  1.00  0.00     0.166 C 
ATOM     20  O   UNL A   1      31.333  23.314  24.986  1.00  0.00    -0.368 OA
BRANCH   8  21
ATOM     21  C   UNL A   1      32.255  29.612  27.107  1.00  0.00     0.034 C 
ATOM     22  C   UNL A   1      33.774  29.506  27.087  1.00  0.00     0.009 C 
ENDBRANCH   8  21
BRANCH   7  23
ATOM     23  C   UNL A   1      32.517  23.912  26.990  1.00  0.00     0.039 C 
ATOM     24  C   UNL A   1      33.598  22.949  27.477  1.00  0.00     0.007 C 
ENDBRANCH   7  23
ENDBRANCH   6   7
ENDBRANCH   4   6
ENDBRANCH   3   4
ENDBRANCH   2   3
ENDBRANCH   1   2
BRANCH   1  25
ATOM     25  O   UNL A   1      36.695  20.954  25.394  1.00  0.00    -0.458 OA
BRANCH  25  26
ATOM     26  C   UNL A   1      37.927  20.393  25.355  1.00  0.00     0.338 C 
ATOM     27  O   UNL A   1      38.230  19.331  24.843  1.00  0.00    -0.246 OA
BRANCH  26  28
ATOM     28  C   UNL A   1      38.858  21.470  25.738  1.00  0.00     0.060 A 
ATOM     29  C   UNL A   1      40.171  21.183  26.106  1.00  0.00     0.016 A 
ATOM     30  C   UNL A   1      38.303  22.725  25.990  1.00  0.00     0.016 A 
ATOM     31  C   UNL A   1      40.868  22.106  26.868  1.00  0.00     0.010 A 
ATOM     32  C   UNL A   1      38.985  23.638  26.779  1.00  0.00     0.010 A 
ATOM     33  C   UNL A   1      40.244  23.297  27.264  1.00  0.00    -0.014 A 
BRANCH  33  34
ATOM     34  C   UNL A   1      41.039  24.256  28.008  1.00  0.00     0.031 A 
ATOM     35  C   UNL A   1      40.361  25.559  28.168  1.00  0.00     0.074 A 
ATOM     36  C   UNL A   1      42.256  24.066  28.548  1.00  0.00     0.049 A 
ATOM     37  N   UNL A   1      40.562  26.624  27.466  1.00  0.00    -0.248 NA
ATOM     38  C   UNL A   1      39.234  25.640  29.105  1.00  0.00     0.031 C 
ATOM     39  C   UNL A   1      42.980  22.824  28.790  1.00  0.00     0.029 A 
ATOM     40  N   UNL A   1      43.072  25.015  29.091  1.00  0.00    -0.354 N 
ATOM     41  C   UNL A   1      39.715  27.578  28.008  1.00  0.00     0.074 A 
ATOM     42  C   UNL A   1      38.801  26.879  28.877  1.00  0.00     0.031 C 
ATOM     43  C   UNL A   1      44.021  23.073  29.620  1.00  0.00     0.029 A 
ATOM     44  C   UNL A   1      44.113  24.504  29.853  1.00  0.00     0.049 A 
ATOM     45  H   UNL A   1      42.934  25.980  28.955  1.00  0.00     0.167 HD
ATOM     46  C   UNL A   1      39.958  28.909  27.886  1.00  0.00     0.034 A 
ATOM     47  C   UNL A   1      44.926  25.225  30.663  1.00  0.00     0.034 A 
ATOM     48  C   UNL A   1      40.981  29.204  26.924  1.00  0.00     0.049 A 
ATOM     49  C   UNL A   1      44.906  26.624  30.163  1.00  0.00     0.074 A 
ATOM     50  C   UNL A   1      41.155  28.953  25.577  1.00  0.00     0.029 A 
ATOM     51  N   UNL A   1      42.222  29.532  27.414  1.00  0.00    -0.354 N 
ATOM     52  N   UNL A   1      45.397  26.996  29.012  1.00  0.00    -0.248 NA
ATOM     53  C   UNL A   1      43.994  27.571  30.786  1.00  0.00     0.031 C 
ATOM     54  C   UNL A   1      42.547  28.687  25.430  1.00  0.00     0.029 A 
ATOM     55  C   UNL A   1      43.138  28.815  26.690  1.00  0.00     0.049 A 
ATOM     56  H   UNL A   1      42.416  30.162  28.146  1.00  0.00     0.167 HD
ATOM     57  C   UNL A   1      44.547  28.004  28.575  1.00  0.00     0.074 A 
ATOM     58  C   UNL A   1      43.778  28.389  29.753  1.00  0.00     0.031 C 
ATOM     59  C   UNL A   1      44.345  28.236  27.244  1.00  0.00     0.034 A 
BRANCH  46  60
ATOM     60  C   UNL A   1      39.484  29.924  28.879  1.00  0.00     0.023 A 
ATOM     61  C   UNL A   1      40.174  30.039  30.100  1.00  0.00     0.012 A 
ATOM     62  C   UNL A   1      38.259  30.615  28.750  1.00  0.00     0.148 A 
ATOM     63  C   UNL A   1      39.669  30.818  31.144  1.00  0.00     0.002 A 
ATOM     64  C   UNL A   1      37.811  31.462  29.752  1.00  0.00     0.091 A 
ATOM     65  F   UNL A   1      37.455  30.354  27.712  1.00  0.00    -0.205 F 
ATOM     66  C   UNL A   1      38.500  31.551  30.963  1.00  0.00     0.022 A 
BRANCH  64  67
ATOM     67  S   UNL A   1      36.355  32.481  29.508  1.00  0.00     0.127 S 
ATOM     68  O   UNL A   1      36.351  33.287  30.725  1.00  0.00    -0.237 OA
ATOM     69  O   UNL A   1      36.691  33.207  28.283  1.00  0.00    -0.237 OA
ATOM     70  O   UNL A   1      35.257  31.534  29.353  1.00  0.00    -0.744 OA
ENDBRANCH  64  67
ENDBRANCH  46  60
BRANCH  47  71
ATOM     71  C   UNL A   1      45.525  24.853  31.971  1.00  0.00     0.023 A 
ATOM     72  C   UNL A   1      46.685  25.519  32.417  1.00  0.00     0.012 A 
ATOM     73  C   UNL A   1      44.830  24.052  32.906  1.00  0.00     0.148 A 
ATOM     74  C   UNL A   1      47.113  25.425  33.749  1.00  0.00     0.002 A 
ATOM     75  C   UNL A   1      45.271  23.941  34.222  1.00  0.00     0.091 A 
ATOM     76  F   UNL A   1      43.676  23.476  32.545  1.00  0.00    -0.205 F 
ATOM     77  C   UNL A   1      46.404  24.640  34.653  1.00  0.00     0.022 A 
BRANCH  75  78
ATOM     78  S   UNL A   1      44.396  22.929  35.423  1.00  0.00     0.127 S 
ATOM     79  O   UNL A   1      45.178  23.144  36.641  1.00  0.00    -0.237 OA
ATOM     80  O   UNL A   1      43.070  23.541  35.430  1.00  0.00    -0.237 OA
ATOM     81  O   UNL A   1      44.466  21.567  34.907  1.00  0.00    -0.744 OA
ENDBRANCH  75  78
ENDBRANCH  47  71
BRANCH  59  82
ATOM     82  C   UNL A   1      45.256  27.572  26.244  1.00  0.00     0.023 A 
ATOM     83  C   UNL A   1      46.472  28.167  25.853  1.00  0.00     0.012 A 
ATOM     84  C   UNL A   1      45.009  26.229  25.907  1.00  0.00     0.148 A 
ATOM     85  C   UNL A   1      47.427  27.434  25.145  1.00  0.00     0.002 A 
ATOM     86  C   UNL A   1      45.979  25.491  25.241  1.00  0.00     0.091 A 
ATOM     87  F   UNL A   1      43.852  25.679  26.308  1.00  0.00    -0.205 F 
ATOM     88  C   UNL A   1      47.189  26.092  24.853  1.00  0.00     0.022 A 
BRANCH  86  89
ATOM     89  S   UNL A   1      45.808  23.728  24.949  1.00  0.00     0.127 S 
ATOM     90  O   UNL A   1      44.426  23.627  24.482  1.00  0.00    -0.237 OA
ATOM     91  O   UNL A   1      46.819  23.487  23.920  1.00  0.00    -0.237 OA
ATOM     92  O   UNL A   1      46.075  23.074  26.223  1.00  0.00    -0.744 OA
ENDBRANCH  86  89
ENDBRANCH  59  82
ENDBRANCH  33  34
ENDBRANCH  26  28
ENDBRANCH  25  26
ENDBRANCH   1  25
TORSDOF 17
ENDMDL
MODEL 3
REMARK VINA RESULT:     -10.5      3.448      6.591
REMARK SMILES CCc1cccc2c3c([nH]c12)[C@](CC)(CC(=O)OCCOC(=O)c1ccc(-c2c4nc(c(-c5cccc(S(=O)(=O)[O-])c5F)c5ccc([nH]5)c(-c5cccc(S(=O)(=O)[O-])c5F)c5nc(c(-c6cccc(S(=O)(=O)[O-])c6F)c6ccc2[nH]6)C=C5)C=C4)cc1)OCC3
REMARK SMILES IDX 20 1 19 2 18 3 16 4 17 5 15 6 12 7 3 8 4 9 11 10 5 11 7 12
REMARK SMILES IDX 10 13 6 14 8 15 9 16 89 18 88 19 87 20 2 21 1 22 13 23 14 24
REMARK SMILES IDX 21 25 22 26 23 27 24 28 25 29 86 30 26 31 85 32 27 33 28 34
REMARK SMILES IDX 29 35 79 36 30 37 84 38 78 39 80 40 31 41 83 42 77 43 76 44
REMARK SMILES IDX 32 46 64 47 44 48 63 49 45 50 48 51 62 52 81 53 46 54 47 55
REMARK SMILES IDX 61 57 82 58 49 59 33 60 34 61 42 62 35 63 37 64 43 65 36 66
REMARK SMILES IDX 38 67 39 68 40 69 41 70 65 71 66 72 74 73 67 74 69 75 75 76
REMARK SMILES IDX 68 77 70 78 71 79 72 80 73 81 50 82 51 83 59 84 52 85 54 86
REMARK SMILES IDX 60 87 53 88 55 89 56 90 57 91 58 92
REMARK H PARENT 10 17 80 45 48 56
REMARK Flexibility Score: inf
ROOT
ATOM      1  C   UNL A   1      33.816  31.108  27.661  1.00  0.00     0.275 C 
ENDROOT
BRANCH   1   2
ATOM      2  C   UNL A   1      33.962  29.808  26.869  1.00  0.00     0.274 C 
BRANCH   2   3
ATOM      3  O   UNL A   1      33.427  28.683  27.611  1.00  0.00    -0.462 OA
BRANCH   3   4
ATOM      4  C   UNL A   1      32.215  28.238  27.217  1.00  0.00     0.309 C 
ATOM      5  O   UNL A   1      31.373  27.825  28.013  1.00  0.00    -0.252 OA
BRANCH   4   6
ATOM      6  C   UNL A   1      31.965  28.125  25.725  1.00  0.00     0.164 C 
BRANCH   6   7
ATOM      7  C   UNL A   1      31.981  26.861  24.836  1.00  0.00     0.118 C 
ATOM      8  C   UNL A   1      35.402  23.231  25.773  1.00  0.00    -0.024 A 
ATOM      9  C   UNL A   1      35.344  22.056  26.550  1.00  0.00     0.006 A 
ATOM     10  C   UNL A   1      34.218  24.001  25.720  1.00  0.00     0.049 A 
ATOM     11  C   UNL A   1      34.183  21.666  27.211  1.00  0.00     0.001 A 
ATOM     12  C   UNL A   1      33.036  23.624  26.362  1.00  0.00     0.003 A 
ATOM     13  N   UNL A   1      33.950  25.198  25.077  1.00  0.00    -0.356 N 
ATOM     14  C   UNL A   1      33.018  22.430  27.107  1.00  0.00     0.010 A 
ATOM     15  C   UNL A   1      32.057  24.606  26.047  1.00  0.00    -0.014 A 
ATOM     16  C   UNL A   1      32.675  25.630  25.361  1.00  0.00     0.052 A 
ATOM     17  H   UNL A   1      34.587  25.675  24.495  1.00  0.00     0.166 HD
ATOM     18  C   UNL A   1      30.591  24.609  26.275  1.00  0.00     0.066 C 
ATOM     19  C   UNL A   1      29.905  25.826  25.615  1.00  0.00     0.166 C 
ATOM     20  O   UNL A   1      30.630  26.423  24.530  1.00  0.00    -0.368 OA
BRANCH   8  21
ATOM     21  C   UNL A   1      36.684  23.582  25.058  1.00  0.00     0.034 C 
ATOM     22  C   UNL A   1      36.664  23.133  23.604  1.00  0.00     0.009 C 
ENDBRANCH   8  21
BRANCH   7  23
ATOM     23  C   UNL A   1      32.614  27.247  23.454  1.00  0.00     0.039 C 
ATOM     24  C   UNL A   1      33.391  28.562  23.429  1.00  0.00     0.007 C 
ENDBRANCH   7  23
ENDBRANCH   6   7
ENDBRANCH   4   6
ENDBRANCH   3   4
ENDBRANCH   2   3
ENDBRANCH   1   2
BRANCH   1  25
ATOM     25  O   UNL A   1      35.121  31.634  27.929  1.00  0.00    -0.458 OA
BRANCH  25  26
ATOM     26  C   UNL A   1      35.330  32.070  29.195  1.00  0.00     0.338 C 
ATOM     27  O   UNL A   1      34.563  32.724  29.877  1.00  0.00    -0.246 OA
BRANCH  26  28
ATOM     28  C   UNL A   1      36.494  31.308  29.683  1.00  0.00     0.060 A 
ATOM     29  C   UNL A   1      37.767  31.874  29.691  1.00  0.00     0.016 A 
ATOM     30  C   UNL A   1      36.320  29.934  29.860  1.00  0.00     0.016 A 
ATOM     31  C   UNL A   1      38.870  31.037  29.719  1.00  0.00     0.010 A 
ATOM     32  C   UNL A   1      37.421  29.091  29.855  1.00  0.00     0.010 A 
ATOM     33  C   UNL A   1      38.690  29.647  29.724  1.00  0.00    -0.014 A 
BRANCH  33  34
ATOM     34  C   UNL A   1      39.877  28.817  29.816  1.00  0.00     0.031 A 
ATOM     35  C   UNL A   1      40.448  28.785  31.178  1.00  0.00     0.074 A 
ATOM     36  C   UNL A   1      40.454  28.104  28.833  1.00  0.00     0.049 A 
ATOM     37  N   UNL A   1      41.451  29.472  31.610  1.00  0.00    -0.248 NA
ATOM     38  C   UNL A   1      39.733  28.021  32.208  1.00  0.00     0.031 C 
ATOM     39  C   UNL A   1      39.929  27.733  27.523  1.00  0.00     0.029 A 
ATOM     40  N   UNL A   1      41.661  27.469  28.876  1.00  0.00    -0.354 N 
ATOM     41  C   UNL A   1      41.618  29.079  32.929  1.00  0.00     0.074 A 
ATOM     42  C   UNL A   1      40.438  28.336  33.294  1.00  0.00     0.031 C 
ATOM     43  C   UNL A   1      40.714  26.767  26.989  1.00  0.00     0.029 A 
ATOM     44  C   UNL A   1      41.862  26.555  27.853  1.00  0.00     0.049 A 
ATOM     45  H   UNL A   1      42.332  27.644  29.575  1.00  0.00     0.167 HD
ATOM     46  C   UNL A   1      42.811  29.193  33.569  1.00  0.00     0.034 A 
ATOM     47  C   UNL A   1      42.871  25.652  27.788  1.00  0.00     0.034 A 
ATOM     48  C   UNL A   1      43.753  30.004  32.853  1.00  0.00     0.049 A 
ATOM     49  C   UNL A   1      43.979  26.179  28.626  1.00  0.00     0.074 A 
ATOM     50  C   UNL A   1      43.769  31.306  32.393  1.00  0.00     0.029 A 
ATOM     51  N   UNL A   1      44.751  29.348  32.172  1.00  0.00    -0.354 N 
ATOM     52  N   UNL A   1      44.662  27.255  28.341  1.00  0.00    -0.248 NA
ATOM     53  C   UNL A   1      44.093  25.714  29.999  1.00  0.00     0.031 C 
ATOM     54  C   UNL A   1      44.449  31.246  31.142  1.00  0.00     0.029 A 
ATOM     55  C   UNL A   1      44.825  29.917  30.929  1.00  0.00     0.049 A 
ATOM     56  H   UNL A   1      45.306  28.610  32.514  1.00  0.00     0.167 HD
ATOM     57  C   UNL A   1      44.941  27.832  29.573  1.00  0.00     0.074 A 
ATOM     58  C   UNL A   1      44.668  26.785  30.553  1.00  0.00     0.031 C 
ATOM     59  C   UNL A   1      45.093  29.182  29.709  1.00  0.00     0.034 A 
BRANCH  46  60
ATOM     60  C   UNL A   1      43.226  28.301  34.697  1.00  0.00     0.023 A 
ATOM     61  C   UNL A   1      43.634  28.897  35.906  1.00  0.00     0.012 A 
ATOM     62  C   UNL A   1      43.439  26.914  34.544  1.00  0.00     0.148 A 
ATOM     63  C   UNL A   1      44.219  28.138  36.922  1.00  0.00     0.002 A 
ATOM     64  C   UNL A   1      43.932  26.150  35.591  1.00  0.00     0.091 A 
ATOM     65  F   UNL A   1      43.291  26.347  33.341  1.00  0.00    -0.205 F 
ATOM     66  C   UNL A   1      44.346  26.760  36.777  1.00  0.00     0.022 A 
BRANCH  64  67
ATOM     67  S   UNL A   1      44.025  24.363  35.459  1.00  0.00     0.127 S 
ATOM     68  O   UNL A   1      44.958  24.197  34.350  1.00  0.00    -0.237 OA
ATOM     69  O   UNL A   1      44.546  23.987  36.773  1.00  0.00    -0.237 OA
ATOM     70  O   UNL A   1      42.651  23.935  35.222  1.00  0.00    -0.744 OA
ENDBRANCH  64  67
ENDBRANCH  46  60
BRANCH  47  71
ATOM     71  C   UNL A   1      42.862  24.264  27.259  1.00  0.00     0.023 A 
ATOM     72  C   UNL A   1      41.697  23.479  27.386  1.00  0.00     0.012 A 
ATOM     73  C   UNL A   1      43.878  23.790  26.397  1.00  0.00     0.148 A 
ATOM     74  C   UNL A   1      41.532  22.294  26.655  1.00  0.00     0.002 A 
ATOM     75  C   UNL A   1      43.721  22.600  25.690  1.00  0.00     0.091 A 
ATOM     76  F   UNL A   1      44.960  24.549  26.181  1.00  0.00    -0.205 F 
ATOM     77  C   UNL A   1      42.542  21.857  25.804  1.00  0.00     0.022 A 
BRANCH  75  78
ATOM     78  S   UNL A   1      45.003  21.987  24.588  1.00  0.00     0.127 S 
ATOM     79  O   UNL A   1      46.151  21.858  25.487  1.00  0.00    -0.237 OA
ATOM     80  O   UNL A   1      44.435  20.721  24.133  1.00  0.00    -0.237 OA
ATOM     81  O   UNL A   1      45.162  23.018  23.568  1.00  0.00    -0.744 OA
ENDBRANCH  75  78
ENDBRANCH  47  71
BRANCH  59  82
ATOM     82  C   UNL A   1      45.226  30.026  28.468  1.00  0.00     0.023 A 
ATOM     83  C   UNL A   1      44.092  30.447  27.744  1.00  0.00     0.012 A 
ATOM     84  C   UNL A   1      46.473  30.612  28.190  1.00  0.00     0.148 A 
ATOM     85  C   UNL A   1      44.199  31.439  26.766  1.00  0.00     0.002 A 
ATOM     86  C   UNL A   1      46.568  31.628  27.247  1.00  0.00     0.091 A 
ATOM     87  F   UNL A   1      47.535  30.210  28.906  1.00  0.00    -0.205 F 
ATOM     88  C   UNL A   1      45.433  32.041  26.529  1.00  0.00     0.022 A 
BRANCH  86  89
ATOM     89  S   UNL A   1      48.088  32.547  26.980  1.00  0.00     0.127 S 
ATOM     90  O   UNL A   1      48.994  31.507  26.493  1.00  0.00    -0.237 OA
ATOM     91  O   UNL A   1      47.683  33.525  25.970  1.00  0.00    -0.237 OA
ATOM     92  O   UNL A   1      48.450  33.123  28.269  1.00  0.00    -0.744 OA
ENDBRANCH  86  89
ENDBRANCH  59  82
ENDBRANCH  33  34
ENDBRANCH  26  28
ENDBRANCH  25  26
ENDBRANCH   1  25
TORSDOF 17
ENDMDL
