MODEL 1
REMARK VINA RESULT:     -12.6      0.000      0.000
REMARK SMILES O=C(OCCOC(=O)C1(C/C=C/c2ccccc2)Cc2ccccc2C1)c1ccc(-c2c3nc(c(-c4cccc(S(=O)(=O)[O-])c4F)c4ccc([nH]4)c(-c4cccc(S(=O)(=O)[O-])c4F)c4nc(c(-c5cccc(S(=O)(=O)[O-])c5F)c5ccc2[nH]5)C=C4)C=C3)cc1
REMARK SMILES IDX 4 1 3 2 2 3 1 4 27 5 28 6 89 7 29 8 88 9 30 10 31 11 32 12
REMARK SMILES IDX 82 13 33 14 87 15 81 16 83 17 34 18 86 19 80 20 79 21 35 23
REMARK SMILES IDX 67 24 47 25 66 26 48 27 51 28 65 29 84 30 49 31 50 32 64 34
REMARK SMILES IDX 85 35 52 36 36 37 37 38 45 39 38 40 40 41 46 42 39 43 41 44
REMARK SMILES IDX 42 45 43 46 44 47 68 48 69 49 77 50 70 51 72 52 78 53 71 54
REMARK SMILES IDX 73 55 74 56 75 57 76 58 53 59 54 60 62 61 55 62 57 63 63 64
REMARK SMILES IDX 56 65 58 66 59 67 60 68 61 69 5 70 6 71 7 72 8 73 9 74 19 75
REMARK SMILES IDX 26 76 20 77 25 78 21 79 24 80 22 81 23 82 10 83 11 84 12 85
REMARK SMILES IDX 13 86 14 87 18 88 15 89 17 90 16 91
REMARK H PARENT 83 22 51 33
REMARK Flexibility Score: inf
ROOT
ATOM      1  C   UNL A   1      31.833  30.796  26.185  1.00  0.00     0.275 C 
ENDROOT
BRANCH   1   2
ATOM      2  O   UNL A   1      32.676  30.801  27.345  1.00  0.00    -0.458 OA
BRANCH   2   3
ATOM      3  C   UNL A   1      33.657  31.663  27.702  1.00  0.00     0.338 C 
ATOM      4  O   UNL A   1      33.427  32.871  27.666  1.00  0.00    -0.246 OA
BRANCH   3   5
ATOM      5  C   UNL A   1      35.058  31.222  27.979  1.00  0.00     0.060 A 
ATOM      6  C   UNL A   1      36.180  32.049  28.071  1.00  0.00     0.016 A 
ATOM      7  C   UNL A   1      35.225  29.859  28.267  1.00  0.00     0.016 A 
ATOM      8  C   UNL A   1      37.379  31.586  28.622  1.00  0.00     0.010 A 
ATOM      9  C   UNL A   1      36.412  29.404  28.852  1.00  0.00     0.010 A 
ATOM     10  C   UNL A   1      37.489  30.276  29.081  1.00  0.00    -0.014 A 
BRANCH  10  11
ATOM     11  C   UNL A   1      38.757  29.800  29.696  1.00  0.00     0.031 A 
ATOM     12  C   UNL A   1      39.203  30.452  30.971  1.00  0.00     0.074 A 
ATOM     13  C   UNL A   1      39.490  28.798  29.157  1.00  0.00     0.049 A 
ATOM     14  N   UNL A   1      40.228  30.163  31.725  1.00  0.00    -0.248 NA
ATOM     15  C   UNL A   1      38.381  31.568  31.478  1.00  0.00     0.031 C 
ATOM     16  C   UNL A   1      39.174  28.070  27.926  1.00  0.00     0.029 A 
ATOM     17  N   UNL A   1      40.679  28.232  29.559  1.00  0.00    -0.354 N 
ATOM     18  C   UNL A   1      40.135  31.022  32.808  1.00  0.00     0.074 A 
ATOM     19  C   UNL A   1      39.061  31.946  32.543  1.00  0.00     0.031 C 
ATOM     20  C   UNL A   1      40.176  27.220  27.632  1.00  0.00     0.029 A 
ATOM     21  C   UNL A   1      41.197  27.315  28.666  1.00  0.00     0.049 A 
ATOM     22  H   UNL A   1      41.120  28.459  30.409  1.00  0.00     0.167 HD
ATOM     23  C   UNL A   1      40.801  30.975  33.981  1.00  0.00     0.034 A 
ATOM     24  C   UNL A   1      42.359  26.630  28.688  1.00  0.00     0.034 A 
ATOM     25  C   UNL A   1      41.859  30.054  34.253  1.00  0.00     0.049 A 
ATOM     26  C   UNL A   1      43.192  26.703  29.943  1.00  0.00     0.074 A 
ATOM     27  C   UNL A   1      42.594  29.903  35.411  1.00  0.00     0.029 A 
ATOM     28  N   UNL A   1      42.347  29.137  33.335  1.00  0.00    -0.354 N 
ATOM     29  N   UNL A   1      42.980  27.403  31.031  1.00  0.00    -0.248 NA
ATOM     30  C   UNL A   1      44.365  25.821  30.016  1.00  0.00     0.031 C 
ATOM     31  C   UNL A   1      43.554  28.912  35.182  1.00  0.00     0.029 A 
ATOM     32  C   UNL A   1      43.388  28.422  33.894  1.00  0.00     0.049 A 
ATOM     33  H   UNL A   1      42.002  29.013  32.421  1.00  0.00     0.167 HD
ATOM     34  C   UNL A   1      43.938  26.985  31.946  1.00  0.00     0.074 A 
ATOM     35  C   UNL A   1      44.737  25.977  31.279  1.00  0.00     0.031 C 
ATOM     36  C   UNL A   1      44.132  27.388  33.225  1.00  0.00     0.034 A 
BRANCH  23  37
ATOM     37  C   UNL A   1      40.316  31.908  35.051  1.00  0.00     0.023 A 
ATOM     38  C   UNL A   1      40.934  33.170  35.195  1.00  0.00     0.012 A 
ATOM     39  C   UNL A   1      39.309  31.520  35.949  1.00  0.00     0.148 A 
ATOM     40  C   UNL A   1      40.596  34.010  36.252  1.00  0.00     0.002 A 
ATOM     41  C   UNL A   1      38.944  32.382  36.974  1.00  0.00     0.091 A 
ATOM     42  F   UNL A   1      38.760  30.306  35.807  1.00  0.00    -0.205 F 
ATOM     43  C   UNL A   1      39.597  33.618  37.138  1.00  0.00     0.022 A 
BRANCH  41  44
ATOM     44  S   UNL A   1      37.640  32.000  38.143  1.00  0.00     0.127 S 
ATOM     45  O   UNL A   1      38.307  32.239  39.420  1.00  0.00    -0.237 OA
ATOM     46  O   UNL A   1      36.620  32.983  37.788  1.00  0.00    -0.237 OA
ATOM     47  O   UNL A   1      37.269  30.610  37.893  1.00  0.00    -0.744 OA
ENDBRANCH  41  44
ENDBRANCH  23  37
BRANCH  24  48
ATOM     48  C   UNL A   1      42.784  25.748  27.557  1.00  0.00     0.023 A 
ATOM     49  C   UNL A   1      43.582  26.262  26.516  1.00  0.00     0.012 A 
ATOM     50  C   UNL A   1      42.327  24.418  27.464  1.00  0.00     0.148 A 
ATOM     51  C   UNL A   1      43.875  25.490  25.388  1.00  0.00     0.002 A 
ATOM     52  C   UNL A   1      42.664  23.637  26.362  1.00  0.00     0.091 A 
ATOM     53  F   UNL A   1      41.527  23.953  28.432  1.00  0.00    -0.205 F 
ATOM     54  C   UNL A   1      43.421  24.176  25.313  1.00  0.00     0.022 A 
BRANCH  52  55
ATOM     55  S   UNL A   1      42.201  21.904  26.227  1.00  0.00     0.127 S 
ATOM     56  O   UNL A   1      40.774  21.996  25.932  1.00  0.00    -0.237 OA
ATOM     57  O   UNL A   1      43.034  21.455  25.111  1.00  0.00    -0.237 OA
ATOM     58  O   UNL A   1      42.550  21.311  27.511  1.00  0.00    -0.744 OA
ENDBRANCH  52  55
ENDBRANCH  24  48
BRANCH  36  59
ATOM     59  C   UNL A   1      45.207  26.696  34.016  1.00  0.00     0.023 A 
ATOM     60  C   UNL A   1      46.531  27.170  33.976  1.00  0.00     0.012 A 
ATOM     61  C   UNL A   1      44.875  25.625  34.869  1.00  0.00     0.148 A 
ATOM     62  C   UNL A   1      47.519  26.563  34.750  1.00  0.00     0.002 A 
ATOM     63  C   UNL A   1      45.850  25.068  35.682  1.00  0.00     0.091 A 
ATOM     64  F   UNL A   1      43.610  25.177  34.873  1.00  0.00    -0.205 F 
ATOM     65  C   UNL A   1      47.176  25.525  35.612  1.00  0.00     0.022 A 
BRANCH  63  66
ATOM     66  S   UNL A   1      45.470  23.814  36.909  1.00  0.00     0.127 S 
ATOM     67  O   UNL A   1      44.521  24.518  37.770  1.00  0.00    -0.237 OA
ATOM     68  O   UNL A   1      44.883  22.751  36.093  1.00  0.00    -0.237 OA
ATOM     69  O   UNL A   1      46.739  23.463  37.532  1.00  0.00    -0.744 OA
ENDBRANCH  63  66
ENDBRANCH  36  59
ENDBRANCH  10  11
ENDBRANCH   3   5
ENDBRANCH   2   3
ENDBRANCH   1   2
BRANCH   1  70
ATOM     70  C   UNL A   1      32.037  29.660  25.167  1.00  0.00     0.274 C 
BRANCH  70  71
ATOM     71  O   UNL A   1      33.297  28.958  25.171  1.00  0.00    -0.462 OA
BRANCH  71  72
ATOM     72  C   UNL A   1      33.541  28.226  24.042  1.00  0.00     0.313 C 
ATOM     73  O   UNL A   1      34.120  28.712  23.076  1.00  0.00    -0.252 OA
BRANCH  72  74
ATOM     74  C   UNL A   1      33.118  26.742  24.135  1.00  0.00     0.079 C 
ATOM     75  C   UNL A   1      33.843  26.164  25.355  1.00  0.00     0.055 C 
ATOM     76  C   UNL A   1      31.611  26.473  24.429  1.00  0.00     0.055 C 
ATOM     77  C   UNL A   1      32.953  25.064  25.814  1.00  0.00    -0.044 A 
ATOM     78  C   UNL A   1      31.673  25.237  25.287  1.00  0.00    -0.044 A 
ATOM     79  C   UNL A   1      33.243  24.060  26.724  1.00  0.00     0.004 A 
ATOM     80  C   UNL A   1      30.656  24.369  25.641  1.00  0.00     0.004 A 
ATOM     81  C   UNL A   1      32.214  23.209  27.116  1.00  0.00     0.000 A 
ATOM     82  C   UNL A   1      30.933  23.358  26.570  1.00  0.00     0.000 A 
BRANCH  74  83
ATOM     83  C   UNL A   1      33.592  25.966  22.874  1.00  0.00     0.047 C 
BRANCH  83  84
ATOM     84  C   UNL A   1      34.026  24.576  23.225  1.00  0.00    -0.025 C 
ATOM     85  C   UNL A   1      33.337  23.500  22.823  1.00  0.00     0.004 C 
BRANCH  85  86
ATOM     86  C   UNL A   1      33.519  22.204  23.463  1.00  0.00    -0.026 A 
ATOM     87  C   UNL A   1      32.485  21.271  23.454  1.00  0.00     0.008 A 
ATOM     88  C   UNL A   1      34.700  21.933  24.168  1.00  0.00     0.008 A 
ATOM     89  C   UNL A   1      32.645  20.056  24.120  1.00  0.00     0.001 A 
ATOM     90  C   UNL A   1      34.857  20.722  24.835  1.00  0.00     0.001 A 
ATOM     91  C   UNL A   1      33.829  19.783  24.807  1.00  0.00     0.000 A 
ENDBRANCH  85  86
ENDBRANCH  83  84
ENDBRANCH  74  83
ENDBRANCH  72  74
ENDBRANCH  71  72
ENDBRANCH  70  71
ENDBRANCH   1  70
TORSDOF 17
ENDMDL
MODEL 2
REMARK VINA RESULT:     -12.6      1.299      2.865
REMARK SMILES O=C(OCCOC(=O)C1(C/C=C/c2ccccc2)Cc2ccccc2C1)c1ccc(-c2c3nc(c(-c4cccc(S(=O)(=O)[O-])c4F)c4ccc([nH]4)c(-c4cccc(S(=O)(=O)[O-])c4F)c4nc(c(-c5cccc(S(=O)(=O)[O-])c5F)c5ccc2[nH]5)C=C4)C=C3)cc1
REMARK SMILES IDX 4 1 3 2 2 3 1 4 27 5 28 6 89 7 29 8 88 9 30 10 31 11 32 12
REMARK SMILES IDX 82 13 33 14 87 15 81 16 83 17 34 18 86 19 80 20 79 21 35 23
REMARK SMILES IDX 67 24 47 25 66 26 48 27 51 28 65 29 84 30 49 31 50 32 64 34
REMARK SMILES IDX 85 35 52 36 36 37 37 38 45 39 38 40 40 41 46 42 39 43 41 44
REMARK SMILES IDX 42 45 43 46 44 47 68 48 69 49 77 50 70 51 72 52 78 53 71 54
REMARK SMILES IDX 73 55 74 56 75 57 76 58 53 59 54 60 62 61 55 62 57 63 63 64
REMARK SMILES IDX 56 65 58 66 59 67 60 68 61 69 5 70 6 71 7 72 8 73 9 74 19 75
REMARK SMILES IDX 26 76 20 77 25 78 21 79 24 80 22 81 23 82 10 83 11 84 12 85
REMARK SMILES IDX 13 86 14 87 18 88 15 89 17 90 16 91
REMARK H PARENT 83 22 51 33
REMARK Flexibility Score: inf
ROOT
ATOM      1  C   UNL A   1      31.722  31.122  26.367  1.00  0.00     0.275 C 
ENDROOT
BRANCH   1   2
ATOM      2  O   UNL A   1      32.632  31.104  27.476  1.00  0.00    -0.458 OA
BRANCH   2   3
ATOM      3  C   UNL A   1      33.656  31.938  27.773  1.00  0.00     0.338 C 
ATOM      4  O   UNL A   1      33.474  33.153  27.695  1.00  0.00    -0.246 OA
BRANCH   3   5
ATOM      5  C   UNL A   1      35.045  31.451  28.032  1.00  0.00     0.060 A 
ATOM      6  C   UNL A   1      36.200  32.236  28.078  1.00  0.00     0.016 A 
ATOM      7  C   UNL A   1      35.167  30.090  28.352  1.00  0.00     0.016 A 
ATOM      8  C   UNL A   1      37.392  31.742  28.616  1.00  0.00     0.010 A 
ATOM      9  C   UNL A   1      36.348  29.605  28.923  1.00  0.00     0.010 A 
ATOM     10  C   UNL A   1      37.463  30.440  29.107  1.00  0.00    -0.014 A 
BRANCH  10  11
ATOM     11  C   UNL A   1      38.725  29.932  29.707  1.00  0.00     0.031 A 
ATOM     12  C   UNL A   1      39.187  30.553  30.992  1.00  0.00     0.074 A 
ATOM     13  C   UNL A   1      39.439  28.928  29.146  1.00  0.00     0.049 A 
ATOM     14  N   UNL A   1      40.210  30.232  31.736  1.00  0.00    -0.248 NA
ATOM     15  C   UNL A   1      38.386  31.672  31.523  1.00  0.00     0.031 C 
ATOM     16  C   UNL A   1      39.106  28.229  27.903  1.00  0.00     0.029 A 
ATOM     17  N   UNL A   1      40.620  28.335  29.532  1.00  0.00    -0.354 N 
ATOM     18  C   UNL A   1      40.136  31.072  32.836  1.00  0.00     0.074 A 
ATOM     19  C   UNL A   1      39.077  32.019  32.593  1.00  0.00     0.031 C 
ATOM     20  C   UNL A   1      40.092  27.368  27.588  1.00  0.00     0.029 A 
ATOM     21  C   UNL A   1      41.119  27.427  28.620  1.00  0.00     0.049 A 
ATOM     22  H   UNL A   1      41.068  28.539  30.384  1.00  0.00     0.167 HD
ATOM     23  C   UNL A   1      40.806  30.992  34.004  1.00  0.00     0.034 A 
ATOM     24  C   UNL A   1      42.270  26.723  28.624  1.00  0.00     0.034 A 
ATOM     25  C   UNL A   1      41.849  30.048  34.254  1.00  0.00     0.049 A 
ATOM     26  C   UNL A   1      43.109  26.758  29.876  1.00  0.00     0.074 A 
ATOM     27  C   UNL A   1      42.587  29.863  35.406  1.00  0.00     0.029 A 
ATOM     28  N   UNL A   1      42.318  29.141  33.317  1.00  0.00    -0.354 N 
ATOM     29  N   UNL A   1      42.913  27.440  30.978  1.00  0.00    -0.248 NA
ATOM     30  C   UNL A   1      44.267  25.855  29.927  1.00  0.00     0.031 C 
ATOM     31  C   UNL A   1      43.529  28.861  35.154  1.00  0.00     0.029 A 
ATOM     32  C   UNL A   1      43.349  28.399  33.858  1.00  0.00     0.049 A 
ATOM     33  H   UNL A   1      41.968  29.040  32.403  1.00  0.00     0.167 HD
ATOM     34  C   UNL A   1      43.868  26.989  31.880  1.00  0.00     0.074 A 
ATOM     35  C   UNL A   1      44.647  25.981  31.191  1.00  0.00     0.031 C 
ATOM     36  C   UNL A   1      44.073  27.365  33.167  1.00  0.00     0.034 A 
BRANCH  23  37
ATOM     37  C   UNL A   1      40.341  31.912  35.094  1.00  0.00     0.023 A 
ATOM     38  C   UNL A   1      40.998  33.150  35.276  1.00  0.00     0.012 A 
ATOM     39  C   UNL A   1      39.314  31.534  35.973  1.00  0.00     0.148 A 
ATOM     40  C   UNL A   1      40.677  33.972  36.352  1.00  0.00     0.002 A 
ATOM     41  C   UNL A   1      38.966  32.381  37.016  1.00  0.00     0.091 A 
ATOM     42  F   UNL A   1      38.727  30.342  35.794  1.00  0.00    -0.205 F 
ATOM     43  C   UNL A   1      39.657  33.590  37.218  1.00  0.00     0.022 A 
BRANCH  41  44
ATOM     44  S   UNL A   1      37.640  32.012  38.163  1.00  0.00     0.127 S 
ATOM     45  O   UNL A   1      38.272  32.294  39.450  1.00  0.00    -0.237 OA
ATOM     46  O   UNL A   1      36.615  32.971  37.758  1.00  0.00    -0.237 OA
ATOM     47  O   UNL A   1      37.293  30.610  37.942  1.00  0.00    -0.744 OA
ENDBRANCH  41  44
ENDBRANCH  23  37
BRANCH  24  48
ATOM     48  C   UNL A   1      42.675  25.855  27.475  1.00  0.00     0.023 A 
ATOM     49  C   UNL A   1      43.390  26.400  26.391  1.00  0.00     0.012 A 
ATOM     50  C   UNL A   1      42.277  24.505  27.410  1.00  0.00     0.148 A 
ATOM     51  C   UNL A   1      43.659  25.636  25.250  1.00  0.00     0.002 A 
ATOM     52  C   UNL A   1      42.592  23.733  26.294  1.00  0.00     0.091 A 
ATOM     53  F   UNL A   1      41.554  24.007  28.421  1.00  0.00    -0.205 F 
ATOM     54  C   UNL A   1      43.266  24.302  25.204  1.00  0.00     0.022 A 
BRANCH  52  55
ATOM     55  S   UNL A   1      42.205  21.980  26.190  1.00  0.00     0.127 S 
ATOM     56  O   UNL A   1      42.615  21.503  27.508  1.00  0.00    -0.237 OA
ATOM     57  O   UNL A   1      40.760  22.004  25.964  1.00  0.00    -0.237 OA
ATOM     58  O   UNL A   1      42.980  21.481  25.062  1.00  0.00    -0.744 OA
ENDBRANCH  52  55
ENDBRANCH  24  48
BRANCH  36  59
ATOM     59  C   UNL A   1      45.140  26.640  33.940  1.00  0.00     0.023 A 
ATOM     60  C   UNL A   1      46.433  27.185  34.042  1.00  0.00     0.012 A 
ATOM     61  C   UNL A   1      44.823  25.458  34.638  1.00  0.00     0.148 A 
ATOM     62  C   UNL A   1      47.409  26.543  34.802  1.00  0.00     0.002 A 
ATOM     63  C   UNL A   1      45.781  24.860  35.442  1.00  0.00     0.091 A 
ATOM     64  F   UNL A   1      43.590  24.947  34.506  1.00  0.00    -0.205 F 
ATOM     65  C   UNL A   1      47.079  25.391  35.512  1.00  0.00     0.022 A 
BRANCH  63  66
ATOM     66  S   UNL A   1      45.406  23.448  36.486  1.00  0.00     0.127 S 
ATOM     67  O   UNL A   1      44.823  24.094  37.660  1.00  0.00    -0.237 OA
ATOM     68  O   UNL A   1      44.456  22.699  35.664  1.00  0.00    -0.237 OA
ATOM     69  O   UNL A   1      46.674  22.768  36.712  1.00  0.00    -0.744 OA
ENDBRANCH  63  66
ENDBRANCH  36  59
ENDBRANCH  10  11
ENDBRANCH   3   5
ENDBRANCH   2   3
ENDBRANCH   1   2
BRANCH   1  70
ATOM     70  C   UNL A   1      31.772  29.932  25.392  1.00  0.00     0.274 C 
BRANCH  70  71
ATOM     71  O   UNL A   1      32.056  28.623  25.927  1.00  0.00    -0.462 OA
BRANCH  71  72
ATOM     72  C   UNL A   1      33.052  27.950  25.277  1.00  0.00     0.313 C 
ATOM     73  O   UNL A   1      34.060  28.525  24.879  1.00  0.00    -0.252 OA
BRANCH  72  74
ATOM     74  C   UNL A   1      32.839  26.421  25.182  1.00  0.00     0.079 C 
ATOM     75  C   UNL A   1      34.228  25.786  25.295  1.00  0.00     0.055 C 
ATOM     76  C   UNL A   1      32.028  25.767  26.341  1.00  0.00     0.055 C 
ATOM     77  C   UNL A   1      33.963  24.444  25.880  1.00  0.00    -0.044 A 
ATOM     78  C   UNL A   1      32.704  24.428  26.481  1.00  0.00    -0.044 A 
ATOM     79  C   UNL A   1      34.831  23.367  25.966  1.00  0.00     0.004 A 
ATOM     80  C   UNL A   1      32.274  23.300  27.156  1.00  0.00     0.004 A 
ATOM     81  C   UNL A   1      34.421  22.245  26.679  1.00  0.00     0.000 A 
ATOM     82  C   UNL A   1      33.147  22.210  27.261  1.00  0.00     0.000 A 
BRANCH  74  83
ATOM     83  C   UNL A   1      32.243  26.045  23.797  1.00  0.00     0.047 C 
BRANCH  83  84
ATOM     84  C   UNL A   1      30.951  26.764  23.550  1.00  0.00    -0.025 C 
ATOM     85  C   UNL A   1      30.813  27.643  22.550  1.00  0.00     0.004 C 
BRANCH  85  86
ATOM     86  C   UNL A   1      29.723  28.608  22.537  1.00  0.00    -0.026 A 
ATOM     87  C   UNL A   1      28.473  28.255  23.041  1.00  0.00     0.008 A 
ATOM     88  C   UNL A   1      29.905  29.860  21.932  1.00  0.00     0.008 A 
ATOM     89  C   UNL A   1      27.418  29.164  22.971  1.00  0.00     0.001 A 
ATOM     90  C   UNL A   1      28.850  30.765  21.859  1.00  0.00     0.001 A 
ATOM     91  C   UNL A   1      27.607  30.416  22.382  1.00  0.00     0.000 A 
ENDBRANCH  85  86
ENDBRANCH  83  84
ENDBRANCH  74  83
ENDBRANCH  72  74
ENDBRANCH  71  72
ENDBRANCH  70  71
ENDBRANCH   1  70
TORSDOF 17
ENDMDL
MODEL 3
REMARK VINA RESULT:     -12.5      4.024      6.768
REMARK SMILES O=C(OCCOC(=O)C1(C/C=C/c2ccccc2)Cc2ccccc2C1)c1ccc(-c2c3nc(c(-c4cccc(S(=O)(=O)[O-])c4F)c4ccc([nH]4)c(-c4cccc(S(=O)(=O)[O-])c4F)c4nc(c(-c5cccc(S(=O)(=O)[O-])c5F)c5ccc2[nH]5)C=C4)C=C3)cc1
REMARK SMILES IDX 4 1 3 2 2 3 1 4 27 5 28 6 89 7 29 8 88 9 30 10 31 11 32 12
REMARK SMILES IDX 82 13 33 14 87 15 81 16 83 17 34 18 86 19 80 20 79 21 35 23
REMARK SMILES IDX 67 24 47 25 66 26 48 27 51 28 65 29 84 30 49 31 50 32 64 34
REMARK SMILES IDX 85 35 52 36 36 37 37 38 45 39 38 40 40 41 46 42 39 43 41 44
REMARK SMILES IDX 42 45 43 46 44 47 68 48 69 49 77 50 70 51 72 52 78 53 71 54
REMARK SMILES IDX 73 55 74 56 75 57 76 58 53 59 54 60 62 61 55 62 57 63 63 64
REMARK SMILES IDX 56 65 58 66 59 67 60 68 61 69 5 70 6 71 7 72 8 73 9 74 19 75
REMARK SMILES IDX 26 76 20 77 25 78 21 79 24 80 22 81 23 82 10 83 11 84 12 85
REMARK SMILES IDX 13 86 14 87 18 88 15 89 17 90 16 91
REMARK H PARENT 83 22 51 33
REMARK Flexibility Score: inf
ROOT
ATOM      1  C   UNL A   1      33.118  32.619  27.261  1.00  0.00     0.275 C 
ENDROOT
BRANCH   1   2
ATOM      2  O   UNL A   1      33.677  31.502  27.966  1.00  0.00    -0.458 OA
BRANCH   2   3
ATOM      3  C   UNL A   1      34.538  30.549  27.539  1.00  0.00     0.338 C 
ATOM      4  O   UNL A   1      34.208  29.829  26.598  1.00  0.00    -0.246 OA
BRANCH   3   5
ATOM      5  C   UNL A   1      35.804  30.222  28.264  1.00  0.00     0.060 A 
ATOM      6  C   UNL A   1      35.905  29.573  29.497  1.00  0.00     0.016 A 
ATOM      7  C   UNL A   1      36.994  30.515  27.581  1.00  0.00     0.016 A 
ATOM      8  C   UNL A   1      37.123  29.052  29.945  1.00  0.00     0.010 A 
ATOM      9  C   UNL A   1      38.206  29.963  28.010  1.00  0.00     0.010 A 
ATOM     10  C   UNL A   1      38.276  29.182  29.176  1.00  0.00    -0.014 A 
BRANCH  10  11
ATOM     11  C   UNL A   1      39.561  28.597  29.643  1.00  0.00     0.031 A 
ATOM     12  C   UNL A   1      40.255  29.265  30.793  1.00  0.00     0.074 A 
ATOM     13  C   UNL A   1      40.096  27.487  29.083  1.00  0.00     0.049 A 
ATOM     14  N   UNL A   1      41.340  28.901  31.419  1.00  0.00    -0.248 NA
ATOM     15  C   UNL A   1      39.640  30.496  31.326  1.00  0.00     0.031 C 
ATOM     16  C   UNL A   1      39.528  26.732  27.965  1.00  0.00     0.029 A 
ATOM     17  N   UNL A   1      41.262  26.810  29.359  1.00  0.00    -0.354 N 
ATOM     18  C   UNL A   1      41.499  29.826  32.439  1.00  0.00     0.074 A 
ATOM     19  C   UNL A   1      40.504  30.853  32.257  1.00  0.00     0.031 C 
ATOM     20  C   UNL A   1      40.379  25.755  27.598  1.00  0.00     0.029 A 
ATOM     21  C   UNL A   1      41.543  25.789  28.473  1.00  0.00     0.049 A 
ATOM     22  H   UNL A   1      41.844  27.032  30.121  1.00  0.00     0.167 HD
ATOM     23  C   UNL A   1      42.318  29.768  33.509  1.00  0.00     0.034 A 
ATOM     24  C   UNL A   1      42.616  24.975  28.385  1.00  0.00     0.034 A 
ATOM     25  C   UNL A   1      43.299  28.747  33.700  1.00  0.00     0.049 A 
ATOM     26  C   UNL A   1      43.625  25.022  29.504  1.00  0.00     0.074 A 
ATOM     27  C   UNL A   1      44.174  28.577  34.753  1.00  0.00     0.029 A 
ATOM     28  N   UNL A   1      43.548  27.728  32.793  1.00  0.00    -0.354 N 
ATOM     29  N   UNL A   1      43.650  25.802  30.557  1.00  0.00    -0.248 NA
ATOM     30  C   UNL A   1      44.694  24.014  29.480  1.00  0.00     0.031 C 
ATOM     31  C   UNL A   1      44.978  27.469  34.468  1.00  0.00     0.029 A 
ATOM     32  C   UNL A   1      44.575  26.930  33.255  1.00  0.00     0.049 A 
ATOM     33  H   UNL A   1      43.063  27.594  31.947  1.00  0.00     0.167 HD
ATOM     34  C   UNL A   1      44.680  25.328  31.359  1.00  0.00     0.074 A 
ATOM     35  C   UNL A   1      45.260  24.198  30.665  1.00  0.00     0.031 C 
ATOM     36  C   UNL A   1      45.099  25.778  32.567  1.00  0.00     0.034 A 
BRANCH  23  37
ATOM     37  C   UNL A   1      42.097  30.811  34.565  1.00  0.00     0.023 A 
ATOM     38  C   UNL A   1      40.962  30.713  35.401  1.00  0.00     0.012 A 
ATOM     39  C   UNL A   1      42.959  31.911  34.689  1.00  0.00     0.148 A 
ATOM     40  C   UNL A   1      40.658  31.725  36.306  1.00  0.00     0.002 A 
ATOM     41  C   UNL A   1      42.676  32.894  35.627  1.00  0.00     0.091 A 
ATOM     42  F   UNL A   1      44.013  31.993  33.864  1.00  0.00    -0.205 F 
ATOM     43  C   UNL A   1      41.518  32.813  36.423  1.00  0.00     0.022 A 
BRANCH  41  44
ATOM     44  S   UNL A   1      43.737  34.313  35.895  1.00  0.00     0.127 S 
ATOM     45  O   UNL A   1      42.965  35.083  36.867  1.00  0.00    -0.237 OA
ATOM     46  O   UNL A   1      44.946  33.689  36.427  1.00  0.00    -0.237 OA
ATOM     47  O   UNL A   1      43.895  34.950  34.590  1.00  0.00    -0.744 OA
ENDBRANCH  41  44
ENDBRANCH  23  37
BRANCH  24  48
ATOM     48  C   UNL A   1      42.775  23.986  27.274  1.00  0.00     0.023 A 
ATOM     49  C   UNL A   1      43.428  24.356  26.082  1.00  0.00     0.012 A 
ATOM     50  C   UNL A   1      42.203  22.701  27.360  1.00  0.00     0.148 A 
ATOM     51  C   UNL A   1      43.467  23.488  24.985  1.00  0.00     0.002 A 
ATOM     52  C   UNL A   1      42.289  21.822  26.284  1.00  0.00     0.091 A 
ATOM     53  F   UNL A   1      41.540  22.376  28.477  1.00  0.00    -0.205 F 
ATOM     54  C   UNL A   1      42.903  22.220  25.088  1.00  0.00     0.022 A 
BRANCH  52  55
ATOM     55  S   UNL A   1      41.671  20.135  26.362  1.00  0.00     0.127 S 
ATOM     56  O   UNL A   1      40.231  20.335  26.225  1.00  0.00    -0.237 OA
ATOM     57  O   UNL A   1      42.322  19.522  25.203  1.00  0.00    -0.237 OA
ATOM     58  O   UNL A   1      42.124  19.618  27.646  1.00  0.00    -0.744 OA
ENDBRANCH  52  55
ENDBRANCH  24  48
BRANCH  36  59
ATOM     59  C   UNL A   1      46.196  25.012  33.252  1.00  0.00     0.023 A 
ATOM     60  C   UNL A   1      47.532  25.440  33.144  1.00  0.00     0.012 A 
ATOM     61  C   UNL A   1      45.880  23.914  34.075  1.00  0.00     0.148 A 
ATOM     62  C   UNL A   1      48.545  24.763  33.820  1.00  0.00     0.002 A 
ATOM     63  C   UNL A   1      46.885  23.284  34.794  1.00  0.00     0.091 A 
ATOM     64  F   UNL A   1      44.602  23.511  34.144  1.00  0.00    -0.205 F 
ATOM     65  C   UNL A   1      48.219  23.697  34.656  1.00  0.00     0.022 A 
BRANCH  63  66
ATOM     66  S   UNL A   1      46.539  21.987  35.986  1.00  0.00     0.127 S 
ATOM     67  O   UNL A   1      47.885  21.606  36.410  1.00  0.00    -0.237 OA
ATOM     68  O   UNL A   1      45.757  22.697  36.998  1.00  0.00    -0.237 OA
ATOM     69  O   UNL A   1      45.798  20.963  35.262  1.00  0.00    -0.744 OA
ENDBRANCH  63  66
ENDBRANCH  36  59
ENDBRANCH  10  11
ENDBRANCH   3   5
ENDBRANCH   2   3
ENDBRANCH   1   2
BRANCH   1  70
ATOM     70  C   UNL A   1      32.754  33.866  28.087  1.00  0.00     0.274 C 
BRANCH  70  71
ATOM     71  O   UNL A   1      33.827  34.654  28.643  1.00  0.00    -0.462 OA
BRANCH  71  72
ATOM     72  C   UNL A   1      33.937  34.580  30.004  1.00  0.00     0.313 C 
ATOM     73  O   UNL A   1      33.058  35.015  30.742  1.00  0.00    -0.252 OA
BRANCH  72  74
ATOM     74  C   UNL A   1      35.191  33.829  30.507  1.00  0.00     0.079 C 
ATOM     75  C   UNL A   1      35.751  34.659  31.668  1.00  0.00     0.055 C 
ATOM     76  C   UNL A   1      34.945  32.423  31.132  1.00  0.00     0.055 C 
ATOM     77  C   UNL A   1      36.444  33.658  32.523  1.00  0.00    -0.044 A 
ATOM     78  C   UNL A   1      35.986  32.375  32.220  1.00  0.00    -0.044 A 
ATOM     79  C   UNL A   1      37.326  33.896  33.565  1.00  0.00     0.004 A 
ATOM     80  C   UNL A   1      36.441  31.289  32.946  1.00  0.00     0.004 A 
ATOM     81  C   UNL A   1      37.755  32.812  34.325  1.00  0.00     0.000 A 
ATOM     82  C   UNL A   1      37.322  31.517  34.010  1.00  0.00     0.000 A 
BRANCH  74  83
ATOM     83  C   UNL A   1      36.268  33.767  29.389  1.00  0.00     0.047 C 
BRANCH  83  84
ATOM     84  C   UNL A   1      37.596  34.247  29.888  1.00  0.00    -0.025 C 
ATOM     85  C   UNL A   1      38.745  33.689  29.485  1.00  0.00     0.004 C 
BRANCH  85  86
ATOM     86  C   UNL A   1      39.980  33.877  30.233  1.00  0.00    -0.026 A 
ATOM     87  C   UNL A   1      41.193  33.457  29.693  1.00  0.00     0.008 A 
ATOM     88  C   UNL A   1      39.936  34.397  31.535  1.00  0.00     0.008 A 
ATOM     89  C   UNL A   1      42.364  33.586  30.441  1.00  0.00     0.001 A 
ATOM     90  C   UNL A   1      41.104  34.521  32.281  1.00  0.00     0.001 A 
ATOM     91  C   UNL A   1      42.318  34.118  31.731  1.00  0.00     0.000 A 
ENDBRANCH  85  86
ENDBRANCH  83  84
ENDBRANCH  74  83
ENDBRANCH  72  74
ENDBRANCH  71  72
ENDBRANCH  70  71
ENDBRANCH   1  70
TORSDOF 17
ENDMDL
