MODEL 1
REMARK VINA RESULT:     -11.3      0.000      0.000
REMARK SMILES C[C@@H](c1cccc(F)c1)[C@@](C)(O)C(=O)OCCOC(=O)c1ccc(-c2c3nc(c(-c4cccc(S(=O)(=O)[O-])c4F)c4ccc([nH]4)c(-c4cccc(S(=O)(=O)[O-])c4F)c4nc(c(-c5cccc(S(=O)(=O)[O-])c5F)c5ccc2[nH]5)C=C4)C=C3)cc1
REMARK SMILES IDX 17 1 16 2 15 3 13 4 14 5 10 6 11 7 2 8 1 9 3 10 4 11 9 12
REMARK SMILES IDX 5 13 7 14 6 15 8 16 12 17 18 19 19 20 20 21 21 22 22 23
REMARK SMILES IDX 83 24 23 25 82 26 24 27 25 28 26 29 76 30 27 31 81 32 75 33
REMARK SMILES IDX 77 34 28 35 80 36 74 37 73 38 29 40 61 41 41 42 60 43 42 44
REMARK SMILES IDX 45 45 59 46 78 47 43 48 44 49 58 51 79 52 46 53 30 54 31 55
REMARK SMILES IDX 39 56 32 57 34 58 40 59 33 60 35 61 36 62 37 63 38 64 62 65
REMARK SMILES IDX 63 66 71 67 64 68 66 69 72 70 65 71 67 72 68 73 69 74 70 75
REMARK SMILES IDX 47 76 48 77 56 78 49 79 51 80 57 81 50 82 52 83 53 84 54 85
REMARK SMILES IDX 55 86
REMARK H PARENT 12 18 77 39 45 50
REMARK Flexibility Score: inf
ROOT
ATOM      1  C   UNL A   1      31.841  29.999  25.494  1.00  0.00     0.275 C 
ENDROOT
BRANCH   1   2
ATOM      2  C   UNL A   1      32.181  28.552  25.150  1.00  0.00     0.274 C 
BRANCH   2   3
ATOM      3  O   UNL A   1      31.016  27.699  25.191  1.00  0.00    -0.460 OA
BRANCH   3   4
ATOM      4  C   UNL A   1      30.967  26.821  26.237  1.00  0.00     0.338 C 
ATOM      5  O   UNL A   1      31.479  27.024  27.331  1.00  0.00    -0.249 OA
BRANCH   4   6
ATOM      6  C   UNL A   1      30.327  25.470  25.819  1.00  0.00     0.165 C 
ATOM      7  C   UNL A   1      29.968  25.645  24.331  1.00  0.00     0.055 C 
BRANCH   6   8
ATOM      8  C   UNL A   1      31.245  24.221  26.016  1.00  0.00     0.059 C 
ATOM      9  C   UNL A   1      30.511  22.955  26.492  1.00  0.00     0.016 C 
BRANCH   8  10
ATOM     10  C   UNL A   1      32.174  23.940  24.837  1.00  0.00    -0.039 A 
ATOM     11  C   UNL A   1      33.387  24.639  24.710  1.00  0.00     0.004 A 
ATOM     12  C   UNL A   1      31.878  22.981  23.868  1.00  0.00     0.043 A 
ATOM     13  C   UNL A   1      34.274  24.367  23.660  1.00  0.00     0.003 A 
ATOM     14  C   UNL A   1      32.763  22.710  22.827  1.00  0.00     0.123 A 
ATOM     15  C   UNL A   1      33.961  23.394  22.716  1.00  0.00     0.039 A 
ATOM     16  F   UNL A   1      32.454  21.771  21.925  1.00  0.00    -0.207 F 
ENDBRANCH   8  10
ENDBRANCH   6   8
BRANCH   6  17
ATOM     17  O   UNL A   1      29.065  25.225  26.467  1.00  0.00    -0.378 OA
ATOM     18  H   UNL A   1      28.353  25.641  25.956  1.00  0.00     0.212 HD
ENDBRANCH   6  17
ENDBRANCH   4   6
ENDBRANCH   3   4
ENDBRANCH   2   3
ENDBRANCH   1   2
BRANCH   1  19
ATOM     19  O   UNL A   1      32.124  30.235  26.881  1.00  0.00    -0.458 OA
BRANCH  19  20
ATOM     20  C   UNL A   1      32.817  31.367  27.151  1.00  0.00     0.338 C 
ATOM     21  O   UNL A   1      32.353  32.494  27.190  1.00  0.00    -0.246 OA
BRANCH  20  22
ATOM     22  C   UNL A   1      34.227  31.049  27.501  1.00  0.00     0.060 A 
ATOM     23  C   UNL A   1      34.641  29.738  27.746  1.00  0.00     0.016 A 
ATOM     24  C   UNL A   1      35.103  32.103  27.776  1.00  0.00     0.016 A 
ATOM     25  C   UNL A   1      35.837  29.506  28.431  1.00  0.00     0.010 A 
ATOM     26  C   UNL A   1      36.357  31.850  28.344  1.00  0.00     0.010 A 
ATOM     27  C   UNL A   1      36.720  30.554  28.739  1.00  0.00    -0.014 A 
BRANCH  27  28
ATOM     28  C   UNL A   1      38.007  30.312  29.463  1.00  0.00     0.031 A 
ATOM     29  C   UNL A   1      39.072  29.404  28.887  1.00  0.00     0.074 A 
ATOM     30  C   UNL A   1      38.229  30.880  30.666  1.00  0.00     0.049 A 
ATOM     31  N   UNL A   1      40.115  28.875  29.479  1.00  0.00    -0.248 NA
ATOM     32  C   UNL A   1      38.951  29.041  27.466  1.00  0.00     0.031 C 
ATOM     33  C   UNL A   1      37.327  31.812  31.341  1.00  0.00     0.029 A 
ATOM     34  N   UNL A   1      39.276  30.737  31.550  1.00  0.00    -0.354 N 
ATOM     35  C   UNL A   1      40.735  28.071  28.526  1.00  0.00     0.074 A 
ATOM     36  C   UNL A   1      39.961  28.191  27.310  1.00  0.00     0.031 C 
ATOM     37  C   UNL A   1      37.858  32.172  32.514  1.00  0.00     0.029 A 
ATOM     38  C   UNL A   1      39.070  31.394  32.740  1.00  0.00     0.049 A 
ATOM     39  H   UNL A   1      40.087  30.216  31.349  1.00  0.00     0.167 HD
ATOM     40  C   UNL A   1      41.850  27.313  28.651  1.00  0.00     0.034 A 
ATOM     41  C   UNL A   1      39.714  31.327  33.922  1.00  0.00     0.034 A 
ATOM     42  C   UNL A   1      42.662  27.248  29.840  1.00  0.00     0.049 A 
ATOM     43  C   UNL A   1      40.901  30.427  34.068  1.00  0.00     0.074 A 
ATOM     44  C   UNL A   1      43.835  26.538  30.040  1.00  0.00     0.029 A 
ATOM     45  N   UNL A   1      42.399  27.919  31.022  1.00  0.00    -0.354 N 
ATOM     46  N   UNL A   1      41.471  29.671  33.163  1.00  0.00    -0.248 NA
ATOM     47  C   UNL A   1      41.535  30.368  35.392  1.00  0.00     0.031 C 
ATOM     48  C   UNL A   1      44.273  26.768  31.348  1.00  0.00     0.029 A 
ATOM     49  C   UNL A   1      43.381  27.634  31.958  1.00  0.00     0.049 A 
ATOM     50  H   UNL A   1      41.628  28.513  31.176  1.00  0.00     0.167 HD
ATOM     51  C   UNL A   1      42.534  29.049  33.803  1.00  0.00     0.074 A 
ATOM     52  C   UNL A   1      42.545  29.537  35.167  1.00  0.00     0.031 C 
ATOM     53  C   UNL A   1      43.408  28.141  33.305  1.00  0.00     0.034 A 
BRANCH  40  54
ATOM     54  C   UNL A   1      42.318  26.506  27.466  1.00  0.00     0.023 A 
ATOM     55  C   UNL A   1      43.206  27.085  26.540  1.00  0.00     0.012 A 
ATOM     56  C   UNL A   1      42.004  25.135  27.359  1.00  0.00     0.148 A 
ATOM     57  C   UNL A   1      43.777  26.314  25.527  1.00  0.00     0.002 A 
ATOM     58  C   UNL A   1      42.605  24.364  26.369  1.00  0.00     0.091 A 
ATOM     59  F   UNL A   1      41.140  24.606  28.237  1.00  0.00    -0.205 F 
ATOM     60  C   UNL A   1      43.490  24.952  25.451  1.00  0.00     0.022 A 
BRANCH  58  61
ATOM     61  S   UNL A   1      42.369  22.585  26.250  1.00  0.00     0.127 S 
ATOM     62  O   UNL A   1      40.926  22.493  26.035  1.00  0.00    -0.237 OA
ATOM     63  O   UNL A   1      43.182  22.241  25.081  1.00  0.00    -0.237 OA
ATOM     64  O   UNL A   1      42.853  22.032  27.507  1.00  0.00    -0.744 OA
ENDBRANCH  58  61
ENDBRANCH  40  54
BRANCH  41  65
ATOM     65  C   UNL A   1      39.190  32.138  35.056  1.00  0.00     0.023 A 
ATOM     66  C   UNL A   1      38.407  31.521  36.047  1.00  0.00     0.012 A 
ATOM     67  C   UNL A   1      39.615  33.470  35.240  1.00  0.00     0.148 A 
ATOM     68  C   UNL A   1      38.080  32.209  37.216  1.00  0.00     0.002 A 
ATOM     69  C   UNL A   1      39.358  34.118  36.441  1.00  0.00     0.091 A 
ATOM     70  F   UNL A   1      40.330  34.051  34.266  1.00  0.00    -0.205 F 
ATOM     71  C   UNL A   1      38.579  33.494  37.426  1.00  0.00     0.022 A 
BRANCH  69  72
ATOM     72  S   UNL A   1      40.161  35.669  36.868  1.00  0.00     0.127 S 
ATOM     73  O   UNL A   1      41.573  35.306  36.800  1.00  0.00    -0.237 OA
ATOM     74  O   UNL A   1      39.700  36.558  35.801  1.00  0.00    -0.237 OA
ATOM     75  O   UNL A   1      39.653  36.016  38.188  1.00  0.00    -0.744 OA
ENDBRANCH  69  72
ENDBRANCH  41  65
BRANCH  53  76
ATOM     76  C   UNL A   1      44.461  27.605  34.234  1.00  0.00     0.023 A 
ATOM     77  C   UNL A   1      45.656  28.330  34.412  1.00  0.00     0.012 A 
ATOM     78  C   UNL A   1      44.243  26.432  34.983  1.00  0.00     0.148 A 
ATOM     79  C   UNL A   1      46.628  27.884  35.306  1.00  0.00     0.002 A 
ATOM     80  C   UNL A   1      45.200  26.013  35.900  1.00  0.00     0.091 A 
ATOM     81  F   UNL A   1      43.108  25.749  34.783  1.00  0.00    -0.205 F 
ATOM     82  C   UNL A   1      46.396  26.733  36.057  1.00  0.00     0.022 A 
BRANCH  80  83
ATOM     83  S   UNL A   1      44.952  24.586  36.962  1.00  0.00     0.127 S 
ATOM     84  O   UNL A   1      46.242  24.495  37.644  1.00  0.00    -0.237 OA
ATOM     85  O   UNL A   1      43.843  25.018  37.814  1.00  0.00    -0.237 OA
ATOM     86  O   UNL A   1      44.632  23.477  36.073  1.00  0.00    -0.744 OA
ENDBRANCH  80  83
ENDBRANCH  53  76
ENDBRANCH  27  28
ENDBRANCH  20  22
ENDBRANCH  19  20
ENDBRANCH   1  19
TORSDOF 17
ENDMDL
MODEL 2
REMARK VINA RESULT:     -11.3      5.407     10.183
REMARK SMILES C[C@@H](c1cccc(F)c1)[C@@](C)(O)C(=O)OCCOC(=O)c1ccc(-c2c3nc(c(-c4cccc(S(=O)(=O)[O-])c4F)c4ccc([nH]4)c(-c4cccc(S(=O)(=O)[O-])c4F)c4nc(c(-c5cccc(S(=O)(=O)[O-])c5F)c5ccc2[nH]5)C=C4)C=C3)cc1
REMARK SMILES IDX 17 1 16 2 15 3 13 4 14 5 10 6 11 7 2 8 1 9 3 10 4 11 9 12
REMARK SMILES IDX 5 13 7 14 6 15 8 16 12 17 18 19 19 20 20 21 21 22 22 23
REMARK SMILES IDX 83 24 23 25 82 26 24 27 25 28 26 29 76 30 27 31 81 32 75 33
REMARK SMILES IDX 77 34 28 35 80 36 74 37 73 38 29 40 61 41 41 42 60 43 42 44
REMARK SMILES IDX 45 45 59 46 78 47 43 48 44 49 58 51 79 52 46 53 30 54 31 55
REMARK SMILES IDX 39 56 32 57 34 58 40 59 33 60 35 61 36 62 37 63 38 64 62 65
REMARK SMILES IDX 63 66 71 67 64 68 66 69 72 70 65 71 67 72 68 73 69 74 70 75
REMARK SMILES IDX 47 76 48 77 56 78 49 79 51 80 57 81 50 82 52 83 53 84 54 85
REMARK SMILES IDX 55 86
REMARK H PARENT 12 18 77 39 45 50
REMARK Flexibility Score: inf
ROOT
ATOM      1  C   UNL A   1      37.836  20.169  24.781  1.00  0.00     0.275 C 
ENDROOT
BRANCH   1   2
ATOM      2  C   UNL A   1      36.335  20.032  25.013  1.00  0.00     0.274 C 
BRANCH   2   3
ATOM      3  O   UNL A   1      35.817  21.094  25.843  1.00  0.00    -0.460 OA
BRANCH   3   4
ATOM      4  C   UNL A   1      34.801  21.826  25.294  1.00  0.00     0.338 C 
ATOM      5  O   UNL A   1      34.940  22.599  24.354  1.00  0.00    -0.249 OA
BRANCH   4   6
ATOM      6  C   UNL A   1      33.488  21.681  26.109  1.00  0.00     0.165 C 
ATOM      7  C   UNL A   1      33.166  23.105  26.598  1.00  0.00     0.055 C 
BRANCH   6   8
ATOM      8  C   UNL A   1      32.282  21.093  25.308  1.00  0.00     0.059 C 
ATOM      9  C   UNL A   1      31.720  22.025  24.221  1.00  0.00     0.016 C 
BRANCH   8  10
ATOM     10  C   UNL A   1      32.512  19.675  24.789  1.00  0.00    -0.039 A 
ATOM     11  C   UNL A   1      32.463  19.410  23.409  1.00  0.00     0.004 A 
ATOM     12  C   UNL A   1      32.799  18.608  25.640  1.00  0.00     0.043 A 
ATOM     13  C   UNL A   1      32.712  18.126  22.909  1.00  0.00     0.003 A 
ATOM     14  C   UNL A   1      33.050  17.333  25.140  1.00  0.00     0.123 A 
ATOM     15  C   UNL A   1      33.011  17.083  23.779  1.00  0.00     0.039 A 
ATOM     16  F   UNL A   1      33.340  16.336  25.985  1.00  0.00    -0.207 F 
ENDBRANCH   8  10
ENDBRANCH   6   8
BRANCH   6  17
ATOM     17  O   UNL A   1      33.660  20.916  27.316  1.00  0.00    -0.378 OA
ATOM     18  H   UNL A   1      33.012  21.206  27.977  1.00  0.00     0.212 HD
ENDBRANCH   6  17
ENDBRANCH   4   6
ENDBRANCH   3   4
ENDBRANCH   2   3
ENDBRANCH   1   2
BRANCH   1  19
ATOM     19  O   UNL A   1      38.311  21.355  25.435  1.00  0.00    -0.458 OA
BRANCH  19  20
ATOM     20  C   UNL A   1      39.482  21.224  26.104  1.00  0.00     0.338 C 
ATOM     21  O   UNL A   1      40.233  20.265  26.045  1.00  0.00    -0.246 OA
BRANCH  20  22
ATOM     22  C   UNL A   1      39.797  22.464  26.861  1.00  0.00     0.060 A 
ATOM     23  C   UNL A   1      39.187  23.682  26.554  1.00  0.00     0.016 A 
ATOM     24  C   UNL A   1      40.862  22.445  27.765  1.00  0.00     0.016 A 
ATOM     25  C   UNL A   1      39.761  24.877  26.999  1.00  0.00     0.010 A 
ATOM     26  C   UNL A   1      41.348  23.639  28.310  1.00  0.00     0.010 A 
ATOM     27  C   UNL A   1      40.847  24.880  27.889  1.00  0.00    -0.014 A 
BRANCH  27  28
ATOM     28  C   UNL A   1      41.460  26.154  28.379  1.00  0.00     0.031 A 
ATOM     29  C   UNL A   1      40.619  27.225  29.041  1.00  0.00     0.074 A 
ATOM     30  C   UNL A   1      42.778  26.385  28.211  1.00  0.00     0.049 A 
ATOM     31  N   UNL A   1      40.919  28.477  29.284  1.00  0.00    -0.248 NA
ATOM     32  C   UNL A   1      39.269  26.842  29.484  1.00  0.00     0.031 C 
ATOM     33  C   UNL A   1      43.735  25.442  27.632  1.00  0.00     0.029 A 
ATOM     34  N   UNL A   1      43.540  27.498  28.488  1.00  0.00    -0.354 N 
ATOM     35  C   UNL A   1      39.780  29.046  29.848  1.00  0.00     0.074 A 
ATOM     36  C   UNL A   1      38.785  27.998  29.925  1.00  0.00     0.031 C 
ATOM     37  C   UNL A   1      44.950  26.000  27.613  1.00  0.00     0.029 A 
ATOM     38  C   UNL A   1      44.838  27.387  28.049  1.00  0.00     0.049 A 
ATOM     39  H   UNL A   1      43.189  28.292  28.953  1.00  0.00     0.167 HD
ATOM     40  C   UNL A   1      39.586  30.318  30.270  1.00  0.00     0.034 A 
ATOM     41  C   UNL A   1      45.819  28.301  27.916  1.00  0.00     0.034 A 
ATOM     42  C   UNL A   1      40.599  31.343  30.259  1.00  0.00     0.049 A 
ATOM     43  C   UNL A   1      45.567  29.721  28.317  1.00  0.00     0.074 A 
ATOM     44  C   UNL A   1      40.502  32.649  30.710  1.00  0.00     0.029 A 
ATOM     45  N   UNL A   1      41.891  31.181  29.788  1.00  0.00    -0.354 N 
ATOM     46  N   UNL A   1      44.487  30.243  28.841  1.00  0.00    -0.248 NA
ATOM     47  C   UNL A   1      46.663  30.676  28.110  1.00  0.00     0.031 C 
ATOM     48  C   UNL A   1      41.731  33.282  30.496  1.00  0.00     0.029 A 
ATOM     49  C   UNL A   1      42.598  32.365  29.927  1.00  0.00     0.049 A 
ATOM     50  H   UNL A   1      42.255  30.348  29.409  1.00  0.00     0.167 HD
ATOM     51  C   UNL A   1      44.771  31.588  29.034  1.00  0.00     0.074 A 
ATOM     52  C   UNL A   1      46.136  31.795  28.593  1.00  0.00     0.031 C 
ATOM     53  C   UNL A   1      43.963  32.564  29.515  1.00  0.00     0.034 A 
BRANCH  40  54
ATOM     54  C   UNL A   1      38.240  30.700  30.833  1.00  0.00     0.023 A 
ATOM     55  C   UNL A   1      37.991  30.529  32.208  1.00  0.00     0.012 A 
ATOM     56  C   UNL A   1      37.290  31.370  30.035  1.00  0.00     0.148 A 
ATOM     57  C   UNL A   1      36.817  31.021  32.783  1.00  0.00     0.002 A 
ATOM     58  C   UNL A   1      36.140  31.889  30.621  1.00  0.00     0.091 A 
ATOM     59  F   UNL A   1      37.536  31.505  28.725  1.00  0.00    -0.205 F 
ATOM     60  C   UNL A   1      35.901  31.714  31.994  1.00  0.00     0.022 A 
BRANCH  58  61
ATOM     61  S   UNL A   1      34.947  32.876  29.706  1.00  0.00     0.127 S 
ATOM     62  O   UNL A   1      34.363  31.878  28.812  1.00  0.00    -0.237 OA
ATOM     63  O   UNL A   1      34.051  33.343  30.765  1.00  0.00    -0.237 OA
ATOM     64  O   UNL A   1      35.714  33.929  29.054  1.00  0.00    -0.744 OA
ENDBRANCH  58  61
ENDBRANCH  40  54
BRANCH  41  65
ATOM     65  C   UNL A   1      47.119  27.859  27.337  1.00  0.00     0.023 A 
ATOM     66  C   UNL A   1      48.067  27.229  28.162  1.00  0.00     0.012 A 
ATOM     67  C   UNL A   1      47.336  27.905  25.945  1.00  0.00     0.148 A 
ATOM     68  C   UNL A   1      49.196  26.627  27.606  1.00  0.00     0.002 A 
ATOM     69  C   UNL A   1      48.416  27.231  25.391  1.00  0.00     0.091 A 
ATOM     70  F   UNL A   1      46.437  28.543  25.181  1.00  0.00    -0.205 F 
ATOM     71  C   UNL A   1      49.355  26.602  26.221  1.00  0.00     0.022 A 
BRANCH  69  72
ATOM     72  S   UNL A   1      48.553  26.962  23.618  1.00  0.00     0.127 S 
ATOM     73  O   UNL A   1      47.844  25.697  23.450  1.00  0.00    -0.237 OA
ATOM     74  O   UNL A   1      47.864  28.133  23.075  1.00  0.00    -0.237 OA
ATOM     75  O   UNL A   1      49.983  26.935  23.342  1.00  0.00    -0.744 OA
ENDBRANCH  69  72
ENDBRANCH  41  65
BRANCH  53  76
ATOM     76  C   UNL A   1      44.524  33.956  29.598  1.00  0.00     0.023 A 
ATOM     77  C   UNL A   1      45.127  34.385  30.796  1.00  0.00     0.012 A 
ATOM     78  C   UNL A   1      44.523  34.809  28.476  1.00  0.00     0.148 A 
ATOM     79  C   UNL A   1      45.702  35.653  30.884  1.00  0.00     0.002 A 
ATOM     80  C   UNL A   1      45.130  36.056  28.560  1.00  0.00     0.091 A 
ATOM     81  F   UNL A   1      43.927  34.386  27.353  1.00  0.00    -0.205 F 
ATOM     82  C   UNL A   1      45.713  36.483  29.764  1.00  0.00     0.022 A 
BRANCH  80  83
ATOM     83  S   UNL A   1      45.258  37.158  27.148  1.00  0.00     0.127 S 
ATOM     84  O   UNL A   1      45.908  36.301  26.159  1.00  0.00    -0.237 OA
ATOM     85  O   UNL A   1      43.855  37.464  26.860  1.00  0.00    -0.237 OA
ATOM     86  O   UNL A   1      46.041  38.300  27.601  1.00  0.00    -0.744 OA
ENDBRANCH  80  83
ENDBRANCH  53  76
ENDBRANCH  27  28
ENDBRANCH  20  22
ENDBRANCH  19  20
ENDBRANCH   1  19
TORSDOF 17
ENDMDL
MODEL 3
REMARK VINA RESULT:     -11.3      2.023      2.779
REMARK SMILES C[C@@H](c1cccc(F)c1)[C@@](C)(O)C(=O)OCCOC(=O)c1ccc(-c2c3nc(c(-c4cccc(S(=O)(=O)[O-])c4F)c4ccc([nH]4)c(-c4cccc(S(=O)(=O)[O-])c4F)c4nc(c(-c5cccc(S(=O)(=O)[O-])c5F)c5ccc2[nH]5)C=C4)C=C3)cc1
REMARK SMILES IDX 17 1 16 2 15 3 13 4 14 5 10 6 11 7 2 8 1 9 3 10 4 11 9 12
REMARK SMILES IDX 5 13 7 14 6 15 8 16 12 17 18 19 19 20 20 21 21 22 22 23
REMARK SMILES IDX 83 24 23 25 82 26 24 27 25 28 26 29 76 30 27 31 81 32 75 33
REMARK SMILES IDX 77 34 28 35 80 36 74 37 73 38 29 40 61 41 41 42 60 43 42 44
REMARK SMILES IDX 45 45 59 46 78 47 43 48 44 49 58 51 79 52 46 53 30 54 31 55
REMARK SMILES IDX 39 56 32 57 34 58 40 59 33 60 35 61 36 62 37 63 38 64 62 65
REMARK SMILES IDX 63 66 71 67 64 68 66 69 72 70 65 71 67 72 68 73 69 74 70 75
REMARK SMILES IDX 47 76 48 77 56 78 49 79 51 80 57 81 50 82 52 83 53 84 54 85
REMARK SMILES IDX 55 86
REMARK H PARENT 12 18 77 39 45 50
REMARK Flexibility Score: inf
ROOT
ATOM      1  C   UNL A   1      31.783  30.617  26.481  1.00  0.00     0.275 C 
ENDROOT
BRANCH   1   2
ATOM      2  C   UNL A   1      32.114  29.672  25.331  1.00  0.00     0.274 C 
BRANCH   2   3
ATOM      3  O   UNL A   1      32.613  28.401  25.803  1.00  0.00    -0.460 OA
BRANCH   3   4
ATOM      4  C   UNL A   1      31.791  27.331  25.585  1.00  0.00     0.338 C 
ATOM      5  O   UNL A   1      30.886  26.993  26.339  1.00  0.00    -0.249 OA
BRANCH   4   6
ATOM      6  C   UNL A   1      32.247  26.502  24.354  1.00  0.00     0.165 C 
ATOM      7  C   UNL A   1      32.787  25.185  24.942  1.00  0.00     0.055 C 
BRANCH   6   8
ATOM      8  C   UNL A   1      31.124  26.212  23.308  1.00  0.00     0.059 C 
ATOM      9  C   UNL A   1      30.355  24.900  23.540  1.00  0.00     0.016 C 
BRANCH   8  10
ATOM     10  C   UNL A   1      30.187  27.393  23.057  1.00  0.00    -0.039 A 
ATOM     11  C   UNL A   1      30.656  28.538  22.390  1.00  0.00     0.004 A 
ATOM     12  C   UNL A   1      28.849  27.376  23.447  1.00  0.00     0.043 A 
ATOM     13  C   UNL A   1      29.804  29.614  22.113  1.00  0.00     0.003 A 
ATOM     14  C   UNL A   1      28.003  28.446  23.167  1.00  0.00     0.123 A 
ATOM     15  C   UNL A   1      28.469  29.566  22.500  1.00  0.00     0.039 A 
ATOM     16  F   UNL A   1      26.719  28.389  23.541  1.00  0.00    -0.207 F 
ENDBRANCH   8  10
ENDBRANCH   6   8
BRANCH   6  17
ATOM     17  O   UNL A   1      33.375  27.083  23.676  1.00  0.00    -0.378 OA
ATOM     18  H   UNL A   1      33.796  27.740  24.253  1.00  0.00     0.212 HD
ENDBRANCH   6  17
ENDBRANCH   4   6
ENDBRANCH   3   4
ENDBRANCH   2   3
ENDBRANCH   1   2
BRANCH   1  19
ATOM     19  O   UNL A   1      32.796  30.510  27.491  1.00  0.00    -0.458 OA
BRANCH  19  20
ATOM     20  C   UNL A   1      33.609  31.585  27.621  1.00  0.00     0.338 C 
ATOM     21  O   UNL A   1      33.252  32.751  27.625  1.00  0.00    -0.246 OA
BRANCH  20  22
ATOM     22  C   UNL A   1      35.012  31.158  27.863  1.00  0.00     0.060 A 
ATOM     23  C   UNL A   1      35.351  29.811  28.006  1.00  0.00     0.016 A 
ATOM     24  C   UNL A   1      35.971  32.135  28.142  1.00  0.00     0.016 A 
ATOM     25  C   UNL A   1      36.567  29.462  28.601  1.00  0.00     0.010 A 
ATOM     26  C   UNL A   1      37.237  31.768  28.615  1.00  0.00     0.010 A 
ATOM     27  C   UNL A   1      37.535  30.430  28.912  1.00  0.00    -0.014 A 
BRANCH  27  28
ATOM     28  C   UNL A   1      38.843  30.064  29.539  1.00  0.00     0.031 A 
ATOM     29  C   UNL A   1      39.751  29.029  28.911  1.00  0.00     0.074 A 
ATOM     30  C   UNL A   1      39.225  30.632  30.701  1.00  0.00     0.049 A 
ATOM     31  N   UNL A   1      40.774  28.401  29.435  1.00  0.00    -0.248 NA
ATOM     32  C   UNL A   1      39.473  28.647  27.516  1.00  0.00     0.031 C 
ATOM     33  C   UNL A   1      38.488  31.675  31.415  1.00  0.00     0.029 A 
ATOM     34  N   UNL A   1      40.318  30.394  31.504  1.00  0.00    -0.354 N 
ATOM     35  C   UNL A   1      41.222  27.510  28.463  1.00  0.00     0.074 A 
ATOM     36  C   UNL A   1      40.368  27.687  27.309  1.00  0.00     0.031 C 
ATOM     37  C   UNL A   1      39.151  32.001  32.530  1.00  0.00     0.029 A 
ATOM     38  C   UNL A   1      40.285  31.098  32.684  1.00  0.00     0.049 A 
ATOM     39  H   UNL A   1      41.048  29.781  31.256  1.00  0.00     0.167 HD
ATOM     40  C   UNL A   1      42.255  26.635  28.524  1.00  0.00     0.034 A 
ATOM     41  C   UNL A   1      41.013  30.988  33.813  1.00  0.00     0.034 A 
ATOM     42  C   UNL A   1      43.150  26.509  29.646  1.00  0.00     0.049 A 
ATOM     43  C   UNL A   1      42.103  29.965  33.893  1.00  0.00     0.074 A 
ATOM     44  C   UNL A   1      44.250  25.677  29.775  1.00  0.00     0.029 A 
ATOM     45  N   UNL A   1      43.060  27.233  30.823  1.00  0.00    -0.354 N 
ATOM     46  N   UNL A   1      42.509  29.128  32.971  1.00  0.00    -0.248 NA
ATOM     47  C   UNL A   1      42.833  29.868  35.164  1.00  0.00     0.031 C 
ATOM     48  C   UNL A   1      44.817  25.888  31.036  1.00  0.00     0.029 A 
ATOM     49  C   UNL A   1      44.079  26.862  31.686  1.00  0.00     0.049 A 
ATOM     50  H   UNL A   1      42.374  27.912  31.017  1.00  0.00     0.167 HD
ATOM     51  C   UNL A   1      43.547  28.408  33.545  1.00  0.00     0.074 A 
ATOM     52  C   UNL A   1      43.724  28.923  34.887  1.00  0.00     0.031 C 
ATOM     53  C   UNL A   1      44.272  27.395  33.009  1.00  0.00     0.034 A 
BRANCH  40  54
ATOM     54  C   UNL A   1      42.531  25.753  27.332  1.00  0.00     0.023 A 
ATOM     55  C   UNL A   1      43.389  26.212  26.314  1.00  0.00     0.012 A 
ATOM     56  C   UNL A   1      42.071  24.420  27.301  1.00  0.00     0.148 A 
ATOM     57  C   UNL A   1      43.787  25.359  25.284  1.00  0.00     0.002 A 
ATOM     58  C   UNL A   1      42.502  23.565  26.292  1.00  0.00     0.091 A 
ATOM     59  F   UNL A   1      41.239  24.008  28.268  1.00  0.00    -0.205 F 
ATOM     60  C   UNL A   1      43.358  24.033  25.282  1.00  0.00     0.022 A 
BRANCH  58  61
ATOM     61  S   UNL A   1      42.076  21.817  26.256  1.00  0.00     0.127 S 
ATOM     62  O   UNL A   1      40.652  21.867  25.933  1.00  0.00    -0.237 OA
ATOM     63  O   UNL A   1      42.928  21.312  25.177  1.00  0.00    -0.237 OA
ATOM     64  O   UNL A   1      42.403  21.299  27.577  1.00  0.00    -0.744 OA
ENDBRANCH  58  61
ENDBRANCH  40  54
BRANCH  41  65
ATOM     65  C   UNL A   1      40.676  31.880  34.958  1.00  0.00     0.023 A 
ATOM     66  C   UNL A   1      41.162  33.199  34.975  1.00  0.00     0.012 A 
ATOM     67  C   UNL A   1      39.737  31.475  35.928  1.00  0.00     0.148 A 
ATOM     68  C   UNL A   1      40.695  34.108  35.926  1.00  0.00     0.002 A 
ATOM     69  C   UNL A   1      39.215  32.407  36.815  1.00  0.00     0.091 A 
ATOM     70  F   UNL A   1      39.315  30.202  35.915  1.00  0.00    -0.205 F 
ATOM     71  C   UNL A   1      39.702  33.722  36.824  1.00  0.00     0.022 A 
BRANCH  69  72
ATOM     72  S   UNL A   1      37.779  32.040  37.833  1.00  0.00     0.127 S 
ATOM     73  O   UNL A   1      38.284  32.309  39.176  1.00  0.00    -0.237 OA
ATOM     74  O   UNL A   1      36.796  33.006  37.339  1.00  0.00    -0.237 OA
ATOM     75  O   UNL A   1      37.443  30.653  37.542  1.00  0.00    -0.744 OA
ENDBRANCH  69  72
ENDBRANCH  41  65
BRANCH  53  76
ATOM     76  C   UNL A   1      45.334  26.768  33.869  1.00  0.00     0.023 A 
ATOM     77  C   UNL A   1      46.647  27.275  33.822  1.00  0.00     0.012 A 
ATOM     78  C   UNL A   1      45.022  25.732  34.772  1.00  0.00     0.148 A 
ATOM     79  C   UNL A   1      47.640  26.746  34.646  1.00  0.00     0.002 A 
ATOM     80  C   UNL A   1      46.007  25.235  35.617  1.00  0.00     0.091 A 
ATOM     81  F   UNL A   1      43.770  25.253  34.786  1.00  0.00    -0.205 F 
ATOM     82  C   UNL A   1      47.318  25.735  35.550  1.00  0.00     0.022 A 
BRANCH  80  83
ATOM     83  S   UNL A   1      45.664  23.987  36.862  1.00  0.00     0.127 S 
ATOM     84  O   UNL A   1      45.162  22.883  36.046  1.00  0.00    -0.237 OA
ATOM     85  O   UNL A   1      46.985  23.759  37.450  1.00  0.00    -0.237 OA
ATOM     86  O   UNL A   1      44.697  24.586  37.772  1.00  0.00    -0.744 OA
ENDBRANCH  80  83
ENDBRANCH  53  76
ENDBRANCH  27  28
ENDBRANCH  20  22
ENDBRANCH  19  20
ENDBRANCH   1  19
TORSDOF 17
ENDMDL
