MODEL 1
REMARK VINA RESULT:     -11.7      0.000      0.000
REMARK SMILES CCOC(=O)c1c(NC(=O)c2ncccc2C(=O)OCCOC(=O)c2ccc(-c3c4nc(c(-c5cccc(S(=O)(=O)[O-])c5F)c5ccc([nH]5)c(-c5cccc(S(=O)(=O)[O-])c5F)c5nc(c(-c6cccc(S(=O)(=O)[O-])c6F)c6ccc3[nH]6)C=C5)C=C4)cc2)sc2c1CC[C@H](C)C2
REMARK SMILES IDX 20 1 19 2 17 3 18 4 16 5 11 6 12 7 13 8 15 9 14 10 9 11 8 12
REMARK SMILES IDX 10 14 7 15 6 16 90 17 88 18 89 19 91 20 95 21 92 22 93 23
REMARK SMILES IDX 94 24 4 25 5 26 3 27 2 28 1 29 21 30 22 31 23 32 24 33 25 34
REMARK SMILES IDX 26 35 87 36 27 37 86 38 28 39 29 40 30 41 80 42 31 43 85 44
REMARK SMILES IDX 79 45 81 46 32 47 84 48 78 49 77 50 33 52 65 53 45 54 64 55
REMARK SMILES IDX 46 56 49 57 63 58 82 59 47 60 48 61 62 63 83 64 50 65 34 66
REMARK SMILES IDX 35 67 43 68 36 69 38 70 44 71 37 72 39 73 40 74 41 75 42 76
REMARK SMILES IDX 66 77 67 78 75 79 68 80 70 81 76 82 69 83 71 84 72 85 73 86
REMARK SMILES IDX 74 87 51 88 52 89 60 90 53 91 55 92 61 93 54 94 56 95 57 96
REMARK SMILES IDX 58 97 59 98
REMARK H PARENT 8 13 81 51 49 62
REMARK Flexibility Score: inf
ROOT
ATOM      1  C   UNL A   1      36.412  20.905  24.725  1.00  0.00     0.275 C 
ENDROOT
BRANCH   1   2
ATOM      2  O   UNL A   1      36.691  22.313  24.549  1.00  0.00    -0.458 OA
BRANCH   2   3
ATOM      3  C   UNL A   1      36.005  22.940  23.556  1.00  0.00     0.340 C 
ATOM      4  O   UNL A   1      36.297  22.977  22.372  1.00  0.00    -0.246 OA
BRANCH   3   5
ATOM      5  C   UNL A   1      34.957  23.789  24.127  1.00  0.00     0.091 A 
ATOM      6  C   UNL A   1      33.824  24.232  23.457  1.00  0.00     0.142 A 
ATOM      7  N   UNL A   1      33.165  25.374  23.833  1.00  0.00    -0.250 NA
ATOM      8  C   UNL A   1      33.626  26.048  24.903  1.00  0.00     0.112 A 
ATOM      9  C   UNL A   1      35.313  24.433  25.320  1.00  0.00     0.020 A 
ATOM     10  C   UNL A   1      34.637  25.580  25.717  1.00  0.00     0.021 A 
BRANCH   6  11
ATOM     11  C   UNL A   1      33.224  23.648  22.233  1.00  0.00     0.275 C 
ATOM     12  N   UNL A   1      32.286  22.628  22.247  1.00  0.00    -0.311 N 
ATOM     13  H   UNL A   1      31.610  22.675  21.533  1.00  0.00     0.171 HD
ATOM     14  O   UNL A   1      33.450  24.216  21.159  1.00  0.00    -0.267 OA
BRANCH  12  15
ATOM     15  C   UNL A   1      32.152  21.560  23.106  1.00  0.00     0.110 A 
ATOM     16  C   UNL A   1      32.075  21.298  24.461  1.00  0.00     0.098 A 
ATOM     17  C   UNL A   1      32.507  19.929  24.717  1.00  0.00    -0.017 A 
ATOM     18  S   UNL A   1      32.058  20.098  22.222  1.00  0.00    -0.122 S 
ATOM     19  C   UNL A   1      32.708  19.248  23.531  1.00  0.00     0.011 A 
ATOM     20  C   UNL A   1      32.661  19.225  26.035  1.00  0.00     0.038 C 
ATOM     21  C   UNL A   1      33.294  17.885  23.388  1.00  0.00     0.050 C 
ATOM     22  C   UNL A   1      33.325  17.830  25.913  1.00  0.00     0.008 C 
ATOM     23  C   UNL A   1      32.936  17.056  24.630  1.00  0.00    -0.009 C 
ATOM     24  C   UNL A   1      33.618  15.690  24.565  1.00  0.00     0.008 C 
BRANCH  16  25
ATOM     25  C   UNL A   1      31.586  22.253  25.434  1.00  0.00     0.341 C 
ATOM     26  O   UNL A   1      30.404  22.552  25.567  1.00  0.00    -0.246 OA
BRANCH  25  27
ATOM     27  O   UNL A   1      32.625  22.801  26.119  1.00  0.00    -0.462 OA
BRANCH  27  28
ATOM     28  C   UNL A   1      32.819  22.535  27.511  1.00  0.00     0.230 C 
ATOM     29  C   UNL A   1      34.174  21.975  27.880  1.00  0.00     0.049 C 
ENDBRANCH  27  28
ENDBRANCH  25  27
ENDBRANCH  16  25
ENDBRANCH  12  15
ENDBRANCH   6  11
ENDBRANCH   3   5
ENDBRANCH   2   3
ENDBRANCH   1   2
BRANCH   1  30
ATOM     30  C   UNL A   1      37.678  20.079  24.960  1.00  0.00     0.275 C 
BRANCH  30  31
ATOM     31  O   UNL A   1      38.682  20.764  25.719  1.00  0.00    -0.458 OA
BRANCH  31  32
ATOM     32  C   UNL A   1      39.845  20.086  25.766  1.00  0.00     0.338 C 
ATOM     33  O   UNL A   1      39.978  18.884  25.620  1.00  0.00    -0.246 OA
BRANCH  32  34
ATOM     34  C   UNL A   1      40.926  20.840  26.386  1.00  0.00     0.060 A 
ATOM     35  C   UNL A   1      40.801  20.992  27.767  1.00  0.00     0.016 A 
ATOM     36  C   UNL A   1      41.691  21.713  25.612  1.00  0.00     0.016 A 
ATOM     37  C   UNL A   1      41.194  22.183  28.323  1.00  0.00     0.010 A 
ATOM     38  C   UNL A   1      42.195  22.852  26.208  1.00  0.00     0.010 A 
ATOM     39  C   UNL A   1      41.849  23.137  27.530  1.00  0.00    -0.014 A 
BRANCH  39  40
ATOM     40  C   UNL A   1      42.357  24.319  28.224  1.00  0.00     0.031 A 
ATOM     41  C   UNL A   1      41.439  25.491  28.056  1.00  0.00     0.074 A 
ATOM     42  C   UNL A   1      43.437  24.286  29.035  1.00  0.00     0.049 A 
ATOM     43  N   UNL A   1      41.716  26.690  27.654  1.00  0.00    -0.248 NA
ATOM     44  C   UNL A   1      39.984  25.210  28.128  1.00  0.00     0.031 C 
ATOM     45  C   UNL A   1      44.237  23.115  29.407  1.00  0.00     0.029 A 
ATOM     46  N   UNL A   1      43.923  25.254  29.866  1.00  0.00    -0.354 N 
ATOM     47  C   UNL A   1      40.491  27.358  27.658  1.00  0.00     0.074 A 
ATOM     48  C   UNL A   1      39.463  26.358  27.708  1.00  0.00     0.031 C 
ATOM     49  C   UNL A   1      44.849  23.355  30.585  1.00  0.00     0.029 A 
ATOM     50  C   UNL A   1      44.569  24.721  30.986  1.00  0.00     0.049 A 
ATOM     51  H   UNL A   1      43.828  26.219  29.697  1.00  0.00     0.167 HD
ATOM     52  C   UNL A   1      40.402  28.677  27.968  1.00  0.00     0.034 A 
ATOM     53  C   UNL A   1      44.719  25.311  32.199  1.00  0.00     0.034 A 
ATOM     54  C   UNL A   1      41.627  29.372  27.703  1.00  0.00     0.049 A 
ATOM     55  C   UNL A   1      44.460  26.759  32.024  1.00  0.00     0.074 A 
ATOM     56  C   UNL A   1      42.418  29.539  26.582  1.00  0.00     0.029 A 
ATOM     57  N   UNL A   1      42.417  29.696  28.776  1.00  0.00    -0.354 N 
ATOM     58  N   UNL A   1      45.231  27.553  31.339  1.00  0.00    -0.248 NA
ATOM     59  C   UNL A   1      43.099  27.226  32.238  1.00  0.00     0.031 C 
ATOM     60  C   UNL A   1      43.755  29.470  27.067  1.00  0.00     0.029 A 
ATOM     61  C   UNL A   1      43.701  29.341  28.456  1.00  0.00     0.049 A 
ATOM     62  H   UNL A   1      42.118  30.107  29.619  1.00  0.00     0.167 HD
ATOM     63  C   UNL A   1      44.346  28.370  30.648  1.00  0.00     0.074 A 
ATOM     64  C   UNL A   1      43.056  28.185  31.311  1.00  0.00     0.031 C 
ATOM     65  C   UNL A   1      44.667  28.884  29.426  1.00  0.00     0.034 A 
BRANCH  52  66
ATOM     66  C   UNL A   1      39.334  29.212  28.894  1.00  0.00     0.023 A 
ATOM     67  C   UNL A   1      38.513  30.253  28.421  1.00  0.00     0.012 A 
ATOM     68  C   UNL A   1      39.274  28.931  30.283  1.00  0.00     0.148 A 
ATOM     69  C   UNL A   1      37.700  30.991  29.290  1.00  0.00     0.002 A 
ATOM     70  C   UNL A   1      38.395  29.597  31.123  1.00  0.00     0.091 A 
ATOM     71  F   UNL A   1      40.174  28.121  30.848  1.00  0.00    -0.205 F 
ATOM     72  C   UNL A   1      37.627  30.653  30.638  1.00  0.00     0.022 A 
BRANCH  70  73
ATOM     73  S   UNL A   1      38.235  29.144  32.855  1.00  0.00     0.127 S 
ATOM     74  O   UNL A   1      37.289  30.147  33.334  1.00  0.00    -0.237 OA
ATOM     75  O   UNL A   1      37.704  27.784  32.759  1.00  0.00    -0.237 OA
ATOM     76  O   UNL A   1      39.584  29.216  33.403  1.00  0.00    -0.744 OA
ENDBRANCH  70  73
ENDBRANCH  52  66
BRANCH  53  77
ATOM     77  C   UNL A   1      44.728  24.689  33.551  1.00  0.00     0.023 A 
ATOM     78  C   UNL A   1      43.514  24.255  34.122  1.00  0.00     0.012 A 
ATOM     79  C   UNL A   1      45.930  24.270  34.165  1.00  0.00     0.148 A 
ATOM     80  C   UNL A   1      43.498  23.413  35.242  1.00  0.00     0.002 A 
ATOM     81  C   UNL A   1      45.910  23.448  35.288  1.00  0.00     0.091 A 
ATOM     82  F   UNL A   1      47.098  24.593  33.595  1.00  0.00    -0.205 F 
ATOM     83  C   UNL A   1      44.696  23.005  35.823  1.00  0.00     0.022 A 
BRANCH  81  84
ATOM     84  S   UNL A   1      47.423  22.878  36.077  1.00  0.00     0.127 S 
ATOM     85  O   UNL A   1      48.046  24.138  36.487  1.00  0.00    -0.237 OA
ATOM     86  O   UNL A   1      46.906  22.065  37.174  1.00  0.00    -0.237 OA
ATOM     87  O   UNL A   1      48.162  22.158  35.046  1.00  0.00    -0.744 OA
ENDBRANCH  81  84
ENDBRANCH  53  77
BRANCH  65  88
ATOM     88  C   UNL A   1      46.089  28.749  28.945  1.00  0.00     0.023 A 
ATOM     89  C   UNL A   1      47.105  29.664  29.292  1.00  0.00     0.012 A 
ATOM     90  C   UNL A   1      46.440  27.572  28.265  1.00  0.00     0.148 A 
ATOM     91  C   UNL A   1      48.438  29.421  28.944  1.00  0.00     0.002 A 
ATOM     92  C   UNL A   1      47.770  27.311  27.962  1.00  0.00     0.091 A 
ATOM     93  F   UNL A   1      45.463  26.710  27.944  1.00  0.00    -0.205 F 
ATOM     94  C   UNL A   1      48.772  28.236  28.291  1.00  0.00     0.022 A 
BRANCH  92  95
ATOM     95  S   UNL A   1      48.268  25.749  27.234  1.00  0.00     0.127 S 
ATOM     96  O   UNL A   1      47.521  24.786  28.039  1.00  0.00    -0.237 OA
ATOM     97  O   UNL A   1      47.805  25.882  25.852  1.00  0.00    -0.237 OA
ATOM     98  O   UNL A   1      49.719  25.690  27.370  1.00  0.00    -0.744 OA
ENDBRANCH  92  95
ENDBRANCH  65  88
ENDBRANCH  39  40
ENDBRANCH  32  34
ENDBRANCH  31  32
ENDBRANCH  30  31
ENDBRANCH   1  30
TORSDOF 19
ENDMDL
MODEL 2
REMARK VINA RESULT:     -11.5      1.797      3.908
REMARK SMILES CCOC(=O)c1c(NC(=O)c2ncccc2C(=O)OCCOC(=O)c2ccc(-c3c4nc(c(-c5cccc(S(=O)(=O)[O-])c5F)c5ccc([nH]5)c(-c5cccc(S(=O)(=O)[O-])c5F)c5nc(c(-c6cccc(S(=O)(=O)[O-])c6F)c6ccc3[nH]6)C=C5)C=C4)cc2)sc2c1CC[C@H](C)C2
REMARK SMILES IDX 20 1 19 2 17 3 18 4 16 5 11 6 12 7 13 8 15 9 14 10 9 11 8 12
REMARK SMILES IDX 10 14 7 15 6 16 90 17 88 18 89 19 91 20 95 21 92 22 93 23
REMARK SMILES IDX 94 24 4 25 5 26 3 27 2 28 1 29 21 30 22 31 23 32 24 33 25 34
REMARK SMILES IDX 26 35 87 36 27 37 86 38 28 39 29 40 30 41 80 42 31 43 85 44
REMARK SMILES IDX 79 45 81 46 32 47 84 48 78 49 77 50 33 52 65 53 45 54 64 55
REMARK SMILES IDX 46 56 49 57 63 58 82 59 47 60 48 61 62 63 83 64 50 65 34 66
REMARK SMILES IDX 35 67 43 68 36 69 38 70 44 71 37 72 39 73 40 74 41 75 42 76
REMARK SMILES IDX 66 77 67 78 75 79 68 80 70 81 76 82 69 83 71 84 72 85 73 86
REMARK SMILES IDX 74 87 51 88 52 89 60 90 53 91 55 92 61 93 54 94 56 95 57 96
REMARK SMILES IDX 58 97 59 98
REMARK H PARENT 8 13 81 51 49 62
REMARK Flexibility Score: inf
ROOT
ATOM      1  C   UNL A   1      37.158  21.300  24.492  1.00  0.00     0.275 C 
ENDROOT
BRANCH   1   2
ATOM      2  O   UNL A   1      35.990  22.069  24.860  1.00  0.00    -0.458 OA
BRANCH   2   3
ATOM      3  C   UNL A   1      35.351  22.709  23.844  1.00  0.00     0.340 C 
ATOM      4  O   UNL A   1      35.821  23.550  23.095  1.00  0.00    -0.246 OA
BRANCH   3   5
ATOM      5  C   UNL A   1      33.915  22.429  23.897  1.00  0.00     0.091 A 
ATOM      6  C   UNL A   1      32.919  23.210  23.324  1.00  0.00     0.142 A 
ATOM      7  N   UNL A   1      31.633  23.201  23.800  1.00  0.00    -0.250 NA
ATOM      8  C   UNL A   1      31.344  22.382  24.828  1.00  0.00     0.112 A 
ATOM      9  C   UNL A   1      33.540  21.484  24.863  1.00  0.00     0.020 A 
ATOM     10  C   UNL A   1      32.233  21.458  25.335  1.00  0.00     0.021 A 
BRANCH   6  11
ATOM     11  C   UNL A   1      33.079  24.204  22.235  1.00  0.00     0.275 C 
ATOM     12  N   UNL A   1      33.313  25.552  22.453  1.00  0.00    -0.311 N 
ATOM     13  H   UNL A   1      33.890  25.986  21.783  1.00  0.00     0.171 HD
ATOM     14  O   UNL A   1      33.171  23.775  21.080  1.00  0.00    -0.267 OA
BRANCH  12  15
ATOM     15  C   UNL A   1      32.867  26.378  23.460  1.00  0.00     0.110 A 
ATOM     16  C   UNL A   1      31.789  27.190  23.759  1.00  0.00     0.098 A 
ATOM     17  C   UNL A   1      32.200  28.210  24.716  1.00  0.00    -0.017 A 
ATOM     18  S   UNL A   1      34.004  26.422  24.737  1.00  0.00    -0.122 S 
ATOM     19  C   UNL A   1      33.486  27.974  25.165  1.00  0.00     0.011 A 
ATOM     20  C   UNL A   1      31.396  29.351  25.274  1.00  0.00     0.038 C 
ATOM     21  C   UNL A   1      34.297  28.879  26.027  1.00  0.00     0.050 C 
ATOM     22  C   UNL A   1      32.237  30.338  26.124  1.00  0.00     0.008 C 
ATOM     23  C   UNL A   1      33.355  29.661  26.953  1.00  0.00    -0.009 C 
ATOM     24  C   UNL A   1      34.148  30.680  27.771  1.00  0.00     0.008 C 
BRANCH  16  25
ATOM     25  C   UNL A   1      30.461  26.988  23.218  1.00  0.00     0.341 C 
ATOM     26  O   UNL A   1      29.716  26.073  23.552  1.00  0.00    -0.246 OA
BRANCH  25  27
ATOM     27  O   UNL A   1      30.197  27.913  22.257  1.00  0.00    -0.462 OA
BRANCH  27  28
ATOM     28  C   UNL A   1      29.154  28.877  22.420  1.00  0.00     0.230 C 
ATOM     29  C   UNL A   1      29.470  30.267  21.916  1.00  0.00     0.049 C 
ENDBRANCH  27  28
ENDBRANCH  25  27
ENDBRANCH  16  25
ENDBRANCH  12  15
ENDBRANCH   6  11
ENDBRANCH   3   5
ENDBRANCH   2   3
ENDBRANCH   1   2
BRANCH   1  30
ATOM     30  C   UNL A   1      38.351  21.567  25.412  1.00  0.00     0.275 C 
BRANCH  30  31
ATOM     31  O   UNL A   1      38.713  20.447  26.230  1.00  0.00    -0.458 OA
BRANCH  31  32
ATOM     32  C   UNL A   1      39.950  19.988  25.959  1.00  0.00     0.338 C 
ATOM     33  O   UNL A   1      40.223  18.885  25.519  1.00  0.00    -0.246 OA
BRANCH  32  34
ATOM     34  C   UNL A   1      41.005  20.772  26.586  1.00  0.00     0.060 A 
ATOM     35  C   UNL A   1      40.826  20.985  27.952  1.00  0.00     0.016 A 
ATOM     36  C   UNL A   1      41.797  21.613  25.804  1.00  0.00     0.016 A 
ATOM     37  C   UNL A   1      41.195  22.200  28.470  1.00  0.00     0.010 A 
ATOM     38  C   UNL A   1      42.275  22.779  26.367  1.00  0.00     0.010 A 
ATOM     39  C   UNL A   1      41.879  23.121  27.662  1.00  0.00    -0.014 A 
BRANCH  39  40
ATOM     40  C   UNL A   1      42.357  24.335  28.321  1.00  0.00     0.031 A 
ATOM     41  C   UNL A   1      41.412  25.479  28.118  1.00  0.00     0.074 A 
ATOM     42  C   UNL A   1      43.436  24.350  29.135  1.00  0.00     0.049 A 
ATOM     43  N   UNL A   1      41.662  26.672  27.682  1.00  0.00    -0.248 NA
ATOM     44  C   UNL A   1      39.964  25.166  28.197  1.00  0.00     0.031 C 
ATOM     45  C   UNL A   1      44.263  23.210  29.541  1.00  0.00     0.029 A 
ATOM     46  N   UNL A   1      43.897  25.353  29.938  1.00  0.00    -0.354 N 
ATOM     47  C   UNL A   1      40.421  27.310  27.665  1.00  0.00     0.074 A 
ATOM     48  C   UNL A   1      39.417  26.288  27.742  1.00  0.00     0.031 C 
ATOM     49  C   UNL A   1      44.867  23.498  30.713  1.00  0.00     0.029 A 
ATOM     50  C   UNL A   1      44.554  24.868  31.073  1.00  0.00     0.049 A 
ATOM     51  H   UNL A   1      43.781  26.310  29.740  1.00  0.00     0.167 HD
ATOM     52  C   UNL A   1      40.300  28.635  27.936  1.00  0.00     0.034 A 
ATOM     53  C   UNL A   1      44.688  25.496  32.269  1.00  0.00     0.034 A 
ATOM     54  C   UNL A   1      41.509  29.352  27.652  1.00  0.00     0.049 A 
ATOM     55  C   UNL A   1      44.395  26.932  32.052  1.00  0.00     0.074 A 
ATOM     56  C   UNL A   1      42.298  29.505  26.528  1.00  0.00     0.029 A 
ATOM     57  N   UNL A   1      42.290  29.725  28.717  1.00  0.00    -0.354 N 
ATOM     58  N   UNL A   1      45.148  27.724  31.344  1.00  0.00    -0.248 NA
ATOM     59  C   UNL A   1      43.023  27.373  32.250  1.00  0.00     0.031 C 
ATOM     60  C   UNL A   1      43.636  29.481  27.017  1.00  0.00     0.029 A 
ATOM     61  C   UNL A   1      43.582  29.391  28.409  1.00  0.00     0.049 A 
ATOM     62  H   UNL A   1      41.979  30.153  29.547  1.00  0.00     0.167 HD
ATOM     63  C   UNL A   1      44.245  28.500  30.629  1.00  0.00     0.074 A 
ATOM     64  C   UNL A   1      42.959  28.304  31.295  1.00  0.00     0.031 C 
ATOM     65  C   UNL A   1      44.557  28.986  29.393  1.00  0.00     0.034 A 
BRANCH  52  66
ATOM     66  C   UNL A   1      39.218  29.172  28.845  1.00  0.00     0.023 A 
ATOM     67  C   UNL A   1      38.430  30.238  28.372  1.00  0.00     0.012 A 
ATOM     68  C   UNL A   1      39.117  28.864  30.226  1.00  0.00     0.148 A 
ATOM     69  C   UNL A   1      37.608  30.973  29.235  1.00  0.00     0.002 A 
ATOM     70  C   UNL A   1      38.228  29.530  31.055  1.00  0.00     0.091 A 
ATOM     71  F   UNL A   1      39.986  28.025  30.797  1.00  0.00    -0.205 F 
ATOM     72  C   UNL A   1      37.493  30.610  30.573  1.00  0.00     0.022 A 
BRANCH  70  73
ATOM     73  S   UNL A   1      38.013  29.044  32.773  1.00  0.00     0.127 S 
ATOM     74  O   UNL A   1      36.749  29.693  33.105  1.00  0.00    -0.237 OA
ATOM     75  O   UNL A   1      37.955  27.586  32.665  1.00  0.00    -0.237 OA
ATOM     76  O   UNL A   1      39.194  29.539  33.469  1.00  0.00    -0.744 OA
ENDBRANCH  70  73
ENDBRANCH  52  66
BRANCH  53  77
ATOM     77  C   UNL A   1      44.709  24.915  33.638  1.00  0.00     0.023 A 
ATOM     78  C   UNL A   1      43.494  24.544  34.252  1.00  0.00     0.012 A 
ATOM     79  C   UNL A   1      45.910  24.468  34.234  1.00  0.00     0.148 A 
ATOM     80  C   UNL A   1      43.476  23.737  35.398  1.00  0.00     0.002 A 
ATOM     81  C   UNL A   1      45.888  23.681  35.382  1.00  0.00     0.091 A 
ATOM     82  F   UNL A   1      47.074  24.729  33.626  1.00  0.00    -0.205 F 
ATOM     83  C   UNL A   1      44.672  23.300  35.960  1.00  0.00     0.022 A 
BRANCH  81  84
ATOM     84  S   UNL A   1      47.399  23.077  36.150  1.00  0.00     0.127 S 
ATOM     85  O   UNL A   1      48.136  24.319  36.390  1.00  0.00    -0.237 OA
ATOM     86  O   UNL A   1      46.889  22.425  37.352  1.00  0.00    -0.237 OA
ATOM     87  O   UNL A   1      48.020  22.198  35.166  1.00  0.00    -0.744 OA
ENDBRANCH  81  84
ENDBRANCH  53  77
BRANCH  65  88
ATOM     88  C   UNL A   1      45.982  28.870  28.917  1.00  0.00     0.023 A 
ATOM     89  C   UNL A   1      46.983  29.803  29.263  1.00  0.00     0.012 A 
ATOM     90  C   UNL A   1      46.355  27.695  28.245  1.00  0.00     0.148 A 
ATOM     91  C   UNL A   1      48.320  29.579  28.922  1.00  0.00     0.002 A 
ATOM     92  C   UNL A   1      47.689  27.453  27.949  1.00  0.00     0.091 A 
ATOM     93  F   UNL A   1      45.392  26.816  27.925  1.00  0.00    -0.205 F 
ATOM     94  C   UNL A   1      48.675  28.396  28.277  1.00  0.00     0.022 A 
BRANCH  92  95
ATOM     95  S   UNL A   1      48.215  25.895  27.232  1.00  0.00     0.127 S 
ATOM     96  O   UNL A   1      49.670  25.994  27.323  1.00  0.00    -0.237 OA
ATOM     97  O   UNL A   1      47.610  24.912  28.132  1.00  0.00    -0.237 OA
ATOM     98  O   UNL A   1      47.670  25.874  25.880  1.00  0.00    -0.744 OA
ENDBRANCH  92  95
ENDBRANCH  65  88
ENDBRANCH  39  40
ENDBRANCH  32  34
ENDBRANCH  31  32
ENDBRANCH  30  31
ENDBRANCH   1  30
TORSDOF 19
ENDMDL
MODEL 3
REMARK VINA RESULT:     -11.1      3.237      7.308
REMARK SMILES CCOC(=O)c1c(NC(=O)c2ncccc2C(=O)OCCOC(=O)c2ccc(-c3c4nc(c(-c5cccc(S(=O)(=O)[O-])c5F)c5ccc([nH]5)c(-c5cccc(S(=O)(=O)[O-])c5F)c5nc(c(-c6cccc(S(=O)(=O)[O-])c6F)c6ccc3[nH]6)C=C5)C=C4)cc2)sc2c1CC[C@H](C)C2
REMARK SMILES IDX 20 1 19 2 17 3 18 4 16 5 11 6 12 7 13 8 15 9 14 10 9 11 8 12
REMARK SMILES IDX 10 14 7 15 6 16 90 17 88 18 89 19 91 20 95 21 92 22 93 23
REMARK SMILES IDX 94 24 4 25 5 26 3 27 2 28 1 29 21 30 22 31 23 32 24 33 25 34
REMARK SMILES IDX 26 35 87 36 27 37 86 38 28 39 29 40 30 41 80 42 31 43 85 44
REMARK SMILES IDX 79 45 81 46 32 47 84 48 78 49 77 50 33 52 65 53 45 54 64 55
REMARK SMILES IDX 46 56 49 57 63 58 82 59 47 60 48 61 62 63 83 64 50 65 34 66
REMARK SMILES IDX 35 67 43 68 36 69 38 70 44 71 37 72 39 73 40 74 41 75 42 76
REMARK SMILES IDX 66 77 67 78 75 79 68 80 70 81 76 82 69 83 71 84 72 85 73 86
REMARK SMILES IDX 74 87 51 88 52 89 60 90 53 91 55 92 61 93 54 94 56 95 57 96
REMARK SMILES IDX 58 97 59 98
REMARK H PARENT 8 13 81 51 49 62
REMARK Flexibility Score: inf
ROOT
ATOM      1  C   UNL A   1      37.062  21.750  24.901  1.00  0.00     0.275 C 
ENDROOT
BRANCH   1   2
ATOM      2  O   UNL A   1      36.630  23.122  24.755  1.00  0.00    -0.458 OA
BRANCH   2   3
ATOM      3  C   UNL A   1      35.669  23.351  23.819  1.00  0.00     0.340 C 
ATOM      4  O   UNL A   1      35.658  22.953  22.666  1.00  0.00    -0.246 OA
BRANCH   3   5
ATOM      5  C   UNL A   1      34.723  24.357  24.305  1.00  0.00     0.091 A 
ATOM      6  C   UNL A   1      33.732  24.964  23.546  1.00  0.00     0.142 A 
ATOM      7  N   UNL A   1      33.229  26.199  23.871  1.00  0.00    -0.250 NA
ATOM      8  C   UNL A   1      33.699  26.801  24.979  1.00  0.00     0.112 A 
ATOM      9  C   UNL A   1      35.075  24.948  25.527  1.00  0.00     0.020 A 
ATOM     10  C   UNL A   1      34.555  26.189  25.871  1.00  0.00     0.021 A 
BRANCH   6  11
ATOM     11  C   UNL A   1      33.151  24.471  22.274  1.00  0.00     0.275 C 
ATOM     12  N   UNL A   1      32.220  23.447  22.199  1.00  0.00    -0.311 N 
ATOM     13  H   UNL A   1      31.553  23.544  21.482  1.00  0.00     0.171 HD
ATOM     14  O   UNL A   1      33.388  25.119  21.249  1.00  0.00    -0.267 OA
BRANCH  12  15
ATOM     15  C   UNL A   1      32.081  22.317  22.973  1.00  0.00     0.110 A 
ATOM     16  C   UNL A   1      32.066  21.945  24.304  1.00  0.00     0.098 A 
ATOM     17  C   UNL A   1      32.445  20.541  24.421  1.00  0.00    -0.017 A 
ATOM     18  S   UNL A   1      31.870  20.941  21.979  1.00  0.00    -0.122 S 
ATOM     19  C   UNL A   1      32.549  19.955  23.174  1.00  0.00     0.011 A 
ATOM     20  C   UNL A   1      32.637  19.723  25.666  1.00  0.00     0.038 C 
ATOM     21  C   UNL A   1      33.060  18.586  22.885  1.00  0.00     0.050 C 
ATOM     22  C   UNL A   1      33.226  18.315  25.391  1.00  0.00     0.008 C 
ATOM     23  C   UNL A   1      32.731  17.671  24.074  1.00  0.00    -0.009 C 
ATOM     24  C   UNL A   1      33.343  16.287  23.857  1.00  0.00     0.008 C 
BRANCH  16  25
ATOM     25  C   UNL A   1      31.677  22.835  25.379  1.00  0.00     0.341 C 
ATOM     26  O   UNL A   1      32.165  22.805  26.504  1.00  0.00    -0.246 OA
BRANCH  25  27
ATOM     27  O   UNL A   1      30.666  23.649  24.975  1.00  0.00    -0.462 OA
BRANCH  27  28
ATOM     28  C   UNL A   1      30.467  24.935  25.566  1.00  0.00     0.230 C 
ATOM     29  C   UNL A   1      29.801  25.961  24.677  1.00  0.00     0.049 C 
ENDBRANCH  27  28
ENDBRANCH  25  27
ENDBRANCH  16  25
ENDBRANCH  12  15
ENDBRANCH   6  11
ENDBRANCH   3   5
ENDBRANCH   2   3
ENDBRANCH   1   2
BRANCH   1  30
ATOM     30  C   UNL A   1      38.391  21.628  25.649  1.00  0.00     0.275 C 
BRANCH  30  31
ATOM     31  O   UNL A   1      38.805  22.840  26.292  1.00  0.00    -0.458 OA
BRANCH  31  32
ATOM     32  C   UNL A   1      40.011  22.725  26.881  1.00  0.00     0.338 C 
ATOM     33  O   UNL A   1      40.392  21.783  27.554  1.00  0.00    -0.246 OA
BRANCH  32  34
ATOM     34  C   UNL A   1      40.726  23.990  26.981  1.00  0.00     0.060 A 
ATOM     35  C   UNL A   1      41.824  23.962  27.841  1.00  0.00     0.016 A 
ATOM     36  C   UNL A   1      40.075  25.179  26.653  1.00  0.00     0.016 A 
ATOM     37  C   UNL A   1      42.079  25.075  28.600  1.00  0.00     0.010 A 
ATOM     38  C   UNL A   1      40.423  26.330  27.332  1.00  0.00     0.010 A 
ATOM     39  C   UNL A   1      41.343  26.249  28.379  1.00  0.00    -0.014 A 
BRANCH  39  40
ATOM     40  C   UNL A   1      41.764  27.431  29.130  1.00  0.00     0.031 A 
ATOM     41  C   UNL A   1      43.105  27.921  28.676  1.00  0.00     0.074 A 
ATOM     42  C   UNL A   1      40.956  28.070  30.004  1.00  0.00     0.049 A 
ATOM     43  N   UNL A   1      44.157  28.179  29.384  1.00  0.00    -0.248 NA
ATOM     44  C   UNL A   1      43.362  27.893  27.216  1.00  0.00     0.031 C 
ATOM     45  C   UNL A   1      39.557  27.759  30.317  1.00  0.00     0.029 A 
ATOM     46  N   UNL A   1      41.146  29.260  30.645  1.00  0.00    -0.354 N 
ATOM     47  C   UNL A   1      45.122  28.570  28.454  1.00  0.00     0.074 A 
ATOM     48  C   UNL A   1      44.667  28.139  27.163  1.00  0.00     0.031 C 
ATOM     49  C   UNL A   1      38.953  28.870  30.788  1.00  0.00     0.029 A 
ATOM     50  C   UNL A   1      39.944  29.924  30.906  1.00  0.00     0.049 A 
ATOM     51  H   UNL A   1      42.031  29.612  30.894  1.00  0.00     0.167 HD
ATOM     52  C   UNL A   1      46.052  29.514  28.750  1.00  0.00     0.034 A 
ATOM     53  C   UNL A   1      39.765  31.262  31.052  1.00  0.00     0.034 A 
ATOM     54  C   UNL A   1      46.301  29.597  30.160  1.00  0.00     0.049 A 
ATOM     55  C   UNL A   1      41.095  31.862  31.305  1.00  0.00     0.074 A 
ATOM     56  C   UNL A   1      46.702  28.691  31.123  1.00  0.00     0.029 A 
ATOM     57  N   UNL A   1      45.751  30.654  30.839  1.00  0.00    -0.354 N 
ATOM     58  N   UNL A   1      41.790  31.652  32.385  1.00  0.00    -0.248 NA
ATOM     59  C   UNL A   1      41.846  32.335  30.151  1.00  0.00     0.031 C 
ATOM     60  C   UNL A   1      45.934  29.023  32.276  1.00  0.00     0.029 A 
ATOM     61  C   UNL A   1      45.170  30.151  31.972  1.00  0.00     0.049 A 
ATOM     62  H   UNL A   1      45.771  31.600  30.564  1.00  0.00     0.167 HD
ATOM     63  C   UNL A   1      43.093  31.511  31.927  1.00  0.00     0.074 A 
ATOM     64  C   UNL A   1      43.079  32.033  30.562  1.00  0.00     0.031 C 
ATOM     65  C   UNL A   1      43.987  30.713  32.580  1.00  0.00     0.034 A 
BRANCH  52  66
ATOM     66  C   UNL A   1      46.403  30.624  27.785  1.00  0.00     0.023 A 
ATOM     67  C   UNL A   1      47.757  30.989  27.666  1.00  0.00     0.012 A 
ATOM     68  C   UNL A   1      45.451  31.495  27.196  1.00  0.00     0.148 A 
ATOM     69  C   UNL A   1      48.137  32.173  27.021  1.00  0.00     0.002 A 
ATOM     70  C   UNL A   1      45.838  32.612  26.473  1.00  0.00     0.091 A 
ATOM     71  F   UNL A   1      44.148  31.344  27.452  1.00  0.00    -0.205 F 
ATOM     72  C   UNL A   1      47.180  32.976  26.410  1.00  0.00     0.022 A 
BRANCH  70  73
ATOM     73  S   UNL A   1      44.630  33.636  25.622  1.00  0.00     0.127 S 
ATOM     74  O   UNL A   1      43.951  34.281  26.741  1.00  0.00    -0.237 OA
ATOM     75  O   UNL A   1      45.490  34.513  24.826  1.00  0.00    -0.237 OA
ATOM     76  O   UNL A   1      43.828  32.714  24.827  1.00  0.00    -0.744 OA
ENDBRANCH  70  73
ENDBRANCH  52  66
BRANCH  53  77
ATOM     77  C   UNL A   1      38.605  32.103  30.655  1.00  0.00     0.023 A 
ATOM     78  C   UNL A   1      38.129  32.045  29.328  1.00  0.00     0.012 A 
ATOM     79  C   UNL A   1      37.794  32.748  31.616  1.00  0.00     0.148 A 
ATOM     80  C   UNL A   1      36.882  32.582  28.979  1.00  0.00     0.002 A 
ATOM     81  C   UNL A   1      36.564  33.295  31.262  1.00  0.00     0.091 A 
ATOM     82  F   UNL A   1      38.177  32.742  32.899  1.00  0.00    -0.205 F 
ATOM     83  C   UNL A   1      36.097  33.202  29.946  1.00  0.00     0.022 A 
BRANCH  81  84
ATOM     84  S   UNL A   1      35.498  34.101  32.467  1.00  0.00     0.127 S 
ATOM     85  O   UNL A   1      34.377  34.542  31.636  1.00  0.00    -0.237 OA
ATOM     86  O   UNL A   1      35.190  33.006  33.381  1.00  0.00    -0.237 OA
ATOM     87  O   UNL A   1      36.288  35.192  33.027  1.00  0.00    -0.744 OA
ENDBRANCH  81  84
ENDBRANCH  53  77
BRANCH  65  88
ATOM     88  C   UNL A   1      43.611  30.177  33.937  1.00  0.00     0.023 A 
ATOM     89  C   UNL A   1      43.626  30.971  35.104  1.00  0.00     0.012 A 
ATOM     90  C   UNL A   1      43.064  28.886  34.003  1.00  0.00     0.148 A 
ATOM     91  C   UNL A   1      43.131  30.475  36.314  1.00  0.00     0.002 A 
ATOM     92  C   UNL A   1      42.530  28.413  35.194  1.00  0.00     0.091 A 
ATOM     93  F   UNL A   1      43.055  28.145  32.884  1.00  0.00    -0.205 F 
ATOM     94  C   UNL A   1      42.569  29.200  36.355  1.00  0.00     0.022 A 
BRANCH  92  95
ATOM     95  S   UNL A   1      41.688  26.832  35.272  1.00  0.00     0.127 S 
ATOM     96  O   UNL A   1      42.754  25.901  34.913  1.00  0.00    -0.237 OA
ATOM     97  O   UNL A   1      41.265  26.768  36.673  1.00  0.00    -0.237 OA
ATOM     98  O   UNL A   1      40.584  26.920  34.324  1.00  0.00    -0.744 OA
ENDBRANCH  92  95
ENDBRANCH  65  88
ENDBRANCH  39  40
ENDBRANCH  32  34
ENDBRANCH  31  32
ENDBRANCH  30  31
ENDBRANCH   1  30
TORSDOF 19
ENDMDL
