MODEL 1
REMARK VINA RESULT:     -10.9      0.000      0.000
REMARK SMILES C[NH+]1CCC([N@@H+](CC(=O)OCCOC(=O)c2ccc(-c3c4nc(c(-c5cccc(S(=O)(=O)[O-])c5F)c5ccc([nH]5)c(-c5cccc(S(=O)(=O)[O-])c5F)c5nc(c(-c6cccc(S(=O)(=O)[O-])c6F)c6ccc3[nH]6)C=C5)C=C4)cc2)C(C)(C)C)CC1
REMARK SMILES IDX 12 1 11 2 10 3 8 4 9 5 7 6 6 7 5 9 1 10 2 11 3 12 84 13 4 15
REMARK SMILES IDX 83 16 79 17 80 18 81 19 82 20 13 21 14 22 15 23 16 24 17 25
REMARK SMILES IDX 78 26 18 27 77 28 19 29 20 30 21 31 71 32 22 33 76 34 70 35
REMARK SMILES IDX 72 36 23 37 75 38 69 39 68 40 24 42 56 43 36 44 55 45 37 46
REMARK SMILES IDX 40 47 54 48 73 49 38 50 39 51 53 53 74 54 41 55 25 56 26 57
REMARK SMILES IDX 34 58 27 59 29 60 35 61 28 62 30 63 31 64 32 65 33 66 57 67
REMARK SMILES IDX 58 68 66 69 59 70 61 71 67 72 60 73 62 74 63 75 64 76 65 77
REMARK SMILES IDX 42 78 43 79 51 80 44 81 46 82 52 83 45 84 47 85 48 86 49 87
REMARK SMILES IDX 50 88
REMARK H PARENT 6 8 2 14 72 41 40 52
REMARK Flexibility Score: inf
ROOT
ATOM      1  C   UNL A   1      32.145  29.493  25.112  1.00  0.00     0.275 C 
ENDROOT
BRANCH   1   2
ATOM      2  C   UNL A   1      32.414  28.932  23.725  1.00  0.00     0.274 C 
BRANCH   2   3
ATOM      3  O   UNL A   1      33.286  27.781  23.816  1.00  0.00    -0.458 OA
BRANCH   3   4
ATOM      4  C   UNL A   1      33.200  26.876  22.809  1.00  0.00     0.361 C 
ATOM      5  O   UNL A   1      33.669  27.062  21.688  1.00  0.00    -0.245 OA
BRANCH   4   6
ATOM      6  C   UNL A   1      32.424  25.596  23.129  1.00  0.00     0.387 C 
BRANCH   6   7
ATOM      7  N   UNL A   1      32.395  25.104  24.524  1.00  0.00    -0.319 N 
ATOM      8  H   UNL A   1      32.663  25.755  25.262  1.00  0.00     0.349 HD
BRANCH   7   9
ATOM      9  C   UNL A   1      33.447  24.117  24.863  1.00  0.00     0.196 C 
ATOM     10  C   UNL A   1      37.196  21.950  24.599  1.00  0.00     0.332 C 
ATOM     11  N   UNL A   1      36.040  22.819  24.423  1.00  0.00    -0.337 N 
ATOM     12  C   UNL A   1      35.896  23.740  25.547  1.00  0.00     0.268 C 
ATOM     13  C   UNL A   1      34.806  22.049  24.251  1.00  0.00     0.268 C 
ATOM     14  H   UNL A   1      36.202  23.358  23.573  1.00  0.00     0.347 HD
ATOM     15  C   UNL A   1      34.783  24.753  25.290  1.00  0.00     0.126 C 
ATOM     16  C   UNL A   1      33.678  22.991  23.841  1.00  0.00     0.126 C 
ENDBRANCH   7   9
BRANCH   7  17
ATOM     17  C   UNL A   1      31.248  25.442  25.405  1.00  0.00     0.090 C 
ATOM     18  C   UNL A   1      31.640  26.423  26.528  1.00  0.00     0.078 C 
ATOM     19  C   UNL A   1      30.069  26.021  24.584  1.00  0.00     0.078 C 
ATOM     20  C   UNL A   1      30.631  24.214  26.119  1.00  0.00     0.078 C 
ENDBRANCH   7  17
ENDBRANCH   6   7
ENDBRANCH   4   6
ENDBRANCH   3   4
ENDBRANCH   2   3
ENDBRANCH   1   2
BRANCH   1  21
ATOM     21  O   UNL A   1      33.354  30.113  25.562  1.00  0.00    -0.458 OA
BRANCH  21  22
ATOM     22  C   UNL A   1      33.232  30.839  26.691  1.00  0.00     0.338 C 
ATOM     23  O   UNL A   1      32.271  31.498  27.062  1.00  0.00    -0.246 OA
BRANCH  22  24
ATOM     24  C   UNL A   1      34.456  30.697  27.478  1.00  0.00     0.060 A 
ATOM     25  C   UNL A   1      35.321  31.786  27.628  1.00  0.00     0.016 A 
ATOM     26  C   UNL A   1      34.794  29.436  27.959  1.00  0.00     0.016 A 
ATOM     27  C   UNL A   1      36.581  31.587  28.177  1.00  0.00     0.010 A 
ATOM     28  C   UNL A   1      36.010  29.266  28.607  1.00  0.00     0.010 A 
ATOM     29  C   UNL A   1      36.923  30.331  28.696  1.00  0.00    -0.014 A 
BRANCH  29  30
ATOM     30  C   UNL A   1      38.196  30.126  29.421  1.00  0.00     0.031 A 
ATOM     31  C   UNL A   1      39.225  29.171  28.896  1.00  0.00     0.074 A 
ATOM     32  C   UNL A   1      38.342  30.717  30.621  1.00  0.00     0.049 A 
ATOM     33  N   UNL A   1      40.283  28.691  29.494  1.00  0.00    -0.248 NA
ATOM     34  C   UNL A   1      39.027  28.668  27.526  1.00  0.00     0.031 C 
ATOM     35  C   UNL A   1      37.372  31.632  31.229  1.00  0.00     0.029 A 
ATOM     36  N   UNL A   1      39.328  30.601  31.565  1.00  0.00    -0.354 N 
ATOM     37  C   UNL A   1      40.844  27.784  28.603  1.00  0.00     0.074 A 
ATOM     38  C   UNL A   1      40.015  27.790  27.416  1.00  0.00     0.031 C 
ATOM     39  C   UNL A   1      37.796  31.975  32.451  1.00  0.00     0.029 A 
ATOM     40  C   UNL A   1      39.031  31.257  32.736  1.00  0.00     0.049 A 
ATOM     41  H   UNL A   1      40.162  30.099  31.420  1.00  0.00     0.167 HD
ATOM     42  C   UNL A   1      41.953  27.024  28.767  1.00  0.00     0.034 A 
ATOM     43  C   UNL A   1      39.653  31.242  33.929  1.00  0.00     0.034 A 
ATOM     44  C   UNL A   1      42.781  27.069  29.944  1.00  0.00     0.049 A 
ATOM     45  C   UNL A   1      40.903  30.431  34.070  1.00  0.00     0.074 A 
ATOM     46  C   UNL A   1      43.963  26.396  30.194  1.00  0.00     0.029 A 
ATOM     47  N   UNL A   1      42.509  27.833  31.071  1.00  0.00    -0.354 N 
ATOM     48  N   UNL A   1      41.480  29.654  33.184  1.00  0.00    -0.248 NA
ATOM     49  C   UNL A   1      41.605  30.509  35.356  1.00  0.00     0.031 C 
ATOM     50  C   UNL A   1      44.401  26.748  31.477  1.00  0.00     0.029 A 
ATOM     51  C   UNL A   1      43.498  27.646  32.023  1.00  0.00     0.049 A 
ATOM     52  H   UNL A   1      41.727  28.421  31.178  1.00  0.00     0.167 HD
ATOM     53  C   UNL A   1      42.618  29.154  33.799  1.00  0.00     0.074 A 
ATOM     54  C   UNL A   1      42.665  29.744  35.124  1.00  0.00     0.031 C 
ATOM     55  C   UNL A   1      43.531  28.272  33.321  1.00  0.00     0.034 A 
BRANCH  42  56
ATOM     56  C   UNL A   1      42.349  26.110  27.635  1.00  0.00     0.023 A 
ATOM     57  C   UNL A   1      43.182  26.595  26.607  1.00  0.00     0.012 A 
ATOM     58  C   UNL A   1      41.930  24.765  27.604  1.00  0.00     0.148 A 
ATOM     59  C   UNL A   1      43.566  25.768  25.551  1.00  0.00     0.002 A 
ATOM     60  C   UNL A   1      42.345  23.937  26.565  1.00  0.00     0.091 A 
ATOM     61  F   UNL A   1      41.113  24.323  28.570  1.00  0.00    -0.205 F 
ATOM     62  C   UNL A   1      43.156  24.438  25.535  1.00  0.00     0.022 A 
BRANCH  60  63
ATOM     63  S   UNL A   1      41.913  22.192  26.508  1.00  0.00     0.127 S 
ATOM     64  O   UNL A   1      40.466  22.251  26.311  1.00  0.00    -0.237 OA
ATOM     65  O   UNL A   1      42.665  21.716  25.345  1.00  0.00    -0.237 OA
ATOM     66  O   UNL A   1      42.362  21.638  27.778  1.00  0.00    -0.744 OA
ENDBRANCH  60  63
ENDBRANCH  42  56
BRANCH  43  67
ATOM     67  C   UNL A   1      39.094  32.065  35.036  1.00  0.00     0.023 A 
ATOM     68  C   UNL A   1      38.191  31.476  35.940  1.00  0.00     0.012 A 
ATOM     69  C   UNL A   1      39.571  33.369  35.286  1.00  0.00     0.148 A 
ATOM     70  C   UNL A   1      37.776  32.169  37.077  1.00  0.00     0.002 A 
ATOM     71  C   UNL A   1      39.201  34.028  36.452  1.00  0.00     0.091 A 
ATOM     72  F   UNL A   1      40.421  33.914  34.405  1.00  0.00    -0.205 F 
ATOM     73  C   UNL A   1      38.295  33.435  37.343  1.00  0.00     0.022 A 
BRANCH  71  74
ATOM     74  S   UNL A   1      39.958  35.580  36.956  1.00  0.00     0.127 S 
ATOM     75  O   UNL A   1      41.362  35.200  37.081  1.00  0.00    -0.237 OA
ATOM     76  O   UNL A   1      39.654  36.451  35.819  1.00  0.00    -0.237 OA
ATOM     77  O   UNL A   1      39.287  35.958  38.192  1.00  0.00    -0.744 OA
ENDBRANCH  71  74
ENDBRANCH  43  67
BRANCH  55  78
ATOM     78  C   UNL A   1      44.652  27.890  34.248  1.00  0.00     0.023 A 
ATOM     79  C   UNL A   1      45.844  28.639  34.232  1.00  0.00     0.012 A 
ATOM     80  C   UNL A   1      44.506  26.833  35.164  1.00  0.00     0.148 A 
ATOM     81  C   UNL A   1      46.888  28.324  35.098  1.00  0.00     0.002 A 
ATOM     82  C   UNL A   1      45.536  26.548  36.052  1.00  0.00     0.091 A 
ATOM     83  F   UNL A   1      43.372  26.116  35.143  1.00  0.00    -0.205 F 
ATOM     84  C   UNL A   1      46.730  27.286  36.015  1.00  0.00     0.022 A 
BRANCH  82  85
ATOM     85  S   UNL A   1      45.380  25.280  37.314  1.00  0.00     0.127 S 
ATOM     86  O   UNL A   1      45.248  24.070  36.507  1.00  0.00    -0.237 OA
ATOM     87  O   UNL A   1      46.648  25.396  38.036  1.00  0.00    -0.237 OA
ATOM     88  O   UNL A   1      44.208  25.647  38.099  1.00  0.00    -0.744 OA
ENDBRANCH  82  85
ENDBRANCH  55  78
ENDBRANCH  29  30
ENDBRANCH  22  24
ENDBRANCH  21  22
ENDBRANCH   1  21
TORSDOF 17
ENDMDL
MODEL 2
REMARK VINA RESULT:     -10.6      5.082      9.862
REMARK SMILES C[NH+]1CCC([N@@H+](CC(=O)OCCOC(=O)c2ccc(-c3c4nc(c(-c5cccc(S(=O)(=O)[O-])c5F)c5ccc([nH]5)c(-c5cccc(S(=O)(=O)[O-])c5F)c5nc(c(-c6cccc(S(=O)(=O)[O-])c6F)c6ccc3[nH]6)C=C5)C=C4)cc2)C(C)(C)C)CC1
REMARK SMILES IDX 12 1 11 2 10 3 8 4 9 5 7 6 6 7 5 9 1 10 2 11 3 12 84 13 4 15
REMARK SMILES IDX 83 16 79 17 80 18 81 19 82 20 13 21 14 22 15 23 16 24 17 25
REMARK SMILES IDX 78 26 18 27 77 28 19 29 20 30 21 31 71 32 22 33 76 34 70 35
REMARK SMILES IDX 72 36 23 37 75 38 69 39 68 40 24 42 56 43 36 44 55 45 37 46
REMARK SMILES IDX 40 47 54 48 73 49 38 50 39 51 53 53 74 54 41 55 25 56 26 57
REMARK SMILES IDX 34 58 27 59 29 60 35 61 28 62 30 63 31 64 32 65 33 66 57 67
REMARK SMILES IDX 58 68 66 69 59 70 61 71 67 72 60 73 62 74 63 75 64 76 65 77
REMARK SMILES IDX 42 78 43 79 51 80 44 81 46 82 52 83 45 84 47 85 48 86 49 87
REMARK SMILES IDX 50 88
REMARK H PARENT 6 8 2 14 72 41 40 52
REMARK Flexibility Score: inf
ROOT
ATOM      1  C   UNL A   1      36.915  21.308  24.609  1.00  0.00     0.275 C 
ENDROOT
BRANCH   1   2
ATOM      2  C   UNL A   1      36.381  22.529  23.877  1.00  0.00     0.274 C 
BRANCH   2   3
ATOM      3  O   UNL A   1      35.029  22.813  24.304  1.00  0.00    -0.458 OA
BRANCH   3   4
ATOM      4  C   UNL A   1      34.137  23.115  23.329  1.00  0.00     0.361 C 
ATOM      5  O   UNL A   1      34.463  23.455  22.193  1.00  0.00    -0.245 OA
BRANCH   4   6
ATOM      6  C   UNL A   1      32.662  23.061  23.735  1.00  0.00     0.387 C 
BRANCH   6   7
ATOM      7  N   UNL A   1      32.273  22.268  24.922  1.00  0.00    -0.319 N 
ATOM      8  H   UNL A   1      32.939  22.212  25.693  1.00  0.00     0.349 HD
BRANCH   7   9
ATOM      9  C   UNL A   1      32.229  20.802  24.712  1.00  0.00     0.196 C 
ATOM     10  C   UNL A   1      33.562  16.840  23.552  1.00  0.00     0.332 C 
ATOM     11  N   UNL A   1      33.392  18.262  23.817  1.00  0.00    -0.337 N 
ATOM     12  C   UNL A   1      33.288  18.523  25.251  1.00  0.00     0.268 C 
ATOM     13  C   UNL A   1      32.218  18.805  23.128  1.00  0.00     0.268 C 
ATOM     14  H   UNL A   1      34.221  18.733  23.455  1.00  0.00     0.347 HD
ATOM     15  C   UNL A   1      33.268  20.023  25.538  1.00  0.00     0.126 C 
ATOM     16  C   UNL A   1      32.221  20.326  23.249  1.00  0.00     0.126 C 
ENDBRANCH   7   9
BRANCH   7  17
ATOM     17  C   UNL A   1      31.768  22.956  26.138  1.00  0.00     0.090 C 
ATOM     18  C   UNL A   1      30.298  22.605  26.442  1.00  0.00     0.078 C 
ATOM     19  C   UNL A   1      32.653  22.632  27.367  1.00  0.00     0.078 C 
ATOM     20  C   UNL A   1      31.818  24.500  26.045  1.00  0.00     0.078 C 
ENDBRANCH   7  17
ENDBRANCH   6   7
ENDBRANCH   4   6
ENDBRANCH   3   4
ENDBRANCH   2   3
ENDBRANCH   1   2
BRANCH   1  21
ATOM     21  O   UNL A   1      37.457  21.761  25.853  1.00  0.00    -0.458 OA
BRANCH  21  22
ATOM     22  C   UNL A   1      38.719  21.361  26.100  1.00  0.00     0.338 C 
ATOM     23  O   UNL A   1      39.189  20.236  25.985  1.00  0.00    -0.246 OA
BRANCH  22  24
ATOM     24  C   UNL A   1      39.511  22.519  26.511  1.00  0.00     0.060 A 
ATOM     25  C   UNL A   1      40.555  22.362  27.429  1.00  0.00     0.016 A 
ATOM     26  C   UNL A   1      39.122  23.779  26.069  1.00  0.00     0.016 A 
ATOM     27  C   UNL A   1      41.150  23.487  27.985  1.00  0.00     0.010 A 
ATOM     28  C   UNL A   1      39.795  24.897  26.546  1.00  0.00     0.010 A 
ATOM     29  C   UNL A   1      40.792  24.762  27.526  1.00  0.00    -0.014 A 
BRANCH  29  30
ATOM     30  C   UNL A   1      41.512  25.969  27.989  1.00  0.00     0.031 A 
ATOM     31  C   UNL A   1      40.792  27.034  28.759  1.00  0.00     0.074 A 
ATOM     32  C   UNL A   1      42.785  26.139  27.587  1.00  0.00     0.049 A 
ATOM     33  N   UNL A   1      41.183  28.247  29.047  1.00  0.00    -0.248 NA
ATOM     34  C   UNL A   1      39.443  26.704  29.249  1.00  0.00     0.031 C 
ATOM     35  C   UNL A   1      43.552  25.170  26.800  1.00  0.00     0.029 A 
ATOM     36  N   UNL A   1      43.639  27.199  27.737  1.00  0.00    -0.354 N 
ATOM     37  C   UNL A   1      40.111  28.847  29.696  1.00  0.00     0.074 A 
ATOM     38  C   UNL A   1      39.055  27.860  29.771  1.00  0.00     0.031 C 
ATOM     39  C   UNL A   1      44.753  25.687  26.515  1.00  0.00     0.029 A 
ATOM     40  C   UNL A   1      44.815  27.043  27.042  1.00  0.00     0.049 A 
ATOM     41  H   UNL A   1      43.432  27.991  28.284  1.00  0.00     0.167 HD
ATOM     42  C   UNL A   1      40.027  30.107  30.187  1.00  0.00     0.034 A 
ATOM     43  C   UNL A   1      45.814  27.914  26.806  1.00  0.00     0.034 A 
ATOM     44  C   UNL A   1      41.109  31.056  30.134  1.00  0.00     0.049 A 
ATOM     45  C   UNL A   1      45.717  29.285  27.399  1.00  0.00     0.074 A 
ATOM     46  C   UNL A   1      41.162  32.335  30.656  1.00  0.00     0.029 A 
ATOM     47  N   UNL A   1      42.331  30.824  29.517  1.00  0.00    -0.354 N 
ATOM     48  N   UNL A   1      44.738  29.808  28.098  1.00  0.00    -0.248 NA
ATOM     49  C   UNL A   1      46.864  30.178  27.198  1.00  0.00     0.031 C 
ATOM     50  C   UNL A   1      42.414  32.880  30.348  1.00  0.00     0.029 A 
ATOM     51  C   UNL A   1      43.146  31.938  29.641  1.00  0.00     0.049 A 
ATOM     52  H   UNL A   1      42.582  29.991  29.058  1.00  0.00     0.167 HD
ATOM     53  C   UNL A   1      45.150  31.090  28.430  1.00  0.00     0.074 A 
ATOM     54  C   UNL A   1      46.484  31.252  27.880  1.00  0.00     0.031 C 
ATOM     55  C   UNL A   1      44.480  32.055  29.109  1.00  0.00     0.034 A 
BRANCH  42  56
ATOM     56  C   UNL A   1      38.736  30.515  30.850  1.00  0.00     0.023 A 
ATOM     57  C   UNL A   1      38.552  30.270  32.226  1.00  0.00     0.012 A 
ATOM     58  C   UNL A   1      37.720  31.172  30.127  1.00  0.00     0.148 A 
ATOM     59  C   UNL A   1      37.369  30.642  32.864  1.00  0.00     0.002 A 
ATOM     60  C   UNL A   1      36.556  31.570  30.779  1.00  0.00     0.091 A 
ATOM     61  F   UNL A   1      37.893  31.373  28.813  1.00  0.00    -0.205 F 
ATOM     62  C   UNL A   1      36.376  31.299  32.144  1.00  0.00     0.022 A 
BRANCH  60  63
ATOM     63  S   UNL A   1      35.257  32.482  29.934  1.00  0.00     0.127 S 
ATOM     64  O   UNL A   1      34.289  32.685  31.009  1.00  0.00    -0.237 OA
ATOM     65  O   UNL A   1      35.950  33.698  29.503  1.00  0.00    -0.237 OA
ATOM     66  O   UNL A   1      34.825  31.621  28.841  1.00  0.00    -0.744 OA
ENDBRANCH  60  63
ENDBRANCH  42  56
BRANCH  43  67
ATOM     67  C   UNL A   1      46.983  27.459  26.005  1.00  0.00     0.023 A 
ATOM     68  C   UNL A   1      47.031  27.756  24.631  1.00  0.00     0.012 A 
ATOM     69  C   UNL A   1      48.109  26.880  26.627  1.00  0.00     0.148 A 
ATOM     70  C   UNL A   1      48.181  27.487  23.890  1.00  0.00     0.002 A 
ATOM     71  C   UNL A   1      49.272  26.673  25.895  1.00  0.00     0.091 A 
ATOM     72  F   UNL A   1      48.037  26.596  27.935  1.00  0.00    -0.205 F 
ATOM     73  C   UNL A   1      49.307  26.965  24.524  1.00  0.00     0.022 A 
BRANCH  71  74
ATOM     74  S   UNL A   1      50.815  26.172  26.672  1.00  0.00     0.127 S 
ATOM     75  O   UNL A   1      51.751  26.247  25.553  1.00  0.00    -0.237 OA
ATOM     76  O   UNL A   1      50.993  27.206  27.693  1.00  0.00    -0.237 OA
ATOM     77  O   UNL A   1      50.568  24.841  27.209  1.00  0.00    -0.744 OA
ENDBRANCH  71  74
ENDBRANCH  43  67
BRANCH  55  78
ATOM     78  C   UNL A   1      45.184  33.372  29.284  1.00  0.00     0.023 A 
ATOM     79  C   UNL A   1      45.990  33.576  30.421  1.00  0.00     0.012 A 
ATOM     80  C   UNL A   1      45.093  34.378  28.306  1.00  0.00     0.148 A 
ATOM     81  C   UNL A   1      46.676  34.777  30.594  1.00  0.00     0.002 A 
ATOM     82  C   UNL A   1      45.809  35.558  28.467  1.00  0.00     0.091 A 
ATOM     83  F   UNL A   1      44.298  34.172  27.245  1.00  0.00    -0.205 F 
ATOM     84  C   UNL A   1      46.594  35.763  29.613  1.00  0.00     0.022 A 
BRANCH  82  85
ATOM     85  S   UNL A   1      45.818  36.843  27.212  1.00  0.00     0.127 S 
ATOM     86  O   UNL A   1      46.711  37.835  27.806  1.00  0.00    -0.237 OA
ATOM     87  O   UNL A   1      46.370  36.145  26.050  1.00  0.00    -0.237 OA
ATOM     88  O   UNL A   1      44.429  37.255  27.058  1.00  0.00    -0.744 OA
ENDBRANCH  82  85
ENDBRANCH  55  78
ENDBRANCH  29  30
ENDBRANCH  22  24
ENDBRANCH  21  22
ENDBRANCH   1  21
TORSDOF 17
ENDMDL
MODEL 3
REMARK VINA RESULT:     -10.6      5.417      9.965
REMARK SMILES C[NH+]1CCC([N@@H+](CC(=O)OCCOC(=O)c2ccc(-c3c4nc(c(-c5cccc(S(=O)(=O)[O-])c5F)c5ccc([nH]5)c(-c5cccc(S(=O)(=O)[O-])c5F)c5nc(c(-c6cccc(S(=O)(=O)[O-])c6F)c6ccc3[nH]6)C=C5)C=C4)cc2)C(C)(C)C)CC1
REMARK SMILES IDX 12 1 11 2 10 3 8 4 9 5 7 6 6 7 5 9 1 10 2 11 3 12 84 13 4 15
REMARK SMILES IDX 83 16 79 17 80 18 81 19 82 20 13 21 14 22 15 23 16 24 17 25
REMARK SMILES IDX 78 26 18 27 77 28 19 29 20 30 21 31 71 32 22 33 76 34 70 35
REMARK SMILES IDX 72 36 23 37 75 38 69 39 68 40 24 42 56 43 36 44 55 45 37 46
REMARK SMILES IDX 40 47 54 48 73 49 38 50 39 51 53 53 74 54 41 55 25 56 26 57
REMARK SMILES IDX 34 58 27 59 29 60 35 61 28 62 30 63 31 64 32 65 33 66 57 67
REMARK SMILES IDX 58 68 66 69 59 70 61 71 67 72 60 73 62 74 63 75 64 76 65 77
REMARK SMILES IDX 42 78 43 79 51 80 44 81 46 82 52 83 45 84 47 85 48 86 49 87
REMARK SMILES IDX 50 88
REMARK H PARENT 6 8 2 14 72 41 40 52
REMARK Flexibility Score: inf
ROOT
ATOM      1  C   UNL A   1      37.471  20.616  24.974  1.00  0.00     0.275 C 
ENDROOT
BRANCH   1   2
ATOM      2  C   UNL A   1      36.067  21.188  25.091  1.00  0.00     0.274 C 
BRANCH   2   3
ATOM      3  O   UNL A   1      35.960  22.000  26.284  1.00  0.00    -0.458 OA
BRANCH   3   4
ATOM      4  C   UNL A   1      34.722  22.455  26.597  1.00  0.00     0.361 C 
ATOM      5  O   UNL A   1      34.318  22.581  27.751  1.00  0.00    -0.245 OA
BRANCH   4   6
ATOM      6  C   UNL A   1      33.806  22.765  25.411  1.00  0.00     0.387 C 
BRANCH   6   7
ATOM      7  N   UNL A   1      32.410  22.276  25.435  1.00  0.00    -0.319 N 
ATOM      8  H   UNL A   1      31.980  22.114  26.345  1.00  0.00     0.349 HD
BRANCH   7   9
ATOM      9  C   UNL A   1      32.227  20.879  24.978  1.00  0.00     0.196 C 
ATOM     10  C   UNL A   1      33.274  16.929  23.520  1.00  0.00     0.332 C 
ATOM     11  N   UNL A   1      33.232  18.313  23.972  1.00  0.00    -0.337 N 
ATOM     12  C   UNL A   1      32.796  18.402  25.363  1.00  0.00     0.268 C 
ATOM     13  C   UNL A   1      32.359  19.132  23.126  1.00  0.00     0.268 C 
ATOM     14  H   UNL A   1      34.181  18.678  23.899  1.00  0.00     0.347 HD
ATOM     15  C   UNL A   1      32.903  19.834  25.884  1.00  0.00     0.126 C 
ATOM     16  C   UNL A   1      32.534  20.602  23.497  1.00  0.00     0.126 C 
ENDBRANCH   7   9
BRANCH   7  17
ATOM     17  C   UNL A   1      31.298  23.225  25.696  1.00  0.00     0.090 C 
ATOM     18  C   UNL A   1      30.151  22.577  26.498  1.00  0.00     0.078 C 
ATOM     19  C   UNL A   1      31.807  24.490  26.431  1.00  0.00     0.078 C 
ATOM     20  C   UNL A   1      30.643  23.784  24.410  1.00  0.00     0.078 C 
ENDBRANCH   7  17
ENDBRANCH   6   7
ENDBRANCH   4   6
ENDBRANCH   3   4
ENDBRANCH   2   3
ENDBRANCH   1   2
BRANCH   1  21
ATOM     21  O   UNL A   1      38.388  21.683  25.233  1.00  0.00    -0.458 OA
BRANCH  21  22
ATOM     22  C   UNL A   1      39.354  21.394  26.126  1.00  0.00     0.338 C 
ATOM     23  O   UNL A   1      39.794  20.293  26.431  1.00  0.00    -0.246 OA
BRANCH  22  24
ATOM     24  C   UNL A   1      39.866  22.642  26.689  1.00  0.00     0.060 A 
ATOM     25  C   UNL A   1      39.442  23.870  26.170  1.00  0.00     0.016 A 
ATOM     26  C   UNL A   1      40.866  22.574  27.654  1.00  0.00     0.016 A 
ATOM     27  C   UNL A   1      40.096  25.035  26.549  1.00  0.00     0.010 A 
ATOM     28  C   UNL A   1      41.441  23.753  28.112  1.00  0.00     0.010 A 
ATOM     29  C   UNL A   1      41.082  24.987  27.544  1.00  0.00    -0.014 A 
BRANCH  29  30
ATOM     30  C   UNL A   1      41.689  26.226  28.076  1.00  0.00     0.031 A 
ATOM     31  C   UNL A   1      40.843  27.250  28.769  1.00  0.00     0.074 A 
ATOM     32  C   UNL A   1      42.986  26.461  27.804  1.00  0.00     0.049 A 
ATOM     33  N   UNL A   1      41.141  28.479  29.096  1.00  0.00    -0.248 NA
ATOM     34  C   UNL A   1      39.470  26.850  29.122  1.00  0.00     0.031 C 
ATOM     35  C   UNL A   1      43.877  25.536  27.099  1.00  0.00     0.029 A 
ATOM     36  N   UNL A   1      43.766  27.562  28.039  1.00  0.00    -0.354 N 
ATOM     37  C   UNL A   1      39.981  29.022  29.634  1.00  0.00     0.074 A 
ATOM     38  C   UNL A   1      38.974  27.983  29.602  1.00  0.00     0.031 C 
ATOM     39  C   UNL A   1      45.072  26.114  26.935  1.00  0.00     0.029 A 
ATOM     40  C   UNL A   1      45.013  27.470  27.466  1.00  0.00     0.049 A 
ATOM     41  H   UNL A   1      43.466  28.340  28.563  1.00  0.00     0.167 HD
ATOM     42  C   UNL A   1      39.784  30.274  30.113  1.00  0.00     0.034 A 
ATOM     43  C   UNL A   1      45.985  28.390  27.332  1.00  0.00     0.034 A 
ATOM     44  C   UNL A   1      40.817  31.276  30.169  1.00  0.00     0.049 A 
ATOM     45  C   UNL A   1      45.760  29.752  27.912  1.00  0.00     0.074 A 
ATOM     46  C   UNL A   1      40.753  32.554  30.694  1.00  0.00     0.029 A 
ATOM     47  N   UNL A   1      42.105  31.109  29.679  1.00  0.00    -0.354 N 
ATOM     48  N   UNL A   1      44.690  30.222  28.508  1.00  0.00    -0.248 NA
ATOM     49  C   UNL A   1      46.874  30.702  27.827  1.00  0.00     0.031 C 
ATOM     50  C   UNL A   1      42.001  33.162  30.513  1.00  0.00     0.029 A 
ATOM     51  C   UNL A   1      42.846  32.261  29.884  1.00  0.00     0.049 A 
ATOM     52  H   UNL A   1      42.443  30.291  29.247  1.00  0.00     0.167 HD
ATOM     53  C   UNL A   1      45.002  31.521  28.880  1.00  0.00     0.074 A 
ATOM     54  C   UNL A   1      46.374  31.752  28.467  1.00  0.00     0.031 C 
ATOM     55  C   UNL A   1      44.220  32.447  29.488  1.00  0.00     0.034 A 
BRANCH  42  56
ATOM     56  C   UNL A   1      38.414  30.613  30.643  1.00  0.00     0.023 A 
ATOM     57  C   UNL A   1      38.066  30.245  31.958  1.00  0.00     0.012 A 
ATOM     58  C   UNL A   1      37.485  31.326  29.859  1.00  0.00     0.148 A 
ATOM     59  C   UNL A   1      36.806  30.552  32.474  1.00  0.00     0.002 A 
ATOM     60  C   UNL A   1      36.243  31.657  30.392  1.00  0.00     0.091 A 
ATOM     61  F   UNL A   1      37.816  31.644  28.600  1.00  0.00    -0.205 F 
ATOM     62  C   UNL A   1      35.899  31.264  31.695  1.00  0.00     0.022 A 
BRANCH  60  63
ATOM     63  S   UNL A   1      35.043  32.633  29.475  1.00  0.00     0.127 S 
ATOM     64  O   UNL A   1      34.597  31.680  28.461  1.00  0.00    -0.237 OA
ATOM     65  O   UNL A   1      34.041  32.946  30.496  1.00  0.00    -0.237 OA
ATOM     66  O   UNL A   1      35.777  33.791  28.984  1.00  0.00    -0.744 OA
ENDBRANCH  60  63
ENDBRANCH  42  56
BRANCH  43  67
ATOM     67  C   UNL A   1      47.250  27.998  26.653  1.00  0.00     0.023 A 
ATOM     68  C   UNL A   1      48.253  27.346  27.393  1.00  0.00     0.012 A 
ATOM     69  C   UNL A   1      47.395  28.126  25.256  1.00  0.00     0.148 A 
ATOM     70  C   UNL A   1      49.377  26.823  26.754  1.00  0.00     0.002 A 
ATOM     71  C   UNL A   1      48.488  27.549  24.619  1.00  0.00     0.091 A 
ATOM     72  F   UNL A   1      46.433  28.761  24.572  1.00  0.00    -0.205 F 
ATOM     73  C   UNL A   1      49.485  26.907  25.367  1.00  0.00     0.022 A 
BRANCH  71  74
ATOM     74  S   UNL A   1      48.612  27.458  22.827  1.00  0.00     0.127 S 
ATOM     75  O   UNL A   1      49.918  28.066  22.587  1.00  0.00    -0.237 OA
ATOM     76  O   UNL A   1      48.552  26.014  22.589  1.00  0.00    -0.237 OA
ATOM     77  O   UNL A   1      47.462  28.193  22.318  1.00  0.00    -0.744 OA
ENDBRANCH  71  74
ENDBRANCH  43  67
BRANCH  55  78
ATOM     78  C   UNL A   1      44.835  33.797  29.733  1.00  0.00     0.023 A 
ATOM     79  C   UNL A   1      45.502  34.039  30.950  1.00  0.00     0.012 A 
ATOM     80  C   UNL A   1      44.801  34.799  28.746  1.00  0.00     0.148 A 
ATOM     81  C   UNL A   1      46.105  35.272  31.192  1.00  0.00     0.002 A 
ATOM     82  C   UNL A   1      45.438  36.013  28.979  1.00  0.00     0.091 A 
ATOM     83  F   UNL A   1      44.137  34.555  27.606  1.00  0.00    -0.205 F 
ATOM     84  C   UNL A   1      46.082  36.254  30.203  1.00  0.00     0.022 A 
BRANCH  82  85
ATOM     85  S   UNL A   1      45.520  37.297  27.727  1.00  0.00     0.127 S 
ATOM     86  O   UNL A   1      45.903  36.535  26.541  1.00  0.00    -0.237 OA
ATOM     87  O   UNL A   1      44.148  37.808  27.708  1.00  0.00    -0.237 OA
ATOM     88  O   UNL A   1      46.508  38.255  28.209  1.00  0.00    -0.744 OA
ENDBRANCH  82  85
ENDBRANCH  55  78
ENDBRANCH  29  30
ENDBRANCH  22  24
ENDBRANCH  21  22
ENDBRANCH   1  21
TORSDOF 17
ENDMDL
