MODEL 1
REMARK VINA RESULT:     -11.2      0.000      0.000
REMARK SMILES COCc1nc2ccccc2n1CC(=O)OCCOC(=O)c1ccc(-c2c3nc(c(-c4cccc(S(=O)(=O)[O-])c4F)c4ccc([nH]4)c(-c4cccc(S(=O)(=O)[O-])c4F)c4nc(c(-c5cccc(S(=O)(=O)[O-])c5F)c5ccc2[nH]5)C=C4)C=C3)cc1
REMARK SMILES IDX 17 1 16 2 14 3 15 4 13 5 12 6 4 7 5 8 6 9 11 10 7 11 10 12
REMARK SMILES IDX 8 13 9 14 3 15 2 16 1 17 18 18 19 19 20 20 21 21 22 22 23 23
REMARK SMILES IDX 84 24 24 25 83 26 25 27 26 28 27 29 77 30 28 31 82 32 76 33
REMARK SMILES IDX 78 34 29 35 81 36 75 37 74 38 30 40 62 41 42 42 61 43 43 44
REMARK SMILES IDX 46 45 60 46 79 47 44 48 45 49 59 51 80 52 47 53 31 54 32 55
REMARK SMILES IDX 40 56 33 57 35 58 41 59 34 60 36 61 37 62 38 63 39 64 63 65
REMARK SMILES IDX 64 66 72 67 65 68 67 69 73 70 66 71 68 72 69 73 70 74 71 75
REMARK SMILES IDX 48 76 49 77 57 78 50 79 52 80 58 81 51 82 53 83 54 84 55 85
REMARK SMILES IDX 56 86
REMARK H PARENT 78 39 46 50
REMARK Flexibility Score: inf
ROOT
ATOM      1  C   UNL A   1      31.356  26.972  25.933  1.00  0.00     0.274 C 
ENDROOT
BRANCH   1   2
ATOM      2  O   UNL A   1      31.401  26.218  24.694  1.00  0.00    -0.461 OA
BRANCH   2   3
ATOM      3  C   UNL A   1      32.643  25.845  24.262  1.00  0.00     0.326 C 
ATOM      4  O   UNL A   1      33.042  26.018  23.114  1.00  0.00    -0.250 OA
BRANCH   3   5
ATOM      5  C   UNL A   1      33.542  25.354  25.372  1.00  0.00     0.246 C 
BRANCH   5   6
ATOM      6  N   UNL A   1      33.668  23.923  25.509  1.00  0.00    -0.315 N 
ATOM      7  C   UNL A   1      32.913  23.057  26.280  1.00  0.00     0.136 A 
ATOM      8  N   UNL A   1      33.339  21.816  26.098  1.00  0.00    -0.231 NA
ATOM      9  C   UNL A   1      34.528  21.926  25.423  1.00  0.00     0.089 A 
ATOM     10  C   UNL A   1      34.792  23.247  25.098  1.00  0.00     0.069 A 
ATOM     11  C   UNL A   1      35.470  20.943  25.098  1.00  0.00     0.030 A 
ATOM     12  C   UNL A   1      35.997  23.670  24.526  1.00  0.00     0.028 A 
ATOM     13  C   UNL A   1      36.686  21.344  24.528  1.00  0.00     0.002 A 
ATOM     14  C   UNL A   1      36.951  22.689  24.269  1.00  0.00     0.002 A 
BRANCH   7  15
ATOM     15  C   UNL A   1      31.794  23.421  27.209  1.00  0.00     0.235 C 
BRANCH  15  16
ATOM     16  O   UNL A   1      30.537  23.459  26.534  1.00  0.00    -0.377 OA
ATOM     17  C   UNL A   1      29.489  22.729  27.160  1.00  0.00     0.195 C 
ENDBRANCH  15  16
ENDBRANCH   7  15
ENDBRANCH   5   6
ENDBRANCH   3   5
ENDBRANCH   2   3
ENDBRANCH   1   2
BRANCH   1  18
ATOM     18  C   UNL A   1      31.356  28.485  25.645  1.00  0.00     0.275 C 
BRANCH  18  19
ATOM     19  O   UNL A   1      32.377  29.107  26.452  1.00  0.00    -0.458 OA
BRANCH  19  20
ATOM     20  C   UNL A   1      32.258  30.427  26.710  1.00  0.00     0.338 C 
ATOM     21  O   UNL A   1      31.215  31.088  26.790  1.00  0.00    -0.246 OA
BRANCH  20  22
ATOM     22  C   UNL A   1      33.536  30.813  27.302  1.00  0.00     0.060 A 
ATOM     23  C   UNL A   1      33.873  32.020  27.887  1.00  0.00     0.016 A 
ATOM     24  C   UNL A   1      34.477  29.799  27.235  1.00  0.00     0.016 A 
ATOM     25  C   UNL A   1      35.199  32.197  28.313  1.00  0.00     0.010 A 
ATOM     26  C   UNL A   1      35.762  29.942  27.701  1.00  0.00     0.010 A 
ATOM     27  C   UNL A   1      36.155  31.161  28.190  1.00  0.00    -0.014 A 
BRANCH  27  28
ATOM     28  C   UNL A   1      37.521  31.279  28.690  1.00  0.00     0.031 A 
ATOM     29  C   UNL A   1      38.351  30.083  28.466  1.00  0.00     0.074 A 
ATOM     30  C   UNL A   1      38.134  32.365  29.212  1.00  0.00     0.049 A 
ATOM     31  N   UNL A   1      38.503  29.125  29.314  1.00  0.00    -0.248 NA
ATOM     32  C   UNL A   1      38.956  29.847  27.154  1.00  0.00     0.031 C 
ATOM     33  C   UNL A   1      37.717  33.769  29.268  1.00  0.00     0.029 A 
ATOM     34  N   UNL A   1      39.373  32.399  29.782  1.00  0.00    -0.354 N 
ATOM     35  C   UNL A   1      39.400  28.250  28.731  1.00  0.00     0.074 A 
ATOM     36  C   UNL A   1      39.522  28.651  27.349  1.00  0.00     0.031 C 
ATOM     37  C   UNL A   1      38.765  34.537  29.654  1.00  0.00     0.029 A 
ATOM     38  C   UNL A   1      39.861  33.670  30.045  1.00  0.00     0.049 A 
ATOM     39  H   UNL A   1      39.882  31.584  29.994  1.00  0.00     0.167 HD
ATOM     40  C   UNL A   1      40.118  27.383  29.490  1.00  0.00     0.034 A 
ATOM     41  C   UNL A   1      41.085  33.960  30.545  1.00  0.00     0.034 A 
ATOM     42  C   UNL A   1      39.699  27.384  30.870  1.00  0.00     0.049 A 
ATOM     43  C   UNL A   1      41.503  32.771  31.335  1.00  0.00     0.074 A 
ATOM     44  C   UNL A   1      38.498  27.166  31.520  1.00  0.00     0.029 A 
ATOM     45  N   UNL A   1      40.486  28.076  31.762  1.00  0.00    -0.354 N 
ATOM     46  N   UNL A   1      40.900  32.378  32.426  1.00  0.00    -0.248 NA
ATOM     47  C   UNL A   1      42.367  31.782  30.712  1.00  0.00     0.031 C 
ATOM     48  C   UNL A   1      38.456  28.152  32.552  1.00  0.00     0.029 A 
ATOM     49  C   UNL A   1      39.648  28.877  32.497  1.00  0.00     0.049 A 
ATOM     50  H   UNL A   1      41.465  28.009  31.855  1.00  0.00     0.167 HD
ATOM     51  C   UNL A   1      40.955  30.991  32.377  1.00  0.00     0.074 A 
ATOM     52  C   UNL A   1      41.972  30.691  31.373  1.00  0.00     0.031 C 
ATOM     53  C   UNL A   1      39.980  30.216  32.943  1.00  0.00     0.034 A 
BRANCH  40  54
ATOM     54  C   UNL A   1      41.402  26.755  29.061  1.00  0.00     0.023 A 
ATOM     55  C   UNL A   1      42.541  27.579  28.974  1.00  0.00     0.012 A 
ATOM     56  C   UNL A   1      41.488  25.450  28.532  1.00  0.00     0.148 A 
ATOM     57  C   UNL A   1      43.721  27.120  28.385  1.00  0.00     0.002 A 
ATOM     58  C   UNL A   1      42.685  24.974  28.019  1.00  0.00     0.091 A 
ATOM     59  F   UNL A   1      40.377  24.712  28.409  1.00  0.00    -0.205 F 
ATOM     60  C   UNL A   1      43.800  25.811  27.924  1.00  0.00     0.022 A 
BRANCH  58  61
ATOM     61  S   UNL A   1      42.843  23.273  27.471  1.00  0.00     0.127 S 
ATOM     62  O   UNL A   1      44.216  23.249  26.979  1.00  0.00    -0.237 OA
ATOM     63  O   UNL A   1      42.614  22.530  28.710  1.00  0.00    -0.237 OA
ATOM     64  O   UNL A   1      41.793  23.102  26.474  1.00  0.00    -0.744 OA
ENDBRANCH  58  61
ENDBRANCH  40  54
BRANCH  41  65
ATOM     65  C   UNL A   1      41.999  35.090  30.250  1.00  0.00     0.023 A 
ATOM     66  C   UNL A   1      42.996  35.434  31.189  1.00  0.00     0.012 A 
ATOM     67  C   UNL A   1      42.098  35.647  28.956  1.00  0.00     0.148 A 
ATOM     68  C   UNL A   1      44.081  36.246  30.835  1.00  0.00     0.002 A 
ATOM     69  C   UNL A   1      43.170  36.469  28.613  1.00  0.00     0.091 A 
ATOM     70  F   UNL A   1      41.202  35.298  28.024  1.00  0.00    -0.205 F 
ATOM     71  C   UNL A   1      44.173  36.757  29.544  1.00  0.00     0.022 A 
BRANCH  69  72
ATOM     72  S   UNL A   1      43.328  37.158  26.959  1.00  0.00     0.127 S 
ATOM     73  O   UNL A   1      44.574  37.919  27.052  1.00  0.00    -0.237 OA
ATOM     74  O   UNL A   1      43.406  35.956  26.133  1.00  0.00    -0.237 OA
ATOM     75  O   UNL A   1      42.141  37.986  26.775  1.00  0.00    -0.744 OA
ENDBRANCH  69  72
ENDBRANCH  41  65
BRANCH  53  76
ATOM     76  C   UNL A   1      38.972  30.875  33.856  1.00  0.00     0.023 A 
ATOM     77  C   UNL A   1      39.228  31.060  35.231  1.00  0.00     0.012 A 
ATOM     78  C   UNL A   1      37.850  31.506  33.286  1.00  0.00     0.148 A 
ATOM     79  C   UNL A   1      38.383  31.844  36.021  1.00  0.00     0.002 A 
ATOM     80  C   UNL A   1      37.036  32.320  34.067  1.00  0.00     0.091 A 
ATOM     81  F   UNL A   1      37.625  31.333  31.975  1.00  0.00    -0.205 F 
ATOM     82  C   UNL A   1      37.295  32.485  35.436  1.00  0.00     0.022 A 
BRANCH  80  83
ATOM     83  S   UNL A   1      35.687  33.278  33.367  1.00  0.00     0.127 S 
ATOM     84  O   UNL A   1      34.999  33.760  34.563  1.00  0.00    -0.237 OA
ATOM     85  O   UNL A   1      36.399  34.311  32.613  1.00  0.00    -0.237 OA
ATOM     86  O   UNL A   1      34.919  32.355  32.539  1.00  0.00    -0.744 OA
ENDBRANCH  80  83
ENDBRANCH  53  76
ENDBRANCH  27  28
ENDBRANCH  20  22
ENDBRANCH  19  20
ENDBRANCH  18  19
ENDBRANCH   1  18
TORSDOF 17
ENDMDL
MODEL 2
REMARK VINA RESULT:     -10.9      3.528      8.192
REMARK SMILES COCc1nc2ccccc2n1CC(=O)OCCOC(=O)c1ccc(-c2c3nc(c(-c4cccc(S(=O)(=O)[O-])c4F)c4ccc([nH]4)c(-c4cccc(S(=O)(=O)[O-])c4F)c4nc(c(-c5cccc(S(=O)(=O)[O-])c5F)c5ccc2[nH]5)C=C4)C=C3)cc1
REMARK SMILES IDX 17 1 16 2 14 3 15 4 13 5 12 6 4 7 5 8 6 9 11 10 7 11 10 12
REMARK SMILES IDX 8 13 9 14 3 15 2 16 1 17 18 18 19 19 20 20 21 21 22 22 23 23
REMARK SMILES IDX 84 24 24 25 83 26 25 27 26 28 27 29 77 30 28 31 82 32 76 33
REMARK SMILES IDX 78 34 29 35 81 36 75 37 74 38 30 40 62 41 42 42 61 43 43 44
REMARK SMILES IDX 46 45 60 46 79 47 44 48 45 49 59 51 80 52 47 53 31 54 32 55
REMARK SMILES IDX 40 56 33 57 35 58 41 59 34 60 36 61 37 62 38 63 39 64 63 65
REMARK SMILES IDX 64 66 72 67 65 68 67 69 73 70 66 71 68 72 69 73 70 74 71 75
REMARK SMILES IDX 48 76 49 77 57 78 50 79 52 80 58 81 51 82 53 83 54 84 55 85
REMARK SMILES IDX 56 86
REMARK H PARENT 78 39 46 50
REMARK Flexibility Score: inf
ROOT
ATOM      1  C   UNL A   1      32.356  29.659  27.016  1.00  0.00     0.274 C 
ENDROOT
BRANCH   1   2
ATOM      2  O   UNL A   1      32.485  28.719  25.917  1.00  0.00    -0.461 OA
BRANCH   2   3
ATOM      3  C   UNL A   1      31.434  28.667  25.044  1.00  0.00     0.326 C 
ATOM      4  O   UNL A   1      30.865  29.663  24.608  1.00  0.00    -0.250 OA
BRANCH   3   5
ATOM      5  C   UNL A   1      31.146  27.275  24.534  1.00  0.00     0.246 C 
BRANCH   5   6
ATOM      6  N   UNL A   1      32.231  26.327  24.609  1.00  0.00    -0.315 N 
ATOM      7  C   UNL A   1      33.327  26.198  23.773  1.00  0.00     0.136 A 
ATOM      8  N   UNL A   1      34.104  25.219  24.210  1.00  0.00    -0.231 NA
ATOM      9  C   UNL A   1      33.369  24.556  25.161  1.00  0.00     0.089 A 
ATOM     10  C   UNL A   1      32.159  25.194  25.383  1.00  0.00     0.069 A 
ATOM     11  C   UNL A   1      33.646  23.365  25.841  1.00  0.00     0.030 A 
ATOM     12  C   UNL A   1      31.153  24.668  26.201  1.00  0.00     0.028 A 
ATOM     13  C   UNL A   1      32.652  22.816  26.662  1.00  0.00     0.002 A 
ATOM     14  C   UNL A   1      31.418  23.448  26.820  1.00  0.00     0.002 A 
BRANCH   7  15
ATOM     15  C   UNL A   1      33.621  27.003  22.542  1.00  0.00     0.235 C 
BRANCH  15  16
ATOM     16  O   UNL A   1      33.664  26.185  21.374  1.00  0.00    -0.377 OA
ATOM     17  C   UNL A   1      32.436  25.558  21.024  1.00  0.00     0.195 C 
ENDBRANCH  15  16
ENDBRANCH   7  15
ENDBRANCH   5   6
ENDBRANCH   3   5
ENDBRANCH   2   3
ENDBRANCH   1   2
BRANCH   1  18
ATOM     18  C   UNL A   1      33.350  30.823  26.850  1.00  0.00     0.275 C 
BRANCH  18  19
ATOM     19  O   UNL A   1      34.108  30.959  28.070  1.00  0.00    -0.458 OA
BRANCH  19  20
ATOM     20  C   UNL A   1      34.984  31.982  28.157  1.00  0.00     0.338 C 
ATOM     21  O   UNL A   1      34.726  33.187  28.276  1.00  0.00    -0.246 OA
BRANCH  20  22
ATOM     22  C   UNL A   1      36.254  31.362  28.523  1.00  0.00     0.060 A 
ATOM     23  C   UNL A   1      37.422  31.988  28.920  1.00  0.00     0.016 A 
ATOM     24  C   UNL A   1      36.211  29.980  28.442  1.00  0.00     0.016 A 
ATOM     25  C   UNL A   1      38.555  31.187  29.140  1.00  0.00     0.010 A 
ATOM     26  C   UNL A   1      37.298  29.184  28.711  1.00  0.00     0.010 A 
ATOM     27  C   UNL A   1      38.498  29.780  29.005  1.00  0.00    -0.014 A 
BRANCH  27  28
ATOM     28  C   UNL A   1      39.631  28.908  29.298  1.00  0.00     0.031 A 
ATOM     29  C   UNL A   1      39.985  28.839  30.726  1.00  0.00     0.074 A 
ATOM     30  C   UNL A   1      40.300  28.088  28.457  1.00  0.00     0.049 A 
ATOM     31  N   UNL A   1      40.866  29.582  31.302  1.00  0.00    -0.248 NA
ATOM     32  C   UNL A   1      39.217  27.981  31.630  1.00  0.00     0.031 C 
ATOM     33  C   UNL A   1      40.003  27.672  27.083  1.00  0.00     0.029 A 
ATOM     34  N   UNL A   1      41.432  27.384  28.744  1.00  0.00    -0.354 N 
ATOM     35  C   UNL A   1      40.924  29.146  32.612  1.00  0.00     0.074 A 
ATOM     36  C   UNL A   1      39.785  28.278  32.804  1.00  0.00     0.031 C 
ATOM     37  C   UNL A   1      40.815  26.643  26.738  1.00  0.00     0.029 A 
ATOM     38  C   UNL A   1      41.800  26.452  27.786  1.00  0.00     0.049 A 
ATOM     39  H   UNL A   1      41.951  27.527  29.568  1.00  0.00     0.167 HD
ATOM     40  C   UNL A   1      42.021  29.385  33.375  1.00  0.00     0.034 A 
ATOM     41  C   UNL A   1      42.843  25.594  27.876  1.00  0.00     0.034 A 
ATOM     42  C   UNL A   1      42.964  30.259  32.723  1.00  0.00     0.049 A 
ATOM     43  C   UNL A   1      43.835  26.240  28.775  1.00  0.00     0.074 A 
ATOM     44  C   UNL A   1      42.899  31.530  32.184  1.00  0.00     0.029 A 
ATOM     45  N   UNL A   1      44.073  29.670  32.157  1.00  0.00    -0.354 N 
ATOM     46  N   UNL A   1      44.473  27.341  28.478  1.00  0.00    -0.248 NA
ATOM     47  C   UNL A   1      43.853  25.872  30.181  1.00  0.00     0.031 C 
ATOM     48  C   UNL A   1      43.662  31.457  30.979  1.00  0.00     0.029 A 
ATOM     49  C   UNL A   1      44.181  30.164  30.881  1.00  0.00     0.049 A 
ATOM     50  H   UNL A   1      44.674  29.018  32.587  1.00  0.00     0.167 HD
ATOM     51  C   UNL A   1      44.583  28.020  29.685  1.00  0.00     0.074 A 
ATOM     52  C   UNL A   1      44.298  27.016  30.707  1.00  0.00     0.031 C 
ATOM     53  C   UNL A   1      44.614  29.386  29.737  1.00  0.00     0.034 A 
BRANCH  40  54
ATOM     54  C   UNL A   1      42.391  28.593  34.585  1.00  0.00     0.023 A 
ATOM     55  C   UNL A   1      42.665  29.297  35.774  1.00  0.00     0.012 A 
ATOM     56  C   UNL A   1      42.694  27.216  34.547  1.00  0.00     0.148 A 
ATOM     57  C   UNL A   1      43.216  28.654  36.883  1.00  0.00     0.002 A 
ATOM     58  C   UNL A   1      43.169  26.567  35.677  1.00  0.00     0.091 A 
ATOM     59  F   UNL A   1      42.642  26.560  33.381  1.00  0.00    -0.205 F 
ATOM     60  C   UNL A   1      43.452  27.284  36.842  1.00  0.00     0.022 A 
BRANCH  58  61
ATOM     61  S   UNL A   1      43.427  24.791  35.681  1.00  0.00     0.127 S 
ATOM     62  O   UNL A   1      44.325  24.623  34.543  1.00  0.00    -0.237 OA
ATOM     63  O   UNL A   1      44.038  24.575  36.993  1.00  0.00    -0.237 OA
ATOM     64  O   UNL A   1      42.093  24.219  35.546  1.00  0.00    -0.744 OA
ENDBRANCH  58  61
ENDBRANCH  40  54
BRANCH  41  65
ATOM     65  C   UNL A   1      42.977  24.193  27.405  1.00  0.00     0.023 A 
ATOM     66  C   UNL A   1      41.931  23.280  27.656  1.00  0.00     0.012 A 
ATOM     67  C   UNL A   1      43.971  23.814  26.477  1.00  0.00     0.148 A 
ATOM     68  C   UNL A   1      41.843  22.065  26.962  1.00  0.00     0.002 A 
ATOM     69  C   UNL A   1      43.889  22.597  25.802  1.00  0.00     0.091 A 
ATOM     70  F   UNL A   1      44.947  24.679  26.173  1.00  0.00    -0.205 F 
ATOM     71  C   UNL A   1      42.817  21.727  26.028  1.00  0.00     0.022 A 
BRANCH  69  72
ATOM     72  S   UNL A   1      45.129  22.114  24.590  1.00  0.00     0.127 S 
ATOM     73  O   UNL A   1      46.346  22.037  25.398  1.00  0.00    -0.237 OA
ATOM     74  O   UNL A   1      44.619  20.827  24.128  1.00  0.00    -0.237 OA
ATOM     75  O   UNL A   1      45.139  23.191  23.606  1.00  0.00    -0.744 OA
ENDBRANCH  69  72
ENDBRANCH  41  65
BRANCH  53  76
ATOM     76  C   UNL A   1      44.795  30.155  28.448  1.00  0.00     0.023 A 
ATOM     77  C   UNL A   1      43.715  30.399  27.574  1.00  0.00     0.012 A 
ATOM     78  C   UNL A   1      46.014  30.821  28.221  1.00  0.00     0.148 A 
ATOM     79  C   UNL A   1      43.849  31.276  26.494  1.00  0.00     0.002 A 
ATOM     80  C   UNL A   1      46.130  31.725  27.169  1.00  0.00     0.091 A 
ATOM     81  F   UNL A   1      47.029  30.590  29.067  1.00  0.00    -0.205 F 
ATOM     82  C   UNL A   1      45.051  31.949  26.300  1.00  0.00     0.022 A 
BRANCH  80  83
ATOM     83  S   UNL A   1      47.603  32.723  26.923  1.00  0.00     0.127 S 
ATOM     84  O   UNL A   1      47.184  33.629  25.855  1.00  0.00    -0.237 OA
ATOM     85  O   UNL A   1      47.770  33.357  28.232  1.00  0.00    -0.237 OA
ATOM     86  O   UNL A   1      48.668  31.795  26.566  1.00  0.00    -0.744 OA
ENDBRANCH  80  83
ENDBRANCH  53  76
ENDBRANCH  27  28
ENDBRANCH  20  22
ENDBRANCH  19  20
ENDBRANCH  18  19
ENDBRANCH   1  18
TORSDOF 17
ENDMDL
MODEL 3
REMARK VINA RESULT:     -10.7      4.574     10.310
REMARK SMILES COCc1nc2ccccc2n1CC(=O)OCCOC(=O)c1ccc(-c2c3nc(c(-c4cccc(S(=O)(=O)[O-])c4F)c4ccc([nH]4)c(-c4cccc(S(=O)(=O)[O-])c4F)c4nc(c(-c5cccc(S(=O)(=O)[O-])c5F)c5ccc2[nH]5)C=C4)C=C3)cc1
REMARK SMILES IDX 17 1 16 2 14 3 15 4 13 5 12 6 4 7 5 8 6 9 11 10 7 11 10 12
REMARK SMILES IDX 8 13 9 14 3 15 2 16 1 17 18 18 19 19 20 20 21 21 22 22 23 23
REMARK SMILES IDX 84 24 24 25 83 26 25 27 26 28 27 29 77 30 28 31 82 32 76 33
REMARK SMILES IDX 78 34 29 35 81 36 75 37 74 38 30 40 62 41 42 42 61 43 43 44
REMARK SMILES IDX 46 45 60 46 79 47 44 48 45 49 59 51 80 52 47 53 31 54 32 55
REMARK SMILES IDX 40 56 33 57 35 58 41 59 34 60 36 61 37 62 38 63 39 64 63 65
REMARK SMILES IDX 64 66 72 67 65 68 67 69 73 70 66 71 68 72 69 73 70 74 71 75
REMARK SMILES IDX 48 76 49 77 57 78 50 79 52 80 58 81 51 82 53 83 54 84 55 85
REMARK SMILES IDX 56 86
REMARK H PARENT 78 39 46 50
REMARK Flexibility Score: inf
ROOT
ATOM      1  C   UNL A   1      34.911  34.024  30.776  1.00  0.00     0.274 C 
ENDROOT
BRANCH   1   2
ATOM      2  O   UNL A   1      36.297  34.405  30.979  1.00  0.00    -0.461 OA
BRANCH   2   3
ATOM      3  C   UNL A   1      36.712  34.491  32.279  1.00  0.00     0.326 C 
ATOM      4  O   UNL A   1      36.213  35.252  33.101  1.00  0.00    -0.250 OA
BRANCH   3   5
ATOM      5  C   UNL A   1      37.732  33.441  32.654  1.00  0.00     0.246 C 
BRANCH   5   6
ATOM      6  N   UNL A   1      39.065  33.915  32.936  1.00  0.00    -0.315 N 
ATOM      7  C   UNL A   1      39.557  34.475  34.102  1.00  0.00     0.136 A 
ATOM      8  N   UNL A   1      40.844  34.746  33.955  1.00  0.00    -0.231 NA
ATOM      9  C   UNL A   1      41.103  34.607  32.614  1.00  0.00     0.089 A 
ATOM     10  C   UNL A   1      39.982  34.149  31.940  1.00  0.00     0.069 A 
ATOM     11  C   UNL A   1      42.261  34.908  31.887  1.00  0.00     0.030 A 
ATOM     12  C   UNL A   1      39.916  34.042  30.546  1.00  0.00     0.028 A 
ATOM     13  C   UNL A   1      42.216  34.813  30.489  1.00  0.00     0.002 A 
ATOM     14  C   UNL A   1      41.054  34.408  29.831  1.00  0.00     0.002 A 
BRANCH   7  15
ATOM     15  C   UNL A   1      38.786  34.768  35.355  1.00  0.00     0.235 C 
BRANCH  15  16
ATOM     16  O   UNL A   1      38.341  33.573  35.995  1.00  0.00    -0.377 OA
ATOM     17  C   UNL A   1      39.264  32.993  36.909  1.00  0.00     0.195 C 
ENDBRANCH  15  16
ENDBRANCH   7  15
ENDBRANCH   5   6
ENDBRANCH   3   5
ENDBRANCH   2   3
ENDBRANCH   1   2
BRANCH   1  18
ATOM     18  C   UNL A   1      34.789  32.498  30.605  1.00  0.00     0.275 C 
BRANCH  18  19
ATOM     19  O   UNL A   1      34.451  32.215  29.232  1.00  0.00    -0.458 OA
BRANCH  19  20
ATOM     20  C   UNL A   1      35.405  32.409  28.296  1.00  0.00     0.338 C 
ATOM     21  O   UNL A   1      35.638  33.444  27.661  1.00  0.00    -0.246 OA
BRANCH  20  22
ATOM     22  C   UNL A   1      36.362  31.325  28.503  1.00  0.00     0.060 A 
ATOM     23  C   UNL A   1      36.136  29.963  28.415  1.00  0.00     0.016 A 
ATOM     24  C   UNL A   1      37.627  31.790  28.820  1.00  0.00     0.016 A 
ATOM     25  C   UNL A   1      37.193  29.099  28.745  1.00  0.00     0.010 A 
ATOM     26  C   UNL A   1      38.683  30.953  29.087  1.00  0.00     0.010 A 
ATOM     27  C   UNL A   1      38.464  29.599  29.112  1.00  0.00    -0.014 A 
BRANCH  27  28
ATOM     28  C   UNL A   1      39.608  28.735  29.386  1.00  0.00     0.031 A 
ATOM     29  C   UNL A   1      39.975  28.655  30.811  1.00  0.00     0.074 A 
ATOM     30  C   UNL A   1      40.278  27.930  28.531  1.00  0.00     0.049 A 
ATOM     31  N   UNL A   1      40.854  29.400  31.386  1.00  0.00    -0.248 NA
ATOM     32  C   UNL A   1      39.223  27.779  31.712  1.00  0.00     0.031 C 
ATOM     33  C   UNL A   1      39.973  27.526  27.155  1.00  0.00     0.029 A 
ATOM     34  N   UNL A   1      41.419  27.234  28.801  1.00  0.00    -0.354 N 
ATOM     35  C   UNL A   1      40.928  28.951  32.691  1.00  0.00     0.074 A 
ATOM     36  C   UNL A   1      39.799  28.069  32.883  1.00  0.00     0.031 C 
ATOM     37  C   UNL A   1      40.791  26.508  26.792  1.00  0.00     0.029 A 
ATOM     38  C   UNL A   1      41.787  26.316  27.829  1.00  0.00     0.049 A 
ATOM     39  H   UNL A   1      41.944  27.374  29.622  1.00  0.00     0.167 HD
ATOM     40  C   UNL A   1      42.029  29.192  33.448  1.00  0.00     0.034 A 
ATOM     41  C   UNL A   1      42.840  25.467  27.901  1.00  0.00     0.034 A 
ATOM     42  C   UNL A   1      42.958  30.081  32.796  1.00  0.00     0.049 A 
ATOM     43  C   UNL A   1      43.833  26.113  28.799  1.00  0.00     0.074 A 
ATOM     44  C   UNL A   1      42.875  31.358  32.271  1.00  0.00     0.029 A 
ATOM     45  N   UNL A   1      44.067  29.510  32.215  1.00  0.00    -0.354 N 
ATOM     46  N   UNL A   1      44.458  27.224  28.508  1.00  0.00    -0.248 NA
ATOM     47  C   UNL A   1      43.866  25.731  30.201  1.00  0.00     0.031 C 
ATOM     48  C   UNL A   1      43.629  31.305  31.059  1.00  0.00     0.029 A 
ATOM     49  C   UNL A   1      44.159  30.018  30.944  1.00  0.00     0.049 A 
ATOM     50  H   UNL A   1      44.678  28.859  32.632  1.00  0.00     0.167 HD
ATOM     51  C   UNL A   1      44.571  27.891  29.721  1.00  0.00     0.074 A 
ATOM     52  C   UNL A   1      44.306  26.874  30.735  1.00  0.00     0.031 C 
ATOM     53  C   UNL A   1      44.590  29.257  29.788  1.00  0.00     0.034 A 
BRANCH  40  54
ATOM     54  C   UNL A   1      42.417  28.391  34.645  1.00  0.00     0.023 A 
ATOM     55  C   UNL A   1      42.633  29.079  35.856  1.00  0.00     0.012 A 
ATOM     56  C   UNL A   1      42.790  27.033  34.582  1.00  0.00     0.148 A 
ATOM     57  C   UNL A   1      43.197  28.438  36.960  1.00  0.00     0.002 A 
ATOM     58  C   UNL A   1      43.277  26.381  35.705  1.00  0.00     0.091 A 
ATOM     59  F   UNL A   1      42.793  26.402  33.400  1.00  0.00    -0.205 F 
ATOM     60  C   UNL A   1      43.502  27.083  36.892  1.00  0.00     0.022 A 
BRANCH  58  61
ATOM     61  S   UNL A   1      43.625  24.621  35.673  1.00  0.00     0.127 S 
ATOM     62  O   UNL A   1      44.553  24.526  34.550  1.00  0.00    -0.237 OA
ATOM     63  O   UNL A   1      44.222  24.404  36.992  1.00  0.00    -0.237 OA
ATOM     64  O   UNL A   1      42.325  23.986  35.498  1.00  0.00    -0.744 OA
ENDBRANCH  58  61
ENDBRANCH  40  54
BRANCH  41  65
ATOM     65  C   UNL A   1      42.983  24.073  27.415  1.00  0.00     0.023 A 
ATOM     66  C   UNL A   1      41.949  23.146  27.668  1.00  0.00     0.012 A 
ATOM     67  C   UNL A   1      43.970  23.713  26.471  1.00  0.00     0.148 A 
ATOM     68  C   UNL A   1      41.866  21.937  26.963  1.00  0.00     0.002 A 
ATOM     69  C   UNL A   1      43.893  22.503  25.784  1.00  0.00     0.091 A 
ATOM     70  F   UNL A   1      44.933  24.593  26.165  1.00  0.00    -0.205 F 
ATOM     71  C   UNL A   1      42.833  21.620  26.014  1.00  0.00     0.022 A 
BRANCH  69  72
ATOM     72  S   UNL A   1      45.123  22.046  24.554  1.00  0.00     0.127 S 
ATOM     73  O   UNL A   1      46.360  22.030  25.336  1.00  0.00    -0.237 OA
ATOM     74  O   UNL A   1      44.653  20.732  24.125  1.00  0.00    -0.237 OA
ATOM     75  O   UNL A   1      45.071  23.105  23.552  1.00  0.00    -0.744 OA
ENDBRANCH  69  72
ENDBRANCH  41  65
BRANCH  53  76
ATOM     76  C   UNL A   1      44.753  30.041  28.505  1.00  0.00     0.023 A 
ATOM     77  C   UNL A   1      43.656  30.313  27.660  1.00  0.00     0.012 A 
ATOM     78  C   UNL A   1      45.975  30.692  28.259  1.00  0.00     0.148 A 
ATOM     79  C   UNL A   1      43.778  31.202  26.589  1.00  0.00     0.002 A 
ATOM     80  C   UNL A   1      46.080  31.609  27.217  1.00  0.00     0.091 A 
ATOM     81  F   UNL A   1      47.006  30.435  29.078  1.00  0.00    -0.205 F 
ATOM     82  C   UNL A   1      44.985  31.860  26.376  1.00  0.00     0.022 A 
BRANCH  80  83
ATOM     83  S   UNL A   1      47.561  32.589  26.951  1.00  0.00     0.127 S 
ATOM     84  O   UNL A   1      48.536  31.573  26.559  1.00  0.00    -0.237 OA
ATOM     85  O   UNL A   1      47.149  33.488  25.871  1.00  0.00    -0.237 OA
ATOM     86  O   UNL A   1      47.839  33.260  28.215  1.00  0.00    -0.744 OA
ENDBRANCH  80  83
ENDBRANCH  53  76
ENDBRANCH  27  28
ENDBRANCH  20  22
ENDBRANCH  19  20
ENDBRANCH  18  19
ENDBRANCH   1  18
TORSDOF 17
ENDMDL
