MODEL 1
REMARK VINA RESULT:     -12.3      0.000      0.000
REMARK SMILES N#C/C(=C/c1cc2c(cc1Br)OCO2)C(=O)OCCOC(=O)c1ccc(-c2c3nc(c(-c4cccc(S(=O)(=O)[O-])c4F)c4ccc([nH]4)c(-c4cccc(S(=O)(=O)[O-])c4F)c4nc(c(-c5cccc(S(=O)(=O)[O-])c5F)c5ccc2[nH]5)C=C4)C=C3)cc1
REMARK SMILES IDX 19 1 18 2 17 3 15 4 16 5 3 6 4 7 2 8 1 9 5 10 6 11 10 12
REMARK SMILES IDX 7 13 9 14 11 15 8 16 14 17 12 18 13 19 20 20 21 21 22 22
REMARK SMILES IDX 23 23 24 24 85 25 25 26 84 27 26 28 27 29 28 30 78 31 29 32
REMARK SMILES IDX 83 33 77 34 79 35 30 36 82 37 76 38 75 39 31 41 63 42 43 43
REMARK SMILES IDX 62 44 44 45 47 46 61 47 80 48 45 49 46 50 60 52 81 53 48 54
REMARK SMILES IDX 32 55 33 56 41 57 34 58 36 59 42 60 35 61 37 62 38 63 39 64
REMARK SMILES IDX 40 65 64 66 65 67 73 68 66 69 68 70 74 71 67 72 69 73 70 74
REMARK SMILES IDX 71 75 72 76 49 77 50 78 58 79 51 80 53 81 59 82 52 83 54 84
REMARK SMILES IDX 55 85 56 86 57 87
REMARK H PARENT 79 40 47 51
REMARK Flexibility Score: inf
ROOT
ATOM      1  C   UNL A   1      36.565  21.102  25.203  1.00  0.00     0.275 C 
ENDROOT
BRANCH   1   2
ATOM      2  C   UNL A   1      35.489  21.824  24.394  1.00  0.00     0.275 C 
BRANCH   2   3
ATOM      3  O   UNL A   1      34.731  22.709  25.240  1.00  0.00    -0.458 OA
BRANCH   3   4
ATOM      4  C   UNL A   1      33.967  22.114  26.193  1.00  0.00     0.349 C 
ATOM      5  O   UNL A   1      34.383  21.466  27.134  1.00  0.00    -0.245 OA
BRANCH   4   6
ATOM      6  C   UNL A   1      32.522  22.331  25.939  1.00  0.00     0.138 C 
ATOM      7  C   UNL A   1      31.767  21.383  25.338  1.00  0.00     0.036 C 
BRANCH   6   8
ATOM      8  C   UNL A   1      31.841  23.487  26.655  1.00  0.00     0.107 C 
ATOM      9  N   UNL A   1      31.277  24.445  27.249  1.00  0.00    -0.192 NA
ENDBRANCH   6   8
BRANCH   7  10
ATOM     10  C   UNL A   1      32.268  20.126  24.740  1.00  0.00    -0.006 A 
ATOM     11  C   UNL A   1      32.629  19.108  25.640  1.00  0.00     0.060 A 
ATOM     12  C   UNL A   1      32.349  19.866  23.344  1.00  0.00     0.029 A 
ATOM     13  C   UNL A   1      32.974  17.872  25.131  1.00  0.00     0.166 A 
ATOM     14  C   UNL A   1      32.661  18.587  22.860  1.00  0.00     0.067 A 
ATOM     15  Br  UNL A   1      32.107  21.224  22.033  1.00  0.00    -0.050 Br
ATOM     16  C   UNL A   1      32.962  17.612  23.782  1.00  0.00     0.166 A 
ATOM     17  O   UNL A   1      33.339  16.786  25.863  1.00  0.00    -0.454 OA
ATOM     18  O   UNL A   1      33.291  16.325  23.497  1.00  0.00    -0.454 OA
ATOM     19  C   UNL A   1      33.540  15.808  24.822  1.00  0.00     0.468 C 
ENDBRANCH   7  10
ENDBRANCH   4   6
ENDBRANCH   3   4
ENDBRANCH   2   3
ENDBRANCH   1   2
BRANCH   1  20
ATOM     20  O   UNL A   1      37.865  21.646  24.914  1.00  0.00    -0.458 OA
BRANCH  20  21
ATOM     21  C   UNL A   1      38.849  21.241  25.747  1.00  0.00     0.338 C 
ATOM     22  O   UNL A   1      39.362  20.130  25.800  1.00  0.00    -0.246 OA
BRANCH  21  23
ATOM     23  C   UNL A   1      39.377  22.381  26.502  1.00  0.00     0.060 A 
ATOM     24  C   UNL A   1      38.961  23.648  26.117  1.00  0.00     0.016 A 
ATOM     25  C   UNL A   1      40.410  22.241  27.420  1.00  0.00     0.016 A 
ATOM     26  C   UNL A   1      39.660  24.774  26.513  1.00  0.00     0.010 A 
ATOM     27  C   UNL A   1      41.023  23.392  27.933  1.00  0.00     0.010 A 
ATOM     28  C   UNL A   1      40.685  24.671  27.447  1.00  0.00    -0.014 A 
BRANCH  28  29
ATOM     29  C   UNL A   1      41.418  25.899  27.856  1.00  0.00     0.031 A 
ATOM     30  C   UNL A   1      40.716  26.942  28.681  1.00  0.00     0.074 A 
ATOM     31  C   UNL A   1      42.714  26.067  27.522  1.00  0.00     0.049 A 
ATOM     32  N   UNL A   1      41.072  28.173  28.931  1.00  0.00    -0.248 NA
ATOM     33  C   UNL A   1      39.428  26.556  29.286  1.00  0.00     0.031 C 
ATOM     34  C   UNL A   1      43.539  25.103  26.787  1.00  0.00     0.029 A 
ATOM     35  N   UNL A   1      43.569  27.119  27.748  1.00  0.00    -0.354 N 
ATOM     36  C   UNL A   1      40.018  28.736  29.641  1.00  0.00     0.074 A 
ATOM     37  C   UNL A   1      39.014  27.707  29.795  1.00  0.00     0.031 C 
ATOM     38  C   UNL A   1      44.776  25.595  26.640  1.00  0.00     0.029 A 
ATOM     39  C   UNL A   1      44.802  26.954  27.159  1.00  0.00     0.049 A 
ATOM     40  H   UNL A   1      43.324  27.912  28.278  1.00  0.00     0.167 HD
ATOM     41  C   UNL A   1      39.906  29.997  30.120  1.00  0.00     0.034 A 
ATOM     42  C   UNL A   1      45.818  27.819  26.986  1.00  0.00     0.034 A 
ATOM     43  C   UNL A   1      40.952  30.980  30.026  1.00  0.00     0.049 A 
ATOM     44  C   UNL A   1      45.666  29.216  27.514  1.00  0.00     0.074 A 
ATOM     45  C   UNL A   1      40.950  32.286  30.483  1.00  0.00     0.029 A 
ATOM     46  N   UNL A   1      42.196  30.758  29.454  1.00  0.00    -0.354 N 
ATOM     47  N   UNL A   1      44.656  29.745  28.163  1.00  0.00    -0.248 NA
ATOM     48  C   UNL A   1      46.789  30.134  27.294  1.00  0.00     0.031 C 
ATOM     49  C   UNL A   1      42.188  32.858  30.172  1.00  0.00     0.029 A 
ATOM     50  C   UNL A   1      42.972  31.900  29.547  1.00  0.00     0.049 A 
ATOM     51  H   UNL A   1      42.484  29.912  29.041  1.00  0.00     0.167 HD
ATOM     52  C   UNL A   1      45.031  31.051  28.449  1.00  0.00     0.074 A 
ATOM     53  C   UNL A   1      46.372  31.222  27.927  1.00  0.00     0.031 C 
ATOM     54  C   UNL A   1      44.324  32.028  29.066  1.00  0.00     0.034 A 
BRANCH  41  55
ATOM     55  C   UNL A   1      38.613  30.383  30.788  1.00  0.00     0.023 A 
ATOM     56  C   UNL A   1      38.407  30.098  32.153  1.00  0.00     0.012 A 
ATOM     57  C   UNL A   1      37.616  31.076  30.070  1.00  0.00     0.148 A 
ATOM     58  C   UNL A   1      37.219  30.465  32.784  1.00  0.00     0.002 A 
ATOM     59  C   UNL A   1      36.454  31.480  30.717  1.00  0.00     0.091 A 
ATOM     60  F   UNL A   1      37.820  31.319  28.768  1.00  0.00    -0.205 F 
ATOM     61  C   UNL A   1      36.249  31.165  32.070  1.00  0.00     0.022 A 
BRANCH  59  62
ATOM     62  S   UNL A   1      35.179  32.452  29.907  1.00  0.00     0.127 S 
ATOM     63  O   UNL A   1      34.258  32.711  31.011  1.00  0.00    -0.237 OA
ATOM     64  O   UNL A   1      35.929  33.623  29.451  1.00  0.00    -0.237 OA
ATOM     65  O   UNL A   1      34.652  31.615  28.838  1.00  0.00    -0.744 OA
ENDBRANCH  59  62
ENDBRANCH  41  55
BRANCH  42  66
ATOM     66  C   UNL A   1      47.044  27.393  26.249  1.00  0.00     0.023 A 
ATOM     67  C   UNL A   1      47.999  26.583  26.890  1.00  0.00     0.012 A 
ATOM     68  C   UNL A   1      47.247  27.757  24.902  1.00  0.00     0.148 A 
ATOM     69  C   UNL A   1      49.145  26.164  26.211  1.00  0.00     0.002 A 
ATOM     70  C   UNL A   1      48.354  27.280  24.212  1.00  0.00     0.091 A 
ATOM     71  F   UNL A   1      46.340  28.549  24.312  1.00  0.00    -0.205 F 
ATOM     72  C   UNL A   1      49.315  26.500  24.870  1.00  0.00     0.022 A 
BRANCH  70  73
ATOM     73  S   UNL A   1      48.569  27.542  22.447  1.00  0.00     0.127 S 
ATOM     74  O   UNL A   1      48.621  26.171  21.945  1.00  0.00    -0.237 OA
ATOM     75  O   UNL A   1      47.354  28.279  22.098  1.00  0.00    -0.237 OA
ATOM     76  O   UNL A   1      49.795  28.316  22.312  1.00  0.00    -0.744 OA
ENDBRANCH  70  73
ENDBRANCH  42  66
BRANCH  54  77
ATOM     77  C   UNL A   1      45.002  33.357  29.250  1.00  0.00     0.023 A 
ATOM     78  C   UNL A   1      45.757  33.605  30.413  1.00  0.00     0.012 A 
ATOM     79  C   UNL A   1      44.941  34.336  28.240  1.00  0.00     0.148 A 
ATOM     80  C   UNL A   1      46.414  34.821  30.583  1.00  0.00     0.002 A 
ATOM     81  C   UNL A   1      45.641  35.526  28.393  1.00  0.00     0.091 A 
ATOM     82  F   UNL A   1      44.201  34.086  27.150  1.00  0.00    -0.205 F 
ATOM     83  C   UNL A   1      46.367  35.776  29.570  1.00  0.00     0.022 A 
BRANCH  81  84
ATOM     84  S   UNL A   1      45.715  36.771  27.102  1.00  0.00     0.127 S 
ATOM     85  O   UNL A   1      46.248  36.003  25.978  1.00  0.00    -0.237 OA
ATOM     86  O   UNL A   1      44.311  37.158  26.966  1.00  0.00    -0.237 OA
ATOM     87  O   UNL A   1      46.586  37.824  27.607  1.00  0.00    -0.744 OA
ENDBRANCH  81  84
ENDBRANCH  54  77
ENDBRANCH  28  29
ENDBRANCH  21  23
ENDBRANCH  20  21
ENDBRANCH   1  20
TORSDOF 16
ENDMDL
MODEL 2
REMARK VINA RESULT:     -12.2      1.754      2.133
REMARK SMILES N#C/C(=C/c1cc2c(cc1Br)OCO2)C(=O)OCCOC(=O)c1ccc(-c2c3nc(c(-c4cccc(S(=O)(=O)[O-])c4F)c4ccc([nH]4)c(-c4cccc(S(=O)(=O)[O-])c4F)c4nc(c(-c5cccc(S(=O)(=O)[O-])c5F)c5ccc2[nH]5)C=C4)C=C3)cc1
REMARK SMILES IDX 19 1 18 2 17 3 15 4 16 5 3 6 4 7 2 8 1 9 5 10 6 11 10 12
REMARK SMILES IDX 7 13 9 14 11 15 8 16 14 17 12 18 13 19 20 20 21 21 22 22
REMARK SMILES IDX 23 23 24 24 85 25 25 26 84 27 26 28 27 29 28 30 78 31 29 32
REMARK SMILES IDX 83 33 77 34 79 35 30 36 82 37 76 38 75 39 31 41 63 42 43 43
REMARK SMILES IDX 62 44 44 45 47 46 61 47 80 48 45 49 46 50 60 52 81 53 48 54
REMARK SMILES IDX 32 55 33 56 41 57 34 58 36 59 42 60 35 61 37 62 38 63 39 64
REMARK SMILES IDX 40 65 64 66 65 67 73 68 66 69 68 70 74 71 67 72 69 73 70 74
REMARK SMILES IDX 71 75 72 76 49 77 50 78 58 79 51 80 53 81 59 82 52 83 54 84
REMARK SMILES IDX 55 85 56 86 57 87
REMARK H PARENT 79 40 47 51
REMARK Flexibility Score: inf
ROOT
ATOM      1  C   UNL A   1      36.748  21.808  24.071  1.00  0.00     0.275 C 
ENDROOT
BRANCH   1   2
ATOM      2  C   UNL A   1      36.499  23.183  23.453  1.00  0.00     0.275 C 
BRANCH   2   3
ATOM      3  O   UNL A   1      35.298  23.766  23.990  1.00  0.00    -0.458 OA
BRANCH   3   4
ATOM      4  C   UNL A   1      34.213  23.754  23.172  1.00  0.00     0.349 C 
ATOM      5  O   UNL A   1      34.226  23.526  21.978  1.00  0.00    -0.245 OA
BRANCH   4   6
ATOM      6  C   UNL A   1      32.971  24.079  23.917  1.00  0.00     0.138 C 
ATOM      7  C   UNL A   1      32.329  23.141  24.649  1.00  0.00     0.036 C 
BRANCH   6   8
ATOM      8  C   UNL A   1      32.622  25.546  24.110  1.00  0.00     0.107 C 
ATOM      9  N   UNL A   1      32.333  26.763  24.269  1.00  0.00    -0.192 NA
ENDBRANCH   6   8
BRANCH   7  10
ATOM     10  C   UNL A   1      32.658  21.698  24.692  1.00  0.00    -0.006 A 
ATOM     11  C   UNL A   1      32.172  20.917  23.629  1.00  0.00     0.060 A 
ATOM     12  C   UNL A   1      33.467  21.078  25.683  1.00  0.00     0.029 A 
ATOM     13  C   UNL A   1      32.564  19.596  23.552  1.00  0.00     0.166 A 
ATOM     14  C   UNL A   1      33.883  19.746  25.553  1.00  0.00     0.067 A 
ATOM     15  Br  UNL A   1      33.995  21.970  27.279  1.00  0.00    -0.050 Br
ATOM     16  C   UNL A   1      33.417  19.035  24.471  1.00  0.00     0.166 A 
ATOM     17  O   UNL A   1      32.189  18.711  22.588  1.00  0.00    -0.454 OA
ATOM     18  O   UNL A   1      33.709  17.738  24.188  1.00  0.00    -0.454 OA
ATOM     19  C   UNL A   1      32.918  17.536  22.998  1.00  0.00     0.468 C 
ENDBRANCH   7  10
ENDBRANCH   4   6
ENDBRANCH   3   4
ENDBRANCH   2   3
ENDBRANCH   1   2
BRANCH   1  20
ATOM     20  O   UNL A   1      37.071  21.932  25.468  1.00  0.00    -0.458 OA
BRANCH  20  21
ATOM     21  C   UNL A   1      38.333  21.578  25.793  1.00  0.00     0.338 C 
ATOM     22  O   UNL A   1      38.945  20.588  25.409  1.00  0.00    -0.246 OA
BRANCH  21  23
ATOM     23  C   UNL A   1      38.980  22.647  26.559  1.00  0.00     0.060 A 
ATOM     24  C   UNL A   1      38.515  23.940  26.366  1.00  0.00     0.016 A 
ATOM     25  C   UNL A   1      40.144  22.431  27.285  1.00  0.00     0.016 A 
ATOM     26  C   UNL A   1      39.273  25.030  26.751  1.00  0.00     0.010 A 
ATOM     27  C   UNL A   1      40.837  23.535  27.801  1.00  0.00     0.010 A 
ATOM     28  C   UNL A   1      40.433  24.850  27.498  1.00  0.00    -0.014 A 
BRANCH  28  29
ATOM     29  C   UNL A   1      41.227  26.041  27.900  1.00  0.00     0.031 A 
ATOM     30  C   UNL A   1      40.592  27.106  28.750  1.00  0.00     0.074 A 
ATOM     31  C   UNL A   1      42.522  26.157  27.536  1.00  0.00     0.049 A 
ATOM     32  N   UNL A   1      41.006  28.318  29.003  1.00  0.00    -0.248 NA
ATOM     33  C   UNL A   1      39.303  26.769  29.382  1.00  0.00     0.031 C 
ATOM     34  C   UNL A   1      43.287  25.165  26.773  1.00  0.00     0.029 A 
ATOM     35  N   UNL A   1      43.427  27.169  27.750  1.00  0.00    -0.354 N 
ATOM     36  C   UNL A   1      39.995  28.918  29.743  1.00  0.00     0.074 A 
ATOM     37  C   UNL A   1      38.951  27.932  29.912  1.00  0.00     0.031 C 
ATOM     38  C   UNL A   1      44.540  25.605  26.600  1.00  0.00     0.029 A 
ATOM     39  C   UNL A   1      44.637  26.956  27.131  1.00  0.00     0.049 A 
ATOM     40  H   UNL A   1      43.229  27.966  28.293  1.00  0.00     0.167 HD
ATOM     41  C   UNL A   1      39.949  30.178  30.236  1.00  0.00     0.034 A 
ATOM     42  C   UNL A   1      45.685  27.779  26.941  1.00  0.00     0.034 A 
ATOM     43  C   UNL A   1      41.034  31.116  30.125  1.00  0.00     0.049 A 
ATOM     44  C   UNL A   1      45.606  29.176  27.484  1.00  0.00     0.074 A 
ATOM     45  C   UNL A   1      41.099  32.416  30.593  1.00  0.00     0.029 A 
ATOM     46  N   UNL A   1      42.253  30.846  29.521  1.00  0.00    -0.354 N 
ATOM     47  N   UNL A   1      44.636  29.741  28.163  1.00  0.00    -0.248 NA
ATOM     48  C   UNL A   1      46.763  30.047  27.246  1.00  0.00     0.031 C 
ATOM     49  C   UNL A   1      42.353  32.937  30.257  1.00  0.00     0.029 A 
ATOM     50  C   UNL A   1      43.080  31.952  29.605  1.00  0.00     0.049 A 
ATOM     51  H   UNL A   1      42.495  29.992  29.094  1.00  0.00     0.167 HD
ATOM     52  C   UNL A   1      45.074  31.026  28.451  1.00  0.00     0.074 A 
ATOM     53  C   UNL A   1      46.408  31.145  27.898  1.00  0.00     0.031 C 
ATOM     54  C   UNL A   1      44.424  32.027  29.093  1.00  0.00     0.034 A 
BRANCH  41  55
ATOM     55  C   UNL A   1      38.690  30.612  30.938  1.00  0.00     0.023 A 
ATOM     56  C   UNL A   1      38.553  30.426  32.328  1.00  0.00     0.012 A 
ATOM     57  C   UNL A   1      37.657  31.254  30.223  1.00  0.00     0.148 A 
ATOM     58  C   UNL A   1      37.397  30.839  32.990  1.00  0.00     0.002 A 
ATOM     59  C   UNL A   1      36.528  31.705  30.897  1.00  0.00     0.091 A 
ATOM     60  F   UNL A   1      37.796  31.404  28.899  1.00  0.00    -0.205 F 
ATOM     61  C   UNL A   1      36.391  31.487  32.278  1.00  0.00     0.022 A 
BRANCH  59  62
ATOM     62  S   UNL A   1      35.212  32.619  30.084  1.00  0.00     0.127 S 
ATOM     63  O   UNL A   1      34.259  32.800  31.177  1.00  0.00    -0.237 OA
ATOM     64  O   UNL A   1      35.900  33.841  29.666  1.00  0.00    -0.237 OA
ATOM     65  O   UNL A   1      34.753  31.776  28.989  1.00  0.00    -0.744 OA
ENDBRANCH  59  62
ENDBRANCH  41  55
BRANCH  42  66
ATOM     66  C   UNL A   1      46.873  27.308  26.170  1.00  0.00     0.023 A 
ATOM     67  C   UNL A   1      46.951  27.551  24.786  1.00  0.00     0.012 A 
ATOM     68  C   UNL A   1      47.945  26.654  26.812  1.00  0.00     0.148 A 
ATOM     69  C   UNL A   1      48.061  27.130  24.052  1.00  0.00     0.002 A 
ATOM     70  C   UNL A   1      49.076  26.298  26.088  1.00  0.00     0.091 A 
ATOM     71  F   UNL A   1      47.846  26.408  28.126  1.00  0.00    -0.205 F 
ATOM     72  C   UNL A   1      49.129  26.517  24.704  1.00  0.00     0.022 A 
BRANCH  70  73
ATOM     73  S   UNL A   1      50.552  25.643  26.878  1.00  0.00     0.127 S 
ATOM     74  O   UNL A   1      50.044  24.420  27.493  1.00  0.00    -0.237 OA
ATOM     75  O   UNL A   1      51.442  25.435  25.736  1.00  0.00    -0.237 OA
ATOM     76  O   UNL A   1      50.996  26.682  27.798  1.00  0.00    -0.744 OA
ENDBRANCH  70  73
ENDBRANCH  42  66
BRANCH  54  77
ATOM     77  C   UNL A   1      45.164  33.324  29.273  1.00  0.00     0.023 A 
ATOM     78  C   UNL A   1      45.982  33.515  30.403  1.00  0.00     0.012 A 
ATOM     79  C   UNL A   1      45.095  34.328  28.287  1.00  0.00     0.148 A 
ATOM     80  C   UNL A   1      46.695  34.700  30.567  1.00  0.00     0.002 A 
ATOM     81  C   UNL A   1      45.848  35.486  28.433  1.00  0.00     0.091 A 
ATOM     82  F   UNL A   1      44.294  34.132  27.230  1.00  0.00    -0.205 F 
ATOM     83  C   UNL A   1      46.638  35.679  29.578  1.00  0.00     0.022 A 
BRANCH  81  84
ATOM     84  S   UNL A   1      45.912  36.756  27.166  1.00  0.00     0.127 S 
ATOM     85  O   UNL A   1      46.835  37.722  27.759  1.00  0.00    -0.237 OA
ATOM     86  O   UNL A   1      46.449  36.023  26.019  1.00  0.00    -0.237 OA
ATOM     87  O   UNL A   1      44.543  37.224  26.995  1.00  0.00    -0.744 OA
ENDBRANCH  81  84
ENDBRANCH  54  77
ENDBRANCH  28  29
ENDBRANCH  21  23
ENDBRANCH  20  21
ENDBRANCH   1  20
TORSDOF 16
ENDMDL
MODEL 3
REMARK VINA RESULT:     -12.1      1.736      2.773
REMARK SMILES N#C/C(=C/c1cc2c(cc1Br)OCO2)C(=O)OCCOC(=O)c1ccc(-c2c3nc(c(-c4cccc(S(=O)(=O)[O-])c4F)c4ccc([nH]4)c(-c4cccc(S(=O)(=O)[O-])c4F)c4nc(c(-c5cccc(S(=O)(=O)[O-])c5F)c5ccc2[nH]5)C=C4)C=C3)cc1
REMARK SMILES IDX 19 1 18 2 17 3 15 4 16 5 3 6 4 7 2 8 1 9 5 10 6 11 10 12
REMARK SMILES IDX 7 13 9 14 11 15 8 16 14 17 12 18 13 19 20 20 21 21 22 22
REMARK SMILES IDX 23 23 24 24 85 25 25 26 84 27 26 28 27 29 28 30 78 31 29 32
REMARK SMILES IDX 83 33 77 34 79 35 30 36 82 37 76 38 75 39 31 41 63 42 43 43
REMARK SMILES IDX 62 44 44 45 47 46 61 47 80 48 45 49 46 50 60 52 81 53 48 54
REMARK SMILES IDX 32 55 33 56 41 57 34 58 36 59 42 60 35 61 37 62 38 63 39 64
REMARK SMILES IDX 40 65 64 66 65 67 73 68 66 69 68 70 74 71 67 72 69 73 70 74
REMARK SMILES IDX 71 75 72 76 49 77 50 78 58 79 51 80 53 81 59 82 52 83 54 84
REMARK SMILES IDX 55 85 56 86 57 87
REMARK H PARENT 79 40 47 51
REMARK Flexibility Score: inf
ROOT
ATOM      1  C   UNL A   1      37.348  21.178  24.590  1.00  0.00     0.275 C 
ENDROOT
BRANCH   1   2
ATOM      2  C   UNL A   1      36.249  20.200  25.001  1.00  0.00     0.275 C 
BRANCH   2   3
ATOM      3  O   UNL A   1      34.964  20.665  24.546  1.00  0.00    -0.458 OA
BRANCH   3   4
ATOM      4  C   UNL A   1      34.032  20.880  25.511  1.00  0.00     0.349 C 
ATOM      5  O   UNL A   1      34.222  21.453  26.567  1.00  0.00    -0.245 OA
BRANCH   4   6
ATOM      6  C   UNL A   1      32.719  20.303  25.131  1.00  0.00     0.138 C 
ATOM      7  C   UNL A   1      31.824  21.017  24.410  1.00  0.00     0.036 C 
BRANCH   6   8
ATOM      8  C   UNL A   1      32.533  18.802  25.280  1.00  0.00     0.107 C 
ATOM      9  N   UNL A   1      32.379  17.557  25.404  1.00  0.00    -0.192 NA
ENDBRANCH   6   8
BRANCH   7  10
ATOM     10  C   UNL A   1      31.946  22.445  24.045  1.00  0.00    -0.006 A 
ATOM     11  C   UNL A   1      32.618  22.725  22.841  1.00  0.00     0.060 A 
ATOM     12  C   UNL A   1      31.389  23.524  24.784  1.00  0.00     0.029 A 
ATOM     13  C   UNL A   1      32.641  24.029  22.390  1.00  0.00     0.166 A 
ATOM     14  C   UNL A   1      31.391  24.831  24.276  1.00  0.00     0.067 A 
ATOM     15  Br  UNL A   1      30.658  23.302  26.527  1.00  0.00    -0.050 Br
ATOM     16  C   UNL A   1      32.020  25.047  23.073  1.00  0.00     0.166 A 
ATOM     17  O   UNL A   1      33.239  24.463  21.248  1.00  0.00    -0.454 OA
ATOM     18  O   UNL A   1      32.126  26.242  22.435  1.00  0.00    -0.454 OA
ATOM     19  C   UNL A   1      32.910  25.867  21.283  1.00  0.00     0.468 C 
ENDBRANCH   7  10
ENDBRANCH   4   6
ENDBRANCH   3   4
ENDBRANCH   2   3
ENDBRANCH   1   2
BRANCH   1  20
ATOM     20  O   UNL A   1      37.769  21.967  25.717  1.00  0.00    -0.458 OA
BRANCH  20  21
ATOM     21  C   UNL A   1      39.034  21.736  26.132  1.00  0.00     0.338 C 
ATOM     22  O   UNL A   1      39.748  20.787  25.832  1.00  0.00    -0.246 OA
BRANCH  21  23
ATOM     23  C   UNL A   1      39.542  22.888  26.882  1.00  0.00     0.060 A 
ATOM     24  C   UNL A   1      39.041  24.138  26.547  1.00  0.00     0.016 A 
ATOM     25  C   UNL A   1      40.629  22.786  27.741  1.00  0.00     0.016 A 
ATOM     26  C   UNL A   1      39.700  25.292  26.929  1.00  0.00     0.010 A 
ATOM     27  C   UNL A   1      41.208  23.958  28.246  1.00  0.00     0.010 A 
ATOM     28  C   UNL A   1      40.778  25.226  27.806  1.00  0.00    -0.014 A 
BRANCH  28  29
ATOM     29  C   UNL A   1      41.467  26.483  28.201  1.00  0.00     0.031 A 
ATOM     30  C   UNL A   1      40.715  27.531  28.974  1.00  0.00     0.074 A 
ATOM     31  C   UNL A   1      42.769  26.676  27.902  1.00  0.00     0.049 A 
ATOM     32  N   UNL A   1      41.031  28.777  29.200  1.00  0.00    -0.248 NA
ATOM     33  C   UNL A   1      39.419  27.128  29.550  1.00  0.00     0.031 C 
ATOM     34  C   UNL A   1      43.640  25.713  27.221  1.00  0.00     0.029 A 
ATOM     35  N   UNL A   1      43.590  27.755  28.124  1.00  0.00    -0.354 N 
ATOM     36  C   UNL A   1      39.943  29.332  29.861  1.00  0.00     0.074 A 
ATOM     37  C   UNL A   1      38.959  28.282  30.014  1.00  0.00     0.031 C 
ATOM     38  C   UNL A   1      44.868  26.232  27.096  1.00  0.00     0.029 A 
ATOM     39  C   UNL A   1      44.844  27.605  27.578  1.00  0.00     0.049 A 
ATOM     40  H   UNL A   1      43.308  28.556  28.623  1.00  0.00     0.167 HD
ATOM     41  C   UNL A   1      39.784  30.602  30.301  1.00  0.00     0.034 A 
ATOM     42  C   UNL A   1      45.843  28.492  27.411  1.00  0.00     0.034 A 
ATOM     43  C   UNL A   1      40.808  31.609  30.210  1.00  0.00     0.049 A 
ATOM     44  C   UNL A   1      45.640  29.898  27.894  1.00  0.00     0.074 A 
ATOM     45  C   UNL A   1      40.759  32.927  30.629  1.00  0.00     0.029 A 
ATOM     46  N   UNL A   1      42.074  31.403  29.682  1.00  0.00    -0.354 N 
ATOM     47  N   UNL A   1      44.598  30.419  28.497  1.00  0.00    -0.248 NA
ATOM     48  C   UNL A   1      46.746  30.838  27.682  1.00  0.00     0.031 C 
ATOM     49  C   UNL A   1      41.991  33.521  30.340  1.00  0.00     0.029 A 
ATOM     50  C   UNL A   1      42.818  32.567  29.766  1.00  0.00     0.049 A 
ATOM     51  H   UNL A   1      42.396  30.553  29.303  1.00  0.00     0.167 HD
ATOM     52  C   UNL A   1      44.931  31.741  28.756  1.00  0.00     0.074 A 
ATOM     53  C   UNL A   1      46.283  31.932  28.271  1.00  0.00     0.031 C 
ATOM     54  C   UNL A   1      44.180  32.716  29.324  1.00  0.00     0.034 A 
BRANCH  41  55
ATOM     55  C   UNL A   1      38.462  30.973  30.918  1.00  0.00     0.023 A 
ATOM     56  C   UNL A   1      38.236  30.760  32.292  1.00  0.00     0.012 A 
ATOM     57  C   UNL A   1      37.455  31.583  30.140  1.00  0.00     0.148 A 
ATOM     58  C   UNL A   1      37.020  31.114  32.875  1.00  0.00     0.002 A 
ATOM     59  C   UNL A   1      36.264  31.976  30.737  1.00  0.00     0.091 A 
ATOM     60  F   UNL A   1      37.680  31.759  28.830  1.00  0.00    -0.205 F 
ATOM     61  C   UNL A   1      36.040  31.731  32.102  1.00  0.00     0.022 A 
BRANCH  59  62
ATOM     62  S   UNL A   1      34.971  32.846  29.845  1.00  0.00     0.127 S 
ATOM     63  O   UNL A   1      34.028  33.158  30.918  1.00  0.00    -0.237 OA
ATOM     64  O   UNL A   1      35.691  34.004  29.312  1.00  0.00    -0.237 OA
ATOM     65  O   UNL A   1      34.482  31.918  28.836  1.00  0.00    -0.744 OA
ENDBRANCH  59  62
ENDBRANCH  41  55
BRANCH  42  66
ATOM     66  C   UNL A   1      47.101  28.077  26.724  1.00  0.00     0.023 A 
ATOM     67  C   UNL A   1      48.193  27.616  27.482  1.00  0.00     0.012 A 
ATOM     68  C   UNL A   1      47.205  28.102  25.318  1.00  0.00     0.148 A 
ATOM     69  C   UNL A   1      49.373  27.211  26.855  1.00  0.00     0.002 A 
ATOM     70  C   UNL A   1      48.357  27.634  24.697  1.00  0.00     0.091 A 
ATOM     71  F   UNL A   1      46.166  28.567  24.610  1.00  0.00    -0.205 F 
ATOM     72  C   UNL A   1      49.450  27.206  25.464  1.00  0.00     0.022 A 
BRANCH  70  73
ATOM     73  S   UNL A   1      48.478  27.454  22.913  1.00  0.00     0.127 S 
ATOM     74  O   UNL A   1      49.799  28.015  22.644  1.00  0.00    -0.237 OA
ATOM     75  O   UNL A   1      48.377  26.004  22.745  1.00  0.00    -0.237 OA
ATOM     76  O   UNL A   1      47.349  28.197  22.368  1.00  0.00    -0.744 OA
ENDBRANCH  70  73
ENDBRANCH  42  66
BRANCH  54  77
ATOM     77  C   UNL A   1      44.820  34.067  29.490  1.00  0.00     0.023 A 
ATOM     78  C   UNL A   1      45.516  34.373  30.676  1.00  0.00     0.012 A 
ATOM     79  C   UNL A   1      44.782  35.009  28.444  1.00  0.00     0.148 A 
ATOM     80  C   UNL A   1      46.137  35.610  30.831  1.00  0.00     0.002 A 
ATOM     81  C   UNL A   1      45.447  36.220  28.586  1.00  0.00     0.091 A 
ATOM     82  F   UNL A   1      44.097  34.704  27.332  1.00  0.00    -0.205 F 
ATOM     83  C   UNL A   1      46.113  36.528  29.784  1.00  0.00     0.022 A 
BRANCH  81  84
ATOM     84  S   UNL A   1      45.551  37.421  27.256  1.00  0.00     0.127 S 
ATOM     85  O   UNL A   1      46.220  36.650  26.210  1.00  0.00    -0.237 OA
ATOM     86  O   UNL A   1      44.142  37.713  26.992  1.00  0.00    -0.237 OA
ATOM     87  O   UNL A   1      46.311  38.545  27.786  1.00  0.00    -0.744 OA
ENDBRANCH  81  84
ENDBRANCH  54  77
ENDBRANCH  28  29
ENDBRANCH  21  23
ENDBRANCH  20  21
ENDBRANCH   1  20
TORSDOF 16
ENDMDL
