MODEL 1
REMARK VINA RESULT:     -12.4      0.000      0.000
REMARK SMILES O=C(OCCOC(=O)[C@H]1CCCCN1C(=O)c1nc(C2CC2)n[nH]1)c1ccc(-c2c3nc(c(-c4cccc(S(=O)(=O)[O-])c4F)c4ccc([nH]4)c(-c4cccc(S(=O)(=O)[O-])c4F)c4nc(c(-c5cccc(S(=O)(=O)[O-])c5F)c5ccc2[nH]5)C=C4)C=C3)cc1
REMARK SMILES IDX 4 1 3 2 2 3 1 4 25 5 26 6 87 7 27 8 86 9 28 10 29 11 30 12
REMARK SMILES IDX 80 13 31 14 85 15 79 16 81 17 32 18 84 19 78 20 77 21 33 23
REMARK SMILES IDX 65 24 45 25 64 26 46 27 49 28 63 29 82 30 47 31 48 32 62 34
REMARK SMILES IDX 83 35 50 36 34 37 35 38 43 39 36 40 38 41 44 42 37 43 39 44
REMARK SMILES IDX 40 45 41 46 42 47 66 48 67 49 75 50 68 51 70 52 76 53 69 54
REMARK SMILES IDX 71 55 72 56 73 57 74 58 51 59 52 60 60 61 53 62 55 63 61 64
REMARK SMILES IDX 54 65 56 66 57 67 58 68 59 69 5 70 6 71 7 72 8 73 9 74 10 75
REMARK SMILES IDX 14 76 11 77 13 78 12 79 15 80 16 81 17 82 18 83 24 84 19 85
REMARK SMILES IDX 23 86 20 88 21 89 22 90
REMARK H PARENT 81 22 49 33 24 87
REMARK Flexibility Score: inf
ROOT
ATOM      1  C   UNL A   1      31.294  32.113  27.021  1.00  0.00     0.275 C 
ENDROOT
BRANCH   1   2
ATOM      2  O   UNL A   1      32.230  33.174  26.890  1.00  0.00    -0.458 OA
BRANCH   2   3
ATOM      3  C   UNL A   1      32.940  33.654  27.925  1.00  0.00     0.338 C 
ATOM      4  O   UNL A   1      32.768  34.807  28.310  1.00  0.00    -0.246 OA
BRANCH   3   5
ATOM      5  C   UNL A   1      34.047  32.872  28.544  1.00  0.00     0.060 A 
ATOM      6  C   UNL A   1      34.215  31.097  28.577  1.00  0.00     0.016 A 
ATOM      7  C   UNL A   1      35.529  33.781  28.648  1.00  0.00     0.016 A 
ATOM      8  C   UNL A   1      36.023  30.357  28.583  1.00  0.00     0.010 A 
ATOM      9  C   UNL A   1      37.101  33.084  28.698  1.00  0.00     0.010 A 
ATOM     10  C   UNL A   1      37.416  31.409  28.748  1.00  0.00    -0.014 A 
BRANCH  10  11
ATOM     11  C   UNL A   1      38.560  30.831  29.559  1.00  0.00     0.031 A 
ATOM     12  C   UNL A   1      38.652  31.048  31.070  1.00  0.00     0.074 A 
ATOM     13  C   UNL A   1      39.282  29.828  29.013  1.00  0.00     0.049 A 
ATOM     14  N   UNL A   1      39.458  30.468  31.930  1.00  0.00    -0.248 NA
ATOM     15  C   UNL A   1      37.712  31.971  31.731  1.00  0.00     0.031 C 
ATOM     16  C   UNL A   1      39.189  29.397  27.616  1.00  0.00     0.029 A 
ATOM     17  N   UNL A   1      40.166  28.929  29.564  1.00  0.00    -0.354 N 
ATOM     18  C   UNL A   1      39.147  31.003  33.179  1.00  0.00     0.074 A 
ATOM     19  C   UNL A   1      38.013  31.860  33.009  1.00  0.00     0.031 C 
ATOM     20  C   UNL A   1      39.836  28.237  27.470  1.00  0.00     0.029 A 
ATOM     21  C   UNL A   1      40.643  28.016  28.651  1.00  0.00     0.049 A 
ATOM     22  H   UNL A   1      40.429  28.937  30.512  1.00  0.00     0.167 HD
ATOM     23  C   UNL A   1      39.802  30.882  34.355  1.00  0.00     0.034 A 
ATOM     24  C   UNL A   1      41.718  27.204  28.667  1.00  0.00     0.034 A 
ATOM     25  C   UNL A   1      41.012  30.133  34.487  1.00  0.00     0.049 A 
ATOM     26  C   UNL A   1      42.569  27.244  29.887  1.00  0.00     0.074 A 
ATOM     27  C   UNL A   1      41.864  30.054  35.569  1.00  0.00     0.029 A 
ATOM     28  N   UNL A   1      41.574  29.384  33.465  1.00  0.00    -0.354 N 
ATOM     29  N   UNL A   1      42.332  27.872  31.012  1.00  0.00    -0.248 NA
ATOM     30  C   UNL A   1      43.837  26.512  29.846  1.00  0.00     0.031 C 
ATOM     31  C   UNL A   1      42.994  29.339  35.165  1.00  0.00     0.029 A 
ATOM     32  C   UNL A   1      42.789  28.876  33.873  1.00  0.00     0.049 A 
ATOM     33  H   UNL A   1      41.168  29.237  32.580  1.00  0.00     0.167 HD
ATOM     34  C   UNL A   1      43.414  27.599  31.826  1.00  0.00     0.074 A 
ATOM     35  C   UNL A   1      44.305  26.744  31.066  1.00  0.00     0.031 C 
ATOM     36  C   UNL A   1      43.638  28.015  33.093  1.00  0.00     0.034 A 
BRANCH  23  37
ATOM     37  C   UNL A   1      39.342  31.771  35.485  1.00  0.00     0.023 A 
ATOM     38  C   UNL A   1      38.343  31.361  36.393  1.00  0.00     0.012 A 
ATOM     39  C   UNL A   1      39.855  33.082  35.574  1.00  0.00     0.148 A 
ATOM     40  C   UNL A   1      37.826  32.260  37.329  1.00  0.00     0.002 A 
ATOM     41  C   UNL A   1      39.376  33.952  36.544  1.00  0.00     0.091 A 
ATOM     42  F   UNL A   1      40.772  33.470  34.676  1.00  0.00    -0.205 F 
ATOM     43  C   UNL A   1      38.345  33.551  37.408  1.00  0.00     0.022 A 
BRANCH  41  44
ATOM     44  S   UNL A   1      40.028  35.611  36.756  1.00  0.00     0.127 S 
ATOM     45  O   UNL A   1      39.417  36.008  38.024  1.00  0.00    -0.237 OA
ATOM     46  O   UNL A   1      41.468  35.362  36.822  1.00  0.00    -0.237 OA
ATOM     47  O   UNL A   1      39.592  36.369  35.592  1.00  0.00    -0.744 OA
ENDBRANCH  41  44
ENDBRANCH  23  37
BRANCH  24  48
ATOM     48  C   UNL A   1      42.131  26.493  27.417  1.00  0.00     0.023 A 
ATOM     49  C   UNL A   1      42.913  27.129  26.438  1.00  0.00     0.012 A 
ATOM     50  C   UNL A   1      41.816  25.124  27.253  1.00  0.00     0.148 A 
ATOM     51  C   UNL A   1      43.384  26.409  25.334  1.00  0.00     0.002 A 
ATOM     52  C   UNL A   1      42.364  24.396  26.208  1.00  0.00     0.091 A 
ATOM     53  F   UNL A   1      41.040  24.539  28.177  1.00  0.00    -0.205 F 
ATOM     54  C   UNL A   1      43.133  25.040  25.232  1.00  0.00     0.022 A 
BRANCH  52  55
ATOM     55  S   UNL A   1      42.258  22.604  26.142  1.00  0.00     0.127 S 
ATOM     56  O   UNL A   1      42.938  22.307  24.885  1.00  0.00    -0.237 OA
ATOM     57  O   UNL A   1      42.981  22.219  27.354  1.00  0.00    -0.237 OA
ATOM     58  O   UNL A   1      40.836  22.290  26.182  1.00  0.00    -0.744 OA
ENDBRANCH  52  55
ENDBRANCH  24  48
BRANCH  36  59
ATOM     59  C   UNL A   1      44.842  27.467  33.785  1.00  0.00     0.023 A 
ATOM     60  C   UNL A   1      46.060  28.168  33.784  1.00  0.00     0.012 A 
ATOM     61  C   UNL A   1      44.695  26.294  34.546  1.00  0.00     0.148 A 
ATOM     62  C   UNL A   1      47.131  27.689  34.533  1.00  0.00     0.002 A 
ATOM     63  C   UNL A   1      45.741  25.864  35.340  1.00  0.00     0.091 A 
ATOM     64  F   UNL A   1      43.522  25.645  34.497  1.00  0.00    -0.205 F 
ATOM     65  C   UNL A   1      46.965  26.552  35.326  1.00  0.00     0.022 A 
BRANCH  63  66
ATOM     66  S   UNL A   1      45.565  24.489  36.475  1.00  0.00     0.127 S 
ATOM     67  O   UNL A   1      45.578  23.349  35.560  1.00  0.00    -0.237 OA
ATOM     68  O   UNL A   1      46.761  24.625  37.305  1.00  0.00    -0.237 OA
ATOM     69  O   UNL A   1      44.307  24.699  37.181  1.00  0.00    -0.744 OA
ENDBRANCH  63  66
ENDBRANCH  36  59
ENDBRANCH  10  11
ENDBRANCH   3   5
ENDBRANCH   2   3
ENDBRANCH   1   2
BRANCH   1  70
ATOM     70  C   UNL A   1      31.324  31.170  25.800  1.00  0.00     0.274 C 
BRANCH  70  71
ATOM     71  O   UNL A   1      32.332  30.117  25.787  1.00  0.00    -0.461 OA
BRANCH  71  72
ATOM     72  C   UNL A   1      32.051  28.832  26.203  1.00  0.00     0.328 C 
ATOM     73  O   UNL A   1      31.572  28.575  27.299  1.00  0.00    -0.250 OA
BRANCH  72  74
ATOM     74  C   UNL A   1      32.156  27.790  24.978  1.00  0.00     0.195 C 
ATOM     75  C   UNL A   1      33.569  26.472  25.174  1.00  0.00     0.037 C 
ATOM     76  N   UNL A   1      30.647  27.145  24.672  1.00  0.00    -0.322 N 
ATOM     77  C   UNL A   1      32.988  24.609  26.215  1.00  0.00     0.005 C 
ATOM     78  C   UNL A   1      29.937  25.818  25.588  1.00  0.00     0.121 C 
ATOM     79  C   UNL A   1      31.017  24.400  26.284  1.00  0.00     0.022 C 
BRANCH  76  80
ATOM     80  C   UNL A   1      30.182  27.599  23.401  1.00  0.00     0.291 C 
ATOM     81  O   UNL A   1      30.660  27.135  22.364  1.00  0.00    -0.265 OA
BRANCH  80  82
ATOM     82  C   UNL A   1      29.128  28.562  23.301  1.00  0.00     0.214 A 
ATOM     83  N   UNL A   1      29.270  29.869  23.288  1.00  0.00    -0.207 NA
ATOM     84  N   UNL A   1      27.816  28.250  23.031  1.00  0.00    -0.255 N 
ATOM     85  C   UNL A   1      27.987  30.308  23.110  1.00  0.00     0.154 A 
ATOM     86  N   UNL A   1      27.053  29.359  23.062  1.00  0.00    -0.158 NA
ATOM     87  H   UNL A   1      27.482  27.343  22.843  1.00  0.00     0.192 HD
BRANCH  85  88
ATOM     88  C   UNL A   1      27.671  31.769  22.907  1.00  0.00     0.060 C 
ATOM     89  C   UNL A   1      28.835  32.735  22.896  1.00  0.00     0.012 C 
ATOM     90  C   UNL A   1      28.132  32.411  21.617  1.00  0.00     0.012 C 
ENDBRANCH  85  88
ENDBRANCH  80  82
ENDBRANCH  76  80
ENDBRANCH  72  74
ENDBRANCH  71  72
ENDBRANCH  70  71
ENDBRANCH   1  70
TORSDOF 17
ENDMDL
MODEL 2
REMARK VINA RESULT:     -12.1      5.495     11.148
REMARK SMILES O=C(OCCOC(=O)[C@H]1CCCCN1C(=O)c1nc(C2CC2)n[nH]1)c1ccc(-c2c3nc(c(-c4cccc(S(=O)(=O)[O-])c4F)c4ccc([nH]4)c(-c4cccc(S(=O)(=O)[O-])c4F)c4nc(c(-c5cccc(S(=O)(=O)[O-])c5F)c5ccc2[nH]5)C=C4)C=C3)cc1
REMARK SMILES IDX 4 1 3 2 2 3 1 4 25 5 26 6 87 7 27 8 86 9 28 10 29 11 30 12
REMARK SMILES IDX 80 13 31 14 85 15 79 16 81 17 32 18 84 19 78 20 77 21 33 23
REMARK SMILES IDX 65 24 45 25 64 26 46 27 49 28 63 29 82 30 47 31 48 32 62 34
REMARK SMILES IDX 83 35 50 36 34 37 35 38 43 39 36 40 38 41 44 42 37 43 39 44
REMARK SMILES IDX 40 45 41 46 42 47 66 48 67 49 75 50 68 51 70 52 76 53 69 54
REMARK SMILES IDX 71 55 72 56 73 57 74 58 51 59 52 60 60 61 53 62 55 63 61 64
REMARK SMILES IDX 54 65 56 66 57 67 58 68 59 69 5 70 6 71 7 72 8 73 9 74 10 75
REMARK SMILES IDX 14 76 11 77 13 78 12 79 15 80 16 81 17 82 18 83 24 84 19 85
REMARK SMILES IDX 23 86 20 88 21 89 22 90
REMARK H PARENT 81 22 49 33 24 87
REMARK Flexibility Score: inf
ROOT
ATOM      1  C   UNL A   1      38.074  19.447  24.755  1.00  0.00     0.275 C 
ENDROOT
BRANCH   1   2
ATOM      2  O   UNL A   1      38.849  19.528  25.943  1.00  0.00    -0.458 OA
BRANCH   2   3
ATOM      3  C   UNL A   1      40.123  19.954  25.958  1.00  0.00     0.338 C 
ATOM      4  O   UNL A   1      41.045  19.146  25.898  1.00  0.00    -0.246 OA
BRANCH   3   5
ATOM      5  C   UNL A   1      40.467  21.386  26.188  1.00  0.00     0.060 A 
ATOM      6  C   UNL A   1      39.462  22.805  25.795  1.00  0.00     0.016 A 
ATOM      7  C   UNL A   1      41.610  21.596  27.485  1.00  0.00     0.016 A 
ATOM      8  C   UNL A   1      39.637  24.384  26.931  1.00  0.00     0.010 A 
ATOM      9  C   UNL A   1      41.761  23.025  28.431  1.00  0.00     0.010 A 
ATOM     10  C   UNL A   1      40.880  24.460  28.165  1.00  0.00    -0.014 A 
BRANCH  10  11
ATOM     11  C   UNL A   1      41.498  25.831  28.365  1.00  0.00     0.031 A 
ATOM     12  C   UNL A   1      42.794  26.229  27.657  1.00  0.00     0.074 A 
ATOM     13  C   UNL A   1      40.717  26.813  28.866  1.00  0.00     0.049 A 
ATOM     14  N   UNL A   1      43.346  27.418  27.575  1.00  0.00    -0.248 NA
ATOM     15  C   UNL A   1      43.550  25.216  26.900  1.00  0.00     0.031 C 
ATOM     16  C   UNL A   1      39.382  26.609  29.435  1.00  0.00     0.029 A 
ATOM     17  N   UNL A   1      40.873  28.179  28.906  1.00  0.00    -0.354 N 
ATOM     18  C   UNL A   1      44.509  27.257  26.823  1.00  0.00     0.074 A 
ATOM     19  C   UNL A   1      44.541  25.901  26.366  1.00  0.00     0.031 C 
ATOM     20  C   UNL A   1      38.789  27.795  29.600  1.00  0.00     0.029 A 
ATOM     21  C   UNL A   1      39.794  28.828  29.463  1.00  0.00     0.049 A 
ATOM     22  H   UNL A   1      41.673  28.644  28.572  1.00  0.00     0.167 HD
ATOM     23  C   UNL A   1      45.523  28.125  26.609  1.00  0.00     0.034 A 
ATOM     24  C   UNL A   1      39.654  30.064  29.978  1.00  0.00     0.034 A 
ATOM     25  C   UNL A   1      45.548  29.434  27.182  1.00  0.00     0.049 A 
ATOM     26  C   UNL A   1      40.854  30.944  29.942  1.00  0.00     0.074 A 
ATOM     27  C   UNL A   1      46.575  30.356  27.183  1.00  0.00     0.029 A 
ATOM     28  N   UNL A   1      44.507  29.976  27.920  1.00  0.00    -0.354 N 
ATOM     29  N   UNL A   1      41.999  30.718  29.348  1.00  0.00    -0.248 NA
ATOM     30  C   UNL A   1      40.775  32.218  30.662  1.00  0.00     0.031 C 
ATOM     31  C   UNL A   1      46.190  31.414  28.010  1.00  0.00     0.029 A 
ATOM     32  C   UNL A   1      44.882  31.203  28.425  1.00  0.00     0.049 A 
ATOM     33  H   UNL A   1      43.631  29.549  28.064  1.00  0.00     0.167 HD
ATOM     34  C   UNL A   1      42.779  31.828  29.605  1.00  0.00     0.074 A 
ATOM     35  C   UNL A   1      41.973  32.729  30.406  1.00  0.00     0.031 C 
ATOM     36  C   UNL A   1      44.046  32.077  29.203  1.00  0.00     0.034 A 
BRANCH  23  37
ATOM     37  C   UNL A   1      46.758  27.576  25.935  1.00  0.00     0.023 A 
ATOM     38  C   UNL A   1      46.916  27.612  24.534  1.00  0.00     0.012 A 
ATOM     39  C   UNL A   1      47.732  26.925  26.721  1.00  0.00     0.148 A 
ATOM     40  C   UNL A   1      47.991  26.957  23.928  1.00  0.00     0.002 A 
ATOM     41  C   UNL A   1      48.827  26.326  26.115  1.00  0.00     0.091 A 
ATOM     42  F   UNL A   1      47.543  26.863  28.047  1.00  0.00    -0.205 F 
ATOM     43  C   UNL A   1      48.948  26.320  24.717  1.00  0.00     0.022 A 
BRANCH  41  44
ATOM     44  S   UNL A   1      50.136  25.537  27.056  1.00  0.00     0.127 S 
ATOM     45  O   UNL A   1      51.125  25.264  26.014  1.00  0.00    -0.237 OA
ATOM     46  O   UNL A   1      50.512  26.594  27.994  1.00  0.00    -0.237 OA
ATOM     47  O   UNL A   1      49.539  24.359  27.671  1.00  0.00    -0.744 OA
ENDBRANCH  41  44
ENDBRANCH  23  37
BRANCH  24  48
ATOM     48  C   UNL A   1      38.419  30.415  30.746  1.00  0.00     0.023 A 
ATOM     49  C   UNL A   1      38.320  30.165  32.125  1.00  0.00     0.012 A 
ATOM     50  C   UNL A   1      37.363  31.099  30.100  1.00  0.00     0.148 A 
ATOM     51  C   UNL A   1      37.202  30.607  32.844  1.00  0.00     0.002 A 
ATOM     52  C   UNL A   1      36.306  31.615  30.834  1.00  0.00     0.091 A 
ATOM     53  F   UNL A   1      37.455  31.298  28.777  1.00  0.00    -0.205 F 
ATOM     54  C   UNL A   1      36.210  31.352  32.205  1.00  0.00     0.022 A 
BRANCH  52  55
ATOM     55  S   UNL A   1      35.120  32.756  30.116  1.00  0.00     0.127 S 
ATOM     56  O   UNL A   1      34.499  31.936  29.080  1.00  0.00    -0.237 OA
ATOM     57  O   UNL A   1      34.271  33.064  31.267  1.00  0.00    -0.237 OA
ATOM     58  O   UNL A   1      35.899  33.892  29.642  1.00  0.00    -0.744 OA
ENDBRANCH  52  55
ENDBRANCH  24  48
BRANCH  36  59
ATOM     59  C   UNL A   1      44.609  33.421  29.525  1.00  0.00     0.023 A 
ATOM     60  C   UNL A   1      45.339  33.636  30.706  1.00  0.00     0.012 A 
ATOM     61  C   UNL A   1      44.501  34.436  28.559  1.00  0.00     0.148 A 
ATOM     62  C   UNL A   1      45.950  34.869  30.925  1.00  0.00     0.002 A 
ATOM     63  C   UNL A   1      45.167  35.632  28.752  1.00  0.00     0.091 A 
ATOM     64  F   UNL A   1      43.773  34.195  27.458  1.00  0.00    -0.205 F 
ATOM     65  C   UNL A   1      45.881  35.856  29.940  1.00  0.00     0.022 A 
BRANCH  63  66
ATOM     66  S   UNL A   1      45.229  36.897  27.484  1.00  0.00     0.127 S 
ATOM     67  O   UNL A   1      43.826  36.976  27.080  1.00  0.00    -0.237 OA
ATOM     68  O   UNL A   1      45.719  38.053  28.233  1.00  0.00    -0.237 OA
ATOM     69  O   UNL A   1      46.139  36.405  26.459  1.00  0.00    -0.744 OA
ENDBRANCH  63  66
ENDBRANCH  36  59
ENDBRANCH  10  11
ENDBRANCH   3   5
ENDBRANCH   2   3
ENDBRANCH   1   2
BRANCH   1  70
ATOM     70  C   UNL A   1      36.618  19.903  24.988  1.00  0.00     0.274 C 
BRANCH  70  71
ATOM     71  O   UNL A   1      36.407  21.272  25.443  1.00  0.00    -0.461 OA
BRANCH  71  72
ATOM     72  C   UNL A   1      35.871  22.241  24.619  1.00  0.00     0.328 C 
ATOM     73  O   UNL A   1      36.426  22.632  23.602  1.00  0.00    -0.250 OA
BRANCH  72  74
ATOM     74  C   UNL A   1      34.338  22.549  25.008  1.00  0.00     0.195 C 
ATOM     75  C   UNL A   1      34.002  24.394  25.515  1.00  0.00     0.037 C 
ATOM     76  N   UNL A   1      33.337  21.970  23.805  1.00  0.00    -0.322 N 
ATOM     77  C   UNL A   1      33.459  25.748  23.853  1.00  0.00     0.005 C 
ATOM     78  C   UNL A   1      33.006  22.824  22.300  1.00  0.00     0.121 C 
ATOM     79  C   UNL A   1      32.894  24.734  22.244  1.00  0.00     0.022 C 
BRANCH  76  80
ATOM     80  C   UNL A   1      32.568  20.876  24.307  1.00  0.00     0.291 C 
ATOM     81  O   UNL A   1      31.693  21.071  25.152  1.00  0.00    -0.265 OA
BRANCH  80  82
ATOM     82  C   UNL A   1      32.765  19.548  23.814  1.00  0.00     0.214 A 
ATOM     83  N   UNL A   1      33.438  18.589  24.412  1.00  0.00    -0.207 NA
ATOM     84  N   UNL A   1      32.128  19.029  22.711  1.00  0.00    -0.255 N 
ATOM     85  C   UNL A   1      33.261  17.527  23.568  1.00  0.00     0.154 A 
ATOM     86  N   UNL A   1      32.564  17.780  22.461  1.00  0.00    -0.158 NA
ATOM     87  H   UNL A   1      31.449  19.504  22.179  1.00  0.00     0.192 HD
BRANCH  85  88
ATOM     88  C   UNL A   1      33.762  16.148  23.916  1.00  0.00     0.060 C 
ATOM     89  C   UNL A   1      34.702  16.029  25.094  1.00  0.00     0.012 C 
ATOM     90  C   UNL A   1      33.295  15.543  25.221  1.00  0.00     0.012 C 
ENDBRANCH  85  88
ENDBRANCH  80  82
ENDBRANCH  76  80
ENDBRANCH  72  74
ENDBRANCH  71  72
ENDBRANCH  70  71
ENDBRANCH   1  70
TORSDOF 17
ENDMDL
MODEL 3
REMARK VINA RESULT:     -11.7      5.332     10.949
REMARK SMILES O=C(OCCOC(=O)[C@H]1CCCCN1C(=O)c1nc(C2CC2)n[nH]1)c1ccc(-c2c3nc(c(-c4cccc(S(=O)(=O)[O-])c4F)c4ccc([nH]4)c(-c4cccc(S(=O)(=O)[O-])c4F)c4nc(c(-c5cccc(S(=O)(=O)[O-])c5F)c5ccc2[nH]5)C=C4)C=C3)cc1
REMARK SMILES IDX 4 1 3 2 2 3 1 4 25 5 26 6 87 7 27 8 86 9 28 10 29 11 30 12
REMARK SMILES IDX 80 13 31 14 85 15 79 16 81 17 32 18 84 19 78 20 77 21 33 23
REMARK SMILES IDX 65 24 45 25 64 26 46 27 49 28 63 29 82 30 47 31 48 32 62 34
REMARK SMILES IDX 83 35 50 36 34 37 35 38 43 39 36 40 38 41 44 42 37 43 39 44
REMARK SMILES IDX 40 45 41 46 42 47 66 48 67 49 75 50 68 51 70 52 76 53 69 54
REMARK SMILES IDX 71 55 72 56 73 57 74 58 51 59 52 60 60 61 53 62 55 63 61 64
REMARK SMILES IDX 54 65 56 66 57 67 58 68 59 69 5 70 6 71 7 72 8 73 9 74 10 75
REMARK SMILES IDX 14 76 11 77 13 78 12 79 15 80 16 81 17 82 18 83 24 84 19 85
REMARK SMILES IDX 23 86 20 88 21 89 22 90
REMARK H PARENT 81 22 49 33 24 87
REMARK Flexibility Score: inf
ROOT
ATOM      1  C   UNL A   1      37.931  19.622  24.655  1.00  0.00     0.275 C 
ENDROOT
BRANCH   1   2
ATOM      2  O   UNL A   1      38.722  19.448  25.822  1.00  0.00    -0.458 OA
BRANCH   2   3
ATOM      3  C   UNL A   1      40.007  19.833  25.900  1.00  0.00     0.338 C 
ATOM      4  O   UNL A   1      40.904  18.995  25.895  1.00  0.00    -0.246 OA
BRANCH   3   5
ATOM      5  C   UNL A   1      40.385  21.255  26.136  1.00  0.00     0.060 A 
ATOM      6  C   UNL A   1      39.432  22.701  25.711  1.00  0.00     0.016 A 
ATOM      7  C   UNL A   1      41.498  21.437  27.463  1.00  0.00     0.016 A 
ATOM      8  C   UNL A   1      39.620  24.278  26.847  1.00  0.00     0.010 A 
ATOM      9  C   UNL A   1      41.664  22.865  28.409  1.00  0.00     0.010 A 
ATOM     10  C   UNL A   1      40.831  24.324  28.115  1.00  0.00    -0.014 A 
BRANCH  10  11
ATOM     11  C   UNL A   1      41.482  25.678  28.327  1.00  0.00     0.031 A 
ATOM     12  C   UNL A   1      42.789  26.050  27.625  1.00  0.00     0.074 A 
ATOM     13  C   UNL A   1      40.725  26.674  28.837  1.00  0.00     0.049 A 
ATOM     14  N   UNL A   1      43.370  27.226  27.554  1.00  0.00    -0.248 NA
ATOM     15  C   UNL A   1      43.521  25.026  26.859  1.00  0.00     0.031 C 
ATOM     16  C   UNL A   1      39.384  26.497  29.401  1.00  0.00     0.029 A 
ATOM     17  N   UNL A   1      40.915  28.035  28.889  1.00  0.00    -0.354 N 
ATOM     18  C   UNL A   1      44.530  27.043  26.802  1.00  0.00     0.074 A 
ATOM     19  C   UNL A   1      44.529  25.691  26.333  1.00  0.00     0.031 C 
ATOM     20  C   UNL A   1      38.821  27.696  29.577  1.00  0.00     0.029 A 
ATOM     21  C   UNL A   1      39.851  28.705  29.450  1.00  0.00     0.049 A 
ATOM     22  H   UNL A   1      41.726  28.483  28.560  1.00  0.00     0.167 HD
ATOM     23  C   UNL A   1      45.565  27.888  26.597  1.00  0.00     0.034 A 
ATOM     24  C   UNL A   1      39.740  29.940  29.975  1.00  0.00     0.034 A 
ATOM     25  C   UNL A   1      45.621  29.191  27.182  1.00  0.00     0.049 A 
ATOM     26  C   UNL A   1      40.961  30.791  29.949  1.00  0.00     0.074 A 
ATOM     27  C   UNL A   1      46.670  30.087  27.193  1.00  0.00     0.029 A 
ATOM     28  N   UNL A   1      44.592  29.751  27.923  1.00  0.00    -0.354 N 
ATOM     29  N   UNL A   1      42.101  30.542  29.354  1.00  0.00    -0.248 NA
ATOM     30  C   UNL A   1      40.913  32.059  30.680  1.00  0.00     0.031 C 
ATOM     31  C   UNL A   1      46.310  31.146  28.028  1.00  0.00     0.029 A 
ATOM     32  C   UNL A   1      44.997  30.964  28.439  1.00  0.00     0.049 A 
ATOM     33  H   UNL A   1      43.706  29.345  28.062  1.00  0.00     0.167 HD
ATOM     34  C   UNL A   1      42.908  31.630  29.622  1.00  0.00     0.074 A 
ATOM     35  C   UNL A   1      42.123  32.544  30.430  1.00  0.00     0.031 C 
ATOM     36  C   UNL A   1      44.181  31.851  29.224  1.00  0.00     0.034 A 
BRANCH  23  37
ATOM     37  C   UNL A   1      46.787  27.315  25.920  1.00  0.00     0.023 A 
ATOM     38  C   UNL A   1      47.743  26.559  26.631  1.00  0.00     0.012 A 
ATOM     39  C   UNL A   1      47.026  27.626  24.565  1.00  0.00     0.148 A 
ATOM     40  C   UNL A   1      48.939  26.177  26.018  1.00  0.00     0.002 A 
ATOM     41  C   UNL A   1      48.191  27.195  23.948  1.00  0.00     0.091 A 
ATOM     42  F   UNL A   1      46.128  28.382  23.918  1.00  0.00    -0.205 F 
ATOM     43  C   UNL A   1      49.161  26.490  24.678  1.00  0.00     0.022 A 
BRANCH  41  44
ATOM     44  S   UNL A   1      48.531  27.499  22.212  1.00  0.00     0.127 S 
ATOM     45  O   UNL A   1      48.746  26.142  21.711  1.00  0.00    -0.237 OA
ATOM     46  O   UNL A   1      47.285  28.124  21.767  1.00  0.00    -0.237 OA
ATOM     47  O   UNL A   1      49.698  28.368  22.173  1.00  0.00    -0.744 OA
ENDBRANCH  41  44
ENDBRANCH  23  37
BRANCH  24  48
ATOM     48  C   UNL A   1      38.512  30.313  30.745  1.00  0.00     0.023 A 
ATOM     49  C   UNL A   1      38.425  30.099  32.131  1.00  0.00     0.012 A 
ATOM     50  C   UNL A   1      37.453  30.985  30.092  1.00  0.00     0.148 A 
ATOM     51  C   UNL A   1      37.315  30.562  32.848  1.00  0.00     0.002 A 
ATOM     52  C   UNL A   1      36.405  31.523  30.822  1.00  0.00     0.091 A 
ATOM     53  F   UNL A   1      37.535  31.152  28.763  1.00  0.00    -0.205 F 
ATOM     54  C   UNL A   1      36.320  31.295  32.200  1.00  0.00     0.022 A 
BRANCH  52  55
ATOM     55  S   UNL A   1      35.216  32.651  30.085  1.00  0.00     0.127 S 
ATOM     56  O   UNL A   1      36.075  33.740  29.631  1.00  0.00    -0.237 OA
ATOM     57  O   UNL A   1      34.638  31.822  29.027  1.00  0.00    -0.237 OA
ATOM     58  O   UNL A   1      34.277  32.986  31.147  1.00  0.00    -0.744 OA
ENDBRANCH  52  55
ENDBRANCH  24  48
BRANCH  36  59
ATOM     59  C   UNL A   1      44.777  33.179  29.559  1.00  0.00     0.023 A 
ATOM     60  C   UNL A   1      44.592  34.288  28.718  1.00  0.00     0.012 A 
ATOM     61  C   UNL A   1      45.421  33.323  30.800  1.00  0.00     0.148 A 
ATOM     62  C   UNL A   1      45.061  35.539  29.113  1.00  0.00     0.002 A 
ATOM     63  C   UNL A   1      45.822  34.579  31.214  1.00  0.00     0.091 A 
ATOM     64  F   UNL A   1      45.598  32.231  31.559  1.00  0.00    -0.205 F 
ATOM     65  C   UNL A   1      45.656  35.687  30.367  1.00  0.00     0.022 A 
BRANCH  63  66
ATOM     66  S   UNL A   1      46.479  34.870  32.856  1.00  0.00     0.127 S 
ATOM     67  O   UNL A   1      45.348  34.479  33.697  1.00  0.00    -0.237 OA
ATOM     68  O   UNL A   1      47.618  33.955  32.894  1.00  0.00    -0.237 OA
ATOM     69  O   UNL A   1      46.830  36.283  32.913  1.00  0.00    -0.744 OA
ENDBRANCH  63  66
ENDBRANCH  36  59
ENDBRANCH  10  11
ENDBRANCH   3   5
ENDBRANCH   2   3
ENDBRANCH   1   2
BRANCH   1  70
ATOM     70  C   UNL A   1      36.473  19.988  25.000  1.00  0.00     0.274 C 
BRANCH  70  71
ATOM     71  O   UNL A   1      36.225  21.317  25.546  1.00  0.00    -0.461 OA
BRANCH  71  72
ATOM     72  C   UNL A   1      35.746  22.349  24.765  1.00  0.00     0.328 C 
ATOM     73  O   UNL A   1      36.369  22.815  23.821  1.00  0.00    -0.250 OA
BRANCH  72  74
ATOM     74  C   UNL A   1      34.190  22.636  25.072  1.00  0.00     0.195 C 
ATOM     75  C   UNL A   1      33.795  24.484  25.518  1.00  0.00     0.037 C 
ATOM     76  N   UNL A   1      33.260  22.009  23.836  1.00  0.00    -0.322 N 
ATOM     77  C   UNL A   1      33.308  25.789  23.800  1.00  0.00     0.005 C 
ATOM     78  C   UNL A   1      32.987  22.822  22.297  1.00  0.00     0.121 C 
ATOM     79  C   UNL A   1      32.842  24.728  22.190  1.00  0.00     0.022 C 
BRANCH  76  80
ATOM     80  C   UNL A   1      32.489  20.912  24.327  1.00  0.00     0.291 C 
ATOM     81  O   UNL A   1      31.606  21.102  25.165  1.00  0.00    -0.265 OA
BRANCH  80  82
ATOM     82  C   UNL A   1      32.692  19.586  23.828  1.00  0.00     0.214 A 
ATOM     83  N   UNL A   1      33.325  18.614  24.446  1.00  0.00    -0.207 NA
ATOM     84  N   UNL A   1      32.098  19.087  22.692  1.00  0.00    -0.255 N 
ATOM     85  C   UNL A   1      33.173  17.563  23.584  1.00  0.00     0.154 A 
ATOM     86  N   UNL A   1      32.530  17.834  22.450  1.00  0.00    -0.158 NA
ATOM     87  H   UNL A   1      31.450  19.576  22.136  1.00  0.00     0.192 HD
BRANCH  85  88
ATOM     88  C   UNL A   1      33.642  16.174  23.939  1.00  0.00     0.060 C 
ATOM     89  C   UNL A   1      34.349  15.999  25.265  1.00  0.00     0.012 C 
ATOM     90  C   UNL A   1      32.958  15.480  25.097  1.00  0.00     0.012 C 
ENDBRANCH  85  88
ENDBRANCH  80  82
ENDBRANCH  76  80
ENDBRANCH  72  74
ENDBRANCH  71  72
ENDBRANCH  70  71
ENDBRANCH   1  70
TORSDOF 17
ENDMDL
