MODEL 1
REMARK VINA RESULT:     -11.2      0.000      0.000
REMARK SMILES COCc1cc(C)nc(N/N=C\c2ccc(-c3cccc(C(=O)OCCOC(=O)c4ccc(-c5c6nc(c(-c7cccc(S(=O)(=O)[O-])c7F)c7ccc([nH]7)c(-c7cccc(S(=O)(=O)[O-])c7F)c7nc(c(-c8cccc(S(=O)(=O)[O-])c8F)c8ccc5[nH]8)C=C7)C=C6)cc4)c3)o2)c1C#N
REMARK SMILES IDX 24 1 22 2 23 3 21 4 17 5 18 6 93 7 19 8 20 9 16 10 13 11
REMARK SMILES IDX 14 12 94 13 15 14 12 15 11 16 10 17 9 19 4 20 5 21 95 22
REMARK SMILES IDX 6 23 7 24 8 25 3 26 2 27 1 28 96 29 97 30 25 31 26 32 27 33
REMARK SMILES IDX 28 34 29 35 30 36 31 37 92 38 32 39 91 40 33 41 34 42 35 43
REMARK SMILES IDX 85 44 36 45 90 46 84 47 86 48 37 49 89 50 83 51 82 52 38 54
REMARK SMILES IDX 70 55 50 56 69 57 51 58 54 59 68 60 87 61 52 62 53 63 67 65
REMARK SMILES IDX 88 66 55 67 39 68 40 69 48 70 41 71 43 72 49 73 42 74 44 75
REMARK SMILES IDX 45 76 46 77 47 78 71 79 72 80 80 81 73 82 75 83 81 84 74 85
REMARK SMILES IDX 76 86 77 87 78 88 79 89 56 90 57 91 65 92 58 93 60 94 66 95
REMARK SMILES IDX 59 96 61 97 62 98 63 99 64 100
REMARK H PARENT 10 18 86 53 54 64
REMARK Flexibility Score: inf
ROOT
ATOM      1  O   UNL A   1      36.716  19.363  25.100  1.00  0.00    -0.458 OA
ENDROOT
BRANCH   1   2
ATOM      2  C   UNL A   1      35.959  18.246  24.960  1.00  0.00     0.338 C 
ATOM      3  O   UNL A   1      36.251  17.119  25.317  1.00  0.00    -0.246 OA
BRANCH   2   4
ATOM      4  C   UNL A   1      34.635  18.645  24.417  1.00  0.00     0.060 A 
ATOM      5  C   UNL A   1      32.856  20.281  24.256  1.00  0.00     0.018 A 
ATOM      6  C   UNL A   1      32.092  19.363  23.519  1.00  0.00     0.012 A 
ATOM      7  C   UNL A   1      34.075  19.864  24.792  1.00  0.00     0.027 A 
ATOM      8  C   UNL A   1      32.643  18.136  23.140  1.00  0.00     0.002 A 
ATOM      9  C   UNL A   1      33.948  17.823  23.517  1.00  0.00     0.016 A 
BRANCH   5  10
ATOM     10  C   UNL A   1      32.618  21.719  24.172  1.00  0.00     0.134 A 
ATOM     11  C   UNL A   1      32.970  23.730  24.961  1.00  0.00     0.147 A 
ATOM     12  C   UNL A   1      31.692  23.743  24.445  1.00  0.00     0.053 A 
ATOM     13  O   UNL A   1      33.573  22.533  24.689  1.00  0.00    -0.455 OA
ATOM     14  C   UNL A   1      31.469  22.449  23.919  1.00  0.00     0.051 A 
BRANCH  11  15
ATOM     15  C   UNL A   1      33.728  24.639  25.763  1.00  0.00     0.180 C 
ATOM     16  N   UNL A   1      34.089  25.867  25.534  1.00  0.00    -0.178 NA
BRANCH  16  17
ATOM     17  N   UNL A   1      33.738  26.575  24.417  1.00  0.00    -0.260 N 
ATOM     18  H   UNL A   1      34.125  26.288  23.558  1.00  0.00     0.192 HD
BRANCH  17  19
ATOM     19  C   UNL A   1      32.849  27.703  24.396  1.00  0.00     0.164 A 
ATOM     20  C   UNL A   1      30.822  28.746  23.498  1.00  0.00     0.001 A 
ATOM     21  C   UNL A   1      30.956  29.730  24.464  1.00  0.00     0.031 A 
ATOM     22  C   UNL A   1      31.817  27.749  23.429  1.00  0.00     0.102 A 
ATOM     23  C   UNL A   1      31.955  29.616  25.401  1.00  0.00     0.040 A 
ATOM     24  C   UNL A   1      31.852  30.494  26.604  1.00  0.00     0.067 C 
ATOM     25  N   UNL A   1      32.895  28.637  25.375  1.00  0.00    -0.233 NA
BRANCH  20  26
ATOM     26  C   UNL A   1      29.594  28.756  22.612  1.00  0.00     0.196 C 
BRANCH  26  27
ATOM     27  O   UNL A   1      29.741  29.611  21.469  1.00  0.00    -0.380 OA
ATOM     28  C   UNL A   1      28.858  30.731  21.457  1.00  0.00     0.195 C 
ENDBRANCH  26  27
ENDBRANCH  20  26
BRANCH  22  29
ATOM     29  C   UNL A   1      31.800  26.812  22.352  1.00  0.00     0.103 C 
ATOM     30  N   UNL A   1      31.824  26.054  21.469  1.00  0.00    -0.192 NA
ENDBRANCH  22  29
ENDBRANCH  17  19
ENDBRANCH  16  17
ENDBRANCH  11  15
ENDBRANCH   5  10
ENDBRANCH   2   4
ENDBRANCH   1   2
BRANCH   1  31
ATOM     31  C   UNL A   1      38.078  19.312  24.649  1.00  0.00     0.275 C 
BRANCH  31  32
ATOM     32  C   UNL A   1      38.980  18.904  25.816  1.00  0.00     0.275 C 
BRANCH  32  33
ATOM     33  O   UNL A   1      40.222  19.633  25.776  1.00  0.00    -0.458 OA
BRANCH  33  34
ATOM     34  C   UNL A   1      40.715  19.997  26.980  1.00  0.00     0.338 C 
ATOM     35  O   UNL A   1      40.847  19.295  27.969  1.00  0.00    -0.246 OA
BRANCH  34  36
ATOM     36  C   UNL A   1      41.205  21.380  26.923  1.00  0.00     0.060 A 
ATOM     37  C   UNL A   1      42.157  21.768  27.858  1.00  0.00     0.016 A 
ATOM     38  C   UNL A   1      40.634  22.322  26.080  1.00  0.00     0.016 A 
ATOM     39  C   UNL A   1      42.445  23.108  28.067  1.00  0.00     0.010 A 
ATOM     40  C   UNL A   1      41.027  23.661  26.195  1.00  0.00     0.010 A 
ATOM     41  C   UNL A   1      41.903  24.075  27.217  1.00  0.00    -0.014 A 
BRANCH  41  42
ATOM     42  C   UNL A   1      42.261  25.508  27.403  1.00  0.00     0.031 A 
ATOM     43  C   UNL A   1      43.591  26.026  26.927  1.00  0.00     0.074 A 
ATOM     44  C   UNL A   1      41.395  26.344  28.012  1.00  0.00     0.049 A 
ATOM     45  N   UNL A   1      44.138  27.199  27.118  1.00  0.00    -0.248 NA
ATOM     46  C   UNL A   1      44.426  25.096  26.151  1.00  0.00     0.031 C 
ATOM     47  C   UNL A   1      40.059  25.981  28.492  1.00  0.00     0.029 A 
ATOM     48  N   UNL A   1      41.512  27.671  28.345  1.00  0.00    -0.354 N 
ATOM     49  C   UNL A   1      45.405  27.125  26.553  1.00  0.00     0.074 A 
ATOM     50  C   UNL A   1      45.548  25.787  26.019  1.00  0.00     0.031 C 
ATOM     51  C   UNL A   1      39.472  27.059  29.030  1.00  0.00     0.029 A 
ATOM     52  C   UNL A   1      40.421  28.163  29.023  1.00  0.00     0.049 A 
ATOM     53  H   UNL A   1      42.300  28.216  28.120  1.00  0.00     0.167 HD
ATOM     54  C   UNL A   1      46.362  28.082  26.486  1.00  0.00     0.034 A 
ATOM     55  C   UNL A   1      40.219  29.354  29.616  1.00  0.00     0.034 A 
ATOM     56  C   UNL A   1      46.199  29.417  26.998  1.00  0.00     0.049 A 
ATOM     57  C   UNL A   1      41.316  30.379  29.576  1.00  0.00     0.074 A 
ATOM     58  C   UNL A   1      47.088  30.476  26.940  1.00  0.00     0.029 A 
ATOM     59  N   UNL A   1      45.082  29.872  27.683  1.00  0.00    -0.354 N 
ATOM     60  N   UNL A   1      42.485  30.313  28.989  1.00  0.00    -0.248 NA
ATOM     61  C   UNL A   1      41.057  31.649  30.266  1.00  0.00     0.031 C 
ATOM     62  C   UNL A   1      46.532  31.552  27.642  1.00  0.00     0.029 A 
ATOM     63  C   UNL A   1      45.268  31.187  28.078  1.00  0.00     0.049 A 
ATOM     64  H   UNL A   1      44.273  29.340  27.862  1.00  0.00     0.167 HD
ATOM     65  C   UNL A   1      43.087  31.549  29.200  1.00  0.00     0.074 A 
ATOM     66  C   UNL A   1      42.143  32.345  29.959  1.00  0.00     0.031 C 
ATOM     67  C   UNL A   1      44.309  31.982  28.804  1.00  0.00     0.034 A 
BRANCH  54  68
ATOM     68  C   UNL A   1      47.683  27.703  25.859  1.00  0.00     0.023 A 
ATOM     69  C   UNL A   1      48.775  27.319  26.665  1.00  0.00     0.012 A 
ATOM     70  C   UNL A   1      47.839  27.726  24.458  1.00  0.00     0.148 A 
ATOM     71  C   UNL A   1      50.014  27.030  26.093  1.00  0.00     0.002 A 
ATOM     72  C   UNL A   1      49.059  27.380  23.892  1.00  0.00     0.091 A 
ATOM     73  F   UNL A   1      46.797  28.105  23.704  1.00  0.00    -0.205 F 
ATOM     74  C   UNL A   1      50.154  27.053  24.709  1.00  0.00     0.022 A 
BRANCH  72  75
ATOM     75  S   UNL A   1      49.314  27.297  22.116  1.00  0.00     0.127 S 
ATOM     76  O   UNL A   1      48.514  26.127  21.758  1.00  0.00    -0.237 OA
ATOM     77  O   UNL A   1      48.760  28.574  21.668  1.00  0.00    -0.237 OA
ATOM     78  O   UNL A   1      50.751  27.156  21.921  1.00  0.00    -0.744 OA
ENDBRANCH  72  75
ENDBRANCH  54  68
BRANCH  55  79
ATOM     79  C   UNL A   1      38.916  29.648  30.278  1.00  0.00     0.023 A 
ATOM     80  C   UNL A   1      38.663  29.119  31.558  1.00  0.00     0.012 A 
ATOM     81  C   UNL A   1      37.946  30.469  29.668  1.00  0.00     0.148 A 
ATOM     82  C   UNL A   1      37.457  29.376  32.207  1.00  0.00     0.002 A 
ATOM     83  C   UNL A   1      36.771  30.768  30.346  1.00  0.00     0.091 A 
ATOM     84  F   UNL A   1      38.207  30.961  28.450  1.00  0.00    -0.205 F 
ATOM     85  C   UNL A   1      36.515  30.208  31.606  1.00  0.00     0.022 A 
BRANCH  83  86
ATOM     86  S   UNL A   1      35.551  31.921  29.707  1.00  0.00     0.127 S 
ATOM     87  O   UNL A   1      34.820  32.284  30.919  1.00  0.00    -0.237 OA
ATOM     88  O   UNL A   1      36.400  32.978  29.158  1.00  0.00    -0.237 OA
ATOM     89  O   UNL A   1      34.785  31.182  28.712  1.00  0.00    -0.744 OA
ENDBRANCH  83  86
ENDBRANCH  55  79
BRANCH  67  90
ATOM     90  C   UNL A   1      44.680  33.406  29.129  1.00  0.00     0.023 A 
ATOM     91  C   UNL A   1      45.490  33.698  30.244  1.00  0.00     0.012 A 
ATOM     92  C   UNL A   1      44.266  34.454  28.282  1.00  0.00     0.148 A 
ATOM     93  C   UNL A   1      45.846  35.014  30.535  1.00  0.00     0.002 A 
ATOM     94  C   UNL A   1      44.674  35.755  28.544  1.00  0.00     0.091 A 
ATOM     95  F   UNL A   1      43.481  34.159  27.236  1.00  0.00    -0.205 F 
ATOM     96  C   UNL A   1      45.451  36.040  29.679  1.00  0.00     0.022 A 
BRANCH  94  97
ATOM     97  S   UNL A   1      44.300  37.124  27.444  1.00  0.00     0.127 S 
ATOM     98  O   UNL A   1      43.983  38.190  28.394  1.00  0.00    -0.237 OA
ATOM     99  O   UNL A   1      45.564  37.298  26.730  1.00  0.00    -0.237 OA
ATOM    100  O   UNL A   1      43.187  36.683  26.613  1.00  0.00    -0.744 OA
ENDBRANCH  94  97
ENDBRANCH  67  90
ENDBRANCH  41  42
ENDBRANCH  34  36
ENDBRANCH  33  34
ENDBRANCH  32  33
ENDBRANCH  31  32
ENDBRANCH   1  31
TORSDOF 21
ENDMDL
MODEL 2
REMARK VINA RESULT:     -10.7      1.545      2.571
REMARK SMILES COCc1cc(C)nc(N/N=C\c2ccc(-c3cccc(C(=O)OCCOC(=O)c4ccc(-c5c6nc(c(-c7cccc(S(=O)(=O)[O-])c7F)c7ccc([nH]7)c(-c7cccc(S(=O)(=O)[O-])c7F)c7nc(c(-c8cccc(S(=O)(=O)[O-])c8F)c8ccc5[nH]8)C=C7)C=C6)cc4)c3)o2)c1C#N
REMARK SMILES IDX 24 1 22 2 23 3 21 4 17 5 18 6 93 7 19 8 20 9 16 10 13 11
REMARK SMILES IDX 14 12 94 13 15 14 12 15 11 16 10 17 9 19 4 20 5 21 95 22
REMARK SMILES IDX 6 23 7 24 8 25 3 26 2 27 1 28 96 29 97 30 25 31 26 32 27 33
REMARK SMILES IDX 28 34 29 35 30 36 31 37 92 38 32 39 91 40 33 41 34 42 35 43
REMARK SMILES IDX 85 44 36 45 90 46 84 47 86 48 37 49 89 50 83 51 82 52 38 54
REMARK SMILES IDX 70 55 50 56 69 57 51 58 54 59 68 60 87 61 52 62 53 63 67 65
REMARK SMILES IDX 88 66 55 67 39 68 40 69 48 70 41 71 43 72 49 73 42 74 44 75
REMARK SMILES IDX 45 76 46 77 47 78 71 79 72 80 80 81 73 82 75 83 81 84 74 85
REMARK SMILES IDX 76 86 77 87 78 88 79 89 56 90 57 91 65 92 58 93 60 94 66 95
REMARK SMILES IDX 59 96 61 97 62 98 63 99 64 100
REMARK H PARENT 10 18 86 53 54 64
REMARK Flexibility Score: inf
ROOT
ATOM      1  O   UNL A   1      35.084  22.091  25.313  1.00  0.00    -0.458 OA
ENDROOT
BRANCH   1   2
ATOM      2  C   UNL A   1      33.980  21.906  24.547  1.00  0.00     0.338 C 
ATOM      3  O   UNL A   1      33.909  21.271  23.511  1.00  0.00    -0.246 OA
BRANCH   2   4
ATOM      4  C   UNL A   1      32.817  22.499  25.257  1.00  0.00     0.060 A 
ATOM      5  C   UNL A   1      31.832  24.364  26.449  1.00  0.00     0.018 A 
ATOM      6  C   UNL A   1      30.696  23.584  26.711  1.00  0.00     0.012 A 
ATOM      7  C   UNL A   1      32.927  23.768  25.821  1.00  0.00     0.027 A 
ATOM      8  C   UNL A   1      30.577  22.307  26.154  1.00  0.00     0.002 A 
ATOM      9  C   UNL A   1      31.603  21.808  25.354  1.00  0.00     0.016 A 
BRANCH   5  10
ATOM     10  C   UNL A   1      31.781  25.823  26.464  1.00  0.00     0.134 A 
ATOM     11  C   UNL A   1      32.838  27.738  26.515  1.00  0.00     0.147 A 
ATOM     12  C   UNL A   1      31.653  27.940  27.189  1.00  0.00     0.053 A 
ATOM     13  O   UNL A   1      32.862  26.482  25.975  1.00  0.00    -0.455 OA
ATOM     14  C   UNL A   1      30.961  26.708  27.143  1.00  0.00     0.051 A 
BRANCH  11  15
ATOM     15  C   UNL A   1      34.031  28.508  26.349  1.00  0.00     0.180 C 
ATOM     16  N   UNL A   1      34.389  29.314  25.392  1.00  0.00    -0.178 NA
BRANCH  16  17
ATOM     17  N   UNL A   1      33.603  29.627  24.317  1.00  0.00    -0.260 N 
ATOM     18  H   UNL A   1      33.736  30.509  23.901  1.00  0.00     0.192 HD
BRANCH  17  19
ATOM     19  C   UNL A   1      32.600  28.772  23.747  1.00  0.00     0.164 A 
ATOM     20  C   UNL A   1      30.258  28.439  23.109  1.00  0.00     0.001 A 
ATOM     21  C   UNL A   1      30.650  27.286  22.448  1.00  0.00     0.031 A 
ATOM     22  C   UNL A   1      31.242  29.161  23.816  1.00  0.00     0.102 A 
ATOM     23  C   UNL A   1      31.987  26.976  22.380  1.00  0.00     0.040 A 
ATOM     24  C   UNL A   1      32.386  25.936  21.387  1.00  0.00     0.067 C 
ATOM     25  N   UNL A   1      32.951  27.686  23.019  1.00  0.00    -0.233 NA
BRANCH  20  26
ATOM     26  C   UNL A   1      28.818  28.895  22.991  1.00  0.00     0.196 C 
BRANCH  26  27
ATOM     27  O   UNL A   1      28.500  29.395  21.684  1.00  0.00    -0.380 OA
ATOM     28  C   UNL A   1      29.072  30.667  21.387  1.00  0.00     0.195 C 
ENDBRANCH  26  27
ENDBRANCH  20  26
BRANCH  22  29
ATOM     29  C   UNL A   1      30.852  30.262  24.637  1.00  0.00     0.103 C 
ATOM     30  N   UNL A   1      30.557  31.146  25.334  1.00  0.00    -0.192 NA
ENDBRANCH  22  29
ENDBRANCH  17  19
ENDBRANCH  16  17
ENDBRANCH  11  15
ENDBRANCH   5  10
ENDBRANCH   2   4
ENDBRANCH   1   2
BRANCH   1  31
ATOM     31  C   UNL A   1      36.215  21.238  25.077  1.00  0.00     0.275 C 
BRANCH  31  32
ATOM     32  C   UNL A   1      37.424  21.782  25.841  1.00  0.00     0.275 C 
BRANCH  32  33
ATOM     33  O   UNL A   1      38.638  21.157  25.381  1.00  0.00    -0.458 OA
BRANCH  33  34
ATOM     34  C   UNL A   1      39.606  21.023  26.314  1.00  0.00     0.338 C 
ATOM     35  O   UNL A   1      40.182  19.999  26.642  1.00  0.00    -0.246 OA
BRANCH  34  36
ATOM     36  C   UNL A   1      39.984  22.342  26.836  1.00  0.00     0.060 A 
ATOM     37  C   UNL A   1      39.448  23.463  26.214  1.00  0.00     0.016 A 
ATOM     38  C   UNL A   1      40.965  22.489  27.807  1.00  0.00     0.016 A 
ATOM     39  C   UNL A   1      39.976  24.725  26.440  1.00  0.00     0.010 A 
ATOM     40  C   UNL A   1      41.403  23.777  28.139  1.00  0.00     0.010 A 
ATOM     41  C   UNL A   1      40.946  24.905  27.428  1.00  0.00    -0.014 A 
BRANCH  41  42
ATOM     42  C   UNL A   1      41.470  26.269  27.713  1.00  0.00     0.031 A 
ATOM     43  C   UNL A   1      42.879  26.635  27.331  1.00  0.00     0.074 A 
ATOM     44  C   UNL A   1      40.684  27.176  28.326  1.00  0.00     0.049 A 
ATOM     45  N   UNL A   1      43.557  27.717  27.615  1.00  0.00    -0.248 NA
ATOM     46  C   UNL A   1      43.631  25.646  26.545  1.00  0.00     0.031 C 
ATOM     47  C   UNL A   1      39.288  26.964  28.719  1.00  0.00     0.029 A 
ATOM     48  N   UNL A   1      40.948  28.458  28.739  1.00  0.00    -0.354 N 
ATOM     49  C   UNL A   1      44.834  27.509  27.108  1.00  0.00     0.074 A 
ATOM     50  C   UNL A   1      44.837  26.193  26.506  1.00  0.00     0.031 C 
ATOM     51  C   UNL A   1      38.813  28.080  29.290  1.00  0.00     0.029 A 
ATOM     52  C   UNL A   1      39.892  29.052  29.391  1.00  0.00     0.049 A 
ATOM     53  H   UNL A   1      41.809  28.909  28.584  1.00  0.00     0.167 HD
ATOM     54  C   UNL A   1      45.906  28.338  27.142  1.00  0.00     0.034 A 
ATOM     55  C   UNL A   1      39.809  30.228  30.041  1.00  0.00     0.034 A 
ATOM     56  C   UNL A   1      45.884  29.654  27.722  1.00  0.00     0.049 A 
ATOM     57  C   UNL A   1      41.026  31.104  30.112  1.00  0.00     0.074 A 
ATOM     58  C   UNL A   1      46.900  30.593  27.766  1.00  0.00     0.029 A 
ATOM     59  N   UNL A   1      44.797  30.214  28.376  1.00  0.00    -0.354 N 
ATOM     60  N   UNL A   1      42.209  30.918  29.579  1.00  0.00    -0.248 NA
ATOM     61  C   UNL A   1      40.891  32.360  30.861  1.00  0.00     0.031 C 
ATOM     62  C   UNL A   1      46.446  31.694  28.501  1.00  0.00     0.029 A 
ATOM     63  C   UNL A   1      45.125  31.472  28.855  1.00  0.00     0.049 A 
ATOM     64  H   UNL A   1      43.919  29.782  28.486  1.00  0.00     0.167 HD
ATOM     65  C   UNL A   1      42.948  32.054  29.890  1.00  0.00     0.074 A 
ATOM     66  C   UNL A   1      42.071  32.926  30.647  1.00  0.00     0.031 C 
ATOM     67  C   UNL A   1      44.234  32.346  29.578  1.00  0.00     0.034 A 
BRANCH  54  68
ATOM     68  C   UNL A   1      47.201  27.825  26.559  1.00  0.00     0.023 A 
ATOM     69  C   UNL A   1      48.217  27.323  27.399  1.00  0.00     0.012 A 
ATOM     70  C   UNL A   1      47.409  27.837  25.164  1.00  0.00     0.148 A 
ATOM     71  C   UNL A   1      49.439  26.908  26.869  1.00  0.00     0.002 A 
ATOM     72  C   UNL A   1      48.606  27.367  24.639  1.00  0.00     0.091 A 
ATOM     73  F   UNL A   1      46.441  28.328  24.378  1.00  0.00    -0.205 F 
ATOM     74  C   UNL A   1      49.630  26.923  25.490  1.00  0.00     0.022 A 
BRANCH  72  75
ATOM     75  S   UNL A   1      48.914  27.266  22.872  1.00  0.00     0.127 S 
ATOM     76  O   UNL A   1      48.313  25.976  22.541  1.00  0.00    -0.237 OA
ATOM     77  O   UNL A   1      48.180  28.427  22.367  1.00  0.00    -0.237 OA
ATOM     78  O   UNL A   1      50.359  27.344  22.710  1.00  0.00    -0.744 OA
ENDBRANCH  72  75
ENDBRANCH  54  68
BRANCH  55  79
ATOM     79  C   UNL A   1      38.519  30.653  30.656  1.00  0.00     0.023 A 
ATOM     80  C   UNL A   1      38.297  30.404  32.023  1.00  0.00     0.012 A 
ATOM     81  C   UNL A   1      37.531  31.325  29.909  1.00  0.00     0.148 A 
ATOM     82  C   UNL A   1      37.103  30.790  32.631  1.00  0.00     0.002 A 
ATOM     83  C   UNL A   1      36.369  31.758  30.534  1.00  0.00     0.091 A 
ATOM     84  F   UNL A   1      37.762  31.551  28.608  1.00  0.00    -0.205 F 
ATOM     85  C   UNL A   1      36.144  31.475  31.890  1.00  0.00     0.022 A 
BRANCH  83  86
ATOM     86  S   UNL A   1      35.128  32.749  29.695  1.00  0.00     0.127 S 
ATOM     87  O   UNL A   1      35.915  33.896  29.246  1.00  0.00    -0.237 OA
ATOM     88  O   UNL A   1      34.694  31.843  28.632  1.00  0.00    -0.237 OA
ATOM     89  O   UNL A   1      34.109  33.044  30.694  1.00  0.00    -0.744 OA
ENDBRANCH  83  86
ENDBRANCH  55  79
BRANCH  67  90
ATOM     90  C   UNL A   1      44.763  33.692  30.001  1.00  0.00     0.023 A 
ATOM     91  C   UNL A   1      45.424  33.846  31.236  1.00  0.00     0.012 A 
ATOM     92  C   UNL A   1      44.651  34.799  29.135  1.00  0.00     0.148 A 
ATOM     93  C   UNL A   1      45.927  35.089  31.620  1.00  0.00     0.002 A 
ATOM     94  C   UNL A   1      45.207  36.019  29.498  1.00  0.00     0.091 A 
ATOM     95  F   UNL A   1      44.004  34.638  27.973  1.00  0.00    -0.205 F 
ATOM     96  C   UNL A   1      45.831  36.170  30.747  1.00  0.00     0.022 A 
BRANCH  94  97
ATOM     97  S   UNL A   1      45.223  37.437  28.398  1.00  0.00     0.127 S 
ATOM     98  O   UNL A   1      44.037  38.170  28.842  1.00  0.00    -0.237 OA
ATOM     99  O   UNL A   1      46.495  38.074  28.736  1.00  0.00    -0.237 OA
ATOM    100  O   UNL A   1      45.151  36.902  27.044  1.00  0.00    -0.744 OA
ENDBRANCH  94  97
ENDBRANCH  67  90
ENDBRANCH  41  42
ENDBRANCH  34  36
ENDBRANCH  33  34
ENDBRANCH  32  33
ENDBRANCH  31  32
ENDBRANCH   1  31
TORSDOF 21
ENDMDL
MODEL 3
REMARK VINA RESULT:     -10.6      2.636      8.165
REMARK SMILES COCc1cc(C)nc(N/N=C\c2ccc(-c3cccc(C(=O)OCCOC(=O)c4ccc(-c5c6nc(c(-c7cccc(S(=O)(=O)[O-])c7F)c7ccc([nH]7)c(-c7cccc(S(=O)(=O)[O-])c7F)c7nc(c(-c8cccc(S(=O)(=O)[O-])c8F)c8ccc5[nH]8)C=C7)C=C6)cc4)c3)o2)c1C#N
REMARK SMILES IDX 24 1 22 2 23 3 21 4 17 5 18 6 93 7 19 8 20 9 16 10 13 11
REMARK SMILES IDX 14 12 94 13 15 14 12 15 11 16 10 17 9 19 4 20 5 21 95 22
REMARK SMILES IDX 6 23 7 24 8 25 3 26 2 27 1 28 96 29 97 30 25 31 26 32 27 33
REMARK SMILES IDX 28 34 29 35 30 36 31 37 92 38 32 39 91 40 33 41 34 42 35 43
REMARK SMILES IDX 85 44 36 45 90 46 84 47 86 48 37 49 89 50 83 51 82 52 38 54
REMARK SMILES IDX 70 55 50 56 69 57 51 58 54 59 68 60 87 61 52 62 53 63 67 65
REMARK SMILES IDX 88 66 55 67 39 68 40 69 48 70 41 71 43 72 49 73 42 74 44 75
REMARK SMILES IDX 45 76 46 77 47 78 71 79 72 80 80 81 73 82 75 83 81 84 74 85
REMARK SMILES IDX 76 86 77 87 78 88 79 89 56 90 57 91 65 92 58 93 60 94 66 95
REMARK SMILES IDX 59 96 61 97 62 98 63 99 64 100
REMARK H PARENT 10 18 86 53 54 64
REMARK Flexibility Score: inf
ROOT
ATOM      1  O   UNL A   1      40.540  20.356  27.045  1.00  0.00    -0.458 OA
ENDROOT
BRANCH   1   2
ATOM      2  C   UNL A   1      39.689  20.108  26.020  1.00  0.00     0.338 C 
ATOM      3  O   UNL A   1      39.633  19.094  25.347  1.00  0.00    -0.246 OA
BRANCH   2   4
ATOM      4  C   UNL A   1      38.723  21.234  25.933  1.00  0.00     0.060 A 
ATOM      5  C   UNL A   1      36.471  22.020  25.513  1.00  0.00     0.018 A 
ATOM      6  C   UNL A   1      36.921  23.344  25.631  1.00  0.00     0.012 A 
ATOM      7  C   UNL A   1      37.406  20.985  25.553  1.00  0.00     0.027 A 
ATOM      8  C   UNL A   1      38.241  23.605  26.008  1.00  0.00     0.002 A 
ATOM      9  C   UNL A   1      39.112  22.542  26.245  1.00  0.00     0.016 A 
BRANCH   5  10
ATOM     10  C   UNL A   1      35.070  21.665  25.720  1.00  0.00     0.134 A 
ATOM     11  C   UNL A   1      33.060  21.396  24.897  1.00  0.00     0.147 A 
ATOM     12  C   UNL A   1      32.885  21.815  26.199  1.00  0.00     0.053 A 
ATOM     13  O   UNL A   1      34.388  21.194  24.644  1.00  0.00    -0.455 OA
ATOM     14  C   UNL A   1      34.183  21.973  26.737  1.00  0.00     0.051 A 
BRANCH  11  15
ATOM     15  C   UNL A   1      32.183  21.224  23.782  1.00  0.00     0.180 C 
ATOM     16  N   UNL A   1      31.842  22.054  22.840  1.00  0.00    -0.178 NA
BRANCH  16  17
ATOM     17  N   UNL A   1      32.340  23.322  22.716  1.00  0.00    -0.260 N 
ATOM     18  H   UNL A   1      33.142  23.441  22.157  1.00  0.00     0.192 HD
BRANCH  17  19
ATOM     19  C   UNL A   1      31.787  24.494  23.336  1.00  0.00     0.164 A 
ATOM     20  C   UNL A   1      31.135  26.848  23.139  1.00  0.00     0.001 A 
ATOM     21  C   UNL A   1      30.517  26.731  24.374  1.00  0.00     0.031 A 
ATOM     22  C   UNL A   1      31.829  25.725  22.641  1.00  0.00     0.102 A 
ATOM     23  C   UNL A   1      30.473  25.502  24.987  1.00  0.00     0.040 A 
ATOM     24  C   UNL A   1      29.518  25.352  26.124  1.00  0.00     0.067 C 
ATOM     25  N   UNL A   1      31.098  24.401  24.498  1.00  0.00    -0.233 NA
BRANCH  20  26
ATOM     26  C   UNL A   1      30.987  28.142  22.367  1.00  0.00     0.196 C 
BRANCH  26  27
ATOM     27  O   UNL A   1      29.621  28.444  22.048  1.00  0.00    -0.380 OA
ATOM     28  C   UNL A   1      29.319  29.838  22.024  1.00  0.00     0.195 C 
ENDBRANCH  26  27
ENDBRANCH  20  26
BRANCH  22  29
ATOM     29  C   UNL A   1      32.610  25.852  21.452  1.00  0.00     0.103 C 
ATOM     30  N   UNL A   1      33.278  25.952  20.504  1.00  0.00    -0.192 NA
ENDBRANCH  22  29
ENDBRANCH  17  19
ENDBRANCH  16  17
ENDBRANCH  11  15
ENDBRANCH   5  10
ENDBRANCH   2   4
ENDBRANCH   1   2
BRANCH   1  31
ATOM     31  C   UNL A   1      41.855  19.783  26.979  1.00  0.00     0.275 C 
BRANCH  31  32
ATOM     32  C   UNL A   1      42.601  20.371  25.779  1.00  0.00     0.275 C 
BRANCH  32  33
ATOM     33  O   UNL A   1      43.640  19.475  25.339  1.00  0.00    -0.458 OA
BRANCH  33  34
ATOM     34  C   UNL A   1      44.423  19.946  24.344  1.00  0.00     0.338 C 
ATOM     35  O   UNL A   1      44.645  19.422  23.265  1.00  0.00    -0.246 OA
BRANCH  34  36
ATOM     36  C   UNL A   1      44.911  21.288  24.684  1.00  0.00     0.060 A 
ATOM     37  C   UNL A   1      45.447  21.480  25.952  1.00  0.00     0.016 A 
ATOM     38  C   UNL A   1      44.706  22.374  23.845  1.00  0.00     0.016 A 
ATOM     39  C   UNL A   1      45.649  22.756  26.455  1.00  0.00     0.010 A 
ATOM     40  C   UNL A   1      45.039  23.656  24.300  1.00  0.00     0.010 A 
ATOM     41  C   UNL A   1      45.473  23.866  25.625  1.00  0.00    -0.014 A 
BRANCH  41  42
ATOM     42  C   UNL A   1      45.747  25.232  26.146  1.00  0.00     0.031 A 
ATOM     43  C   UNL A   1      44.619  26.092  26.652  1.00  0.00     0.074 A 
ATOM     44  C   UNL A   1      47.009  25.708  26.154  1.00  0.00     0.049 A 
ATOM     45  N   UNL A   1      44.637  27.348  27.016  1.00  0.00    -0.248 NA
ATOM     46  C   UNL A   1      43.294  25.461  26.742  1.00  0.00     0.031 C 
ATOM     47  C   UNL A   1      48.199  24.969  25.725  1.00  0.00     0.029 A 
ATOM     48  N   UNL A   1      47.502  26.934  26.527  1.00  0.00    -0.354 N 
ATOM     49  C   UNL A   1      43.319  27.679  27.305  1.00  0.00     0.074 A 
ATOM     50  C   UNL A   1      42.527  26.490  27.068  1.00  0.00     0.031 C 
ATOM     51  C   UNL A   1      49.282  25.741  25.882  1.00  0.00     0.029 A 
ATOM     52  C   UNL A   1      48.858  27.061  26.330  1.00  0.00     0.049 A 
ATOM     53  H   UNL A   1      46.941  27.652  26.898  1.00  0.00     0.167 HD
ATOM     54  C   UNL A   1      42.814  28.863  27.729  1.00  0.00     0.034 A 
ATOM     55  C   UNL A   1      49.668  28.129  26.450  1.00  0.00     0.034 A 
ATOM     56  C   UNL A   1      43.614  30.030  27.986  1.00  0.00     0.049 A 
ATOM     57  C   UNL A   1      49.076  29.443  26.869  1.00  0.00     0.074 A 
ATOM     58  C   UNL A   1      43.210  31.264  28.463  1.00  0.00     0.029 A 
ATOM     59  N   UNL A   1      44.982  30.117  27.769  1.00  0.00    -0.354 N 
ATOM     60  N   UNL A   1      47.838  29.725  27.194  1.00  0.00    -0.248 NA
ATOM     61  C   UNL A   1      49.997  30.584  26.953  1.00  0.00     0.031 C 
ATOM     62  C   UNL A   1      44.321  32.114  28.475  1.00  0.00     0.029 A 
ATOM     63  C   UNL A   1      45.432  31.392  28.072  1.00  0.00     0.049 A 
ATOM     64  H   UNL A   1      45.551  29.381  27.445  1.00  0.00     0.167 HD
ATOM     65  C   UNL A   1      47.838  31.065  27.564  1.00  0.00     0.074 A 
ATOM     66  C   UNL A   1      49.203  31.532  27.434  1.00  0.00     0.031 C 
ATOM     67  C   UNL A   1      46.801  31.837  27.972  1.00  0.00     0.034 A 
BRANCH  54  68
ATOM     68  C   UNL A   1      41.318  28.956  27.911  1.00  0.00     0.023 A 
ATOM     69  C   UNL A   1      40.469  29.129  26.798  1.00  0.00     0.012 A 
ATOM     70  C   UNL A   1      40.750  28.868  29.199  1.00  0.00     0.148 A 
ATOM     71  C   UNL A   1      39.093  29.280  26.969  1.00  0.00     0.002 A 
ATOM     72  C   UNL A   1      39.373  28.960  29.356  1.00  0.00     0.091 A 
ATOM     73  F   UNL A   1      41.568  28.717  30.250  1.00  0.00    -0.205 F 
ATOM     74  C   UNL A   1      38.545  29.187  28.245  1.00  0.00     0.022 A 
BRANCH  72  75
ATOM     75  S   UNL A   1      38.565  28.768  30.948  1.00  0.00     0.127 S 
ATOM     76  O   UNL A   1      39.157  29.864  31.713  1.00  0.00    -0.237 OA
ATOM     77  O   UNL A   1      37.156  28.958  30.601  1.00  0.00    -0.237 OA
ATOM     78  O   UNL A   1      38.900  27.429  31.411  1.00  0.00    -0.744 OA
ENDBRANCH  72  75
ENDBRANCH  54  68
BRANCH  55  79
ATOM     79  C   UNL A   1      51.130  27.992  26.193  1.00  0.00     0.023 A 
ATOM     80  C   UNL A   1      52.001  27.789  27.279  1.00  0.00     0.012 A 
ATOM     81  C   UNL A   1      51.656  28.028  24.885  1.00  0.00     0.148 A 
ATOM     82  C   UNL A   1      53.374  27.654  27.074  1.00  0.00     0.002 A 
ATOM     83  C   UNL A   1      53.017  27.835  24.684  1.00  0.00     0.091 A 
ATOM     84  F   UNL A   1      50.809  28.223  23.866  1.00  0.00    -0.205 F 
ATOM     85  C   UNL A   1      53.880  27.667  25.777  1.00  0.00     0.022 A 
BRANCH  83  86
ATOM     86  S   UNL A   1      53.747  27.718  23.047  1.00  0.00     0.127 S 
ATOM     87  O   UNL A   1      52.583  27.403  22.222  1.00  0.00    -0.237 OA
ATOM     88  O   UNL A   1      54.287  29.065  22.866  1.00  0.00    -0.237 OA
ATOM     89  O   UNL A   1      54.754  26.668  23.133  1.00  0.00    -0.744 OA
ENDBRANCH  83  86
ENDBRANCH  55  79
BRANCH  67  90
ATOM     90  C   UNL A   1      47.107  33.258  28.369  1.00  0.00     0.023 A 
ATOM     91  C   UNL A   1      47.399  33.579  29.709  1.00  0.00     0.012 A 
ATOM     92  C   UNL A   1      47.161  34.269  27.388  1.00  0.00     0.148 A 
ATOM     93  C   UNL A   1      47.697  34.892  30.073  1.00  0.00     0.002 A 
ATOM     94  C   UNL A   1      47.518  35.562  27.748  1.00  0.00     0.091 A 
ATOM     95  F   UNL A   1      46.863  33.947  26.122  1.00  0.00    -0.205 F 
ATOM     96  C   UNL A   1      47.770  35.879  29.093  1.00  0.00     0.022 A 
BRANCH  94  97
ATOM     97  S   UNL A   1      47.736  36.874  26.543  1.00  0.00     0.127 S 
ATOM     98  O   UNL A   1      48.818  36.341  25.716  1.00  0.00    -0.237 OA
ATOM     99  O   UNL A   1      46.429  36.911  25.889  1.00  0.00    -0.237 OA
ATOM    100  O   UNL A   1      48.069  38.072  27.303  1.00  0.00    -0.744 OA
ENDBRANCH  94  97
ENDBRANCH  67  90
ENDBRANCH  41  42
ENDBRANCH  34  36
ENDBRANCH  33  34
ENDBRANCH  32  33
ENDBRANCH  31  32
ENDBRANCH   1  31
TORSDOF 21
ENDMDL
