MODEL 1
REMARK VINA RESULT:     -11.6      0.000      0.000
REMARK SMILES COc1ccc([C@@H](CC(=O)OCCOC(=O)c2ccc(-c3c4nc(c(-c5cccc(S(=O)(=O)[O-])c5F)c5ccc([nH]5)c(-c5cccc(S(=O)(=O)[O-])c5F)c5nc(c(-c6cccc(S(=O)(=O)[O-])c6F)c6ccc3[nH]6)C=C5)C=C4)cc2)NC(=O)c2ccc(Cl)c([N+](=O)[O-])c2)cc1
REMARK SMILES IDX 12 1 11 2 9 3 10 4 8 5 7 6 6 7 3 8 4 9 94 10 5 11 93 12 2 13
REMARK SMILES IDX 1 14 80 15 81 16 82 18 83 19 84 20 92 21 85 22 88 23 86 24
REMARK SMILES IDX 87 25 89 26 90 27 91 28 13 29 14 30 15 31 16 32 17 33 18 34
REMARK SMILES IDX 79 35 19 36 78 37 20 38 21 39 22 40 72 41 23 42 77 43 71 44
REMARK SMILES IDX 73 45 24 46 76 47 70 48 69 49 25 51 57 52 37 53 56 54 38 55
REMARK SMILES IDX 41 56 55 57 74 58 39 59 40 60 54 62 75 63 42 64 26 65 27 66
REMARK SMILES IDX 35 67 28 68 30 69 36 70 29 71 31 72 32 73 33 74 34 75 58 76
REMARK SMILES IDX 59 77 67 78 60 79 62 80 68 81 61 82 63 83 64 84 65 85 66 86
REMARK SMILES IDX 43 87 44 88 52 89 45 90 47 91 53 92 46 93 48 94 49 95 50 96
REMARK SMILES IDX 51 97
REMARK H PARENT 80 17 73 50 41 61
REMARK Flexibility Score: inf
ROOT
ATOM      1  C   UNL A   1      31.994  30.962  26.734  1.00  0.00     0.274 C 
ENDROOT
BRANCH   1   2
ATOM      2  O   UNL A   1      33.342  30.543  26.432  1.00  0.00    -0.462 OA
BRANCH   2   3
ATOM      3  C   UNL A   1      33.789  29.425  27.045  1.00  0.00     0.308 C 
ATOM      4  O   UNL A   1      34.911  29.309  27.528  1.00  0.00    -0.252 OA
BRANCH   3   5
ATOM      5  C   UNL A   1      32.827  28.258  27.001  1.00  0.00     0.152 C 
BRANCH   5   6
ATOM      6  C   UNL A   1      32.594  27.495  25.687  1.00  0.00     0.123 C 
BRANCH   6   7
ATOM      7  C   UNL A   1      33.108  26.065  25.739  1.00  0.00    -0.025 A 
ATOM      8  C   UNL A   1      34.081  23.458  26.145  1.00  0.00     0.118 A 
ATOM      9  C   UNL A   1      34.888  24.420  25.547  1.00  0.00     0.047 A 
ATOM     10  C   UNL A   1      32.780  23.779  26.526  1.00  0.00     0.047 A 
ATOM     11  C   UNL A   1      34.396  25.706  25.318  1.00  0.00     0.010 A 
ATOM     12  C   UNL A   1      32.299  25.074  26.324  1.00  0.00     0.010 A 
BRANCH   8  13
ATOM     13  O   UNL A   1      34.660  22.249  26.417  1.00  0.00    -0.497 OA
ATOM     14  C   UNL A   1      33.920  21.484  27.361  1.00  0.00     0.278 C 
ENDBRANCH   8  13
ENDBRANCH   6   7
BRANCH   6  15
ATOM     15  N   UNL A   1      33.002  28.215  24.485  1.00  0.00    -0.345 N 
ATOM     16  C   UNL A   1      32.287  28.575  23.371  1.00  0.00     0.252 C 
ATOM     17  H   UNL A   1      33.948  28.489  24.472  1.00  0.00     0.164 HD
ATOM     18  O   UNL A   1      32.853  28.964  22.354  1.00  0.00    -0.269 OA
BRANCH  16  19
ATOM     19  C   UNL A   1      30.813  28.490  23.357  1.00  0.00     0.046 A 
ATOM     20  C   UNL A   1      30.213  27.247  23.587  1.00  0.00     0.016 A 
ATOM     21  C   UNL A   1      30.026  29.603  23.066  1.00  0.00     0.101 A 
ATOM     22  C   UNL A   1      28.819  27.133  23.604  1.00  0.00     0.028 A 
ATOM     23  C   UNL A   1      28.627  29.481  23.103  1.00  0.00     0.288 A 
ATOM     24  C   UNL A   1      28.012  28.257  23.388  1.00  0.00     0.118 A 
ATOM     25  Cl  UNL A   1      26.310  28.040  23.569  1.00  0.00    -0.077 Cl
BRANCH  23  26
ATOM     26  N   UNL A   1      27.852  30.694  22.908  1.00  0.00     0.064 N 
ATOM     27  O   UNL A   1      27.235  31.160  23.872  1.00  0.00    -0.258 OA
ATOM     28  O   UNL A   1      27.849  31.165  21.760  1.00  0.00    -0.258 OA
ENDBRANCH  23  26
ENDBRANCH  16  19
ENDBRANCH   6  15
ENDBRANCH   5   6
ENDBRANCH   3   5
ENDBRANCH   2   3
ENDBRANCH   1   2
BRANCH   1  29
ATOM     29  C   UNL A   1      31.904  32.468  26.997  1.00  0.00     0.275 C 
BRANCH  29  30
ATOM     30  O   UNL A   1      33.194  33.098  26.910  1.00  0.00    -0.458 OA
BRANCH  30  31
ATOM     31  C   UNL A   1      33.538  33.833  27.992  1.00  0.00     0.338 C 
ATOM     32  O   UNL A   1      32.957  34.820  28.411  1.00  0.00    -0.246 OA
BRANCH  31  33
ATOM     33  C   UNL A   1      34.632  33.171  28.719  1.00  0.00     0.060 A 
ATOM     34  C   UNL A   1      35.945  33.547  28.422  1.00  0.00     0.016 A 
ATOM     35  C   UNL A   1      34.375  32.148  29.629  1.00  0.00     0.016 A 
ATOM     36  C   UNL A   1      37.014  32.897  29.029  1.00  0.00     0.010 A 
ATOM     37  C   UNL A   1      35.450  31.505  30.251  1.00  0.00     0.010 A 
ATOM     38  C   UNL A   1      36.774  31.869  29.949  1.00  0.00    -0.014 A 
BRANCH  38  39
ATOM     39  C   UNL A   1      37.918  31.176  30.584  1.00  0.00     0.031 A 
ATOM     40  C   UNL A   1      38.298  31.490  32.002  1.00  0.00     0.074 A 
ATOM     41  C   UNL A   1      38.620  30.272  29.874  1.00  0.00     0.049 A 
ATOM     42  N   UNL A   1      39.297  31.028  32.707  1.00  0.00    -0.248 NA
ATOM     43  C   UNL A   1      37.448  32.453  32.718  1.00  0.00     0.031 C 
ATOM     44  C   UNL A   1      38.343  29.890  28.488  1.00  0.00     0.029 A 
ATOM     45  N   UNL A   1      39.720  29.527  30.214  1.00  0.00    -0.354 N 
ATOM     46  C   UNL A   1      39.224  31.672  33.936  1.00  0.00     0.074 A 
ATOM     47  C   UNL A   1      38.081  32.559  33.879  1.00  0.00     0.031 C 
ATOM     48  C   UNL A   1      39.261  28.994  28.090  1.00  0.00     0.029 A 
ATOM     49  C   UNL A   1      40.205  28.763  29.178  1.00  0.00     0.049 A 
ATOM     50  H   UNL A   1      40.124  29.538  31.112  1.00  0.00     0.167 HD
ATOM     51  C   UNL A   1      40.028  31.526  35.014  1.00  0.00     0.034 A 
ATOM     52  C   UNL A   1      41.300  27.981  29.109  1.00  0.00     0.034 A 
ATOM     53  C   UNL A   1      41.137  30.611  35.079  1.00  0.00     0.049 A 
ATOM     54  C   UNL A   1      42.168  27.829  30.329  1.00  0.00     0.074 A 
ATOM     55  C   UNL A   1      41.977  30.352  36.148  1.00  0.00     0.029 A 
ATOM     56  N   UNL A   1      41.563  29.808  34.032  1.00  0.00    -0.354 N 
ATOM     57  N   UNL A   1      42.017  28.358  31.520  1.00  0.00    -0.248 NA
ATOM     58  C   UNL A   1      43.340  26.949  30.206  1.00  0.00     0.031 C 
ATOM     59  C   UNL A   1      42.919  29.399  35.743  1.00  0.00     0.029 A 
ATOM     60  C   UNL A   1      42.657  29.056  34.426  1.00  0.00     0.049 A 
ATOM     61  H   UNL A   1      41.148  29.776  33.140  1.00  0.00     0.167 HD
ATOM     62  C   UNL A   1      43.056  27.856  32.294  1.00  0.00     0.074 A 
ATOM     63  C   UNL A   1      43.815  26.960  31.444  1.00  0.00     0.031 C 
ATOM     64  C   UNL A   1      43.367  28.127  33.586  1.00  0.00     0.034 A 
BRANCH  51  65
ATOM     65  C   UNL A   1      39.717  32.352  36.234  1.00  0.00     0.023 A 
ATOM     66  C   UNL A   1      40.415  33.557  36.452  1.00  0.00     0.012 A 
ATOM     67  C   UNL A   1      38.701  31.969  37.129  1.00  0.00     0.148 A 
ATOM     68  C   UNL A   1      40.121  34.356  37.557  1.00  0.00     0.002 A 
ATOM     69  C   UNL A   1      38.389  32.789  38.209  1.00  0.00     0.091 A 
ATOM     70  F   UNL A   1      38.066  30.806  36.919  1.00  0.00    -0.205 F 
ATOM     71  C   UNL A   1      39.103  33.978  38.428  1.00  0.00     0.022 A 
BRANCH  69  72
ATOM     72  S   UNL A   1      37.046  32.419  39.344  1.00  0.00     0.127 S 
ATOM     73  O   UNL A   1      37.230  33.449  40.365  1.00  0.00    -0.237 OA
ATOM     74  O   UNL A   1      35.865  32.604  38.499  1.00  0.00    -0.237 OA
ATOM     75  O   UNL A   1      37.263  31.049  39.786  1.00  0.00    -0.744 OA
ENDBRANCH  69  72
ENDBRANCH  51  65
BRANCH  52  76
ATOM     76  C   UNL A   1      41.606  27.244  27.851  1.00  0.00     0.023 A 
ATOM     77  C   UNL A   1      42.109  27.951  26.742  1.00  0.00     0.012 A 
ATOM     78  C   UNL A   1      41.438  25.849  27.757  1.00  0.00     0.148 A 
ATOM     79  C   UNL A   1      42.415  27.285  25.555  1.00  0.00     0.002 A 
ATOM     80  C   UNL A   1      41.796  25.184  26.590  1.00  0.00     0.091 A 
ATOM     81  F   UNL A   1      40.937  25.196  28.816  1.00  0.00    -0.205 F 
ATOM     82  C   UNL A   1      42.271  25.902  25.482  1.00  0.00     0.022 A 
BRANCH  80  83
ATOM     83  S   UNL A   1      41.764  23.392  26.466  1.00  0.00     0.127 S 
ATOM     84  O   UNL A   1      42.493  22.995  27.668  1.00  0.00    -0.237 OA
ATOM     85  O   UNL A   1      40.329  23.107  26.495  1.00  0.00    -0.237 OA
ATOM     86  O   UNL A   1      42.407  23.081  25.196  1.00  0.00    -0.744 OA
ENDBRANCH  80  83
ENDBRANCH  52  76
BRANCH  64  87
ATOM     87  C   UNL A   1      44.568  27.432  34.171  1.00  0.00     0.023 A 
ATOM     88  C   UNL A   1      45.854  27.970  33.958  1.00  0.00     0.012 A 
ATOM     89  C   UNL A   1      44.422  26.290  34.981  1.00  0.00     0.148 A 
ATOM     90  C   UNL A   1      46.977  27.365  34.519  1.00  0.00     0.002 A 
ATOM     91  C   UNL A   1      45.543  25.717  35.572  1.00  0.00     0.091 A 
ATOM     92  F   UNL A   1      43.195  25.778  35.154  1.00  0.00    -0.205 F 
ATOM     93  C   UNL A   1      46.822  26.247  35.334  1.00  0.00     0.022 A 
BRANCH  91  94
ATOM     94  S   UNL A   1      45.416  24.330  36.708  1.00  0.00     0.127 S 
ATOM     95  O   UNL A   1      44.531  24.867  37.739  1.00  0.00    -0.237 OA
ATOM     96  O   UNL A   1      44.815  23.290  35.871  1.00  0.00    -0.237 OA
ATOM     97  O   UNL A   1      46.780  24.043  37.132  1.00  0.00    -0.744 OA
ENDBRANCH  91  94
ENDBRANCH  64  87
ENDBRANCH  38  39
ENDBRANCH  31  33
ENDBRANCH  30  31
ENDBRANCH  29  30
ENDBRANCH   1  29
TORSDOF 20
ENDMDL
MODEL 2
REMARK VINA RESULT:     -11.5      2.275      4.337
REMARK SMILES COc1ccc([C@@H](CC(=O)OCCOC(=O)c2ccc(-c3c4nc(c(-c5cccc(S(=O)(=O)[O-])c5F)c5ccc([nH]5)c(-c5cccc(S(=O)(=O)[O-])c5F)c5nc(c(-c6cccc(S(=O)(=O)[O-])c6F)c6ccc3[nH]6)C=C5)C=C4)cc2)NC(=O)c2ccc(Cl)c([N+](=O)[O-])c2)cc1
REMARK SMILES IDX 12 1 11 2 9 3 10 4 8 5 7 6 6 7 3 8 4 9 94 10 5 11 93 12 2 13
REMARK SMILES IDX 1 14 80 15 81 16 82 18 83 19 84 20 92 21 85 22 88 23 86 24
REMARK SMILES IDX 87 25 89 26 90 27 91 28 13 29 14 30 15 31 16 32 17 33 18 34
REMARK SMILES IDX 79 35 19 36 78 37 20 38 21 39 22 40 72 41 23 42 77 43 71 44
REMARK SMILES IDX 73 45 24 46 76 47 70 48 69 49 25 51 57 52 37 53 56 54 38 55
REMARK SMILES IDX 41 56 55 57 74 58 39 59 40 60 54 62 75 63 42 64 26 65 27 66
REMARK SMILES IDX 35 67 28 68 30 69 36 70 29 71 31 72 32 73 33 74 34 75 58 76
REMARK SMILES IDX 59 77 67 78 60 79 62 80 68 81 61 82 63 83 64 84 65 85 66 86
REMARK SMILES IDX 43 87 44 88 52 89 45 90 47 91 53 92 46 93 48 94 49 95 50 96
REMARK SMILES IDX 51 97
REMARK H PARENT 80 17 73 50 41 61
REMARK Flexibility Score: inf
ROOT
ATOM      1  C   UNL A   1      31.704  30.606  26.272  1.00  0.00     0.274 C 
ENDROOT
BRANCH   1   2
ATOM      2  O   UNL A   1      32.338  29.697  27.197  1.00  0.00    -0.462 OA
BRANCH   2   3
ATOM      3  C   UNL A   1      31.834  28.445  27.270  1.00  0.00     0.308 C 
ATOM      4  O   UNL A   1      31.030  28.077  28.121  1.00  0.00    -0.252 OA
BRANCH   3   5
ATOM      5  C   UNL A   1      32.423  27.473  26.273  1.00  0.00     0.152 C 
BRANCH   5   6
ATOM      6  C   UNL A   1      31.516  26.479  25.528  1.00  0.00     0.123 C 
BRANCH   6   7
ATOM      7  C   UNL A   1      30.740  27.128  24.393  1.00  0.00    -0.025 A 
ATOM      8  C   UNL A   1      29.320  28.595  22.460  1.00  0.00     0.118 A 
ATOM      9  C   UNL A   1      28.663  27.652  23.244  1.00  0.00     0.047 A 
ATOM     10  C   UNL A   1      30.688  28.801  22.618  1.00  0.00     0.047 A 
ATOM     11  C   UNL A   1      29.373  26.902  24.183  1.00  0.00     0.010 A 
ATOM     12  C   UNL A   1      31.392  28.072  23.579  1.00  0.00     0.010 A 
BRANCH   8  13
ATOM     13  O   UNL A   1      28.544  29.351  21.625  1.00  0.00    -0.497 OA
ATOM     14  C   UNL A   1      28.821  30.744  21.728  1.00  0.00     0.278 C 
ENDBRANCH   8  13
ENDBRANCH   6   7
BRANCH   6  15
ATOM     15  N   UNL A   1      30.689  25.646  26.395  1.00  0.00    -0.345 N 
ATOM     16  C   UNL A   1      30.705  24.291  26.614  1.00  0.00     0.252 C 
ATOM     17  H   UNL A   1      30.007  26.136  26.907  1.00  0.00     0.164 HD
ATOM     18  O   UNL A   1      29.779  23.733  27.193  1.00  0.00    -0.269 OA
BRANCH  16  19
ATOM     19  C   UNL A   1      31.833  23.462  26.146  1.00  0.00     0.046 A 
ATOM     20  C   UNL A   1      33.132  23.827  26.516  1.00  0.00     0.016 A 
ATOM     21  C   UNL A   1      31.628  22.368  25.305  1.00  0.00     0.101 A 
ATOM     22  C   UNL A   1      34.222  23.052  26.109  1.00  0.00     0.028 A 
ATOM     23  C   UNL A   1      32.729  21.586  24.917  1.00  0.00     0.288 A 
ATOM     24  C   UNL A   1      34.028  21.907  25.327  1.00  0.00     0.118 A 
ATOM     25  Cl  UNL A   1      35.420  20.942  24.998  1.00  0.00    -0.077 Cl
BRANCH  23  26
ATOM     26  N   UNL A   1      32.450  20.391  24.139  1.00  0.00     0.064 N 
ATOM     27  O   UNL A   1      32.547  19.292  24.693  1.00  0.00    -0.258 OA
ATOM     28  O   UNL A   1      32.154  20.571  22.948  1.00  0.00    -0.258 OA
ENDBRANCH  23  26
ENDBRANCH  16  19
ENDBRANCH   6  15
ENDBRANCH   5   6
ENDBRANCH   3   5
ENDBRANCH   2   3
ENDBRANCH   1   2
BRANCH   1  29
ATOM     29  C   UNL A   1      31.653  32.037  26.814  1.00  0.00     0.275 C 
BRANCH  29  30
ATOM     30  O   UNL A   1      32.889  32.735  26.581  1.00  0.00    -0.458 OA
BRANCH  30  31
ATOM     31  C   UNL A   1      33.327  33.474  27.626  1.00  0.00     0.338 C 
ATOM     32  O   UNL A   1      32.765  34.440  28.115  1.00  0.00    -0.246 OA
BRANCH  31  33
ATOM     33  C   UNL A   1      34.513  32.842  28.223  1.00  0.00     0.060 A 
ATOM     34  C   UNL A   1      34.364  31.585  28.816  1.00  0.00     0.016 A 
ATOM     35  C   UNL A   1      35.739  33.504  28.259  1.00  0.00     0.016 A 
ATOM     36  C   UNL A   1      35.440  30.982  29.458  1.00  0.00     0.010 A 
ATOM     37  C   UNL A   1      36.824  32.890  28.892  1.00  0.00     0.010 A 
ATOM     38  C   UNL A   1      36.679  31.631  29.502  1.00  0.00    -0.014 A 
BRANCH  38  39
ATOM     39  C   UNL A   1      37.818  30.986  30.195  1.00  0.00     0.031 A 
ATOM     40  C   UNL A   1      38.163  31.376  31.603  1.00  0.00     0.074 A 
ATOM     41  C   UNL A   1      38.546  30.057  29.547  1.00  0.00     0.049 A 
ATOM     42  N   UNL A   1      39.152  30.962  32.352  1.00  0.00    -0.248 NA
ATOM     43  C   UNL A   1      37.285  32.362  32.252  1.00  0.00     0.031 C 
ATOM     44  C   UNL A   1      38.304  29.603  28.175  1.00  0.00     0.029 A 
ATOM     45  N   UNL A   1      39.647  29.344  29.947  1.00  0.00    -0.354 N 
ATOM     46  C   UNL A   1      39.044  31.666  33.544  1.00  0.00     0.074 A 
ATOM     47  C   UNL A   1      37.892  32.534  33.419  1.00  0.00     0.031 C 
ATOM     48  C   UNL A   1      39.241  28.700  27.842  1.00  0.00     0.029 A 
ATOM     49  C   UNL A   1      40.164  28.536  28.961  1.00  0.00     0.049 A 
ATOM     50  H   UNL A   1      40.031  29.406  30.851  1.00  0.00     0.167 HD
ATOM     51  C   UNL A   1      39.826  31.585  34.645  1.00  0.00     0.034 A 
ATOM     52  C   UNL A   1      41.269  27.766  28.954  1.00  0.00     0.034 A 
ATOM     53  C   UNL A   1      40.945  30.689  34.780  1.00  0.00     0.049 A 
ATOM     54  C   UNL A   1      42.112  27.687  30.198  1.00  0.00     0.074 A 
ATOM     55  C   UNL A   1      41.764  30.495  35.878  1.00  0.00     0.029 A 
ATOM     56  N   UNL A   1      41.403  29.840  33.784  1.00  0.00    -0.354 N 
ATOM     57  N   UNL A   1      41.930  28.272  31.357  1.00  0.00    -0.248 NA
ATOM     58  C   UNL A   1      43.297  26.818  30.145  1.00  0.00     0.031 C 
ATOM     59  C   UNL A   1      42.726  29.535  35.541  1.00  0.00     0.029 A 
ATOM     60  C   UNL A   1      42.497  29.123  34.238  1.00  0.00     0.049 A 
ATOM     61  H   UNL A   1      41.008  29.758  32.886  1.00  0.00     0.167 HD
ATOM     62  C   UNL A   1      42.957  27.824  32.178  1.00  0.00     0.074 A 
ATOM     63  C   UNL A   1      43.745  26.897  31.390  1.00  0.00     0.031 C 
ATOM     64  C   UNL A   1      43.237  28.163  33.461  1.00  0.00     0.034 A 
BRANCH  51  65
ATOM     65  C   UNL A   1      39.479  32.467  35.815  1.00  0.00     0.023 A 
ATOM     66  C   UNL A   1      38.734  31.935  36.887  1.00  0.00     0.012 A 
ATOM     67  C   UNL A   1      39.936  33.797  35.882  1.00  0.00     0.148 A 
ATOM     68  C   UNL A   1      38.429  32.722  37.998  1.00  0.00     0.002 A 
ATOM     69  C   UNL A   1      39.660  34.564  37.009  1.00  0.00     0.091 A 
ATOM     70  F   UNL A   1      40.622  34.292  34.842  1.00  0.00    -0.205 F 
ATOM     71  C   UNL A   1      38.900  34.030  38.063  1.00  0.00     0.022 A 
BRANCH  69  72
ATOM     72  S   UNL A   1      40.284  36.236  37.214  1.00  0.00     0.127 S 
ATOM     73  O   UNL A   1      41.695  35.991  37.506  1.00  0.00    -0.237 OA
ATOM     74  O   UNL A   1      40.028  36.826  35.899  1.00  0.00    -0.237 OA
ATOM     75  O   UNL A   1      39.508  36.821  38.299  1.00  0.00    -0.744 OA
ENDBRANCH  69  72
ENDBRANCH  51  65
BRANCH  52  76
ATOM     76  C   UNL A   1      41.612  26.971  27.742  1.00  0.00     0.023 A 
ATOM     77  C   UNL A   1      42.197  27.618  26.636  1.00  0.00     0.012 A 
ATOM     78  C   UNL A   1      41.397  25.581  27.690  1.00  0.00     0.148 A 
ATOM     79  C   UNL A   1      42.538  26.896  25.491  1.00  0.00     0.002 A 
ATOM     80  C   UNL A   1      41.790  24.860  26.568  1.00  0.00     0.091 A 
ATOM     81  F   UNL A   1      40.819  24.986  28.744  1.00  0.00    -0.205 F 
ATOM     82  C   UNL A   1      42.347  25.517  25.461  1.00  0.00     0.022 A 
BRANCH  80  83
ATOM     83  S   UNL A   1      41.698  23.066  26.508  1.00  0.00     0.127 S 
ATOM     84  O   UNL A   1      40.256  22.838  26.549  1.00  0.00    -0.237 OA
ATOM     85  O   UNL A   1      42.331  22.769  25.222  1.00  0.00    -0.237 OA
ATOM     86  O   UNL A   1      42.452  22.601  27.663  1.00  0.00    -0.744 OA
ENDBRANCH  80  83
ENDBRANCH  52  76
BRANCH  64  87
ATOM     87  C   UNL A   1      44.433  27.514  34.105  1.00  0.00     0.023 A 
ATOM     88  C   UNL A   1      45.694  28.140  34.016  1.00  0.00     0.012 A 
ATOM     89  C   UNL A   1      44.301  26.327  34.850  1.00  0.00     0.148 A 
ATOM     90  C   UNL A   1      46.809  27.577  34.636  1.00  0.00     0.002 A 
ATOM     91  C   UNL A   1      45.409  25.794  35.500  1.00  0.00     0.091 A 
ATOM     92  F   UNL A   1      43.100  25.733  34.904  1.00  0.00    -0.205 F 
ATOM     93  C   UNL A   1      46.666  26.412  35.385  1.00  0.00     0.022 A 
BRANCH  91  94
ATOM     94  S   UNL A   1      45.288  24.348  36.558  1.00  0.00     0.127 S 
ATOM     95  O   UNL A   1      46.644  24.255  37.095  1.00  0.00    -0.237 OA
ATOM     96  O   UNL A   1      44.274  24.753  37.533  1.00  0.00    -0.237 OA
ATOM     97  O   UNL A   1      44.877  23.255  35.687  1.00  0.00    -0.744 OA
ENDBRANCH  91  94
ENDBRANCH  64  87
ENDBRANCH  38  39
ENDBRANCH  31  33
ENDBRANCH  30  31
ENDBRANCH  29  30
ENDBRANCH   1  29
TORSDOF 20
ENDMDL
MODEL 3
REMARK VINA RESULT:     -11.3      2.498      8.288
REMARK SMILES COc1ccc([C@@H](CC(=O)OCCOC(=O)c2ccc(-c3c4nc(c(-c5cccc(S(=O)(=O)[O-])c5F)c5ccc([nH]5)c(-c5cccc(S(=O)(=O)[O-])c5F)c5nc(c(-c6cccc(S(=O)(=O)[O-])c6F)c6ccc3[nH]6)C=C5)C=C4)cc2)NC(=O)c2ccc(Cl)c([N+](=O)[O-])c2)cc1
REMARK SMILES IDX 12 1 11 2 9 3 10 4 8 5 7 6 6 7 3 8 4 9 94 10 5 11 93 12 2 13
REMARK SMILES IDX 1 14 80 15 81 16 82 18 83 19 84 20 92 21 85 22 88 23 86 24
REMARK SMILES IDX 87 25 89 26 90 27 91 28 13 29 14 30 15 31 16 32 17 33 18 34
REMARK SMILES IDX 79 35 19 36 78 37 20 38 21 39 22 40 72 41 23 42 77 43 71 44
REMARK SMILES IDX 73 45 24 46 76 47 70 48 69 49 25 51 57 52 37 53 56 54 38 55
REMARK SMILES IDX 41 56 55 57 74 58 39 59 40 60 54 62 75 63 42 64 26 65 27 66
REMARK SMILES IDX 35 67 28 68 30 69 36 70 29 71 31 72 32 73 33 74 34 75 58 76
REMARK SMILES IDX 59 77 67 78 60 79 62 80 68 81 61 82 63 83 64 84 65 85 66 86
REMARK SMILES IDX 43 87 44 88 52 89 45 90 47 91 53 92 46 93 48 94 49 95 50 96
REMARK SMILES IDX 51 97
REMARK H PARENT 80 17 73 50 41 61
REMARK Flexibility Score: inf
ROOT
ATOM      1  C   UNL A   1      31.212  29.082  25.002  1.00  0.00     0.274 C 
ENDROOT
BRANCH   1   2
ATOM      2  O   UNL A   1      32.388  28.303  24.697  1.00  0.00    -0.462 OA
BRANCH   2   3
ATOM      3  C   UNL A   1      32.226  27.244  23.871  1.00  0.00     0.308 C 
ATOM      4  O   UNL A   1      31.203  27.024  23.232  1.00  0.00    -0.252 OA
BRANCH   3   5
ATOM      5  C   UNL A   1      33.380  26.267  23.872  1.00  0.00     0.152 C 
BRANCH   5   6
ATOM      6  C   UNL A   1      33.844  25.615  25.185  1.00  0.00     0.123 C 
BRANCH   6   7
ATOM      7  C   UNL A   1      34.775  24.435  24.958  1.00  0.00    -0.025 A 
ATOM      8  C   UNL A   1      36.733  22.452  24.586  1.00  0.00     0.118 A 
ATOM      9  C   UNL A   1      36.000  22.922  23.502  1.00  0.00     0.047 A 
ATOM     10  C   UNL A   1      36.486  22.949  25.863  1.00  0.00     0.047 A 
ATOM     11  C   UNL A   1      35.007  23.884  23.690  1.00  0.00     0.010 A 
ATOM     12  C   UNL A   1      35.513  23.934  26.046  1.00  0.00     0.010 A 
BRANCH   8  13
ATOM     13  O   UNL A   1      37.747  21.575  24.312  1.00  0.00    -0.497 OA
ATOM     14  C   UNL A   1      37.501  20.271  24.825  1.00  0.00     0.278 C 
ENDBRANCH   8  13
ENDBRANCH   6   7
BRANCH   6  15
ATOM     15  N   UNL A   1      32.773  25.335  26.135  1.00  0.00    -0.345 N 
ATOM     16  C   UNL A   1      31.779  24.390  26.110  1.00  0.00     0.252 C 
ATOM     17  H   UNL A   1      32.762  25.922  26.926  1.00  0.00     0.164 HD
ATOM     18  O   UNL A   1      30.821  24.458  26.874  1.00  0.00    -0.269 OA
BRANCH  16  19
ATOM     19  C   UNL A   1      31.824  23.270  25.150  1.00  0.00     0.046 A 
ATOM     20  C   UNL A   1      31.352  23.483  23.850  1.00  0.00     0.016 A 
ATOM     21  C   UNL A   1      32.270  22.005  25.532  1.00  0.00     0.101 A 
ATOM     22  C   UNL A   1      31.400  22.451  22.907  1.00  0.00     0.028 A 
ATOM     23  C   UNL A   1      32.331  20.981  24.572  1.00  0.00     0.288 A 
ATOM     24  C   UNL A   1      31.916  21.196  23.254  1.00  0.00     0.118 A 
ATOM     25  Cl  UNL A   1      32.063  20.036  21.984  1.00  0.00    -0.077 Cl
BRANCH  23  26
ATOM     26  N   UNL A   1      32.913  19.717  24.990  1.00  0.00     0.064 N 
ATOM     27  O   UNL A   1      34.144  19.618  25.025  1.00  0.00    -0.258 OA
ATOM     28  O   UNL A   1      32.113  18.808  25.261  1.00  0.00    -0.258 OA
ENDBRANCH  23  26
ENDBRANCH  16  19
ENDBRANCH   6  15
ENDBRANCH   5   6
ENDBRANCH   3   5
ENDBRANCH   2   3
ENDBRANCH   1   2
BRANCH   1  29
ATOM     29  C   UNL A   1      31.562  30.422  25.655  1.00  0.00     0.275 C 
BRANCH  29  30
ATOM     30  O   UNL A   1      32.940  30.466  26.066  1.00  0.00    -0.458 OA
BRANCH  30  31
ATOM     31  C   UNL A   1      33.237  31.457  26.938  1.00  0.00     0.338 C 
ATOM     32  O   UNL A   1      32.512  32.384  27.255  1.00  0.00    -0.246 OA
BRANCH  31  33
ATOM     33  C   UNL A   1      34.517  31.170  27.603  1.00  0.00     0.060 A 
ATOM     34  C   UNL A   1      34.793  29.847  27.962  1.00  0.00     0.016 A 
ATOM     35  C   UNL A   1      35.404  32.193  27.929  1.00  0.00     0.016 A 
ATOM     36  C   UNL A   1      35.956  29.538  28.658  1.00  0.00     0.010 A 
ATOM     37  C   UNL A   1      36.581  31.880  28.616  1.00  0.00     0.010 A 
ATOM     38  C   UNL A   1      36.860  30.554  28.992  1.00  0.00    -0.014 A 
BRANCH  38  39
ATOM     39  C   UNL A   1      38.092  30.218  29.741  1.00  0.00     0.031 A 
ATOM     40  C   UNL A   1      39.100  29.275  29.152  1.00  0.00     0.074 A 
ATOM     41  C   UNL A   1      38.292  30.756  30.959  1.00  0.00     0.049 A 
ATOM     42  N   UNL A   1      40.208  28.821  29.677  1.00  0.00    -0.248 NA
ATOM     43  C   UNL A   1      38.825  28.772  27.797  1.00  0.00     0.031 C 
ATOM     44  C   UNL A   1      37.378  31.682  31.632  1.00  0.00     0.029 A 
ATOM     45  N   UNL A   1      39.318  30.587  31.854  1.00  0.00    -0.354 N 
ATOM     46  C   UNL A   1      40.743  27.948  28.740  1.00  0.00     0.074 A 
ATOM     47  C   UNL A   1      39.838  27.936  27.610  1.00  0.00     0.031 C 
ATOM     48  C   UNL A   1      37.876  31.985  32.842  1.00  0.00     0.029 A 
ATOM     49  C   UNL A   1      39.123  31.254  33.041  1.00  0.00     0.049 A 
ATOM     50  H   UNL A   1      40.114  30.040  31.666  1.00  0.00     0.167 HD
ATOM     51  C   UNL A   1      41.890  27.234  28.810  1.00  0.00     0.034 A 
ATOM     52  C   UNL A   1      39.859  31.259  34.170  1.00  0.00     0.034 A 
ATOM     53  C   UNL A   1      42.809  27.284  29.917  1.00  0.00     0.049 A 
ATOM     54  C   UNL A   1      41.136  30.464  34.213  1.00  0.00     0.074 A 
ATOM     55  C   UNL A   1      44.025  26.639  30.056  1.00  0.00     0.029 A 
ATOM     56  N   UNL A   1      42.611  28.017  31.077  1.00  0.00    -0.354 N 
ATOM     57  N   UNL A   1      41.686  29.734  33.272  1.00  0.00    -0.248 NA
ATOM     58  C   UNL A   1      41.911  30.518  35.462  1.00  0.00     0.031 C 
ATOM     59  C   UNL A   1      44.558  26.974  31.306  1.00  0.00     0.029 A 
ATOM     60  C   UNL A   1      43.679  27.838  31.939  1.00  0.00     0.049 A 
ATOM     61  H   UNL A   1      41.827  28.583  31.260  1.00  0.00     0.167 HD
ATOM     62  C   UNL A   1      42.881  29.264  33.804  1.00  0.00     0.074 A 
ATOM     63  C   UNL A   1      42.988  29.813  35.140  1.00  0.00     0.031 C 
ATOM     64  C   UNL A   1      43.798  28.436  33.244  1.00  0.00     0.034 A 
BRANCH  51  65
ATOM     65  C   UNL A   1      42.242  26.359  27.636  1.00  0.00     0.023 A 
ATOM     66  C   UNL A   1      43.026  26.884  26.590  1.00  0.00     0.012 A 
ATOM     67  C   UNL A   1      41.848  25.008  27.595  1.00  0.00     0.148 A 
ATOM     68  C   UNL A   1      43.393  26.083  25.508  1.00  0.00     0.002 A 
ATOM     69  C   UNL A   1      42.248  24.206  26.532  1.00  0.00     0.091 A 
ATOM     70  F   UNL A   1      41.080  24.533  28.587  1.00  0.00    -0.205 F 
ATOM     71  C   UNL A   1      43.014  24.744  25.484  1.00  0.00     0.022 A 
BRANCH  69  72
ATOM     72  S   UNL A   1      41.866  22.452  26.450  1.00  0.00     0.127 S 
ATOM     73  O   UNL A   1      42.335  21.986  27.754  1.00  0.00    -0.237 OA
ATOM     74  O   UNL A   1      40.411  22.458  26.292  1.00  0.00    -0.237 OA
ATOM     75  O   UNL A   1      42.596  21.938  25.298  1.00  0.00    -0.744 OA
ENDBRANCH  69  72
ENDBRANCH  51  65
BRANCH  52  76
ATOM     76  C   UNL A   1      39.426  32.082  35.333  1.00  0.00     0.023 A 
ATOM     77  C   UNL A   1      38.631  31.496  36.337  1.00  0.00     0.012 A 
ATOM     78  C   UNL A   1      39.825  33.426  35.471  1.00  0.00     0.148 A 
ATOM     79  C   UNL A   1      38.221  32.241  37.444  1.00  0.00     0.002 A 
ATOM     80  C   UNL A   1      39.458  34.145  36.602  1.00  0.00     0.091 A 
ATOM     81  F   UNL A   1      40.563  33.974  34.495  1.00  0.00    -0.205 F 
ATOM     82  C   UNL A   1      38.643  33.560  37.582  1.00  0.00     0.022 A 
BRANCH  80  83
ATOM     83  S   UNL A   1      40.072  35.805  36.917  1.00  0.00     0.127 S 
ATOM     84  O   UNL A   1      39.649  36.514  35.713  1.00  0.00    -0.237 OA
ATOM     85  O   UNL A   1      39.349  36.175  38.135  1.00  0.00    -0.237 OA
ATOM     86  O   UNL A   1      41.509  35.657  37.100  1.00  0.00    -0.744 OA
ENDBRANCH  80  83
ENDBRANCH  52  76
BRANCH  64  87
ATOM     87  C   UNL A   1      45.010  28.087  34.066  1.00  0.00     0.023 A 
ATOM     88  C   UNL A   1      46.167  28.888  33.972  1.00  0.00     0.012 A 
ATOM     89  C   UNL A   1      44.985  27.012  34.975  1.00  0.00     0.148 A 
ATOM     90  C   UNL A   1      47.288  28.605  34.750  1.00  0.00     0.002 A 
ATOM     91  C   UNL A   1      46.093  26.763  35.778  1.00  0.00     0.091 A 
ATOM     92  F   UNL A   1      43.886  26.247  35.034  1.00  0.00    -0.205 F 
ATOM     93  C   UNL A   1      47.249  27.552  35.659  1.00  0.00     0.022 A 
BRANCH  91  94
ATOM     94  S   UNL A   1      46.087  25.481  37.037  1.00  0.00     0.127 S 
ATOM     95  O   UNL A   1      45.867  26.259  38.255  1.00  0.00    -0.237 OA
ATOM     96  O   UNL A   1      44.953  24.647  36.635  1.00  0.00    -0.237 OA
ATOM     97  O   UNL A   1      47.381  24.821  36.934  1.00  0.00    -0.744 OA
ENDBRANCH  91  94
ENDBRANCH  64  87
ENDBRANCH  38  39
ENDBRANCH  31  33
ENDBRANCH  30  31
ENDBRANCH  29  30
ENDBRANCH   1  29
TORSDOF 20
ENDMDL
