MODEL 1
REMARK VINA RESULT:     -12.2      0.000      0.000
REMARK SMILES CC(=O)c1c[nH]c(C(=O)N[C@H]2C=C[C@H](C(=O)OCCOC(=O)c3ccc(-c4c5nc(c(-c6cccc(S(=O)(=O)[O-])c6F)c6ccc([nH]6)c(-c6cccc(S(=O)(=O)[O-])c6F)c6nc(c(-c7cccc(S(=O)(=O)[O-])c7F)c7ccc4[nH]7)C=C6)C=C5)cc3)C2)c1
REMARK SMILES IDX 18 1 17 2 15 3 16 4 14 5 11 6 12 7 86 8 13 9 10 10 8 11 9 12
REMARK SMILES IDX 7 14 4 15 5 16 87 17 6 18 2 20 1 21 3 22 19 23 20 24 21 25
REMARK SMILES IDX 22 26 23 27 24 28 85 29 25 30 84 31 26 32 27 33 28 34 78 35
REMARK SMILES IDX 29 36 83 37 77 38 79 39 30 40 82 41 76 42 75 43 31 45 63 46
REMARK SMILES IDX 43 47 62 48 44 49 47 50 61 51 80 52 45 53 46 54 60 56 81 57
REMARK SMILES IDX 48 58 32 59 33 60 41 61 34 62 36 63 42 64 35 65 37 66 38 67
REMARK SMILES IDX 39 68 40 69 64 70 65 71 73 72 66 73 68 74 74 75 67 76 69 77
REMARK SMILES IDX 70 78 71 79 72 80 49 81 50 82 58 83 51 84 53 85 59 86 52 87
REMARK SMILES IDX 54 88 55 89 56 90 57 91
REMARK H PARENT 10 13 6 19 79 44 47 55
REMARK Flexibility Score: inf
ROOT
ATOM      1  C   UNL A   1      33.383  28.568  27.405  1.00  0.00     0.274 C 
ENDROOT
BRANCH   1   2
ATOM      2  O   UNL A   1      33.036  27.754  26.269  1.00  0.00    -0.462 OA
BRANCH   2   3
ATOM      3  C   UNL A   1      31.701  27.560  26.092  1.00  0.00     0.312 C 
ATOM      4  O   UNL A   1      30.982  26.965  26.889  1.00  0.00    -0.252 OA
BRANCH   3   5
ATOM      5  C   UNL A   1      31.180  28.209  24.808  1.00  0.00     0.124 C 
ATOM      6  C   UNL A   1      32.596  27.307  23.088  1.00  0.00     0.106 C 
ATOM      7  C   UNL A   1      32.839  28.776  23.237  1.00  0.00    -0.006 C 
ATOM      8  C   UNL A   1      31.186  27.186  23.668  1.00  0.00     0.048 C 
ATOM      9  C   UNL A   1      32.090  29.263  24.237  1.00  0.00    -0.014 C 
BRANCH   6  10
ATOM     10  N   UNL A   1      32.655  26.870  21.726  1.00  0.00    -0.345 N 
ATOM     11  C   UNL A   1      32.887  25.603  21.252  1.00  0.00     0.268 C 
ATOM     12  O   UNL A   1      32.859  25.450  20.028  1.00  0.00    -0.268 OA
ATOM     13  H   UNL A   1      32.510  27.565  21.045  1.00  0.00     0.164 HD
BRANCH  11  14
ATOM     14  C   UNL A   1      33.220  24.493  22.131  1.00  0.00     0.105 A 
ATOM     15  C   UNL A   1      34.134  22.840  23.436  1.00  0.00     0.035 A 
ATOM     16  C   UNL A   1      32.881  22.434  23.027  1.00  0.00     0.094 A 
ATOM     17  C   UNL A   1      34.296  24.164  22.939  1.00  0.00     0.045 A 
ATOM     18  N   UNL A   1      32.321  23.454  22.301  1.00  0.00    -0.356 N 
ATOM     19  H   UNL A   1      31.402  23.449  21.949  1.00  0.00     0.166 HD
BRANCH  15  20
ATOM     20  C   UNL A   1      35.124  22.088  24.202  1.00  0.00     0.161 C 
ATOM     21  C   UNL A   1      36.578  22.413  23.989  1.00  0.00     0.093 C 
ATOM     22  O   UNL A   1      34.792  21.284  25.071  1.00  0.00    -0.294 OA
ENDBRANCH  15  20
ENDBRANCH  11  14
ENDBRANCH   6  10
ENDBRANCH   3   5
ENDBRANCH   2   3
ENDBRANCH   1   2
BRANCH   1  23
ATOM     23  C   UNL A   1      34.275  29.744  27.007  1.00  0.00     0.275 C 
BRANCH  23  24
ATOM     24  O   UNL A   1      35.672  29.526  27.232  1.00  0.00    -0.458 OA
BRANCH  24  25
ATOM     25  C   UNL A   1      36.108  30.023  28.410  1.00  0.00     0.338 C 
ATOM     26  O   UNL A   1      35.531  30.821  29.132  1.00  0.00    -0.246 OA
BRANCH  25  27
ATOM     27  C   UNL A   1      37.490  29.646  28.686  1.00  0.00     0.060 A 
ATOM     28  C   UNL A   1      38.408  29.692  27.630  1.00  0.00     0.016 A 
ATOM     29  C   UNL A   1      37.761  28.963  29.873  1.00  0.00     0.016 A 
ATOM     30  C   UNL A   1      39.597  28.994  27.747  1.00  0.00     0.010 A 
ATOM     31  C   UNL A   1      38.929  28.228  29.967  1.00  0.00     0.010 A 
ATOM     32  C   UNL A   1      39.840  28.242  28.904  1.00  0.00    -0.014 A 
BRANCH  32  33
ATOM     33  C   UNL A   1      41.167  27.614  29.057  1.00  0.00     0.031 A 
ATOM     34  C   UNL A   1      41.110  26.143  28.574  1.00  0.00     0.074 A 
ATOM     35  C   UNL A   1      42.143  28.385  29.636  1.00  0.00     0.049 A 
ATOM     36  N   UNL A   1      41.736  25.095  29.018  1.00  0.00    -0.248 NA
ATOM     37  C   UNL A   1      40.118  25.747  27.529  1.00  0.00     0.031 C 
ATOM     38  C   UNL A   1      41.999  29.820  29.987  1.00  0.00     0.029 A 
ATOM     39  N   UNL A   1      43.443  28.152  30.050  1.00  0.00    -0.354 N 
ATOM     40  C   UNL A   1      41.421  24.016  28.150  1.00  0.00     0.074 A 
ATOM     41  C   UNL A   1      40.305  24.435  27.370  1.00  0.00     0.031 C 
ATOM     42  C   UNL A   1      43.098  30.286  30.624  1.00  0.00     0.029 A 
ATOM     43  C   UNL A   1      44.086  29.227  30.728  1.00  0.00     0.049 A 
ATOM     44  H   UNL A   1      43.896  27.294  29.886  1.00  0.00     0.167 HD
ATOM     45  C   UNL A   1      42.223  22.918  28.010  1.00  0.00     0.034 A 
ATOM     46  C   UNL A   1      45.310  29.251  31.354  1.00  0.00     0.034 A 
ATOM     47  C   UNL A   1      43.374  23.091  28.832  1.00  0.00     0.049 A 
ATOM     48  C   UNL A   1      45.952  27.984  30.984  1.00  0.00     0.074 A 
ATOM     49  C   UNL A   1      43.559  23.028  30.186  1.00  0.00     0.029 A 
ATOM     50  N   UNL A   1      44.415  23.769  28.241  1.00  0.00    -0.354 N 
ATOM     51  N   UNL A   1      46.422  27.720  29.801  1.00  0.00    -0.248 NA
ATOM     52  C   UNL A   1      45.968  26.885  31.956  1.00  0.00     0.031 C 
ATOM     53  C   UNL A   1      44.470  24.074  30.421  1.00  0.00     0.029 A 
ATOM     54  C   UNL A   1      44.988  24.548  29.207  1.00  0.00     0.049 A 
ATOM     55  H   UNL A   1      44.693  23.706  27.299  1.00  0.00     0.167 HD
ATOM     56  C   UNL A   1      46.408  26.349  29.799  1.00  0.00     0.074 A 
ATOM     57  C   UNL A   1      46.490  25.936  31.184  1.00  0.00     0.031 C 
ATOM     58  C   UNL A   1      45.763  25.693  28.797  1.00  0.00     0.034 A 
BRANCH  45  59
ATOM     59  C   UNL A   1      42.301  21.766  27.035  1.00  0.00     0.023 A 
ATOM     60  C   UNL A   1      41.386  20.702  27.292  1.00  0.00     0.012 A 
ATOM     61  C   UNL A   1      43.358  21.506  26.148  1.00  0.00     0.148 A 
ATOM     62  C   UNL A   1      41.593  19.406  26.828  1.00  0.00     0.002 A 
ATOM     63  C   UNL A   1      43.530  20.212  25.639  1.00  0.00     0.091 A 
ATOM     64  F   UNL A   1      44.237  22.473  25.868  1.00  0.00    -0.205 F 
ATOM     65  C   UNL A   1      42.680  19.158  26.014  1.00  0.00     0.022 A 
BRANCH  63  66
ATOM     66  S   UNL A   1      44.845  19.772  24.496  1.00  0.00     0.127 S 
ATOM     67  O   UNL A   1      44.594  18.350  24.278  1.00  0.00    -0.237 OA
ATOM     68  O   UNL A   1      44.539  20.624  23.344  1.00  0.00    -0.237 OA
ATOM     69  O   UNL A   1      46.088  20.114  25.174  1.00  0.00    -0.744 OA
ENDBRANCH  63  66
ENDBRANCH  45  59
BRANCH  46  70
ATOM     70  C   UNL A   1      46.085  30.138  32.315  1.00  0.00     0.023 A 
ATOM     71  C   UNL A   1      45.786  30.291  33.675  1.00  0.00     0.012 A 
ATOM     72  C   UNL A   1      47.262  30.825  31.868  1.00  0.00     0.148 A 
ATOM     73  C   UNL A   1      46.653  30.994  34.544  1.00  0.00     0.002 A 
ATOM     74  C   UNL A   1      48.179  31.402  32.741  1.00  0.00     0.091 A 
ATOM     75  F   UNL A   1      47.496  30.966  30.561  1.00  0.00    -0.205 F 
ATOM     76  C   UNL A   1      47.870  31.504  34.091  1.00  0.00     0.022 A 
BRANCH  74  77
ATOM     77  S   UNL A   1      49.830  31.897  32.197  1.00  0.00     0.127 S 
ATOM     78  O   UNL A   1      50.337  30.675  31.575  1.00  0.00    -0.237 OA
ATOM     79  O   UNL A   1      49.516  32.978  31.262  1.00  0.00    -0.237 OA
ATOM     80  O   UNL A   1      50.550  32.320  33.392  1.00  0.00    -0.744 OA
ENDBRANCH  74  77
ENDBRANCH  46  70
BRANCH  58  81
ATOM     81  C   UNL A   1      45.688  26.452  27.467  1.00  0.00     0.023 A 
ATOM     82  C   UNL A   1      44.424  26.949  27.089  1.00  0.00     0.012 A 
ATOM     83  C   UNL A   1      46.739  26.606  26.531  1.00  0.00     0.148 A 
ATOM     84  C   UNL A   1      44.201  27.538  25.839  1.00  0.00     0.002 A 
ATOM     85  C   UNL A   1      46.515  27.180  25.271  1.00  0.00     0.091 A 
ATOM     86  F   UNL A   1      47.959  26.194  26.867  1.00  0.00    -0.205 F 
ATOM     87  C   UNL A   1      45.242  27.649  24.929  1.00  0.00     0.022 A 
BRANCH  85  88
ATOM     88  S   UNL A   1      47.769  27.315  23.978  1.00  0.00     0.127 S 
ATOM     89  O   UNL A   1      48.880  27.961  24.680  1.00  0.00    -0.237 OA
ATOM     90  O   UNL A   1      48.015  25.916  23.635  1.00  0.00    -0.237 OA
ATOM     91  O   UNL A   1      47.184  28.123  22.917  1.00  0.00    -0.744 OA
ENDBRANCH  85  88
ENDBRANCH  58  81
ENDBRANCH  32  33
ENDBRANCH  25  27
ENDBRANCH  24  25
ENDBRANCH  23  24
ENDBRANCH   1  23
TORSDOF 17
ENDMDL
MODEL 2
REMARK VINA RESULT:     -12.1      1.449      2.157
REMARK SMILES CC(=O)c1c[nH]c(C(=O)N[C@H]2C=C[C@H](C(=O)OCCOC(=O)c3ccc(-c4c5nc(c(-c6cccc(S(=O)(=O)[O-])c6F)c6ccc([nH]6)c(-c6cccc(S(=O)(=O)[O-])c6F)c6nc(c(-c7cccc(S(=O)(=O)[O-])c7F)c7ccc4[nH]7)C=C6)C=C5)cc3)C2)c1
REMARK SMILES IDX 18 1 17 2 15 3 16 4 14 5 11 6 12 7 86 8 13 9 10 10 8 11 9 12
REMARK SMILES IDX 7 14 4 15 5 16 87 17 6 18 2 20 1 21 3 22 19 23 20 24 21 25
REMARK SMILES IDX 22 26 23 27 24 28 85 29 25 30 84 31 26 32 27 33 28 34 78 35
REMARK SMILES IDX 29 36 83 37 77 38 79 39 30 40 82 41 76 42 75 43 31 45 63 46
REMARK SMILES IDX 43 47 62 48 44 49 47 50 61 51 80 52 45 53 46 54 60 56 81 57
REMARK SMILES IDX 48 58 32 59 33 60 41 61 34 62 36 63 42 64 35 65 37 66 38 67
REMARK SMILES IDX 39 68 40 69 64 70 65 71 73 72 66 73 68 74 74 75 67 76 69 77
REMARK SMILES IDX 70 78 71 79 72 80 49 81 50 82 58 83 51 84 53 85 59 86 52 87
REMARK SMILES IDX 54 88 55 89 56 90 57 91
REMARK H PARENT 10 13 6 19 79 44 47 55
REMARK Flexibility Score: inf
ROOT
ATOM      1  C   UNL A   1      33.755  28.959  26.200  1.00  0.00     0.274 C 
ENDROOT
BRANCH   1   2
ATOM      2  O   UNL A   1      33.416  27.741  25.511  1.00  0.00    -0.462 OA
BRANCH   2   3
ATOM      3  C   UNL A   1      32.496  27.883  24.519  1.00  0.00     0.312 C 
ATOM      4  O   UNL A   1      32.778  27.945  23.326  1.00  0.00    -0.252 OA
BRANCH   3   5
ATOM      5  C   UNL A   1      31.061  27.912  25.049  1.00  0.00     0.124 C 
ATOM      6  C   UNL A   1      30.570  25.605  25.512  1.00  0.00     0.106 C 
ATOM      7  C   UNL A   1      29.720  26.096  24.383  1.00  0.00    -0.006 C 
ATOM      8  C   UNL A   1      30.916  26.922  26.209  1.00  0.00     0.048 C 
ATOM      9  C   UNL A   1      30.039  27.365  24.089  1.00  0.00    -0.014 C 
BRANCH   6  10
ATOM     10  N   UNL A   1      29.873  24.705  26.381  1.00  0.00    -0.345 N 
ATOM     11  C   UNL A   1      30.285  23.478  26.837  1.00  0.00     0.268 C 
ATOM     12  O   UNL A   1      29.529  22.886  27.611  1.00  0.00    -0.268 OA
ATOM     13  H   UNL A   1      28.988  25.005  26.690  1.00  0.00     0.164 HD
BRANCH  11  14
ATOM     14  C   UNL A   1      31.521  22.857  26.386  1.00  0.00     0.105 A 
ATOM     15  C   UNL A   1      33.234  21.559  25.578  1.00  0.00     0.035 A 
ATOM     16  C   UNL A   1      33.750  22.436  26.509  1.00  0.00     0.094 A 
ATOM     17  C   UNL A   1      31.856  21.892  25.450  1.00  0.00     0.045 A 
ATOM     18  N   UNL A   1      32.730  23.247  26.937  1.00  0.00    -0.356 N 
ATOM     19  H   UNL A   1      32.843  24.006  27.554  1.00  0.00     0.166 HD
BRANCH  15  20
ATOM     20  C   UNL A   1      33.923  20.485  24.867  1.00  0.00     0.161 C 
ATOM     21  C   UNL A   1      35.419  20.390  25.010  1.00  0.00     0.093 C 
ATOM     22  O   UNL A   1      33.305  19.619  24.252  1.00  0.00    -0.294 OA
ENDBRANCH  15  20
ENDBRANCH  11  14
ENDBRANCH   6  10
ENDBRANCH   3   5
ENDBRANCH   2   3
ENDBRANCH   1   2
BRANCH   1  23
ATOM     23  C   UNL A   1      35.126  28.868  26.870  1.00  0.00     0.275 C 
BRANCH  23  24
ATOM     24  O   UNL A   1      35.222  29.573  28.113  1.00  0.00    -0.458 OA
BRANCH  24  25
ATOM     25  C   UNL A   1      36.369  30.276  28.242  1.00  0.00     0.338 C 
ATOM     26  O   UNL A   1      36.501  31.489  28.180  1.00  0.00    -0.246 OA
BRANCH  25  27
ATOM     27  C   UNL A   1      37.540  29.409  28.288  1.00  0.00     0.060 A 
ATOM     28  C   UNL A   1      37.824  28.749  29.490  1.00  0.00     0.016 A 
ATOM     29  C   UNL A   1      38.485  29.524  27.266  1.00  0.00     0.016 A 
ATOM     30  C   UNL A   1      39.096  28.243  29.691  1.00  0.00     0.010 A 
ATOM     31  C   UNL A   1      39.769  29.060  27.490  1.00  0.00     0.010 A 
ATOM     32  C   UNL A   1      40.071  28.426  28.701  1.00  0.00    -0.014 A 
BRANCH  32  33
ATOM     33  C   UNL A   1      41.378  27.766  28.886  1.00  0.00     0.031 A 
ATOM     34  C   UNL A   1      41.285  26.283  28.449  1.00  0.00     0.074 A 
ATOM     35  C   UNL A   1      42.370  28.528  29.451  1.00  0.00     0.049 A 
ATOM     36  N   UNL A   1      41.877  25.233  28.932  1.00  0.00    -0.248 NA
ATOM     37  C   UNL A   1      40.292  25.882  27.407  1.00  0.00     0.031 C 
ATOM     38  C   UNL A   1      42.263  29.977  29.756  1.00  0.00     0.029 A 
ATOM     39  N   UNL A   1      43.659  28.273  29.885  1.00  0.00    -0.354 N 
ATOM     40  C   UNL A   1      41.540  24.137  28.095  1.00  0.00     0.074 A 
ATOM     41  C   UNL A   1      40.443  24.561  27.291  1.00  0.00     0.031 C 
ATOM     42  C   UNL A   1      43.369  30.433  30.389  1.00  0.00     0.029 A 
ATOM     43  C   UNL A   1      44.326  29.350  30.535  1.00  0.00     0.049 A 
ATOM     44  H   UNL A   1      44.090  27.398  29.752  1.00  0.00     0.167 HD
ATOM     45  C   UNL A   1      42.313  23.013  27.997  1.00  0.00     0.034 A 
ATOM     46  C   UNL A   1      45.545  29.360  31.172  1.00  0.00     0.034 A 
ATOM     47  C   UNL A   1      43.460  23.179  28.825  1.00  0.00     0.049 A 
ATOM     48  C   UNL A   1      46.154  28.065  30.848  1.00  0.00     0.074 A 
ATOM     49  C   UNL A   1      43.632  23.154  30.182  1.00  0.00     0.029 A 
ATOM     50  N   UNL A   1      44.525  23.810  28.224  1.00  0.00    -0.354 N 
ATOM     51  N   UNL A   1      46.628  27.751  29.679  1.00  0.00    -0.248 NA
ATOM     52  C   UNL A   1      46.131  26.997  31.855  1.00  0.00     0.031 C 
ATOM     53  C   UNL A   1      44.569  24.182  30.394  1.00  0.00     0.029 A 
ATOM     54  C   UNL A   1      45.111  24.603  29.171  1.00  0.00     0.049 A 
ATOM     55  H   UNL A   1      44.811  23.709  27.287  1.00  0.00     0.167 HD
ATOM     56  C   UNL A   1      46.575  26.382  29.720  1.00  0.00     0.074 A 
ATOM     57  C   UNL A   1      46.633  26.010  31.118  1.00  0.00     0.031 C 
ATOM     58  C   UNL A   1      45.921  25.712  28.733  1.00  0.00     0.034 A 
BRANCH  45  59
ATOM     59  C   UNL A   1      42.367  21.829  27.059  1.00  0.00     0.023 A 
ATOM     60  C   UNL A   1      41.470  20.768  27.383  1.00  0.00     0.012 A 
ATOM     61  C   UNL A   1      43.397  21.546  26.147  1.00  0.00     0.148 A 
ATOM     62  C   UNL A   1      41.671  19.458  26.956  1.00  0.00     0.002 A 
ATOM     63  C   UNL A   1      43.562  20.237  25.677  1.00  0.00     0.091 A 
ATOM     64  F   UNL A   1      44.258  22.509  25.806  1.00  0.00    -0.205 F 
ATOM     65  C   UNL A   1      42.733  19.190  26.115  1.00  0.00     0.022 A 
BRANCH  63  66
ATOM     66  S   UNL A   1      44.842  19.767  24.506  1.00  0.00     0.127 S 
ATOM     67  O   UNL A   1      46.061  20.055  25.256  1.00  0.00    -0.237 OA
ATOM     68  O   UNL A   1      44.569  18.340  24.321  1.00  0.00    -0.237 OA
ATOM     69  O   UNL A   1      44.606  20.575  23.318  1.00  0.00    -0.744 OA
ENDBRANCH  63  66
ENDBRANCH  45  59
BRANCH  46  70
ATOM     70  C   UNL A   1      46.335  30.255  32.113  1.00  0.00     0.023 A 
ATOM     71  C   UNL A   1      46.099  30.371  33.490  1.00  0.00     0.012 A 
ATOM     72  C   UNL A   1      47.464  30.993  31.624  1.00  0.00     0.148 A 
ATOM     73  C   UNL A   1      46.984  31.087  34.329  1.00  0.00     0.002 A 
ATOM     74  C   UNL A   1      48.402  31.585  32.462  1.00  0.00     0.091 A 
ATOM     75  F   UNL A   1      47.627  31.168  30.310  1.00  0.00    -0.205 F 
ATOM     76  C   UNL A   1      48.158  31.650  33.828  1.00  0.00     0.022 A 
BRANCH  74  77
ATOM     77  S   UNL A   1      50.006  32.150  31.849  1.00  0.00     0.127 S 
ATOM     78  O   UNL A   1      49.632  32.979  30.704  1.00  0.00    -0.237 OA
ATOM     79  O   UNL A   1      50.514  32.891  33.004  1.00  0.00    -0.237 OA
ATOM     80  O   UNL A   1      50.766  30.953  31.515  1.00  0.00    -0.744 OA
ENDBRANCH  74  77
ENDBRANCH  46  70
BRANCH  58  81
ATOM     81  C   UNL A   1      45.880  26.431  27.379  1.00  0.00     0.023 A 
ATOM     82  C   UNL A   1      44.625  26.917  26.955  1.00  0.00     0.012 A 
ATOM     83  C   UNL A   1      46.954  26.556  26.464  1.00  0.00     0.148 A 
ATOM     84  C   UNL A   1      44.434  27.468  25.683  1.00  0.00     0.002 A 
ATOM     85  C   UNL A   1      46.761  27.092  25.183  1.00  0.00     0.091 A 
ATOM     86  F   UNL A   1      48.164  26.154  26.842  1.00  0.00    -0.205 F 
ATOM     87  C   UNL A   1      45.497  27.551  24.796  1.00  0.00     0.022 A 
BRANCH  85  88
ATOM     88  S   UNL A   1      48.046  27.187  23.917  1.00  0.00     0.127 S 
ATOM     89  O   UNL A   1      48.263  25.779  23.578  1.00  0.00    -0.237 OA
ATOM     90  O   UNL A   1      47.392  27.959  22.865  1.00  0.00    -0.237 OA
ATOM     91  O   UNL A   1      49.194  27.832  24.541  1.00  0.00    -0.744 OA
ENDBRANCH  85  88
ENDBRANCH  58  81
ENDBRANCH  32  33
ENDBRANCH  25  27
ENDBRANCH  24  25
ENDBRANCH  23  24
ENDBRANCH   1  23
TORSDOF 17
ENDMDL
MODEL 3
REMARK VINA RESULT:     -11.9      1.744      2.215
REMARK SMILES CC(=O)c1c[nH]c(C(=O)N[C@H]2C=C[C@H](C(=O)OCCOC(=O)c3ccc(-c4c5nc(c(-c6cccc(S(=O)(=O)[O-])c6F)c6ccc([nH]6)c(-c6cccc(S(=O)(=O)[O-])c6F)c6nc(c(-c7cccc(S(=O)(=O)[O-])c7F)c7ccc4[nH]7)C=C6)C=C5)cc3)C2)c1
REMARK SMILES IDX 18 1 17 2 15 3 16 4 14 5 11 6 12 7 86 8 13 9 10 10 8 11 9 12
REMARK SMILES IDX 7 14 4 15 5 16 87 17 6 18 2 20 1 21 3 22 19 23 20 24 21 25
REMARK SMILES IDX 22 26 23 27 24 28 85 29 25 30 84 31 26 32 27 33 28 34 78 35
REMARK SMILES IDX 29 36 83 37 77 38 79 39 30 40 82 41 76 42 75 43 31 45 63 46
REMARK SMILES IDX 43 47 62 48 44 49 47 50 61 51 80 52 45 53 46 54 60 56 81 57
REMARK SMILES IDX 48 58 32 59 33 60 41 61 34 62 36 63 42 64 35 65 37 66 38 67
REMARK SMILES IDX 39 68 40 69 64 70 65 71 73 72 66 73 68 74 74 75 67 76 69 77
REMARK SMILES IDX 70 78 71 79 72 80 49 81 50 82 58 83 51 84 53 85 59 86 52 87
REMARK SMILES IDX 54 88 55 89 56 90 57 91
REMARK H PARENT 10 13 6 19 79 44 47 55
REMARK Flexibility Score: inf
ROOT
ATOM      1  C   UNL A   1      33.703  29.233  26.103  1.00  0.00     0.274 C 
ENDROOT
BRANCH   1   2
ATOM      2  O   UNL A   1      33.608  28.384  24.944  1.00  0.00    -0.462 OA
BRANCH   2   3
ATOM      3  C   UNL A   1      32.539  27.543  24.938  1.00  0.00     0.312 C 
ATOM      4  O   UNL A   1      32.013  27.094  25.953  1.00  0.00    -0.252 OA
BRANCH   3   5
ATOM      5  C   UNL A   1      32.028  27.253  23.525  1.00  0.00     0.124 C 
ATOM      6  C   UNL A   1      32.589  24.943  23.171  1.00  0.00     0.106 C 
ATOM      7  C   UNL A   1      33.389  25.814  22.253  1.00  0.00    -0.006 C 
ATOM      8  C   UNL A   1      31.401  25.856  23.475  1.00  0.00     0.048 C 
ATOM      9  C   UNL A   1      33.116  27.104  22.495  1.00  0.00    -0.014 C 
BRANCH   6  10
ATOM     10  N   UNL A   1      32.179  23.717  22.554  1.00  0.00    -0.345 N 
ATOM     11  C   UNL A   1      32.629  22.447  22.815  1.00  0.00     0.268 C 
ATOM     12  O   UNL A   1      32.105  21.527  22.180  1.00  0.00    -0.268 OA
ATOM     13  H   UNL A   1      31.490  23.796  21.857  1.00  0.00     0.164 HD
BRANCH  11  14
ATOM     14  C   UNL A   1      33.718  22.183  23.743  1.00  0.00     0.105 A 
ATOM     15  C   UNL A   1      35.674  21.782  24.876  1.00  0.00     0.035 A 
ATOM     16  C   UNL A   1      34.633  21.219  25.584  1.00  0.00     0.094 A 
ATOM     17  C   UNL A   1      35.076  22.454  23.773  1.00  0.00     0.045 A 
ATOM     18  N   UNL A   1      33.465  21.519  24.931  1.00  0.00    -0.356 N 
ATOM     19  H   UNL A   1      32.566  21.292  25.264  1.00  0.00     0.166 HD
BRANCH  15  20
ATOM     20  C   UNL A   1      37.105  21.707  25.157  1.00  0.00     0.161 C 
ATOM     21  C   UNL A   1      37.798  20.388  24.943  1.00  0.00     0.093 C 
ATOM     22  O   UNL A   1      37.755  22.705  25.460  1.00  0.00    -0.294 OA
ENDBRANCH  15  20
ENDBRANCH  11  14
ENDBRANCH   6  10
ENDBRANCH   3   5
ENDBRANCH   2   3
ENDBRANCH   1   2
BRANCH   1  23
ATOM     23  C   UNL A   1      34.809  28.772  27.053  1.00  0.00     0.275 C 
BRANCH  23  24
ATOM     24  O   UNL A   1      35.013  29.633  28.179  1.00  0.00    -0.458 OA
BRANCH  24  25
ATOM     25  C   UNL A   1      36.169  30.331  28.117  1.00  0.00     0.338 C 
ATOM     26  O   UNL A   1      36.297  31.524  27.891  1.00  0.00    -0.246 OA
BRANCH  25  27
ATOM     27  C   UNL A   1      37.338  29.461  28.168  1.00  0.00     0.060 A 
ATOM     28  C   UNL A   1      37.570  28.739  29.344  1.00  0.00     0.016 A 
ATOM     29  C   UNL A   1      38.326  29.629  27.195  1.00  0.00     0.016 A 
ATOM     30  C   UNL A   1      38.833  28.222  29.573  1.00  0.00     0.010 A 
ATOM     31  C   UNL A   1      39.599  29.151  27.449  1.00  0.00     0.010 A 
ATOM     32  C   UNL A   1      39.850  28.454  28.637  1.00  0.00    -0.014 A 
BRANCH  32  33
ATOM     33  C   UNL A   1      41.148  27.784  28.843  1.00  0.00     0.031 A 
ATOM     34  C   UNL A   1      41.060  26.312  28.370  1.00  0.00     0.074 A 
ATOM     35  C   UNL A   1      42.128  28.528  29.452  1.00  0.00     0.049 A 
ATOM     36  N   UNL A   1      41.635  25.248  28.846  1.00  0.00    -0.248 NA
ATOM     37  C   UNL A   1      40.095  25.939  27.292  1.00  0.00     0.031 C 
ATOM     38  C   UNL A   1      42.018  29.971  29.786  1.00  0.00     0.029 A 
ATOM     39  N   UNL A   1      43.403  28.257  29.916  1.00  0.00    -0.354 N 
ATOM     40  C   UNL A   1      41.316  24.172  27.976  1.00  0.00     0.074 A 
ATOM     41  C   UNL A   1      40.244  24.620  27.151  1.00  0.00     0.031 C 
ATOM     42  C   UNL A   1      43.108  30.406  30.460  1.00  0.00     0.029 A 
ATOM     43  C   UNL A   1      44.056  29.316  30.608  1.00  0.00     0.049 A 
ATOM     44  H   UNL A   1      43.833  27.383  29.775  1.00  0.00     0.167 HD
ATOM     45  C   UNL A   1      42.086  23.047  27.874  1.00  0.00     0.034 A 
ATOM     46  C   UNL A   1      45.257  29.305  31.279  1.00  0.00     0.034 A 
ATOM     47  C   UNL A   1      43.210  23.189  28.737  1.00  0.00     0.049 A 
ATOM     48  C   UNL A   1      45.869  28.014  30.943  1.00  0.00     0.074 A 
ATOM     49  C   UNL A   1      43.344  23.133  30.097  1.00  0.00     0.029 A 
ATOM     50  N   UNL A   1      44.295  23.827  28.179  1.00  0.00    -0.354 N 
ATOM     51  N   UNL A   1      46.374  27.724  29.781  1.00  0.00    -0.248 NA
ATOM     52  C   UNL A   1      45.813  26.924  31.924  1.00  0.00     0.031 C 
ATOM     53  C   UNL A   1      44.280  24.150  30.357  1.00  0.00     0.029 A 
ATOM     54  C   UNL A   1      44.857  24.596  29.159  1.00  0.00     0.049 A 
ATOM     55  H   UNL A   1      44.605  23.746  27.248  1.00  0.00     0.167 HD
ATOM     56  C   UNL A   1      46.314  26.355  29.789  1.00  0.00     0.074 A 
ATOM     57  C   UNL A   1      46.331  25.952  31.179  1.00  0.00     0.031 C 
ATOM     58  C   UNL A   1      45.685  25.711  28.769  1.00  0.00     0.034 A 
BRANCH  45  59
ATOM     59  C   UNL A   1      42.161  21.884  26.911  1.00  0.00     0.023 A 
ATOM     60  C   UNL A   1      41.143  20.899  27.082  1.00  0.00     0.012 A 
ATOM     61  C   UNL A   1      43.272  21.532  26.129  1.00  0.00     0.148 A 
ATOM     62  C   UNL A   1      41.286  19.587  26.641  1.00  0.00     0.002 A 
ATOM     63  C   UNL A   1      43.386  20.224  25.639  1.00  0.00     0.091 A 
ATOM     64  F   UNL A   1      44.249  22.422  25.931  1.00  0.00    -0.205 F 
ATOM     65  C   UNL A   1      42.422  19.245  25.933  1.00  0.00     0.022 A 
BRANCH  63  66
ATOM     66  S   UNL A   1      44.762  19.669  24.625  1.00  0.00     0.127 S 
ATOM     67  O   UNL A   1      44.545  18.226  24.583  1.00  0.00    -0.237 OA
ATOM     68  O   UNL A   1      44.499  20.358  23.360  1.00  0.00    -0.237 OA
ATOM     69  O   UNL A   1      45.964  20.124  25.309  1.00  0.00    -0.744 OA
ENDBRANCH  63  66
ENDBRANCH  45  59
BRANCH  46  70
ATOM     70  C   UNL A   1      46.025  30.175  32.261  1.00  0.00     0.023 A 
ATOM     71  C   UNL A   1      47.135  30.963  31.930  1.00  0.00     0.012 A 
ATOM     72  C   UNL A   1      45.574  30.295  33.618  1.00  0.00     0.148 A 
ATOM     73  C   UNL A   1      47.688  31.878  32.855  1.00  0.00     0.002 A 
ATOM     74  C   UNL A   1      46.032  31.284  34.482  1.00  0.00     0.091 A 
ATOM     75  F   UNL A   1      44.704  29.411  34.112  1.00  0.00    -0.205 F 
ATOM     76  C   UNL A   1      47.110  32.076  34.109  1.00  0.00     0.022 A 
BRANCH  74  77
ATOM     77  S   UNL A   1      45.175  31.671  36.026  1.00  0.00     0.127 S 
ATOM     78  O   UNL A   1      43.806  31.916  35.574  1.00  0.00    -0.237 OA
ATOM     79  O   UNL A   1      45.360  30.431  36.780  1.00  0.00    -0.237 OA
ATOM     80  O   UNL A   1      45.849  32.832  36.594  1.00  0.00    -0.744 OA
ENDBRANCH  74  77
ENDBRANCH  46  70
BRANCH  58  81
ATOM     81  C   UNL A   1      45.684  26.460  27.431  1.00  0.00     0.023 A 
ATOM     82  C   UNL A   1      44.448  26.982  26.995  1.00  0.00     0.012 A 
ATOM     83  C   UNL A   1      46.777  26.583  26.540  1.00  0.00     0.148 A 
ATOM     84  C   UNL A   1      44.293  27.564  25.733  1.00  0.00     0.002 A 
ATOM     85  C   UNL A   1      46.620  27.150  25.267  1.00  0.00     0.091 A 
ATOM     86  F   UNL A   1      47.972  26.146  26.931  1.00  0.00    -0.205 F 
ATOM     87  C   UNL A   1      45.374  27.644  24.867  1.00  0.00     0.022 A 
BRANCH  85  88
ATOM     88  S   UNL A   1      47.931  27.245  24.029  1.00  0.00     0.127 S 
ATOM     89  O   UNL A   1      48.155  25.837  23.693  1.00  0.00    -0.237 OA
ATOM     90  O   UNL A   1      47.298  28.018  22.963  1.00  0.00    -0.237 OA
ATOM     91  O   UNL A   1      49.065  27.892  24.675  1.00  0.00    -0.744 OA
ENDBRANCH  85  88
ENDBRANCH  58  81
ENDBRANCH  32  33
ENDBRANCH  25  27
ENDBRANCH  24  25
ENDBRANCH  23  24
ENDBRANCH   1  23
TORSDOF 17
ENDMDL
