MODEL 1
REMARK VINA RESULT:     -10.0      0.000      0.000
REMARK SMILES CC[N@@H+](C[C@@H](C)C(=O)OCCOC(=O)c1ccc(-c2c3nc(c(-c4cccc(S(=O)(=O)[O-])c4F)c4ccc([nH]4)c(-c4cccc(S(=O)(=O)[O-])c4F)c4nc(c(-c5cccc(S(=O)(=O)[O-])c5F)c5ccc2[nH]5)C=C4)C=C3)cc1)[C@@H](C)c1ccoc1
REMARK SMILES IDX 10 1 9 2 7 3 8 4 5 5 6 6 4 7 3 8 2 10 1 11 78 12 79 13 80 14
REMARK SMILES IDX 81 15 84 16 82 17 83 18 11 19 12 20 13 21 14 22 15 23 16 24
REMARK SMILES IDX 77 25 17 26 76 27 18 28 19 29 20 30 70 31 21 32 75 33 69 34
REMARK SMILES IDX 71 35 22 36 74 37 68 38 67 39 23 41 55 42 35 43 54 44 36 45
REMARK SMILES IDX 39 46 53 47 72 48 37 49 38 50 52 52 73 53 40 54 24 55 25 56
REMARK SMILES IDX 33 57 26 58 28 59 34 60 27 61 29 62 30 63 31 64 32 65 56 66
REMARK SMILES IDX 57 67 65 68 58 69 60 70 66 71 59 72 61 73 62 74 63 75 64 76
REMARK SMILES IDX 41 77 42 78 50 79 43 80 45 81 51 82 44 83 46 84 47 85 48 86
REMARK SMILES IDX 49 87
REMARK H PARENT 3 9 71 40 39 51
REMARK Flexibility Score: inf
ROOT
ATOM      1  C   UNL A   1      31.160  29.221  24.682  1.00  0.00     0.274 C 
ENDROOT
BRANCH   1   2
ATOM      2  O   UNL A   1      32.146  28.973  23.655  1.00  0.00    -0.462 OA
BRANCH   2   3
ATOM      3  C   UNL A   1      32.133  27.715  23.146  1.00  0.00     0.314 C 
ATOM      4  O   UNL A   1      31.178  27.218  22.556  1.00  0.00    -0.252 OA
BRANCH   3   5
ATOM      5  C   UNL A   1      33.367  26.896  23.480  1.00  0.00     0.151 C 
ATOM      6  C   UNL A   1      33.500  25.834  22.389  1.00  0.00     0.026 C 
BRANCH   5   7
ATOM      7  C   UNL A   1      33.414  26.322  24.913  1.00  0.00     0.277 C 
BRANCH   7   8
ATOM      8  N   UNL A   1      33.168  24.856  25.090  1.00  0.00    -0.328 N 
ATOM      9  H   UNL A   1      33.361  24.386  24.205  1.00  0.00     0.348 HD
BRANCH   8  10
ATOM     10  C   UNL A   1      31.741  24.605  25.350  1.00  0.00     0.259 C 
ATOM     11  C   UNL A   1      30.979  25.696  26.092  1.00  0.00     0.071 C 
ENDBRANCH   8  10
BRANCH   8  12
ATOM     12  C   UNL A   1      34.148  24.170  25.955  1.00  0.00     0.215 C 
ATOM     13  C   UNL A   1      33.610  23.094  26.912  1.00  0.00     0.081 C 
BRANCH  12  14
ATOM     14  C   UNL A   1      35.313  23.657  25.137  1.00  0.00     0.047 A 
ATOM     15  C   UNL A   1      35.309  23.039  23.847  1.00  0.00     0.052 A 
ATOM     16  C   UNL A   1      36.634  23.596  25.545  1.00  0.00     0.204 A 
ATOM     17  C   UNL A   1      36.603  22.663  23.579  1.00  0.00     0.195 A 
ATOM     18  O   UNL A   1      37.414  22.993  24.613  1.00  0.00    -0.472 OA
ENDBRANCH  12  14
ENDBRANCH   8  12
ENDBRANCH   7   8
ENDBRANCH   5   7
ENDBRANCH   3   5
ENDBRANCH   2   3
ENDBRANCH   1   2
BRANCH   1  19
ATOM     19  C   UNL A   1      31.773  29.586  26.040  1.00  0.00     0.275 C 
BRANCH  19  20
ATOM     20  O   UNL A   1      33.025  30.280  25.916  1.00  0.00    -0.458 OA
BRANCH  20  21
ATOM     21  C   UNL A   1      33.250  31.225  26.856  1.00  0.00     0.338 C 
ATOM     22  O   UNL A   1      32.481  32.110  27.208  1.00  0.00    -0.246 OA
BRANCH  21  23
ATOM     23  C   UNL A   1      34.527  30.967  27.533  1.00  0.00     0.060 A 
ATOM     24  C   UNL A   1      34.769  29.673  27.997  1.00  0.00     0.016 A 
ATOM     25  C   UNL A   1      35.447  31.988  27.767  1.00  0.00     0.016 A 
ATOM     26  C   UNL A   1      35.926  29.387  28.714  1.00  0.00     0.010 A 
ATOM     27  C   UNL A   1      36.618  31.698  28.476  1.00  0.00     0.010 A 
ATOM     28  C   UNL A   1      36.859  30.399  28.958  1.00  0.00    -0.014 A 
BRANCH  28  29
ATOM     29  C   UNL A   1      38.104  30.104  29.704  1.00  0.00     0.031 A 
ATOM     30  C   UNL A   1      39.113  29.149  29.139  1.00  0.00     0.074 A 
ATOM     31  C   UNL A   1      38.300  30.669  30.910  1.00  0.00     0.049 A 
ATOM     32  N   UNL A   1      40.197  28.675  29.693  1.00  0.00    -0.248 NA
ATOM     33  C   UNL A   1      38.870  28.665  27.771  1.00  0.00     0.031 C 
ATOM     34  C   UNL A   1      37.395  31.627  31.546  1.00  0.00     0.029 A 
ATOM     35  N   UNL A   1      39.304  30.493  31.827  1.00  0.00    -0.354 N 
ATOM     36  C   UNL A   1      40.752  27.810  28.758  1.00  0.00     0.074 A 
ATOM     37  C   UNL A   1      39.882  27.825  27.599  1.00  0.00     0.031 C 
ATOM     38  C   UNL A   1      37.872  31.936  32.763  1.00  0.00     0.029 A 
ATOM     39  C   UNL A   1      39.087  31.163  33.007  1.00  0.00     0.049 A 
ATOM     40  H   UNL A   1      40.102  29.941  31.657  1.00  0.00     0.167 HD
ATOM     41  C   UNL A   1      41.888  27.080  28.855  1.00  0.00     0.034 A 
ATOM     42  C   UNL A   1      39.769  31.129  34.168  1.00  0.00     0.034 A 
ATOM     43  C   UNL A   1      42.758  27.088  30.001  1.00  0.00     0.049 A 
ATOM     44  C   UNL A   1      40.989  30.256  34.273  1.00  0.00     0.074 A 
ATOM     45  C   UNL A   1      43.960  26.427  30.173  1.00  0.00     0.029 A 
ATOM     46  N   UNL A   1      42.511  27.782  31.175  1.00  0.00    -0.354 N 
ATOM     47  N   UNL A   1      41.560  29.522  33.348  1.00  0.00    -0.248 NA
ATOM     48  C   UNL A   1      41.665  30.212  35.578  1.00  0.00     0.031 C 
ATOM     49  C   UNL A   1      44.432  26.706  31.461  1.00  0.00     0.029 A 
ATOM     50  C   UNL A   1      43.526  27.549  32.087  1.00  0.00     0.049 A 
ATOM     51  H   UNL A   1      41.729  28.358  31.337  1.00  0.00     0.167 HD
ATOM     52  C   UNL A   1      42.670  28.943  33.951  1.00  0.00     0.074 A 
ATOM     53  C   UNL A   1      42.705  29.431  35.315  1.00  0.00     0.031 C 
ATOM     54  C   UNL A   1      43.568  28.072  33.429  1.00  0.00     0.034 A 
BRANCH  41  55
ATOM     55  C   UNL A   1      42.273  26.234  27.671  1.00  0.00     0.023 A 
ATOM     56  C   UNL A   1      43.067  26.794  26.650  1.00  0.00     0.012 A 
ATOM     57  C   UNL A   1      41.890  24.882  27.589  1.00  0.00     0.148 A 
ATOM     58  C   UNL A   1      43.453  26.028  25.551  1.00  0.00     0.002 A 
ATOM     59  C   UNL A   1      42.306  24.115  26.505  1.00  0.00     0.091 A 
ATOM     60  F   UNL A   1      41.110  24.376  28.554  1.00  0.00    -0.205 F 
ATOM     61  C   UNL A   1      43.081  24.688  25.483  1.00  0.00     0.022 A 
BRANCH  59  62
ATOM     62  S   UNL A   1      41.922  22.366  26.368  1.00  0.00     0.127 S 
ATOM     63  O   UNL A   1      42.483  21.842  27.612  1.00  0.00    -0.237 OA
ATOM     64  O   UNL A   1      40.460  22.368  26.313  1.00  0.00    -0.237 OA
ATOM     65  O   UNL A   1      42.569  21.914  25.143  1.00  0.00    -0.744 OA
ENDBRANCH  59  62
ENDBRANCH  41  55
BRANCH  42  66
ATOM     66  C   UNL A   1      39.317  31.966  35.315  1.00  0.00     0.023 A 
ATOM     67  C   UNL A   1      38.376  31.441  36.219  1.00  0.00     0.012 A 
ATOM     68  C   UNL A   1      39.851  33.250  35.544  1.00  0.00     0.148 A 
ATOM     69  C   UNL A   1      37.963  32.184  37.325  1.00  0.00     0.002 A 
ATOM     70  C   UNL A   1      39.474  33.964  36.676  1.00  0.00     0.091 A 
ATOM     71  F   UNL A   1      40.729  33.740  34.658  1.00  0.00    -0.205 F 
ATOM     72  C   UNL A   1      38.521  33.437  37.561  1.00  0.00     0.022 A 
BRANCH  70  73
ATOM     73  S   UNL A   1      40.238  35.527  37.124  1.00  0.00     0.127 S 
ATOM     74  O   UNL A   1      41.655  35.230  36.943  1.00  0.00    -0.237 OA
ATOM     75  O   UNL A   1      39.667  36.439  36.132  1.00  0.00    -0.237 OA
ATOM     76  O   UNL A   1      39.814  35.791  38.492  1.00  0.00    -0.744 OA
ENDBRANCH  70  73
ENDBRANCH  42  66
BRANCH  54  77
ATOM     77  C   UNL A   1      44.669  27.582  34.332  1.00  0.00     0.023 A 
ATOM     78  C   UNL A   1      45.827  28.368  34.494  1.00  0.00     0.012 A 
ATOM     79  C   UNL A   1      44.523  26.398  35.080  1.00  0.00     0.148 A 
ATOM     80  C   UNL A   1      46.834  27.972  35.373  1.00  0.00     0.002 A 
ATOM     81  C   UNL A   1      45.512  26.030  35.984  1.00  0.00     0.091 A 
ATOM     82  F   UNL A   1      43.421  25.657  34.896  1.00  0.00    -0.205 F 
ATOM     83  C   UNL A   1      46.671  26.811  36.126  1.00  0.00     0.022 A 
BRANCH  81  84
ATOM     84  S   UNL A   1      45.356  24.598  37.057  1.00  0.00     0.127 S 
ATOM     85  O   UNL A   1      44.828  23.591  36.137  1.00  0.00    -0.237 OA
ATOM     86  O   UNL A   1      46.739  24.373  37.479  1.00  0.00    -0.237 OA
ATOM     87  O   UNL A   1      44.455  24.996  38.130  1.00  0.00    -0.744 OA
ENDBRANCH  81  84
ENDBRANCH  54  77
ENDBRANCH  28  29
ENDBRANCH  21  23
ENDBRANCH  20  21
ENDBRANCH  19  20
ENDBRANCH   1  19
TORSDOF 19
ENDMDL
MODEL 2
REMARK VINA RESULT:      -9.6      4.944     10.072
REMARK SMILES CC[N@@H+](C[C@@H](C)C(=O)OCCOC(=O)c1ccc(-c2c3nc(c(-c4cccc(S(=O)(=O)[O-])c4F)c4ccc([nH]4)c(-c4cccc(S(=O)(=O)[O-])c4F)c4nc(c(-c5cccc(S(=O)(=O)[O-])c5F)c5ccc2[nH]5)C=C4)C=C3)cc1)[C@@H](C)c1ccoc1
REMARK SMILES IDX 10 1 9 2 7 3 8 4 5 5 6 6 4 7 3 8 2 10 1 11 78 12 79 13 80 14
REMARK SMILES IDX 81 15 84 16 82 17 83 18 11 19 12 20 13 21 14 22 15 23 16 24
REMARK SMILES IDX 77 25 17 26 76 27 18 28 19 29 20 30 70 31 21 32 75 33 69 34
REMARK SMILES IDX 71 35 22 36 74 37 68 38 67 39 23 41 55 42 35 43 54 44 36 45
REMARK SMILES IDX 39 46 53 47 72 48 37 49 38 50 52 52 73 53 40 54 24 55 25 56
REMARK SMILES IDX 33 57 26 58 28 59 34 60 27 61 29 62 30 63 31 64 32 65 56 66
REMARK SMILES IDX 57 67 65 68 58 69 60 70 66 71 59 72 61 73 62 74 63 75 64 76
REMARK SMILES IDX 41 77 42 78 50 79 43 80 45 81 51 82 44 83 46 84 47 85 48 86
REMARK SMILES IDX 49 87
REMARK H PARENT 3 9 71 40 39 51
REMARK Flexibility Score: inf
ROOT
ATOM      1  C   UNL A   1      35.118  21.337  24.580  1.00  0.00     0.274 C 
ENDROOT
BRANCH   1   2
ATOM      2  O   UNL A   1      34.653  22.703  24.519  1.00  0.00    -0.462 OA
BRANCH   2   3
ATOM      3  C   UNL A   1      33.949  23.016  23.401  1.00  0.00     0.314 C 
ATOM      4  O   UNL A   1      34.437  23.525  22.397  1.00  0.00    -0.252 OA
BRANCH   3   5
ATOM      5  C   UNL A   1      32.451  22.808  23.533  1.00  0.00     0.151 C 
ATOM      6  C   UNL A   1      32.037  21.860  22.407  1.00  0.00     0.026 C 
BRANCH   5   7
ATOM      7  C   UNL A   1      31.605  24.098  23.598  1.00  0.00     0.277 C 
BRANCH   7   8
ATOM      8  N   UNL A   1      32.252  25.336  24.136  1.00  0.00    -0.328 N 
ATOM      9  H   UNL A   1      33.247  25.150  24.268  1.00  0.00     0.348 HD
BRANCH   8  10
ATOM     10  C   UNL A   1      31.739  25.638  25.482  1.00  0.00     0.259 C 
ATOM     11  C   UNL A   1      30.292  25.255  25.764  1.00  0.00     0.071 C 
ENDBRANCH   8  10
BRANCH   8  12
ATOM     12  C   UNL A   1      32.334  26.452  23.173  1.00  0.00     0.215 C 
ATOM     13  C   UNL A   1      31.332  26.451  22.007  1.00  0.00     0.081 C 
BRANCH  12  14
ATOM     14  C   UNL A   1      32.347  27.781  23.898  1.00  0.00     0.047 A 
ATOM     15  C   UNL A   1      33.427  28.431  24.573  1.00  0.00     0.052 A 
ATOM     16  C   UNL A   1      31.251  28.591  24.138  1.00  0.00     0.204 A 
ATOM     17  C   UNL A   1      32.912  29.564  25.155  1.00  0.00     0.195 A 
ATOM     18  O   UNL A   1      31.585  29.663  24.899  1.00  0.00    -0.472 OA
ENDBRANCH  12  14
ENDBRANCH   8  12
ENDBRANCH   7   8
ENDBRANCH   5   7
ENDBRANCH   3   5
ENDBRANCH   2   3
ENDBRANCH   1   2
BRANCH   1  19
ATOM     19  C   UNL A   1      36.646  21.212  24.602  1.00  0.00     0.275 C 
BRANCH  19  20
ATOM     20  O   UNL A   1      37.205  21.457  25.903  1.00  0.00    -0.458 OA
BRANCH  20  21
ATOM     21  C   UNL A   1      38.522  21.176  26.021  1.00  0.00     0.338 C 
ATOM     22  O   UNL A   1      39.089  20.149  25.673  1.00  0.00    -0.246 OA
BRANCH  21  23
ATOM     23  C   UNL A   1      39.247  22.357  26.508  1.00  0.00     0.060 A 
ATOM     24  C   UNL A   1      38.769  23.615  26.134  1.00  0.00     0.016 A 
ATOM     25  C   UNL A   1      40.410  22.237  27.267  1.00  0.00     0.016 A 
ATOM     26  C   UNL A   1      39.458  24.766  26.500  1.00  0.00     0.010 A 
ATOM     27  C   UNL A   1      41.096  23.394  27.647  1.00  0.00     0.010 A 
ATOM     28  C   UNL A   1      40.627  24.663  27.261  1.00  0.00    -0.014 A 
BRANCH  28  29
ATOM     29  C   UNL A   1      41.361  25.882  27.673  1.00  0.00     0.031 A 
ATOM     30  C   UNL A   1      40.655  26.965  28.433  1.00  0.00     0.074 A 
ATOM     31  C   UNL A   1      42.652  26.025  27.323  1.00  0.00     0.049 A 
ATOM     32  N   UNL A   1      41.090  28.149  28.775  1.00  0.00    -0.248 NA
ATOM     33  C   UNL A   1      39.278  26.678  28.868  1.00  0.00     0.031 C 
ATOM     34  C   UNL A   1      43.443  25.028  26.601  1.00  0.00     0.029 A 
ATOM     35  N   UNL A   1      43.514  27.077  27.497  1.00  0.00    -0.354 N 
ATOM     36  C   UNL A   1      40.034  28.764  29.435  1.00  0.00     0.074 A 
ATOM     37  C   UNL A   1      38.935  27.821  29.446  1.00  0.00     0.031 C 
ATOM     38  C   UNL A   1      44.669  25.526  26.370  1.00  0.00     0.029 A 
ATOM     39  C   UNL A   1      44.732  26.890  26.887  1.00  0.00     0.049 A 
ATOM     40  H   UNL A   1      43.284  27.886  28.009  1.00  0.00     0.167 HD
ATOM     41  C   UNL A   1      39.991  29.998  29.990  1.00  0.00     0.034 A 
ATOM     42  C   UNL A   1      45.767  27.737  26.726  1.00  0.00     0.034 A 
ATOM     43  C   UNL A   1      41.096  30.921  29.994  1.00  0.00     0.049 A 
ATOM     44  C   UNL A   1      45.667  29.127  27.292  1.00  0.00     0.074 A 
ATOM     45  C   UNL A   1      41.170  32.172  30.579  1.00  0.00     0.029 A 
ATOM     46  N   UNL A   1      42.314  30.697  29.372  1.00  0.00    -0.354 N 
ATOM     47  N   UNL A   1      44.703  29.661  28.002  1.00  0.00    -0.248 NA
ATOM     48  C   UNL A   1      46.802  30.029  27.043  1.00  0.00     0.031 C 
ATOM     49  C   UNL A   1      42.428  32.714  30.293  1.00  0.00     0.029 A 
ATOM     50  C   UNL A   1      43.141  31.795  29.538  1.00  0.00     0.049 A 
ATOM     51  H   UNL A   1      42.557  29.877  28.885  1.00  0.00     0.167 HD
ATOM     52  C   UNL A   1      45.118  30.954  28.300  1.00  0.00     0.074 A 
ATOM     53  C   UNL A   1      46.434  31.114  27.713  1.00  0.00     0.031 C 
ATOM     54  C   UNL A   1      44.463  31.925  28.981  1.00  0.00     0.034 A 
BRANCH  41  55
ATOM     55  C   UNL A   1      38.714  30.410  30.670  1.00  0.00     0.023 A 
ATOM     56  C   UNL A   1      38.541  30.136  32.041  1.00  0.00     0.012 A 
ATOM     57  C   UNL A   1      37.708  31.103  29.970  1.00  0.00     0.148 A 
ATOM     58  C   UNL A   1      37.375  30.522  32.700  1.00  0.00     0.002 A 
ATOM     59  C   UNL A   1      36.561  31.513  30.642  1.00  0.00     0.091 A 
ATOM     60  F   UNL A   1      37.877  31.328  28.659  1.00  0.00    -0.205 F 
ATOM     61  C   UNL A   1      36.390  31.218  32.004  1.00  0.00     0.022 A 
BRANCH  59  62
ATOM     62  S   UNL A   1      35.270  32.467  29.836  1.00  0.00     0.127 S 
ATOM     63  O   UNL A   1      34.804  31.531  28.815  1.00  0.00    -0.237 OA
ATOM     64  O   UNL A   1      34.323  32.699  30.928  1.00  0.00    -0.237 OA
ATOM     65  O   UNL A   1      35.921  33.672  29.339  1.00  0.00    -0.744 OA
ENDBRANCH  59  62
ENDBRANCH  41  55
BRANCH  42  66
ATOM     66  C   UNL A   1      46.993  27.279  26.014  1.00  0.00     0.023 A 
ATOM     67  C   UNL A   1      47.130  27.552  24.641  1.00  0.00     0.012 A 
ATOM     68  C   UNL A   1      48.039  26.626  26.696  1.00  0.00     0.148 A 
ATOM     69  C   UNL A   1      48.284  27.171  23.954  1.00  0.00     0.002 A 
ATOM     70  C   UNL A   1      49.207  26.297  26.017  1.00  0.00     0.091 A 
ATOM     71  F   UNL A   1      47.877  26.355  27.998  1.00  0.00    -0.205 F 
ATOM     72  C   UNL A   1      49.325  26.557  24.644  1.00  0.00     0.022 A 
BRANCH  70  73
ATOM     73  S   UNL A   1      50.646  25.622  26.854  1.00  0.00     0.127 S 
ATOM     74  O   UNL A   1      51.019  26.719  27.741  1.00  0.00    -0.237 OA
ATOM     75  O   UNL A   1      50.084  24.449  27.527  1.00  0.00    -0.237 OA
ATOM     76  O   UNL A   1      51.599  25.306  25.799  1.00  0.00    -0.744 OA
ENDBRANCH  70  73
ENDBRANCH  42  66
BRANCH  54  77
ATOM     77  C   UNL A   1      45.152  33.256  29.130  1.00  0.00     0.023 A 
ATOM     78  C   UNL A   1      45.999  33.472  30.236  1.00  0.00     0.012 A 
ATOM     79  C   UNL A   1      45.031  34.253  28.143  1.00  0.00     0.148 A 
ATOM     80  C   UNL A   1      46.701  34.670  30.366  1.00  0.00     0.002 A 
ATOM     81  C   UNL A   1      45.764  35.428  28.259  1.00  0.00     0.091 A 
ATOM     82  F   UNL A   1      44.206  34.032  27.110  1.00  0.00    -0.205 F 
ATOM     83  C   UNL A   1      46.593  35.641  29.373  1.00  0.00     0.022 A 
BRANCH  81  84
ATOM     84  S   UNL A   1      45.756  36.701  26.992  1.00  0.00     0.127 S 
ATOM     85  O   UNL A   1      46.663  37.696  27.563  1.00  0.00    -0.237 OA
ATOM     86  O   UNL A   1      46.286  35.988  25.830  1.00  0.00    -0.237 OA
ATOM     87  O   UNL A   1      44.369  37.126  26.858  1.00  0.00    -0.744 OA
ENDBRANCH  81  84
ENDBRANCH  54  77
ENDBRANCH  28  29
ENDBRANCH  21  23
ENDBRANCH  20  21
ENDBRANCH  19  20
ENDBRANCH   1  19
TORSDOF 19
ENDMDL
MODEL 3
REMARK VINA RESULT:      -9.3      5.237     10.082
REMARK SMILES CC[N@@H+](C[C@@H](C)C(=O)OCCOC(=O)c1ccc(-c2c3nc(c(-c4cccc(S(=O)(=O)[O-])c4F)c4ccc([nH]4)c(-c4cccc(S(=O)(=O)[O-])c4F)c4nc(c(-c5cccc(S(=O)(=O)[O-])c5F)c5ccc2[nH]5)C=C4)C=C3)cc1)[C@@H](C)c1ccoc1
REMARK SMILES IDX 10 1 9 2 7 3 8 4 5 5 6 6 4 7 3 8 2 10 1 11 78 12 79 13 80 14
REMARK SMILES IDX 81 15 84 16 82 17 83 18 11 19 12 20 13 21 14 22 15 23 16 24
REMARK SMILES IDX 77 25 17 26 76 27 18 28 19 29 20 30 70 31 21 32 75 33 69 34
REMARK SMILES IDX 71 35 22 36 74 37 68 38 67 39 23 41 55 42 35 43 54 44 36 45
REMARK SMILES IDX 39 46 53 47 72 48 37 49 38 50 52 52 73 53 40 54 24 55 25 56
REMARK SMILES IDX 33 57 26 58 28 59 34 60 27 61 29 62 30 63 31 64 32 65 56 66
REMARK SMILES IDX 57 67 65 68 58 69 60 70 66 71 59 72 61 73 62 74 63 75 64 76
REMARK SMILES IDX 41 77 42 78 50 79 43 80 45 81 51 82 44 83 46 84 47 85 48 86
REMARK SMILES IDX 49 87
REMARK H PARENT 3 9 71 40 39 51
REMARK Flexibility Score: inf
ROOT
ATOM      1  C   UNL A   1      35.743  22.077  25.649  1.00  0.00     0.274 C 
ENDROOT
BRANCH   1   2
ATOM      2  O   UNL A   1      34.718  21.619  26.559  1.00  0.00    -0.462 OA
BRANCH   2   3
ATOM      3  C   UNL A   1      33.446  21.832  26.137  1.00  0.00     0.314 C 
ATOM      4  O   UNL A   1      32.727  20.967  25.647  1.00  0.00    -0.252 OA
BRANCH   3   5
ATOM      5  C   UNL A   1      33.007  23.284  26.193  1.00  0.00     0.151 C 
ATOM      6  C   UNL A   1      31.711  23.322  27.003  1.00  0.00     0.026 C 
BRANCH   5   7
ATOM      7  C   UNL A   1      32.905  24.000  24.828  1.00  0.00     0.277 C 
BRANCH   7   8
ATOM      8  N   UNL A   1      31.550  24.141  24.209  1.00  0.00    -0.328 N 
ATOM      9  H   UNL A   1      30.847  23.899  24.908  1.00  0.00     0.348 HD
BRANCH   8  10
ATOM     10  C   UNL A   1      31.374  23.152  23.133  1.00  0.00     0.259 C 
ATOM     11  C   UNL A   1      32.642  22.533  22.559  1.00  0.00     0.071 C 
ENDBRANCH   8  10
BRANCH   8  12
ATOM     12  C   UNL A   1      31.148  25.533  23.925  1.00  0.00     0.215 C 
ATOM     13  C   UNL A   1      30.533  26.337  25.081  1.00  0.00     0.081 C 
BRANCH  12  14
ATOM     14  C   UNL A   1      32.278  26.288  23.258  1.00  0.00     0.047 A 
ATOM     15  C   UNL A   1      33.086  27.348  23.777  1.00  0.00     0.052 A 
ATOM     16  C   UNL A   1      32.683  26.158  21.942  1.00  0.00     0.204 A 
ATOM     17  C   UNL A   1      33.904  27.766  22.755  1.00  0.00     0.195 A 
ATOM     18  O   UNL A   1      33.658  27.049  21.632  1.00  0.00    -0.472 OA
ENDBRANCH  12  14
ENDBRANCH   8  12
ENDBRANCH   7   8
ENDBRANCH   5   7
ENDBRANCH   3   5
ENDBRANCH   2   3
ENDBRANCH   1   2
BRANCH   1  19
ATOM     19  C   UNL A   1      36.879  21.067  25.451  1.00  0.00     0.275 C 
BRANCH  19  20
ATOM     20  O   UNL A   1      38.146  21.696  25.202  1.00  0.00    -0.458 OA
BRANCH  20  21
ATOM     21  C   UNL A   1      39.098  21.454  26.131  1.00  0.00     0.338 C 
ATOM     22  O   UNL A   1      39.479  20.360  26.525  1.00  0.00    -0.246 OA
BRANCH  21  23
ATOM     23  C   UNL A   1      39.745  22.711  26.526  1.00  0.00     0.060 A 
ATOM     24  C   UNL A   1      40.679  22.665  27.564  1.00  0.00     0.016 A 
ATOM     25  C   UNL A   1      39.400  23.926  25.936  1.00  0.00     0.016 A 
ATOM     26  C   UNL A   1      41.267  23.835  28.033  1.00  0.00     0.010 A 
ATOM     27  C   UNL A   1      40.001  25.101  26.399  1.00  0.00     0.010 A 
ATOM     28  C   UNL A   1      40.931  25.062  27.453  1.00  0.00    -0.014 A 
BRANCH  28  29
ATOM     29  C   UNL A   1      41.564  26.313  27.931  1.00  0.00     0.031 A 
ATOM     30  C   UNL A   1      40.744  27.347  28.644  1.00  0.00     0.074 A 
ATOM     31  C   UNL A   1      42.869  26.530  27.682  1.00  0.00     0.049 A 
ATOM     32  N   UNL A   1      41.087  28.548  29.028  1.00  0.00    -0.248 NA
ATOM     33  C   UNL A   1      39.356  26.981  28.969  1.00  0.00     0.031 C 
ATOM     34  C   UNL A   1      43.765  25.586  27.015  1.00  0.00     0.029 A 
ATOM     35  N   UNL A   1      43.656  27.624  27.931  1.00  0.00    -0.354 N 
ATOM     36  C   UNL A   1      39.952  29.098  29.610  1.00  0.00     0.074 A 
ATOM     37  C   UNL A   1      38.908  28.096  29.529  1.00  0.00     0.031 C 
ATOM     38  C   UNL A   1      44.976  26.151  26.883  1.00  0.00     0.029 A 
ATOM     39  C   UNL A   1      44.925  27.511  27.414  1.00  0.00     0.049 A 
ATOM     40  H   UNL A   1      43.344  28.414  28.430  1.00  0.00     0.167 HD
ATOM     41  C   UNL A   1      39.800  30.320  30.171  1.00  0.00     0.034 A 
ATOM     42  C   UNL A   1      45.921  28.414  27.341  1.00  0.00     0.034 A 
ATOM     43  C   UNL A   1      40.849  31.301  30.267  1.00  0.00     0.049 A 
ATOM     44  C   UNL A   1      45.704  29.789  27.909  1.00  0.00     0.074 A 
ATOM     45  C   UNL A   1      40.810  32.546  30.867  1.00  0.00     0.029 A 
ATOM     46  N   UNL A   1      42.121  31.150  29.739  1.00  0.00    -0.354 N 
ATOM     47  N   UNL A   1      44.660  30.262  28.548  1.00  0.00    -0.248 NA
ATOM     48  C   UNL A   1      46.803  30.754  27.755  1.00  0.00     0.031 C 
ATOM     49  C   UNL A   1      42.055  33.159  30.683  1.00  0.00     0.029 A 
ATOM     50  C   UNL A   1      42.872  32.289  29.978  1.00  0.00     0.049 A 
ATOM     51  H   UNL A   1      42.445  30.351  29.265  1.00  0.00     0.167 HD
ATOM     52  C   UNL A   1      44.981  31.571  28.888  1.00  0.00     0.074 A 
ATOM     53  C   UNL A   1      46.326  31.809  28.404  1.00  0.00     0.031 C 
ATOM     54  C   UNL A   1      44.224  32.497  29.525  1.00  0.00     0.034 A 
BRANCH  41  55
ATOM     55  C   UNL A   1      38.454  30.655  30.755  1.00  0.00     0.023 A 
ATOM     56  C   UNL A   1      38.161  30.275  32.080  1.00  0.00     0.012 A 
ATOM     57  C   UNL A   1      37.499  31.377  30.014  1.00  0.00     0.148 A 
ATOM     58  C   UNL A   1      36.929  30.587  32.651  1.00  0.00     0.002 A 
ATOM     59  C   UNL A   1      36.284  31.713  30.602  1.00  0.00     0.091 A 
ATOM     60  F   UNL A   1      37.783  31.702  28.745  1.00  0.00    -0.205 F 
ATOM     61  C   UNL A   1      35.994  31.313  31.917  1.00  0.00     0.022 A 
BRANCH  59  62
ATOM     62  S   UNL A   1      35.048  32.698  29.748  1.00  0.00     0.127 S 
ATOM     63  O   UNL A   1      34.604  31.776  28.704  1.00  0.00    -0.237 OA
ATOM     64  O   UNL A   1      34.062  32.946  30.801  1.00  0.00    -0.237 OA
ATOM     65  O   UNL A   1      35.745  33.890  29.285  1.00  0.00    -0.744 OA
ENDBRANCH  59  62
ENDBRANCH  41  55
BRANCH  42  66
ATOM     66  C   UNL A   1      47.221  28.032  26.721  1.00  0.00     0.023 A 
ATOM     67  C   UNL A   1      48.308  27.706  27.552  1.00  0.00     0.012 A 
ATOM     68  C   UNL A   1      47.370  27.939  25.323  1.00  0.00     0.148 A 
ATOM     69  C   UNL A   1      49.527  27.305  27.003  1.00  0.00     0.002 A 
ATOM     70  C   UNL A   1      48.570  27.490  24.783  1.00  0.00     0.091 A 
ATOM     71  F   UNL A   1      46.330  28.277  24.549  1.00  0.00    -0.205 F 
ATOM     72  C   UNL A   1      49.653  27.185  25.622  1.00  0.00     0.022 A 
BRANCH  70  73
ATOM     73  S   UNL A   1      48.779  27.183  23.026  1.00  0.00     0.127 S 
ATOM     74  O   UNL A   1      48.035  28.293  22.438  1.00  0.00    -0.237 OA
ATOM     75  O   UNL A   1      50.232  27.265  22.873  1.00  0.00    -0.237 OA
ATOM     76  O   UNL A   1      48.228  25.855  22.793  1.00  0.00    -0.744 OA
ENDBRANCH  70  73
ENDBRANCH  42  66
BRANCH  54  77
ATOM     77  C   UNL A   1      44.826  33.861  29.738  1.00  0.00     0.023 A 
ATOM     78  C   UNL A   1      45.495  34.137  30.947  1.00  0.00     0.012 A 
ATOM     79  C   UNL A   1      44.805  34.833  28.719  1.00  0.00     0.148 A 
ATOM     80  C   UNL A   1      46.118  35.368  31.146  1.00  0.00     0.002 A 
ATOM     81  C   UNL A   1      45.462  36.043  28.909  1.00  0.00     0.091 A 
ATOM     82  F   UNL A   1      44.147  34.555  27.584  1.00  0.00    -0.205 F 
ATOM     83  C   UNL A   1      46.112  36.315  30.125  1.00  0.00     0.022 A 
BRANCH  81  84
ATOM     84  S   UNL A   1      45.581  37.291  27.622  1.00  0.00     0.127 S 
ATOM     85  O   UNL A   1      46.215  36.543  26.538  1.00  0.00    -0.237 OA
ATOM     86  O   UNL A   1      44.177  37.632  27.390  1.00  0.00    -0.237 OA
ATOM     87  O   UNL A   1      46.379  38.372  28.184  1.00  0.00    -0.744 OA
ENDBRANCH  81  84
ENDBRANCH  54  77
ENDBRANCH  28  29
ENDBRANCH  21  23
ENDBRANCH  20  21
ENDBRANCH  19  20
ENDBRANCH   1  19
TORSDOF 19
ENDMDL
