MODEL 1
REMARK VINA RESULT:     -12.0      0.000      0.000
REMARK SMILES O=C(OCCOC(=O)c1ccc(NS(=O)(=O)c2ccc3c(c2)CCC3)cc1Cl)c1ccc(-c2c3nc(c(-c4cccc(S(=O)(=O)[O-])c4F)c4ccc([nH]4)c(-c4cccc(S(=O)(=O)[O-])c4F)c4nc(c(-c5cccc(S(=O)(=O)[O-])c5F)c5ccc2[nH]5)C=C4)C=C3)cc1
REMARK SMILES IDX 4 1 3 2 2 3 1 4 29 5 30 6 91 7 31 8 90 9 32 10 33 11 34 12
REMARK SMILES IDX 84 13 35 14 89 15 83 16 85 17 36 18 88 19 82 20 81 21 37 23
REMARK SMILES IDX 69 24 49 25 68 26 50 27 53 28 67 29 86 30 51 31 52 32 66 34
REMARK SMILES IDX 87 35 54 36 38 37 39 38 47 39 40 40 42 41 48 42 41 43 43 44
REMARK SMILES IDX 44 45 45 46 46 47 70 48 71 49 79 50 72 51 74 52 80 53 73 54
REMARK SMILES IDX 75 55 76 56 77 57 78 58 55 59 56 60 64 61 57 62 59 63 65 64
REMARK SMILES IDX 58 65 60 66 61 67 62 68 63 69 5 70 6 71 7 72 8 73 9 74 10 75
REMARK SMILES IDX 27 76 11 77 26 78 28 79 12 80 13 81 14 83 15 84 16 85 17 86
REMARK SMILES IDX 18 87 22 88 19 89 21 90 20 91 23 92 25 93 24 94
REMARK H PARENT 85 22 53 33 13 82
REMARK Flexibility Score: inf
ROOT
ATOM      1  C   UNL A   1      32.210  31.726  26.862  1.00  0.00     0.275 C 
ENDROOT
BRANCH   1   2
ATOM      2  O   UNL A   1      32.283  33.118  27.208  1.00  0.00    -0.458 OA
BRANCH   2   3
ATOM      3  C   UNL A   1      33.241  33.769  27.914  1.00  0.00     0.338 C 
ATOM      4  O   UNL A   1      33.155  34.993  28.016  1.00  0.00    -0.246 OA
BRANCH   3   5
ATOM      5  C   UNL A   1      34.492  33.110  28.416  1.00  0.00     0.060 A 
ATOM      6  C   UNL A   1      35.805  33.467  28.105  1.00  0.00     0.016 A 
ATOM      7  C   UNL A   1      34.307  32.064  29.340  1.00  0.00     0.016 A 
ATOM      8  C   UNL A   1      36.893  32.891  28.760  1.00  0.00     0.010 A 
ATOM      9  C   UNL A   1      35.390  31.503  30.021  1.00  0.00     0.010 A 
ATOM     10  C   UNL A   1      36.693  31.926  29.741  1.00  0.00    -0.014 A 
BRANCH  10  11
ATOM     11  C   UNL A   1      37.856  31.257  30.357  1.00  0.00     0.031 A 
ATOM     12  C   UNL A   1      38.223  31.643  31.754  1.00  0.00     0.074 A 
ATOM     13  C   UNL A   1      38.542  30.302  29.701  1.00  0.00     0.049 A 
ATOM     14  N   UNL A   1      39.183  31.184  32.505  1.00  0.00    -0.248 NA
ATOM     15  C   UNL A   1      37.372  32.656  32.405  1.00  0.00     0.031 C 
ATOM     16  C   UNL A   1      38.203  29.773  28.382  1.00  0.00     0.029 A 
ATOM     17  N   UNL A   1      39.683  29.620  30.039  1.00  0.00    -0.354 N 
ATOM     18  C   UNL A   1      39.049  31.843  33.716  1.00  0.00     0.074 A 
ATOM     19  C   UNL A   1      37.951  32.773  33.587  1.00  0.00     0.031 C 
ATOM     20  C   UNL A   1      39.164  28.925  27.979  1.00  0.00     0.029 A 
ATOM     21  C   UNL A   1      40.176  28.834  29.022  1.00  0.00     0.049 A 
ATOM     22  H   UNL A   1      40.108  29.687  30.925  1.00  0.00     0.167 HD
ATOM     23  C   UNL A   1      39.757  31.658  34.851  1.00  0.00     0.034 A 
ATOM     24  C   UNL A   1      41.322  28.131  28.945  1.00  0.00     0.034 A 
ATOM     25  C   UNL A   1      40.850  30.738  34.958  1.00  0.00     0.049 A 
ATOM     26  C   UNL A   1      42.179  28.046  30.180  1.00  0.00     0.074 A 
ATOM     27  C   UNL A   1      41.628  30.451  36.062  1.00  0.00     0.029 A 
ATOM     28  N   UNL A   1      41.340  29.979  33.906  1.00  0.00    -0.354 N 
ATOM     29  N   UNL A   1      41.971  28.583  31.358  1.00  0.00    -0.248 NA
ATOM     30  C   UNL A   1      43.384  27.210  30.103  1.00  0.00     0.031 C 
ATOM     31  C   UNL A   1      42.620  29.550  35.664  1.00  0.00     0.029 A 
ATOM     32  C   UNL A   1      42.431  29.241  34.324  1.00  0.00     0.049 A 
ATOM     33  H   UNL A   1      40.966  29.966  32.995  1.00  0.00     0.167 HD
ATOM     34  C   UNL A   1      42.979  28.101  32.181  1.00  0.00     0.074 A 
ATOM     35  C   UNL A   1      43.800  27.231  31.363  1.00  0.00     0.031 C 
ATOM     36  C   UNL A   1      43.200  28.348  33.496  1.00  0.00     0.034 A 
BRANCH  23  37
ATOM     37  C   UNL A   1      39.353  32.479  36.042  1.00  0.00     0.023 A 
ATOM     38  C   UNL A   1      38.439  31.958  36.981  1.00  0.00     0.012 A 
ATOM     39  C   UNL A   1      39.860  33.779  36.213  1.00  0.00     0.148 A 
ATOM     40  C   UNL A   1      38.002  32.736  38.051  1.00  0.00     0.002 A 
ATOM     41  C   UNL A   1      39.456  34.532  37.307  1.00  0.00     0.091 A 
ATOM     42  F   UNL A   1      40.702  34.263  35.290  1.00  0.00    -0.205 F 
ATOM     43  C   UNL A   1      38.516  34.020  38.217  1.00  0.00     0.022 A 
BRANCH  41  44
ATOM     44  S   UNL A   1      40.104  36.170  37.644  1.00  0.00     0.127 S 
ATOM     45  O   UNL A   1      39.893  36.840  36.361  1.00  0.00    -0.237 OA
ATOM     46  O   UNL A   1      39.227  36.626  38.723  1.00  0.00    -0.237 OA
ATOM     47  O   UNL A   1      41.496  35.984  38.025  1.00  0.00    -0.744 OA
ENDBRANCH  41  44
ENDBRANCH  23  37
BRANCH  24  48
ATOM     48  C   UNL A   1      41.705  27.433  27.684  1.00  0.00     0.023 A 
ATOM     49  C   UNL A   1      42.088  28.174  26.550  1.00  0.00     0.012 A 
ATOM     50  C   UNL A   1      41.677  26.026  27.605  1.00  0.00     0.148 A 
ATOM     51  C   UNL A   1      42.396  27.531  25.349  1.00  0.00     0.002 A 
ATOM     52  C   UNL A   1      42.020  25.390  26.417  1.00  0.00     0.091 A 
ATOM     53  F   UNL A   1      41.317  25.338  28.698  1.00  0.00    -0.205 F 
ATOM     54  C   UNL A   1      42.364  26.140  25.282  1.00  0.00     0.022 A 
BRANCH  52  55
ATOM     55  S   UNL A   1      42.102  23.602  26.269  1.00  0.00     0.127 S 
ATOM     56  O   UNL A   1      42.675  23.439  24.936  1.00  0.00    -0.237 OA
ATOM     57  O   UNL A   1      42.994  23.249  27.374  1.00  0.00    -0.237 OA
ATOM     58  O   UNL A   1      40.729  23.140  26.434  1.00  0.00    -0.744 OA
ENDBRANCH  52  55
ENDBRANCH  24  48
BRANCH  36  59
ATOM     59  C   UNL A   1      44.345  27.628  34.153  1.00  0.00     0.023 A 
ATOM     60  C   UNL A   1      45.637  28.186  34.131  1.00  0.00     0.012 A 
ATOM     61  C   UNL A   1      44.107  26.446  34.881  1.00  0.00     0.148 A 
ATOM     62  C   UNL A   1      46.683  27.562  34.807  1.00  0.00     0.002 A 
ATOM     63  C   UNL A   1      45.140  25.863  35.601  1.00  0.00     0.091 A 
ATOM     64  F   UNL A   1      42.871  25.926  34.870  1.00  0.00    -0.205 F 
ATOM     65  C   UNL A   1      46.432  26.412  35.553  1.00  0.00     0.022 A 
BRANCH  63  66
ATOM     66  S   UNL A   1      44.883  24.452  36.679  1.00  0.00     0.127 S 
ATOM     67  O   UNL A   1      44.417  23.438  35.735  1.00  0.00    -0.237 OA
ATOM     68  O   UNL A   1      46.227  24.221  37.209  1.00  0.00    -0.237 OA
ATOM     69  O   UNL A   1      43.904  24.874  37.673  1.00  0.00    -0.744 OA
ENDBRANCH  63  66
ENDBRANCH  36  59
ENDBRANCH  10  11
ENDBRANCH   3   5
ENDBRANCH   2   3
ENDBRANCH   1   2
BRANCH   1  70
ATOM     70  C   UNL A   1      31.069  31.385  25.895  1.00  0.00     0.275 C 
BRANCH  70  71
ATOM     71  O   UNL A   1      31.322  30.217  25.094  1.00  0.00    -0.458 OA
BRANCH  71  72
ATOM     72  C   UNL A   1      30.450  29.991  24.072  1.00  0.00     0.339 C 
ATOM     73  O   UNL A   1      29.529  30.709  23.724  1.00  0.00    -0.246 OA
BRANCH  72  74
ATOM     74  C   UNL A   1      30.945  28.857  23.272  1.00  0.00     0.078 A 
ATOM     75  C   UNL A   1      32.284  28.920  22.916  1.00  0.00     0.019 A 
ATOM     76  C   UNL A   1      30.205  27.717  22.955  1.00  0.00     0.057 A 
ATOM     77  C   UNL A   1      32.903  27.785  22.395  1.00  0.00     0.028 A 
ATOM     78  C   UNL A   1      30.830  26.612  22.330  1.00  0.00     0.048 A 
ATOM     79  Cl  UNL A   1      28.537  27.597  23.381  1.00  0.00    -0.083 Cl
ATOM     80  C   UNL A   1      32.204  26.623  22.079  1.00  0.00     0.050 A 
BRANCH  80  81
ATOM     81  N   UNL A   1      32.908  25.403  21.789  1.00  0.00    -0.280 N 
ATOM     82  H   UNL A   1      33.122  25.201  20.850  1.00  0.00     0.180 HD
BRANCH  81  83
ATOM     83  S   UNL A   1      33.394  24.290  22.984  1.00  0.00     0.261 S 
ATOM     84  O   UNL A   1      32.519  23.145  22.877  1.00  0.00    -0.201 OA
ATOM     85  O   UNL A   1      34.834  24.138  22.911  1.00  0.00    -0.201 OA
BRANCH  83  86
ATOM     86  C   UNL A   1      33.029  25.068  24.546  1.00  0.00     0.088 A 
ATOM     87  C   UNL A   1      31.799  24.842  25.192  1.00  0.00     0.022 A 
ATOM     88  C   UNL A   1      33.930  26.041  25.004  1.00  0.00     0.026 A 
ATOM     89  C   UNL A   1      31.402  25.687  26.237  1.00  0.00     0.005 A 
ATOM     90  C   UNL A   1      33.488  26.908  25.986  1.00  0.00    -0.043 A 
ATOM     91  C   UNL A   1      32.235  26.742  26.589  1.00  0.00    -0.045 A 
ATOM     92  C   UNL A   1      34.102  28.219  26.360  1.00  0.00     0.036 C 
ATOM     93  C   UNL A   1      31.922  27.910  27.474  1.00  0.00     0.036 C 
ATOM     94  C   UNL A   1      33.301  28.577  27.615  1.00  0.00     0.010 C 
ENDBRANCH  83  86
ENDBRANCH  81  83
ENDBRANCH  80  81
ENDBRANCH  72  74
ENDBRANCH  71  72
ENDBRANCH  70  71
ENDBRANCH   1  70
TORSDOF 17
ENDMDL
MODEL 2
REMARK VINA RESULT:     -11.9      2.326      3.218
REMARK SMILES O=C(OCCOC(=O)c1ccc(NS(=O)(=O)c2ccc3c(c2)CCC3)cc1Cl)c1ccc(-c2c3nc(c(-c4cccc(S(=O)(=O)[O-])c4F)c4ccc([nH]4)c(-c4cccc(S(=O)(=O)[O-])c4F)c4nc(c(-c5cccc(S(=O)(=O)[O-])c5F)c5ccc2[nH]5)C=C4)C=C3)cc1
REMARK SMILES IDX 4 1 3 2 2 3 1 4 29 5 30 6 91 7 31 8 90 9 32 10 33 11 34 12
REMARK SMILES IDX 84 13 35 14 89 15 83 16 85 17 36 18 88 19 82 20 81 21 37 23
REMARK SMILES IDX 69 24 49 25 68 26 50 27 53 28 67 29 86 30 51 31 52 32 66 34
REMARK SMILES IDX 87 35 54 36 38 37 39 38 47 39 40 40 42 41 48 42 41 43 43 44
REMARK SMILES IDX 44 45 45 46 46 47 70 48 71 49 79 50 72 51 74 52 80 53 73 54
REMARK SMILES IDX 75 55 76 56 77 57 78 58 55 59 56 60 64 61 57 62 59 63 65 64
REMARK SMILES IDX 58 65 60 66 61 67 62 68 63 69 5 70 6 71 7 72 8 73 9 74 10 75
REMARK SMILES IDX 27 76 11 77 26 78 28 79 12 80 13 81 14 83 15 84 16 85 17 86
REMARK SMILES IDX 18 87 22 88 19 89 21 90 20 91 23 92 25 93 24 94
REMARK H PARENT 85 22 53 33 13 82
REMARK Flexibility Score: inf
ROOT
ATOM      1  C   UNL A   1      31.929  33.060  26.666  1.00  0.00     0.275 C 
ENDROOT
BRANCH   1   2
ATOM      2  O   UNL A   1      32.166  33.678  27.941  1.00  0.00    -0.458 OA
BRANCH   2   3
ATOM      3  C   UNL A   1      33.270  34.336  28.373  1.00  0.00     0.338 C 
ATOM      4  O   UNL A   1      33.313  35.557  28.222  1.00  0.00    -0.246 OA
BRANCH   3   5
ATOM      5  C   UNL A   1      34.513  33.644  28.852  1.00  0.00     0.060 A 
ATOM      6  C   UNL A   1      35.831  34.024  28.592  1.00  0.00     0.016 A 
ATOM      7  C   UNL A   1      34.312  32.537  29.697  1.00  0.00     0.016 A 
ATOM      8  C   UNL A   1      36.907  33.404  29.226  1.00  0.00     0.010 A 
ATOM      9  C   UNL A   1      35.383  31.931  30.358  1.00  0.00     0.010 A 
ATOM     10  C   UNL A   1      36.691  32.373  30.133  1.00  0.00    -0.014 A 
BRANCH  10  11
ATOM     11  C   UNL A   1      37.843  31.663  30.723  1.00  0.00     0.031 A 
ATOM     12  C   UNL A   1      38.216  31.993  32.133  1.00  0.00     0.074 A 
ATOM     13  C   UNL A   1      38.513  30.722  30.032  1.00  0.00     0.049 A 
ATOM     14  N   UNL A   1      39.170  31.491  32.865  1.00  0.00    -0.248 NA
ATOM     15  C   UNL A   1      37.383  32.995  32.821  1.00  0.00     0.031 C 
ATOM     16  C   UNL A   1      38.165  30.247  28.695  1.00  0.00     0.029 A 
ATOM     17  N   UNL A   1      39.643  30.010  30.344  1.00  0.00    -0.354 N 
ATOM     18  C   UNL A   1      39.047  32.109  34.100  1.00  0.00     0.074 A 
ATOM     19  C   UNL A   1      37.964  33.060  34.006  1.00  0.00     0.031 C 
ATOM     20  C   UNL A   1      39.112  29.399  28.260  1.00  0.00     0.029 A 
ATOM     21  C   UNL A   1      40.123  29.253  29.298  1.00  0.00     0.049 A 
ATOM     22  H   UNL A   1      40.070  30.038  31.231  1.00  0.00     0.167 HD
ATOM     23  C   UNL A   1      39.752  31.871  35.227  1.00  0.00     0.034 A 
ATOM     24  C   UNL A   1      41.257  28.536  29.195  1.00  0.00     0.034 A 
ATOM     25  C   UNL A   1      40.831  30.930  35.299  1.00  0.00     0.049 A 
ATOM     26  C   UNL A   1      42.113  28.392  30.425  1.00  0.00     0.074 A 
ATOM     27  C   UNL A   1      41.605  30.591  36.391  1.00  0.00     0.029 A 
ATOM     28  N   UNL A   1      41.308  30.202  34.219  1.00  0.00    -0.354 N 
ATOM     29  N   UNL A   1      41.915  28.890  31.622  1.00  0.00    -0.248 NA
ATOM     30  C   UNL A   1      43.305  27.541  30.317  1.00  0.00     0.031 C 
ATOM     31  C   UNL A   1      42.582  29.689  35.959  1.00  0.00     0.029 A 
ATOM     32  C   UNL A   1      42.387  29.432  34.609  1.00  0.00     0.049 A 
ATOM     33  H   UNL A   1      40.933  30.229  33.310  1.00  0.00     0.167 HD
ATOM     34  C   UNL A   1      42.915  28.362  32.426  1.00  0.00     0.074 A 
ATOM     35  C   UNL A   1      43.723  27.509  31.576  1.00  0.00     0.031 C 
ATOM     36  C   UNL A   1      43.142  28.557  33.748  1.00  0.00     0.034 A 
BRANCH  23  37
ATOM     37  C   UNL A   1      39.363  32.654  36.447  1.00  0.00     0.023 A 
ATOM     38  C   UNL A   1      39.996  33.882  36.729  1.00  0.00     0.012 A 
ATOM     39  C   UNL A   1      38.388  32.157  37.330  1.00  0.00     0.148 A 
ATOM     40  C   UNL A   1      39.696  34.583  37.895  1.00  0.00     0.002 A 
ATOM     41  C   UNL A   1      38.060  32.883  38.466  1.00  0.00     0.091 A 
ATOM     42  F   UNL A   1      37.824  30.972  37.056  1.00  0.00    -0.205 F 
ATOM     43  C   UNL A   1      38.723  34.087  38.759  1.00  0.00     0.022 A 
BRANCH  41  44
ATOM     44  S   UNL A   1      36.780  32.362  39.609  1.00  0.00     0.127 S 
ATOM     45  O   UNL A   1      37.252  31.031  39.991  1.00  0.00    -0.237 OA
ATOM     46  O   UNL A   1      36.884  33.373  40.661  1.00  0.00    -0.237 OA
ATOM     47  O   UNL A   1      35.533  32.386  38.859  1.00  0.00    -0.744 OA
ENDBRANCH  41  44
ENDBRANCH  23  37
BRANCH  24  48
ATOM     48  C   UNL A   1      41.629  27.878  27.909  1.00  0.00     0.023 A 
ATOM     49  C   UNL A   1      42.030  28.653  26.804  1.00  0.00     0.012 A 
ATOM     50  C   UNL A   1      41.571  26.476  27.777  1.00  0.00     0.148 A 
ATOM     51  C   UNL A   1      42.326  28.049  25.580  1.00  0.00     0.002 A 
ATOM     52  C   UNL A   1      41.903  25.878  26.566  1.00  0.00     0.091 A 
ATOM     53  F   UNL A   1      41.194  25.754  28.843  1.00  0.00    -0.205 F 
ATOM     54  C   UNL A   1      42.266  26.663  25.461  1.00  0.00     0.022 A 
BRANCH  52  55
ATOM     55  S   UNL A   1      41.948  24.095  26.351  1.00  0.00     0.127 S 
ATOM     56  O   UNL A   1      40.527  23.758  26.373  1.00  0.00    -0.237 OA
ATOM     57  O   UNL A   1      42.595  23.965  25.046  1.00  0.00    -0.237 OA
ATOM     58  O   UNL A   1      42.739  23.594  27.467  1.00  0.00    -0.744 OA
ENDBRANCH  52  55
ENDBRANCH  24  48
BRANCH  36  59
ATOM     59  C   UNL A   1      44.275  27.796  34.378  1.00  0.00     0.023 A 
ATOM     60  C   UNL A   1      45.569  28.349  34.406  1.00  0.00     0.012 A 
ATOM     61  C   UNL A   1      44.023  26.575  35.032  1.00  0.00     0.148 A 
ATOM     62  C   UNL A   1      46.604  27.683  35.058  1.00  0.00     0.002 A 
ATOM     63  C   UNL A   1      45.045  25.947  35.730  1.00  0.00     0.091 A 
ATOM     64  F   UNL A   1      42.786  26.060  34.974  1.00  0.00    -0.205 F 
ATOM     65  C   UNL A   1      46.339  26.492  35.732  1.00  0.00     0.022 A 
BRANCH  63  66
ATOM     66  S   UNL A   1      44.769  24.476  36.721  1.00  0.00     0.127 S 
ATOM     67  O   UNL A   1      46.105  24.225  37.259  1.00  0.00    -0.237 OA
ATOM     68  O   UNL A   1      43.792  24.946  37.704  1.00  0.00    -0.237 OA
ATOM     69  O   UNL A   1      44.267  23.459  35.805  1.00  0.00    -0.744 OA
ENDBRANCH  63  66
ENDBRANCH  36  59
ENDBRANCH  10  11
ENDBRANCH   3   5
ENDBRANCH   2   3
ENDBRANCH   1   2
BRANCH   1  70
ATOM     70  C   UNL A   1      31.349  31.643  26.759  1.00  0.00     0.275 C 
BRANCH  70  71
ATOM     71  O   UNL A   1      31.865  30.742  25.764  1.00  0.00    -0.458 OA
BRANCH  71  72
ATOM     72  C   UNL A   1      33.018  30.091  26.085  1.00  0.00     0.339 C 
ATOM     73  O   UNL A   1      33.862  30.452  26.887  1.00  0.00    -0.246 OA
BRANCH  72  74
ATOM     74  C   UNL A   1      32.974  28.739  25.503  1.00  0.00     0.078 A 
ATOM     75  C   UNL A   1      33.605  28.597  24.277  1.00  0.00     0.019 A 
ATOM     76  C   UNL A   1      32.450  27.611  26.137  1.00  0.00     0.057 A 
ATOM     77  C   UNL A   1      33.846  27.318  23.779  1.00  0.00     0.028 A 
ATOM     78  C   UNL A   1      32.613  26.328  25.562  1.00  0.00     0.048 A 
ATOM     79  Cl  UNL A   1      31.657  27.742  27.665  1.00  0.00    -0.083 Cl
ATOM     80  C   UNL A   1      33.354  26.167  24.388  1.00  0.00     0.050 A 
BRANCH  80  81
ATOM     81  N   UNL A   1      33.833  24.870  23.994  1.00  0.00    -0.280 N 
ATOM     82  H   UNL A   1      34.732  24.597  24.286  1.00  0.00     0.180 HD
BRANCH  81  83
ATOM     83  S   UNL A   1      32.926  23.777  23.052  1.00  0.00     0.261 S 
ATOM     84  O   UNL A   1      31.534  24.117  23.233  1.00  0.00    -0.201 OA
ATOM     85  O   UNL A   1      33.514  23.716  21.728  1.00  0.00    -0.201 OA
BRANCH  83  86
ATOM     86  C   UNL A   1      33.165  22.178  23.804  1.00  0.00     0.088 A 
ATOM     87  C   UNL A   1      34.266  21.937  24.647  1.00  0.00     0.022 A 
ATOM     88  C   UNL A   1      32.324  21.138  23.380  1.00  0.00     0.026 A 
ATOM     89  C   UNL A   1      34.611  20.618  24.972  1.00  0.00     0.005 A 
ATOM     90  C   UNL A   1      32.725  19.844  23.651  1.00  0.00    -0.043 A 
ATOM     91  C   UNL A   1      33.860  19.584  24.428  1.00  0.00    -0.045 A 
ATOM     92  C   UNL A   1      32.215  18.598  23.000  1.00  0.00     0.036 C 
ATOM     93  C   UNL A   1      34.181  18.120  24.413  1.00  0.00     0.036 C 
ATOM     94  C   UNL A   1      32.877  17.518  23.860  1.00  0.00     0.010 C 
ENDBRANCH  83  86
ENDBRANCH  81  83
ENDBRANCH  80  81
ENDBRANCH  72  74
ENDBRANCH  71  72
ENDBRANCH  70  71
ENDBRANCH   1  70
TORSDOF 17
ENDMDL
MODEL 3
REMARK VINA RESULT:     -11.8      1.702      2.317
REMARK SMILES O=C(OCCOC(=O)c1ccc(NS(=O)(=O)c2ccc3c(c2)CCC3)cc1Cl)c1ccc(-c2c3nc(c(-c4cccc(S(=O)(=O)[O-])c4F)c4ccc([nH]4)c(-c4cccc(S(=O)(=O)[O-])c4F)c4nc(c(-c5cccc(S(=O)(=O)[O-])c5F)c5ccc2[nH]5)C=C4)C=C3)cc1
REMARK SMILES IDX 4 1 3 2 2 3 1 4 29 5 30 6 91 7 31 8 90 9 32 10 33 11 34 12
REMARK SMILES IDX 84 13 35 14 89 15 83 16 85 17 36 18 88 19 82 20 81 21 37 23
REMARK SMILES IDX 69 24 49 25 68 26 50 27 53 28 67 29 86 30 51 31 52 32 66 34
REMARK SMILES IDX 87 35 54 36 38 37 39 38 47 39 40 40 42 41 48 42 41 43 43 44
REMARK SMILES IDX 44 45 45 46 46 47 70 48 71 49 79 50 72 51 74 52 80 53 73 54
REMARK SMILES IDX 75 55 76 56 77 57 78 58 55 59 56 60 64 61 57 62 59 63 65 64
REMARK SMILES IDX 58 65 60 66 61 67 62 68 63 69 5 70 6 71 7 72 8 73 9 74 10 75
REMARK SMILES IDX 27 76 11 77 26 78 28 79 12 80 13 81 14 83 15 84 16 85 17 86
REMARK SMILES IDX 18 87 22 88 19 89 21 90 20 91 23 92 25 93 24 94
REMARK H PARENT 85 22 53 33 13 82
REMARK Flexibility Score: inf
ROOT
ATOM      1  C   UNL A   1      31.909  33.194  26.808  1.00  0.00     0.275 C 
ENDROOT
BRANCH   1   2
ATOM      2  O   UNL A   1      32.684  33.618  27.941  1.00  0.00    -0.458 OA
BRANCH   2   3
ATOM      3  C   UNL A   1      33.982  34.006  27.985  1.00  0.00     0.338 C 
ATOM      4  O   UNL A   1      34.332  34.940  27.264  1.00  0.00    -0.246 OA
BRANCH   3   5
ATOM      5  C   UNL A   1      35.049  33.247  28.717  1.00  0.00     0.060 A 
ATOM      6  C   UNL A   1      34.868  32.122  29.524  1.00  0.00     0.016 A 
ATOM      7  C   UNL A   1      36.369  33.690  28.510  1.00  0.00     0.016 A 
ATOM      8  C   UNL A   1      35.952  31.397  30.019  1.00  0.00     0.010 A 
ATOM      9  C   UNL A   1      37.460  32.952  28.979  1.00  0.00     0.010 A 
ATOM     10  C   UNL A   1      37.253  31.790  29.728  1.00  0.00    -0.014 A 
BRANCH  10  11
ATOM     11  C   UNL A   1      38.389  31.071  30.339  1.00  0.00     0.031 A 
ATOM     12  C   UNL A   1      38.818  31.485  31.710  1.00  0.00     0.074 A 
ATOM     13  C   UNL A   1      38.995  30.051  29.703  1.00  0.00     0.049 A 
ATOM     14  N   UNL A   1      39.768  30.993  32.453  1.00  0.00    -0.248 NA
ATOM     15  C   UNL A   1      38.051  32.572  32.344  1.00  0.00     0.031 C 
ATOM     16  C   UNL A   1      38.587  29.497  28.414  1.00  0.00     0.029 A 
ATOM     17  N   UNL A   1      40.100  29.311  30.038  1.00  0.00    -0.354 N 
ATOM     18  C   UNL A   1      39.710  31.704  33.642  1.00  0.00     0.074 A 
ATOM     19  C   UNL A   1      38.669  32.696  33.505  1.00  0.00     0.031 C 
ATOM     20  C   UNL A   1      39.481  28.575  28.019  1.00  0.00     0.029 A 
ATOM     21  C   UNL A   1      40.515  28.458  29.039  1.00  0.00     0.049 A 
ATOM     22  H   UNL A   1      40.554  29.383  30.909  1.00  0.00     0.167 HD
ATOM     23  C   UNL A   1      40.436  31.515  34.764  1.00  0.00     0.034 A 
ATOM     24  C   UNL A   1      41.611  27.681  28.960  1.00  0.00     0.034 A 
ATOM     25  C   UNL A   1      41.473  30.532  34.879  1.00  0.00     0.049 A 
ATOM     26  C   UNL A   1      42.495  27.588  30.175  1.00  0.00     0.074 A 
ATOM     27  C   UNL A   1      42.262  30.237  35.972  1.00  0.00     0.029 A 
ATOM     28  N   UNL A   1      41.884  29.705  33.844  1.00  0.00    -0.354 N 
ATOM     29  N   UNL A   1      42.355  28.180  31.336  1.00  0.00    -0.248 NA
ATOM     30  C   UNL A   1      43.643  26.674  30.099  1.00  0.00     0.031 C 
ATOM     31  C   UNL A   1      43.184  29.261  35.584  1.00  0.00     0.029 A 
ATOM     32  C   UNL A   1      42.938  28.916  34.262  1.00  0.00     0.049 A 
ATOM     33  H   UNL A   1      41.485  29.683  32.945  1.00  0.00     0.167 HD
ATOM     34  C   UNL A   1      43.353  27.665  32.151  1.00  0.00     0.074 A 
ATOM     35  C   UNL A   1      44.096  26.715  31.346  1.00  0.00     0.031 C 
ATOM     36  C   UNL A   1      43.627  27.945  33.449  1.00  0.00     0.034 A 
BRANCH  23  37
ATOM     37  C   UNL A   1      40.119  32.403  35.933  1.00  0.00     0.023 A 
ATOM     38  C   UNL A   1      40.891  33.559  36.171  1.00  0.00     0.012 A 
ATOM     39  C   UNL A   1      39.071  32.074  36.811  1.00  0.00     0.148 A 
ATOM     40  C   UNL A   1      40.653  34.352  37.292  1.00  0.00     0.002 A 
ATOM     41  C   UNL A   1      38.809  32.894  37.900  1.00  0.00     0.091 A 
ATOM     42  F   UNL A   1      38.373  30.953  36.581  1.00  0.00    -0.205 F 
ATOM     43  C   UNL A   1      39.608  34.022  38.152  1.00  0.00     0.022 A 
BRANCH  41  44
ATOM     44  S   UNL A   1      37.451  32.592  39.032  1.00  0.00     0.127 S 
ATOM     45  O   UNL A   1      37.757  31.242  39.505  1.00  0.00    -0.237 OA
ATOM     46  O   UNL A   1      37.645  33.647  40.026  1.00  0.00    -0.237 OA
ATOM     47  O   UNL A   1      36.233  32.712  38.242  1.00  0.00    -0.744 OA
ENDBRANCH  41  44
ENDBRANCH  23  37
BRANCH  24  48
ATOM     48  C   UNL A   1      41.914  26.915  27.717  1.00  0.00     0.023 A 
ATOM     49  C   UNL A   1      42.411  27.576  26.578  1.00  0.00     0.012 A 
ATOM     50  C   UNL A   1      41.696  25.523  27.661  1.00  0.00     0.148 A 
ATOM     51  C   UNL A   1      42.646  26.874  25.393  1.00  0.00     0.002 A 
ATOM     52  C   UNL A   1      41.968  24.825  26.489  1.00  0.00     0.091 A 
ATOM     53  F   UNL A   1      41.230  24.911  28.759  1.00  0.00    -0.205 F 
ATOM     54  C   UNL A   1      42.427  25.500  25.348  1.00  0.00     0.022 A 
BRANCH  52  55
ATOM     55  S   UNL A   1      41.808  23.039  26.373  1.00  0.00     0.127 S 
ATOM     56  O   UNL A   1      42.456  22.766  25.093  1.00  0.00    -0.237 OA
ATOM     57  O   UNL A   1      42.551  22.593  27.551  1.00  0.00    -0.237 OA
ATOM     58  O   UNL A   1      40.375  22.778  26.431  1.00  0.00    -0.744 OA
ENDBRANCH  52  55
ENDBRANCH  24  48
BRANCH  36  59
ATOM     59  C   UNL A   1      44.742  27.179  34.104  1.00  0.00     0.023 A 
ATOM     60  C   UNL A   1      46.070  27.634  33.998  1.00  0.00     0.012 A 
ATOM     61  C   UNL A   1      44.449  26.063  34.912  1.00  0.00     0.148 A 
ATOM     62  C   UNL A   1      47.095  26.971  34.669  1.00  0.00     0.002 A 
ATOM     63  C   UNL A   1      45.466  25.445  35.625  1.00  0.00     0.091 A 
ATOM     64  F   UNL A   1      43.178  25.640  34.980  1.00  0.00    -0.205 F 
ATOM     65  C   UNL A   1      46.792  25.889  35.493  1.00  0.00     0.022 A 
BRANCH  63  66
ATOM     66  S   UNL A   1      45.152  24.123  36.796  1.00  0.00     0.127 S 
ATOM     67  O   UNL A   1      44.837  23.006  35.907  1.00  0.00    -0.237 OA
ATOM     68  O   UNL A   1      46.437  24.011  37.486  1.00  0.00    -0.237 OA
ATOM     69  O   UNL A   1      44.051  24.578  37.636  1.00  0.00    -0.744 OA
ENDBRANCH  63  66
ENDBRANCH  36  59
ENDBRANCH  10  11
ENDBRANCH   3   5
ENDBRANCH   2   3
ENDBRANCH   1   2
BRANCH   1  70
ATOM     70  C   UNL A   1      31.437  31.736  26.887  1.00  0.00     0.275 C 
BRANCH  70  71
ATOM     71  O   UNL A   1      32.511  30.780  26.842  1.00  0.00    -0.458 OA
BRANCH  71  72
ATOM     72  C   UNL A   1      32.152  29.486  26.613  1.00  0.00     0.339 C 
ATOM     73  O   UNL A   1      31.456  28.783  27.326  1.00  0.00    -0.246 OA
BRANCH  72  74
ATOM     74  C   UNL A   1      32.520  29.132  25.231  1.00  0.00     0.078 A 
ATOM     75  C   UNL A   1      33.740  28.490  25.085  1.00  0.00     0.019 A 
ATOM     76  C   UNL A   1      31.697  29.300  24.115  1.00  0.00     0.057 A 
ATOM     77  C   UNL A   1      34.049  27.885  23.869  1.00  0.00     0.028 A 
ATOM     78  C   UNL A   1      32.079  28.768  22.861  1.00  0.00     0.048 A 
ATOM     79  Cl  UNL A   1      30.170  30.093  24.253  1.00  0.00    -0.083 Cl
ATOM     80  C   UNL A   1      33.249  28.016  22.737  1.00  0.00     0.050 A 
BRANCH  80  81
ATOM     81  N   UNL A   1      33.465  27.178  21.588  1.00  0.00    -0.280 N 
ATOM     82  H   UNL A   1      34.182  27.424  20.960  1.00  0.00     0.180 HD
BRANCH  81  83
ATOM     83  S   UNL A   1      32.548  25.780  21.256  1.00  0.00     0.261 S 
ATOM     84  O   UNL A   1      31.161  26.183  21.223  1.00  0.00    -0.201 OA
ATOM     85  O   UNL A   1      33.153  25.091  20.134  1.00  0.00    -0.201 OA
BRANCH  83  86
ATOM     86  C   UNL A   1      32.741  24.727  22.682  1.00  0.00     0.088 A 
ATOM     87  C   UNL A   1      31.871  24.841  23.782  1.00  0.00     0.022 A 
ATOM     88  C   UNL A   1      33.888  23.921  22.734  1.00  0.00     0.026 A 
ATOM     89  C   UNL A   1      32.217  24.241  25.001  1.00  0.00     0.005 A 
ATOM     90  C   UNL A   1      34.247  23.402  23.964  1.00  0.00    -0.043 A 
ATOM     91  C   UNL A   1      33.428  23.567  25.087  1.00  0.00    -0.045 A 
ATOM     92  C   UNL A   1      35.583  22.846  24.341  1.00  0.00     0.036 C 
ATOM     93  C   UNL A   1      34.127  23.079  26.320  1.00  0.00     0.036 C 
ATOM     94  C   UNL A   1      35.283  22.258  25.723  1.00  0.00     0.010 C 
ENDBRANCH  83  86
ENDBRANCH  81  83
ENDBRANCH  80  81
ENDBRANCH  72  74
ENDBRANCH  71  72
ENDBRANCH  70  71
ENDBRANCH   1  70
TORSDOF 17
ENDMDL
