MODEL 1
REMARK VINA RESULT:     -12.0      0.000      0.000
REMARK SMILES CSc1ccc(C=C2C(C)=C(CC(=O)OCCOC(=O)c3ccc(-c4c5nc(c(-c6cccc(S(=O)(=O)[O-])c6F)c6ccc([nH]6)c(-c6cccc(S(=O)(=O)[O-])c6F)c6nc(c(-c7cccc(S(=O)(=O)[O-])c7F)c7ccc4[nH]7)C=C6)C=C5)cc3)c3cc(F)ccc32)cc1
REMARK SMILES IDX 16 1 15 2 13 3 14 4 12 5 11 6 7 7 8 8 9 9 90 10 10 11 84 12
REMARK SMILES IDX 89 13 85 14 88 15 86 16 87 17 6 18 3 19 4 20 92 21 5 22
REMARK SMILES IDX 91 23 2 24 1 25 17 26 18 27 19 28 20 29 21 30 22 31 83 32
REMARK SMILES IDX 23 33 82 34 24 35 25 36 26 37 76 38 27 39 81 40 75 41 77 42
REMARK SMILES IDX 28 43 80 44 74 45 73 46 29 48 61 49 41 50 60 51 42 52 45 53
REMARK SMILES IDX 59 54 78 55 43 56 44 57 58 59 79 60 46 61 30 62 31 63 39 64
REMARK SMILES IDX 32 65 34 66 40 67 33 68 35 69 36 70 37 71 38 72 62 73 63 74
REMARK SMILES IDX 71 75 64 76 66 77 72 78 65 79 67 80 68 81 69 82 70 83 47 84
REMARK SMILES IDX 48 85 56 86 49 87 51 88 57 89 50 90 52 91 53 92 54 93 55 94
REMARK H PARENT 77 47 45 58
REMARK Flexibility Score: inf
ROOT
ATOM      1  C   UNL A   1      32.304  31.075  26.512  1.00  0.00     0.274 C 
ENDROOT
BRANCH   1   2
ATOM      2  O   UNL A   1      32.954  30.124  27.392  1.00  0.00    -0.462 OA
BRANCH   2   3
ATOM      3  C   UNL A   1      33.280  28.908  26.866  1.00  0.00     0.310 C 
ATOM      4  O   UNL A   1      34.398  28.397  26.931  1.00  0.00    -0.252 OA
BRANCH   3   5
ATOM      5  C   UNL A   1      32.053  28.177  26.295  1.00  0.00     0.159 C 
BRANCH   5   6
ATOM      6  C   UNL A   1      31.995  27.950  24.727  1.00  0.00    -0.025 C 
ATOM      7  C   UNL A   1      31.911  24.925  25.139  1.00  0.00     0.017 C 
ATOM      8  C   UNL A   1      30.961  25.920  24.847  1.00  0.00    -0.014 C 
ATOM      9  C   UNL A   1      31.934  26.760  24.058  1.00  0.00    -0.039 C 
ATOM     10  C   UNL A   1      29.881  27.106  24.449  1.00  0.00    -0.010 A 
ATOM     11  C   UNL A   1      31.545  26.387  22.537  1.00  0.00     0.045 C 
ATOM     12  C   UNL A   1      30.668  28.282  24.270  1.00  0.00    -0.011 A 
ATOM     13  C   UNL A   1      28.712  27.131  23.663  1.00  0.00     0.012 A 
ATOM     14  C   UNL A   1      30.437  29.361  23.409  1.00  0.00     0.048 A 
ATOM     15  C   UNL A   1      28.389  28.297  22.862  1.00  0.00     0.040 A 
ATOM     16  C   UNL A   1      29.236  29.407  22.771  1.00  0.00     0.123 A 
ATOM     17  F   UNL A   1      28.954  30.462  21.994  1.00  0.00    -0.207 F 
BRANCH   7  18
ATOM     18  C   UNL A   1      33.201  24.353  24.364  1.00  0.00    -0.025 A 
ATOM     19  C   UNL A   1      34.996  22.210  24.654  1.00  0.00     0.007 A 
ATOM     20  C   UNL A   1      33.885  22.097  23.853  1.00  0.00     0.015 A 
ATOM     21  C   UNL A   1      35.417  23.520  24.910  1.00  0.00     0.015 A 
ATOM     22  C   UNL A   1      33.166  23.250  23.511  1.00  0.00     0.009 A 
ATOM     23  C   UNL A   1      34.497  24.599  24.809  1.00  0.00     0.009 A 
BRANCH  19  24
ATOM     24  S   UNL A   1      35.910  20.779  25.200  1.00  0.00    -0.130 SA
ATOM     25  C   UNL A   1      37.661  21.220  24.840  1.00  0.00     0.091 C 
ENDBRANCH  19  24
ENDBRANCH   7  18
ENDBRANCH   5   6
ENDBRANCH   3   5
ENDBRANCH   2   3
ENDBRANCH   1   2
BRANCH   1  26
ATOM     26  C   UNL A   1      31.711  32.302  27.268  1.00  0.00     0.275 C 
BRANCH  26  27
ATOM     27  O   UNL A   1      32.357  33.594  27.049  1.00  0.00    -0.458 OA
BRANCH  27  28
ATOM     28  C   UNL A   1      32.954  34.044  28.163  1.00  0.00     0.338 C 
ATOM     29  O   UNL A   1      32.476  34.928  28.840  1.00  0.00    -0.246 OA
BRANCH  28  30
ATOM     30  C   UNL A   1      34.218  33.567  28.685  1.00  0.00     0.060 A 
ATOM     31  C   UNL A   1      34.097  32.608  29.713  1.00  0.00     0.016 A 
ATOM     32  C   UNL A   1      35.422  34.217  28.460  1.00  0.00     0.016 A 
ATOM     33  C   UNL A   1      35.181  32.270  30.492  1.00  0.00     0.010 A 
ATOM     34  C   UNL A   1      36.542  33.790  29.172  1.00  0.00     0.010 A 
ATOM     35  C   UNL A   1      36.431  32.787  30.158  1.00  0.00    -0.014 A 
BRANCH  35  36
ATOM     36  C   UNL A   1      37.630  32.171  30.755  1.00  0.00     0.031 A 
ATOM     37  C   UNL A   1      38.413  31.141  30.018  1.00  0.00     0.074 A 
ATOM     38  C   UNL A   1      37.968  32.530  32.011  1.00  0.00     0.049 A 
ATOM     39  N   UNL A   1      39.429  30.442  30.443  1.00  0.00    -0.248 NA
ATOM     40  C   UNL A   1      37.999  30.840  28.639  1.00  0.00     0.031 C 
ATOM     41  C   UNL A   1      37.264  33.532  32.820  1.00  0.00     0.029 A 
ATOM     42  N   UNL A   1      38.970  32.090  32.835  1.00  0.00    -0.354 N 
ATOM     43  C   UNL A   1      39.757  29.591  29.403  1.00  0.00     0.074 A 
ATOM     44  C   UNL A   1      38.814  29.842  28.333  1.00  0.00     0.031 C 
ATOM     45  C   UNL A   1      37.867  33.645  34.010  1.00  0.00     0.029 A 
ATOM     46  C   UNL A   1      38.940  32.666  34.084  1.00  0.00     0.049 A 
ATOM     47  H   UNL A   1      39.644  31.428  32.560  1.00  0.00     0.167 HD
ATOM     48  C   UNL A   1      40.758  28.685  29.355  1.00  0.00     0.034 A 
ATOM     49  C   UNL A   1      39.659  32.403  35.188  1.00  0.00     0.034 A 
ATOM     50  C   UNL A   1      41.665  28.430  30.439  1.00  0.00     0.049 A 
ATOM     51  C   UNL A   1      40.706  31.333  35.125  1.00  0.00     0.074 A 
ATOM     52  C   UNL A   1      42.731  27.551  30.468  1.00  0.00     0.029 A 
ATOM     53  N   UNL A   1      41.589  29.009  31.695  1.00  0.00    -0.354 N 
ATOM     54  N   UNL A   1      41.052  30.585  34.107  1.00  0.00    -0.248 NA
ATOM     55  C   UNL A   1      41.476  31.083  36.349  1.00  0.00     0.031 C 
ATOM     56  C   UNL A   1      43.240  27.528  31.766  1.00  0.00     0.029 A 
ATOM     57  C   UNL A   1      42.566  28.476  32.517  1.00  0.00     0.049 A 
ATOM     58  H   UNL A   1      40.937  29.697  31.964  1.00  0.00     0.167 HD
ATOM     59  C   UNL A   1      42.111  29.809  34.553  1.00  0.00     0.074 A 
ATOM     60  C   UNL A   1      42.359  30.189  35.929  1.00  0.00     0.031 C 
ATOM     61  C   UNL A   1      42.816  28.870  33.878  1.00  0.00     0.034 A 
BRANCH  48  62
ATOM     62  C   UNL A   1      40.896  27.869  28.103  1.00  0.00     0.023 A 
ATOM     63  C   UNL A   1      41.557  28.392  26.974  1.00  0.00     0.012 A 
ATOM     64  C   UNL A   1      40.391  26.556  28.067  1.00  0.00     0.148 A 
ATOM     65  C   UNL A   1      41.664  27.638  25.808  1.00  0.00     0.002 A 
ATOM     66  C   UNL A   1      40.551  25.791  26.923  1.00  0.00     0.091 A 
ATOM     67  F   UNL A   1      39.763  26.081  29.151  1.00  0.00    -0.205 F 
ATOM     68  C   UNL A   1      41.171  26.335  25.786  1.00  0.00     0.022 A 
BRANCH  66  69
ATOM     69  S   UNL A   1      39.997  24.088  26.821  1.00  0.00     0.127 S 
ATOM     70  O   UNL A   1      41.055  23.487  26.008  1.00  0.00    -0.237 OA
ATOM     71  O   UNL A   1      40.004  23.684  28.227  1.00  0.00    -0.237 OA
ATOM     72  O   UNL A   1      38.683  24.122  26.196  1.00  0.00    -0.744 OA
ENDBRANCH  66  69
ENDBRANCH  48  62
BRANCH  49  73
ATOM     73  C   UNL A   1      39.392  33.138  36.454  1.00  0.00     0.023 A 
ATOM     74  C   UNL A   1      40.025  34.371  36.702  1.00  0.00     0.012 A 
ATOM     75  C   UNL A   1      38.529  32.598  37.425  1.00  0.00     0.148 A 
ATOM     76  C   UNL A   1      39.841  35.027  37.920  1.00  0.00     0.002 A 
ATOM     77  C   UNL A   1      38.304  33.282  38.610  1.00  0.00     0.091 A 
ATOM     78  F   UNL A   1      37.935  31.425  37.164  1.00  0.00    -0.205 F 
ATOM     79  C   UNL A   1      38.976  34.486  38.869  1.00  0.00     0.022 A 
BRANCH  77  80
ATOM     80  S   UNL A   1      37.153  32.695  39.854  1.00  0.00     0.127 S 
ATOM     81  O   UNL A   1      35.913  32.598  39.087  1.00  0.00    -0.237 OA
ATOM     82  O   UNL A   1      37.750  31.415  40.230  1.00  0.00    -0.237 OA
ATOM     83  O   UNL A   1      37.156  33.701  40.908  1.00  0.00    -0.744 OA
ENDBRANCH  77  80
ENDBRANCH  49  73
BRANCH  61  84
ATOM     84  C   UNL A   1      43.985  28.237  34.582  1.00  0.00     0.023 A 
ATOM     85  C   UNL A   1      45.253  28.850  34.583  1.00  0.00     0.012 A 
ATOM     86  C   UNL A   1      43.798  27.032  35.290  1.00  0.00     0.148 A 
ATOM     87  C   UNL A   1      46.329  28.242  35.229  1.00  0.00     0.002 A 
ATOM     88  C   UNL A   1      44.855  26.467  35.982  1.00  0.00     0.091 A 
ATOM     89  F   UNL A   1      42.581  26.469  35.280  1.00  0.00    -0.205 F 
ATOM     90  C   UNL A   1      46.128  27.057  35.936  1.00  0.00     0.022 A 
BRANCH  88  91
ATOM     91  S   UNL A   1      44.669  24.981  36.972  1.00  0.00     0.127 S 
ATOM     92  O   UNL A   1      43.680  25.408  37.961  1.00  0.00    -0.237 OA
ATOM     93  O   UNL A   1      44.174  24.019  35.987  1.00  0.00    -0.237 OA
ATOM     94  O   UNL A   1      45.988  24.680  37.511  1.00  0.00    -0.744 OA
ENDBRANCH  88  91
ENDBRANCH  61  84
ENDBRANCH  35  36
ENDBRANCH  28  30
ENDBRANCH  27  28
ENDBRANCH  26  27
ENDBRANCH   1  26
TORSDOF 17
ENDMDL
MODEL 2
REMARK VINA RESULT:     -11.8      5.639     10.947
REMARK SMILES CSc1ccc(C=C2C(C)=C(CC(=O)OCCOC(=O)c3ccc(-c4c5nc(c(-c6cccc(S(=O)(=O)[O-])c6F)c6ccc([nH]6)c(-c6cccc(S(=O)(=O)[O-])c6F)c6nc(c(-c7cccc(S(=O)(=O)[O-])c7F)c7ccc4[nH]7)C=C6)C=C5)cc3)c3cc(F)ccc32)cc1
REMARK SMILES IDX 16 1 15 2 13 3 14 4 12 5 11 6 7 7 8 8 9 9 90 10 10 11 84 12
REMARK SMILES IDX 89 13 85 14 88 15 86 16 87 17 6 18 3 19 4 20 92 21 5 22
REMARK SMILES IDX 91 23 2 24 1 25 17 26 18 27 19 28 20 29 21 30 22 31 83 32
REMARK SMILES IDX 23 33 82 34 24 35 25 36 26 37 76 38 27 39 81 40 75 41 77 42
REMARK SMILES IDX 28 43 80 44 74 45 73 46 29 48 61 49 41 50 60 51 42 52 45 53
REMARK SMILES IDX 59 54 78 55 43 56 44 57 58 59 79 60 46 61 30 62 31 63 39 64
REMARK SMILES IDX 32 65 34 66 40 67 33 68 35 69 36 70 37 71 38 72 62 73 63 74
REMARK SMILES IDX 71 75 64 76 66 77 72 78 65 79 67 80 68 81 69 82 70 83 47 84
REMARK SMILES IDX 48 85 56 86 49 87 51 88 57 89 50 90 52 91 53 92 54 93 55 94
REMARK H PARENT 77 47 45 58
REMARK Flexibility Score: inf
ROOT
ATOM      1  C   UNL A   1      37.744  20.761  25.429  1.00  0.00     0.274 C 
ENDROOT
BRANCH   1   2
ATOM      2  O   UNL A   1      38.042  22.096  24.949  1.00  0.00    -0.462 OA
BRANCH   2   3
ATOM      3  C   UNL A   1      37.782  23.136  25.793  1.00  0.00     0.310 C 
ATOM      4  O   UNL A   1      38.607  23.984  26.129  1.00  0.00    -0.252 OA
BRANCH   3   5
ATOM      5  C   UNL A   1      36.295  23.211  26.176  1.00  0.00     0.159 C 
BRANCH   5   6
ATOM      6  C   UNL A   1      35.235  23.324  25.002  1.00  0.00    -0.025 C 
ATOM      7  C   UNL A   1      33.689  20.943  26.127  1.00  0.00     0.017 C 
ATOM      8  C   UNL A   1      33.533  22.341  26.159  1.00  0.00    -0.014 C 
ATOM      9  C   UNL A   1      34.136  22.541  24.791  1.00  0.00    -0.039 C 
ATOM     10  C   UNL A   1      33.349  23.982  26.129  1.00  0.00    -0.010 A 
ATOM     11  C   UNL A   1      32.826  22.732  23.870  1.00  0.00     0.045 C 
ATOM     12  C   UNL A   1      34.384  24.457  25.269  1.00  0.00    -0.011 A 
ATOM     13  C   UNL A   1      32.227  24.834  26.121  1.00  0.00     0.012 A 
ATOM     14  C   UNL A   1      34.374  25.581  24.434  1.00  0.00     0.048 A 
ATOM     15  C   UNL A   1      32.247  26.071  25.362  1.00  0.00     0.040 A 
ATOM     16  C   UNL A   1      33.330  26.443  24.558  1.00  0.00     0.123 A 
ATOM     17  F   UNL A   1      33.324  27.566  23.824  1.00  0.00    -0.207 F 
BRANCH   7  18
ATOM     18  C   UNL A   1      33.678  19.847  24.949  1.00  0.00    -0.025 A 
ATOM     19  C   UNL A   1      33.574  17.045  24.742  1.00  0.00     0.007 A 
ATOM     20  C   UNL A   1      32.427  17.801  24.684  1.00  0.00     0.015 A 
ATOM     21  C   UNL A   1      34.756  17.730  24.438  1.00  0.00     0.015 A 
ATOM     22  C   UNL A   1      32.527  19.188  24.514  1.00  0.00     0.009 A 
ATOM     23  C   UNL A   1      34.824  19.142  24.587  1.00  0.00     0.009 A 
BRANCH  19  24
ATOM     24  S   UNL A   1      33.527  15.289  25.043  1.00  0.00    -0.130 SA
ATOM     25  C   UNL A   1      32.055  15.074  26.128  1.00  0.00     0.091 C 
ENDBRANCH  19  24
ENDBRANCH   7  18
ENDBRANCH   5   6
ENDBRANCH   3   5
ENDBRANCH   2   3
ENDBRANCH   1   2
BRANCH   1  26
ATOM     26  C   UNL A   1      38.934  19.769  25.257  1.00  0.00     0.275 C 
BRANCH  26  27
ATOM     27  O   UNL A   1      39.748  19.495  26.440  1.00  0.00    -0.458 OA
BRANCH  27  28
ATOM     28  C   UNL A   1      41.018  19.890  26.268  1.00  0.00     0.338 C 
ATOM     29  O   UNL A   1      41.892  19.123  25.928  1.00  0.00    -0.246 OA
BRANCH  28  30
ATOM     30  C   UNL A   1      41.511  21.237  26.474  1.00  0.00     0.060 A 
ATOM     31  C   UNL A   1      41.474  21.668  27.816  1.00  0.00     0.016 A 
ATOM     32  C   UNL A   1      41.681  22.145  25.440  1.00  0.00     0.016 A 
ATOM     33  C   UNL A   1      41.643  22.998  28.134  1.00  0.00     0.010 A 
ATOM     34  C   UNL A   1      41.966  23.470  25.771  1.00  0.00     0.010 A 
ATOM     35  C   UNL A   1      41.990  23.887  27.118  1.00  0.00    -0.014 A 
BRANCH  35  36
ATOM     36  C   UNL A   1      42.505  25.218  27.493  1.00  0.00     0.031 A 
ATOM     37  C   UNL A   1      41.634  26.215  28.174  1.00  0.00     0.074 A 
ATOM     38  C   UNL A   1      43.774  25.524  27.154  1.00  0.00     0.049 A 
ATOM     39  N   UNL A   1      41.911  27.452  28.482  1.00  0.00    -0.248 NA
ATOM     40  C   UNL A   1      40.278  25.783  28.544  1.00  0.00     0.031 C 
ATOM     41  C   UNL A   1      44.711  24.615  26.483  1.00  0.00     0.029 A 
ATOM     42  N   UNL A   1      44.494  26.679  27.308  1.00  0.00    -0.354 N 
ATOM     43  C   UNL A   1      40.756  27.964  29.046  1.00  0.00     0.074 A 
ATOM     44  C   UNL A   1      39.764  26.909  29.016  1.00  0.00     0.031 C 
ATOM     45  C   UNL A   1      45.882  25.237  26.303  1.00  0.00     0.029 A 
ATOM     46  C   UNL A   1      45.755  26.611  26.762  1.00  0.00     0.049 A 
ATOM     47  H   UNL A   1      44.143  27.479  27.762  1.00  0.00     0.167 HD
ATOM     48  C   UNL A   1      40.553  29.203  29.543  1.00  0.00     0.034 A 
ATOM     49  C   UNL A   1      46.692  27.561  26.599  1.00  0.00     0.034 A 
ATOM     50  C   UNL A   1      41.541  30.245  29.536  1.00  0.00     0.049 A 
ATOM     51  C   UNL A   1      46.401  28.948  27.086  1.00  0.00     0.074 A 
ATOM     52  C   UNL A   1      41.433  31.524  30.047  1.00  0.00     0.029 A 
ATOM     53  N   UNL A   1      42.794  30.151  28.953  1.00  0.00    -0.354 N 
ATOM     54  N   UNL A   1      45.326  29.397  27.685  1.00  0.00    -0.248 NA
ATOM     55  C   UNL A   1      47.454  29.953  26.898  1.00  0.00     0.031 C 
ATOM     56  C   UNL A   1      42.580  32.233  29.691  1.00  0.00     0.029 A 
ATOM     57  C   UNL A   1      43.452  31.363  29.058  1.00  0.00     0.049 A 
ATOM     58  H   UNL A   1      43.162  29.343  28.526  1.00  0.00     0.167 HD
ATOM     59  C   UNL A   1      45.591  30.724  27.988  1.00  0.00     0.074 A 
ATOM     60  C   UNL A   1      46.933  31.001  27.520  1.00  0.00     0.031 C 
ATOM     61  C   UNL A   1      44.791  31.627  28.604  1.00  0.00     0.034 A 
BRANCH  48  62
ATOM     62  C   UNL A   1      39.191  29.515  30.094  1.00  0.00     0.023 A 
ATOM     63  C   UNL A   1      38.868  29.198  31.429  1.00  0.00     0.012 A 
ATOM     64  C   UNL A   1      38.241  30.160  29.282  1.00  0.00     0.148 A 
ATOM     65  C   UNL A   1      37.597  29.471  31.929  1.00  0.00     0.002 A 
ATOM     66  C   UNL A   1      36.998  30.480  29.804  1.00  0.00     0.091 A 
ATOM     67  F   UNL A   1      38.570  30.448  28.016  1.00  0.00    -0.205 F 
ATOM     68  C   UNL A   1      36.667  30.121  31.121  1.00  0.00     0.022 A 
BRANCH  66  69
ATOM     69  S   UNL A   1      35.757  31.363  28.857  1.00  0.00     0.127 S 
ATOM     70  O   UNL A   1      34.845  31.804  29.913  1.00  0.00    -0.237 OA
ATOM     71  O   UNL A   1      36.547  32.432  28.247  1.00  0.00    -0.237 OA
ATOM     72  O   UNL A   1      35.196  30.401  27.920  1.00  0.00    -0.744 OA
ENDBRANCH  66  69
ENDBRANCH  48  62
BRANCH  49  73
ATOM     73  C   UNL A   1      47.975  27.244  25.915  1.00  0.00     0.023 A 
ATOM     74  C   UNL A   1      49.087  26.814  26.664  1.00  0.00     0.012 A 
ATOM     75  C   UNL A   1      48.098  27.396  24.522  1.00  0.00     0.148 A 
ATOM     76  C   UNL A   1      50.315  26.592  26.040  1.00  0.00     0.002 A 
ATOM     77  C   UNL A   1      49.305  27.117  23.899  1.00  0.00     0.091 A 
ATOM     78  F   UNL A   1      47.024  27.801  23.831  1.00  0.00    -0.205 F 
ATOM     79  C   UNL A   1      50.422  26.736  24.658  1.00  0.00     0.022 A 
BRANCH  77  80
ATOM     80  S   UNL A   1      49.510  27.207  22.119  1.00  0.00     0.127 S 
ATOM     81  O   UNL A   1      49.089  28.579  21.842  1.00  0.00    -0.237 OA
ATOM     82  O   UNL A   1      50.943  26.958  21.972  1.00  0.00    -0.237 OA
ATOM     83  O   UNL A   1      48.651  26.169  21.565  1.00  0.00    -0.744 OA
ENDBRANCH  77  80
ENDBRANCH  49  73
BRANCH  61  84
ATOM     84  C   UNL A   1      45.369  32.987  28.890  1.00  0.00     0.023 A 
ATOM     85  C   UNL A   1      46.063  33.245  30.088  1.00  0.00     0.012 A 
ATOM     86  C   UNL A   1      45.252  34.006  27.923  1.00  0.00     0.148 A 
ATOM     87  C   UNL A   1      46.578  34.515  30.343  1.00  0.00     0.002 A 
ATOM     88  C   UNL A   1      45.822  35.246  28.156  1.00  0.00     0.091 A 
ATOM     89  F   UNL A   1      44.592  33.736  26.788  1.00  0.00    -0.205 F 
ATOM     90  C   UNL A   1      46.467  35.511  29.374  1.00  0.00     0.022 A 
BRANCH  88  91
ATOM     91  S   UNL A   1      45.784  36.563  26.938  1.00  0.00     0.127 S 
ATOM     92  O   UNL A   1      46.340  35.892  25.763  1.00  0.00    -0.237 OA
ATOM     93  O   UNL A   1      44.353  36.859  26.853  1.00  0.00    -0.237 OA
ATOM     94  O   UNL A   1      46.601  37.642  27.474  1.00  0.00    -0.744 OA
ENDBRANCH  88  91
ENDBRANCH  61  84
ENDBRANCH  35  36
ENDBRANCH  28  30
ENDBRANCH  27  28
ENDBRANCH  26  27
ENDBRANCH   1  26
TORSDOF 17
ENDMDL
MODEL 3
REMARK VINA RESULT:     -11.8      5.466      8.844
REMARK SMILES CSc1ccc(C=C2C(C)=C(CC(=O)OCCOC(=O)c3ccc(-c4c5nc(c(-c6cccc(S(=O)(=O)[O-])c6F)c6ccc([nH]6)c(-c6cccc(S(=O)(=O)[O-])c6F)c6nc(c(-c7cccc(S(=O)(=O)[O-])c7F)c7ccc4[nH]7)C=C6)C=C5)cc3)c3cc(F)ccc32)cc1
REMARK SMILES IDX 16 1 15 2 13 3 14 4 12 5 11 6 7 7 8 8 9 9 90 10 10 11 84 12
REMARK SMILES IDX 89 13 85 14 88 15 86 16 87 17 6 18 3 19 4 20 92 21 5 22
REMARK SMILES IDX 91 23 2 24 1 25 17 26 18 27 19 28 20 29 21 30 22 31 83 32
REMARK SMILES IDX 23 33 82 34 24 35 25 36 26 37 76 38 27 39 81 40 75 41 77 42
REMARK SMILES IDX 28 43 80 44 74 45 73 46 29 48 61 49 41 50 60 51 42 52 45 53
REMARK SMILES IDX 59 54 78 55 43 56 44 57 58 59 79 60 46 61 30 62 31 63 39 64
REMARK SMILES IDX 32 65 34 66 40 67 33 68 35 69 36 70 37 71 38 72 62 73 63 74
REMARK SMILES IDX 71 75 64 76 66 77 72 78 65 79 67 80 68 81 69 82 70 83 47 84
REMARK SMILES IDX 48 85 56 86 49 87 51 88 57 89 50 90 52 91 53 92 54 93 55 94
REMARK H PARENT 77 47 45 58
REMARK Flexibility Score: inf
ROOT
ATOM      1  C   UNL A   1      37.838  20.794  25.008  1.00  0.00     0.274 C 
ENDROOT
BRANCH   1   2
ATOM      2  O   UNL A   1      37.096  21.755  25.799  1.00  0.00    -0.462 OA
BRANCH   2   3
ATOM      3  C   UNL A   1      36.927  23.001  25.271  1.00  0.00     0.310 C 
ATOM      4  O   UNL A   1      37.640  23.491  24.396  1.00  0.00    -0.252 OA
BRANCH   3   5
ATOM      5  C   UNL A   1      35.653  23.684  25.798  1.00  0.00     0.159 C 
BRANCH   5   6
ATOM      6  C   UNL A   1      34.346  23.596  24.905  1.00  0.00    -0.025 C 
ATOM      7  C   UNL A   1      33.568  20.967  26.250  1.00  0.00     0.017 C 
ATOM      8  C   UNL A   1      33.171  22.311  26.378  1.00  0.00    -0.014 C 
ATOM      9  C   UNL A   1      33.390  22.620  24.918  1.00  0.00    -0.039 C 
ATOM     10  C   UNL A   1      32.688  23.889  26.462  1.00  0.00    -0.010 A 
ATOM     11  C   UNL A   1      31.889  22.562  24.332  1.00  0.00     0.045 C 
ATOM     12  C   UNL A   1      33.389  24.549  25.409  1.00  0.00    -0.011 A 
ATOM     13  C   UNL A   1      31.459  24.514  26.750  1.00  0.00     0.012 A 
ATOM     14  C   UNL A   1      32.979  25.651  24.649  1.00  0.00     0.048 A 
ATOM     15  C   UNL A   1      31.075  25.733  26.061  1.00  0.00     0.040 A 
ATOM     16  C   UNL A   1      31.853  26.302  25.047  1.00  0.00     0.123 A 
ATOM     17  F   UNL A   1      31.470  27.403  24.383  1.00  0.00    -0.207 F 
BRANCH   7  18
ATOM     18  C   UNL A   1      33.482  19.888  25.059  1.00  0.00    -0.025 A 
ATOM     19  C   UNL A   1      33.435  17.088  24.815  1.00  0.00     0.007 A 
ATOM     20  C   UNL A   1      32.268  17.812  24.870  1.00  0.00     0.015 A 
ATOM     21  C   UNL A   1      34.567  17.810  24.420  1.00  0.00     0.015 A 
ATOM     22  C   UNL A   1      32.316  19.204  24.716  1.00  0.00     0.009 A 
ATOM     23  C   UNL A   1      34.610  19.221  24.586  1.00  0.00     0.009 A 
BRANCH  19  24
ATOM     24  S   UNL A   1      33.462  15.327  25.089  1.00  0.00    -0.130 SA
ATOM     25  C   UNL A   1      31.999  15.034  26.169  1.00  0.00     0.091 C 
ENDBRANCH  19  24
ENDBRANCH   7  18
ENDBRANCH   5   6
ENDBRANCH   3   5
ENDBRANCH   2   3
ENDBRANCH   1   2
BRANCH   1  26
ATOM     26  C   UNL A   1      38.659  19.792  25.874  1.00  0.00     0.275 C 
BRANCH  26  27
ATOM     27  O   UNL A   1      40.116  19.896  25.811  1.00  0.00    -0.458 OA
BRANCH  27  28
ATOM     28  C   UNL A   1      40.614  20.519  26.889  1.00  0.00     0.338 C 
ATOM     29  O   UNL A   1      40.787  19.946  27.943  1.00  0.00    -0.246 OA
BRANCH  28  30
ATOM     30  C   UNL A   1      40.984  21.918  26.952  1.00  0.00     0.060 A 
ATOM     31  C   UNL A   1      41.636  22.293  28.145  1.00  0.00     0.016 A 
ATOM     32  C   UNL A   1      40.460  22.876  26.097  1.00  0.00     0.016 A 
ATOM     33  C   UNL A   1      41.799  23.622  28.471  1.00  0.00     0.010 A 
ATOM     34  C   UNL A   1      40.728  24.217  26.372  1.00  0.00     0.010 A 
ATOM     35  C   UNL A   1      41.433  24.588  27.536  1.00  0.00    -0.014 A 
BRANCH  35  36
ATOM     36  C   UNL A   1      41.916  25.969  27.725  1.00  0.00     0.031 A 
ATOM     37  C   UNL A   1      43.291  26.365  27.315  1.00  0.00     0.074 A 
ATOM     38  C   UNL A   1      41.093  26.849  28.330  1.00  0.00     0.049 A 
ATOM     39  N   UNL A   1      43.891  27.508  27.501  1.00  0.00    -0.248 NA
ATOM     40  C   UNL A   1      44.106  25.352  26.626  1.00  0.00     0.031 C 
ATOM     41  C   UNL A   1      39.723  26.559  28.770  1.00  0.00     0.029 A 
ATOM     42  N   UNL A   1      41.283  28.157  28.693  1.00  0.00    -0.354 N 
ATOM     43  C   UNL A   1      45.166  27.348  26.989  1.00  0.00     0.074 A 
ATOM     44  C   UNL A   1      45.263  25.986  26.506  1.00  0.00     0.031 C 
ATOM     45  C   UNL A   1      39.192  27.657  29.323  1.00  0.00     0.029 A 
ATOM     46  C   UNL A   1      40.207  28.699  29.358  1.00  0.00     0.049 A 
ATOM     47  H   UNL A   1      42.107  28.658  28.500  1.00  0.00     0.167 HD
ATOM     48  C   UNL A   1      46.159  28.262  26.930  1.00  0.00     0.034 A 
ATOM     49  C   UNL A   1      40.064  29.884  29.975  1.00  0.00     0.034 A 
ATOM     50  C   UNL A   1      46.052  29.599  27.441  1.00  0.00     0.049 A 
ATOM     51  C   UNL A   1      41.216  30.843  29.963  1.00  0.00     0.074 A 
ATOM     52  C   UNL A   1      46.999  30.605  27.397  1.00  0.00     0.029 A 
ATOM     53  N   UNL A   1      44.962  30.105  28.131  1.00  0.00    -0.354 N 
ATOM     54  N   UNL A   1      42.393  30.701  29.409  1.00  0.00    -0.248 NA
ATOM     55  C   UNL A   1      41.015  32.130  30.640  1.00  0.00     0.031 C 
ATOM     56  C   UNL A   1      46.521  31.685  28.140  1.00  0.00     0.029 A 
ATOM     57  C   UNL A   1      45.230  31.396  28.550  1.00  0.00     0.049 A 
ATOM     58  H   UNL A   1      44.122  29.618  28.298  1.00  0.00     0.167 HD
ATOM     59  C   UNL A   1      43.059  31.898  29.629  1.00  0.00     0.074 A 
ATOM     60  C   UNL A   1      42.146  32.758  30.353  1.00  0.00     0.031 C 
ATOM     61  C   UNL A   1      44.313  32.250  29.256  1.00  0.00     0.034 A 
BRANCH  48  62
ATOM     62  C   UNL A   1      47.466  27.829  26.331  1.00  0.00     0.023 A 
ATOM     63  C   UNL A   1      48.531  27.414  27.155  1.00  0.00     0.012 A 
ATOM     64  C   UNL A   1      47.617  27.803  24.932  1.00  0.00     0.148 A 
ATOM     65  C   UNL A   1      49.748  27.034  26.594  1.00  0.00     0.002 A 
ATOM     66  C   UNL A   1      48.812  27.369  24.380  1.00  0.00     0.091 A 
ATOM     67  F   UNL A   1      46.592  28.205  24.169  1.00  0.00    -0.205 F 
ATOM     68  C   UNL A   1      49.884  27.000  25.209  1.00  0.00     0.022 A 
BRANCH  66  69
ATOM     69  S   UNL A   1      49.060  27.242  22.608  1.00  0.00     0.127 S 
ATOM     70  O   UNL A   1      48.413  28.466  22.136  1.00  0.00    -0.237 OA
ATOM     71  O   UNL A   1      50.519  27.242  22.506  1.00  0.00    -0.237 OA
ATOM     72  O   UNL A   1      48.414  26.005  22.193  1.00  0.00    -0.744 OA
ENDBRANCH  66  69
ENDBRANCH  48  62
BRANCH  49  73
ATOM     73  C   UNL A   1      38.798  30.217  30.683  1.00  0.00     0.023 A 
ATOM     74  C   UNL A   1      38.570  29.736  31.986  1.00  0.00     0.012 A 
ATOM     75  C   UNL A   1      37.807  30.989  30.049  1.00  0.00     0.148 A 
ATOM     76  C   UNL A   1      37.353  29.976  32.625  1.00  0.00     0.002 A 
ATOM     77  C   UNL A   1      36.622  31.274  30.711  1.00  0.00     0.091 A 
ATOM     78  F   UNL A   1      38.050  31.439  28.810  1.00  0.00    -0.205 F 
ATOM     79  C   UNL A   1      36.384  30.751  31.990  1.00  0.00     0.022 A 
BRANCH  77  80
ATOM     80  S   UNL A   1      35.353  32.321  29.998  1.00  0.00     0.127 S 
ATOM     81  O   UNL A   1      34.400  32.425  31.101  1.00  0.00    -0.237 OA
ATOM     82  O   UNL A   1      36.102  33.543  29.711  1.00  0.00    -0.237 OA
ATOM     83  O   UNL A   1      34.866  31.615  28.821  1.00  0.00    -0.744 OA
ENDBRANCH  77  80
ENDBRANCH  49  73
BRANCH  61  84
ATOM     84  C   UNL A   1      44.756  33.658  29.547  1.00  0.00     0.023 A 
ATOM     85  C   UNL A   1      45.414  33.979  30.750  1.00  0.00     0.012 A 
ATOM     86  C   UNL A   1      44.548  34.663  28.580  1.00  0.00     0.148 A 
ATOM     87  C   UNL A   1      45.804  35.293  31.009  1.00  0.00     0.002 A 
ATOM     88  C   UNL A   1      44.995  35.952  28.818  1.00  0.00     0.091 A 
ATOM     89  F   UNL A   1      43.924  34.332  27.440  1.00  0.00    -0.205 F 
ATOM     90  C   UNL A   1      45.604  36.275  30.040  1.00  0.00     0.022 A 
BRANCH  88  91
ATOM     91  S   UNL A   1      44.839  37.260  27.600  1.00  0.00     0.127 S 
ATOM     92  O   UNL A   1      45.871  36.886  26.633  1.00  0.00    -0.237 OA
ATOM     93  O   UNL A   1      43.465  37.078  27.130  1.00  0.00    -0.237 OA
ATOM     94  O   UNL A   1      45.083  38.510  28.307  1.00  0.00    -0.744 OA
ENDBRANCH  88  91
ENDBRANCH  61  84
ENDBRANCH  35  36
ENDBRANCH  28  30
ENDBRANCH  27  28
ENDBRANCH  26  27
ENDBRANCH   1  26
TORSDOF 17
ENDMDL
