MODEL 1
REMARK VINA RESULT:     -11.7      0.000      0.000
REMARK SMILES Cc1nc2scc(C)n2c1CNc1ccc(C(=O)OCCOC(=O)c2ccc(-c3c4nc(c(-c5cccc(S(=O)(=O)[O-])c5F)c5ccc([nH]5)c(-c5cccc(S(=O)(=O)[O-])c5F)c5nc(c(-c6cccc(S(=O)(=O)[O-])c6F)c6ccc3[nH]6)C=C5)C=C4)cc2)cc1
REMARK SMILES IDX 20 1 19 2 17 3 18 4 16 5 13 6 14 7 89 8 15 9 88 10 12 11
REMARK SMILES IDX 11 13 10 14 1 15 2 16 3 17 4 18 9 19 5 20 7 21 6 22 8 23
REMARK SMILES IDX 21 24 22 25 23 26 24 27 25 28 26 29 87 30 27 31 86 32 28 33
REMARK SMILES IDX 29 34 30 35 80 36 31 37 85 38 79 39 81 40 32 41 84 42 78 43
REMARK SMILES IDX 77 44 33 46 65 47 45 48 64 49 46 50 49 51 63 52 82 53 47 54
REMARK SMILES IDX 48 55 62 57 83 58 50 59 34 60 35 61 43 62 36 63 38 64 44 65
REMARK SMILES IDX 37 66 39 67 40 68 41 69 42 70 66 71 67 72 75 73 68 74 70 75
REMARK SMILES IDX 76 76 69 77 71 78 72 79 73 80 74 81 51 82 52 83 60 84 53 85
REMARK SMILES IDX 55 86 61 87 54 88 56 89 57 90 58 91 59 92
REMARK H PARENT 12 12 81 45 49 56
REMARK Flexibility Score: inf
ROOT
ATOM      1  C   UNL A   1      36.958  20.705  24.446  1.00  0.00     0.275 C 
ENDROOT
BRANCH   1   2
ATOM      2  O   UNL A   1      35.679  20.245  24.914  1.00  0.00    -0.458 OA
BRANCH   2   3
ATOM      3  C   UNL A   1      34.925  21.173  25.558  1.00  0.00     0.338 C 
ATOM      4  O   UNL A   1      34.942  21.419  26.756  1.00  0.00    -0.246 OA
BRANCH   3   5
ATOM      5  C   UNL A   1      34.098  21.937  24.595  1.00  0.00     0.060 A 
ATOM      6  C   UNL A   1      32.426  23.555  23.026  1.00  0.00     0.034 A 
ATOM      7  C   UNL A   1      33.656  24.040  23.478  1.00  0.00     0.026 A 
ATOM      8  C   UNL A   1      32.114  22.207  23.252  1.00  0.00     0.026 A 
ATOM      9  C   UNL A   1      34.478  23.247  24.280  1.00  0.00     0.018 A 
ATOM     10  C   UNL A   1      32.946  21.396  24.025  1.00  0.00     0.018 A 
BRANCH   6  11
ATOM     11  N   UNL A   1      31.483  24.453  22.547  1.00  0.00    -0.379 N 
ATOM     12  H   UNL A   1      31.584  24.851  21.653  1.00  0.00     0.160 HD
BRANCH  11  13
ATOM     13  C   UNL A   1      30.346  24.799  23.377  1.00  0.00     0.169 C 
BRANCH  13  14
ATOM     14  C   UNL A   1      30.702  25.508  24.631  1.00  0.00     0.066 A 
ATOM     15  C   UNL A   1      30.727  23.601  26.389  1.00  0.00     0.069 C 
ATOM     16  C   UNL A   1      30.874  25.000  25.919  1.00  0.00     0.062 A 
ATOM     17  N   UNL A   1      31.268  25.978  26.804  1.00  0.00    -0.224 NA
ATOM     18  C   UNL A   1      31.320  27.049  26.065  1.00  0.00     0.194 A 
ATOM     19  N   UNL A   1      31.007  26.850  24.746  1.00  0.00    -0.290 N 
ATOM     20  S   UNL A   1      31.756  28.694  26.396  1.00  0.00    -0.105 S 
ATOM     21  C   UNL A   1      31.109  27.996  23.960  1.00  0.00     0.032 A 
ATOM     22  C   UNL A   1      31.498  29.060  24.694  1.00  0.00     0.090 A 
ATOM     23  C   UNL A   1      30.854  28.074  22.499  1.00  0.00     0.066 C 
ENDBRANCH  13  14
ENDBRANCH  11  13
ENDBRANCH   6  11
ENDBRANCH   3   5
ENDBRANCH   2   3
ENDBRANCH   1   2
BRANCH   1  24
ATOM     24  C   UNL A   1      38.084  19.831  24.975  1.00  0.00     0.275 C 
BRANCH  24  25
ATOM     25  O   UNL A   1      39.025  20.599  25.718  1.00  0.00    -0.458 OA
BRANCH  25  26
ATOM     26  C   UNL A   1      40.237  20.018  25.857  1.00  0.00     0.338 C 
ATOM     27  O   UNL A   1      40.525  18.849  25.661  1.00  0.00    -0.246 OA
BRANCH  26  28
ATOM     28  C   UNL A   1      41.139  20.946  26.535  1.00  0.00     0.060 A 
ATOM     29  C   UNL A   1      41.043  21.022  27.928  1.00  0.00     0.016 A 
ATOM     30  C   UNL A   1      41.776  21.932  25.770  1.00  0.00     0.016 A 
ATOM     31  C   UNL A   1      41.429  22.190  28.544  1.00  0.00     0.010 A 
ATOM     32  C   UNL A   1      42.132  23.104  26.380  1.00  0.00     0.010 A 
ATOM     33  C   UNL A   1      41.887  23.242  27.745  1.00  0.00    -0.014 A 
BRANCH  33  34
ATOM     34  C   UNL A   1      42.239  24.488  28.386  1.00  0.00     0.031 A 
ATOM     35  C   UNL A   1      41.197  25.525  28.206  1.00  0.00     0.074 A 
ATOM     36  C   UNL A   1      43.314  24.578  29.192  1.00  0.00     0.049 A 
ATOM     37  N   UNL A   1      41.301  26.668  27.612  1.00  0.00    -0.248 NA
ATOM     38  C   UNL A   1      39.815  25.158  28.562  1.00  0.00     0.031 C 
ATOM     39  C   UNL A   1      44.184  23.483  29.637  1.00  0.00     0.029 A 
ATOM     40  N   UNL A   1      43.747  25.636  29.928  1.00  0.00    -0.354 N 
ATOM     41  C   UNL A   1      40.048  27.259  27.759  1.00  0.00     0.074 A 
ATOM     42  C   UNL A   1      39.136  26.207  28.104  1.00  0.00     0.031 C 
ATOM     43  C   UNL A   1      44.847  23.873  30.748  1.00  0.00     0.029 A 
ATOM     44  C   UNL A   1      44.535  25.266  31.014  1.00  0.00     0.049 A 
ATOM     45  H   UNL A   1      43.526  26.570  29.714  1.00  0.00     0.167 HD
ATOM     46  C   UNL A   1      39.929  28.606  27.916  1.00  0.00     0.034 A 
ATOM     47  C   UNL A   1      44.808  26.025  32.104  1.00  0.00     0.034 A 
ATOM     48  C   UNL A   1      41.104  29.289  27.436  1.00  0.00     0.049 A 
ATOM     49  C   UNL A   1      44.491  27.431  31.755  1.00  0.00     0.074 A 
ATOM     50  C   UNL A   1      41.779  29.340  26.233  1.00  0.00     0.029 A 
ATOM     51  N   UNL A   1      41.975  29.767  28.384  1.00  0.00    -0.354 N 
ATOM     52  N   UNL A   1      45.156  28.127  30.878  1.00  0.00    -0.248 NA
ATOM     53  C   UNL A   1      43.163  27.928  32.074  1.00  0.00     0.031 C 
ATOM     54  C   UNL A   1      43.158  29.417  26.586  1.00  0.00     0.029 A 
ATOM     55  C   UNL A   1      43.247  29.468  27.979  1.00  0.00     0.049 A 
ATOM     56  H   UNL A   1      41.727  30.242  29.210  1.00  0.00     0.167 HD
ATOM     57  C   UNL A   1      44.181  28.857  30.208  1.00  0.00     0.074 A 
ATOM     58  C   UNL A   1      43.000  28.789  31.065  1.00  0.00     0.031 C 
ATOM     59  C   UNL A   1      44.334  29.187  28.891  1.00  0.00     0.034 A 
BRANCH  46  60
ATOM     60  C   UNL A   1      38.967  29.261  28.891  1.00  0.00     0.023 A 
ATOM     61  C   UNL A   1      38.249  30.380  28.414  1.00  0.00     0.012 A 
ATOM     62  C   UNL A   1      38.946  29.045  30.292  1.00  0.00     0.148 A 
ATOM     63  C   UNL A   1      37.630  31.284  29.284  1.00  0.00     0.002 A 
ATOM     64  C   UNL A   1      38.266  29.904  31.147  1.00  0.00     0.091 A 
ATOM     65  F   UNL A   1      39.684  28.084  30.846  1.00  0.00    -0.205 F 
ATOM     66  C   UNL A   1      37.640  31.047  30.653  1.00  0.00     0.022 A 
BRANCH  64  67
ATOM     67  S   UNL A   1      38.216  29.615  32.922  1.00  0.00     0.127 S 
ATOM     68  O   UNL A   1      37.507  28.341  32.989  1.00  0.00    -0.237 OA
ATOM     69  O   UNL A   1      39.639  29.554  33.254  1.00  0.00    -0.237 OA
ATOM     70  O   UNL A   1      37.522  30.765  33.490  1.00  0.00    -0.744 OA
ENDBRANCH  64  67
ENDBRANCH  46  60
BRANCH  47  71
ATOM     71  C   UNL A   1      45.053  25.608  33.505  1.00  0.00     0.023 A 
ATOM     72  C   UNL A   1      46.375  25.397  33.945  1.00  0.00     0.012 A 
ATOM     73  C   UNL A   1      44.031  25.671  34.479  1.00  0.00     0.148 A 
ATOM     74  C   UNL A   1      46.673  25.282  35.308  1.00  0.00     0.002 A 
ATOM     75  C   UNL A   1      44.329  25.541  35.832  1.00  0.00     0.091 A 
ATOM     76  F   UNL A   1      42.781  25.952  34.086  1.00  0.00    -0.205 F 
ATOM     77  C   UNL A   1      45.652  25.360  36.251  1.00  0.00     0.022 A 
BRANCH  75  78
ATOM     78  S   UNL A   1      43.064  25.643  37.107  1.00  0.00     0.127 S 
ATOM     79  O   UNL A   1      43.770  25.114  38.275  1.00  0.00    -0.237 OA
ATOM     80  O   UNL A   1      42.795  27.078  37.153  1.00  0.00    -0.237 OA
ATOM     81  O   UNL A   1      41.964  24.806  36.644  1.00  0.00    -0.744 OA
ENDBRANCH  75  78
ENDBRANCH  47  71
BRANCH  59  82
ATOM     82  C   UNL A   1      45.692  28.997  28.264  1.00  0.00     0.023 A 
ATOM     83  C   UNL A   1      46.723  29.954  28.384  1.00  0.00     0.012 A 
ATOM     84  C   UNL A   1      45.989  27.747  27.697  1.00  0.00     0.148 A 
ATOM     85  C   UNL A   1      48.014  29.675  27.929  1.00  0.00     0.002 A 
ATOM     86  C   UNL A   1      47.284  27.455  27.292  1.00  0.00     0.091 A 
ATOM     87  F   UNL A   1      44.997  26.847  27.593  1.00  0.00    -0.205 F 
ATOM     88  C   UNL A   1      48.298  28.419  27.397  1.00  0.00     0.022 A 
BRANCH  86  89
ATOM     89  S   UNL A   1      47.737  25.814  26.726  1.00  0.00     0.127 S 
ATOM     90  O   UNL A   1      47.353  24.981  27.863  1.00  0.00    -0.237 OA
ATOM     91  O   UNL A   1      46.898  25.648  25.536  1.00  0.00    -0.237 OA
ATOM     92  O   UNL A   1      49.165  25.870  26.440  1.00  0.00    -0.744 OA
ENDBRANCH  86  89
ENDBRANCH  59  82
ENDBRANCH  33  34
ENDBRANCH  26  28
ENDBRANCH  25  26
ENDBRANCH  24  25
ENDBRANCH   1  24
TORSDOF 17
ENDMDL
MODEL 2
REMARK VINA RESULT:     -11.6      4.972     10.175
REMARK SMILES Cc1nc2scc(C)n2c1CNc1ccc(C(=O)OCCOC(=O)c2ccc(-c3c4nc(c(-c5cccc(S(=O)(=O)[O-])c5F)c5ccc([nH]5)c(-c5cccc(S(=O)(=O)[O-])c5F)c5nc(c(-c6cccc(S(=O)(=O)[O-])c6F)c6ccc3[nH]6)C=C5)C=C4)cc2)cc1
REMARK SMILES IDX 20 1 19 2 17 3 18 4 16 5 13 6 14 7 89 8 15 9 88 10 12 11
REMARK SMILES IDX 11 13 10 14 1 15 2 16 3 17 4 18 9 19 5 20 7 21 6 22 8 23
REMARK SMILES IDX 21 24 22 25 23 26 24 27 25 28 26 29 87 30 27 31 86 32 28 33
REMARK SMILES IDX 29 34 30 35 80 36 31 37 85 38 79 39 81 40 32 41 84 42 78 43
REMARK SMILES IDX 77 44 33 46 65 47 45 48 64 49 46 50 49 51 63 52 82 53 47 54
REMARK SMILES IDX 48 55 62 57 83 58 50 59 34 60 35 61 43 62 36 63 38 64 44 65
REMARK SMILES IDX 37 66 39 67 40 68 41 69 42 70 66 71 67 72 75 73 68 74 70 75
REMARK SMILES IDX 76 76 69 77 71 78 72 79 73 80 74 81 51 82 52 83 60 84 53 85
REMARK SMILES IDX 55 86 61 87 54 88 56 89 57 90 58 91 59 92
REMARK H PARENT 12 12 81 45 49 56
REMARK Flexibility Score: inf
ROOT
ATOM      1  C   UNL A   1      33.347  34.958  28.452  1.00  0.00     0.275 C 
ENDROOT
BRANCH   1   2
ATOM      2  O   UNL A   1      32.551  35.057  29.646  1.00  0.00    -0.458 OA
BRANCH   2   3
ATOM      3  C   UNL A   1      32.979  35.965  30.558  1.00  0.00     0.338 C 
ATOM      4  O   UNL A   1      32.711  37.159  30.577  1.00  0.00    -0.246 OA
BRANCH   3   5
ATOM      5  C   UNL A   1      33.783  35.308  31.616  1.00  0.00     0.060 A 
ATOM      6  C   UNL A   1      35.522  34.300  33.574  1.00  0.00     0.034 A 
ATOM      7  C   UNL A   1      34.712  35.404  33.851  1.00  0.00     0.026 A 
ATOM      8  C   UNL A   1      35.343  33.628  32.357  1.00  0.00     0.026 A 
ATOM      9  C   UNL A   1      33.864  35.924  32.871  1.00  0.00     0.018 A 
ATOM     10  C   UNL A   1      34.473  34.120  31.383  1.00  0.00     0.018 A 
BRANCH   6  11
ATOM     11  N   UNL A   1      36.593  34.024  34.410  1.00  0.00    -0.379 N 
ATOM     12  H   UNL A   1      36.708  34.520  35.252  1.00  0.00     0.160 HD
BRANCH  11  13
ATOM     13  C   UNL A   1      37.543  32.996  34.033  1.00  0.00     0.169 C 
BRANCH  13  14
ATOM     14  C   UNL A   1      38.934  33.483  33.869  1.00  0.00     0.066 A 
ATOM     15  C   UNL A   1      38.949  34.388  31.438  1.00  0.00     0.069 C 
ATOM     16  C   UNL A   1      39.538  34.086  32.765  1.00  0.00     0.062 A 
ATOM     17  N   UNL A   1      40.838  34.455  33.034  1.00  0.00    -0.224 NA
ATOM     18  C   UNL A   1      41.010  34.072  34.266  1.00  0.00     0.194 A 
ATOM     19  N   UNL A   1      39.912  33.491  34.844  1.00  0.00    -0.290 N 
ATOM     20  S   UNL A   1      42.347  34.187  35.364  1.00  0.00    -0.105 S 
ATOM     21  C   UNL A   1      40.099  33.125  36.176  1.00  0.00     0.032 A 
ATOM     22  C   UNL A   1      41.344  33.432  36.597  1.00  0.00     0.090 A 
ATOM     23  C   UNL A   1      39.080  32.499  37.057  1.00  0.00     0.066 C 
ENDBRANCH  13  14
ENDBRANCH  11  13
ENDBRANCH   6  11
ENDBRANCH   3   5
ENDBRANCH   2   3
ENDBRANCH   1   2
BRANCH   1  24
ATOM     24  C   UNL A   1      33.349  33.537  27.909  1.00  0.00     0.275 C 
BRANCH  24  25
ATOM     25  O   UNL A   1      34.664  32.989  27.912  1.00  0.00    -0.458 OA
BRANCH  25  26
ATOM     26  C   UNL A   1      34.706  31.638  27.899  1.00  0.00     0.338 C 
ATOM     27  O   UNL A   1      33.874  30.875  27.438  1.00  0.00    -0.246 OA
BRANCH  26  28
ATOM     28  C   UNL A   1      35.797  31.185  28.759  1.00  0.00     0.060 A 
ATOM     29  C   UNL A   1      36.817  32.103  29.029  1.00  0.00     0.016 A 
ATOM     30  C   UNL A   1      35.950  29.808  28.968  1.00  0.00     0.016 A 
ATOM     31  C   UNL A   1      38.065  31.616  29.339  1.00  0.00     0.010 A 
ATOM     32  C   UNL A   1      37.199  29.324  29.248  1.00  0.00     0.010 A 
ATOM     33  C   UNL A   1      38.252  30.231  29.358  1.00  0.00    -0.014 A 
BRANCH  33  34
ATOM     34  C   UNL A   1      39.576  29.720  29.628  1.00  0.00     0.031 A 
ATOM     35  C   UNL A   1      40.005  29.980  31.021  1.00  0.00     0.074 A 
ATOM     36  C   UNL A   1      40.219  28.945  28.733  1.00  0.00     0.049 A 
ATOM     37  N   UNL A   1      41.009  30.682  31.431  1.00  0.00    -0.248 NA
ATOM     38  C   UNL A   1      39.085  29.565  32.096  1.00  0.00     0.031 C 
ATOM     39  C   UNL A   1      39.687  28.413  27.474  1.00  0.00     0.029 A 
ATOM     40  N   UNL A   1      41.423  28.322  28.848  1.00  0.00    -0.354 N 
ATOM     41  C   UNL A   1      40.978  30.570  32.819  1.00  0.00     0.074 A 
ATOM     42  C   UNL A   1      39.664  30.110  33.163  1.00  0.00     0.031 C 
ATOM     43  C   UNL A   1      40.438  27.357  27.091  1.00  0.00     0.029 A 
ATOM     44  C   UNL A   1      41.555  27.221  28.008  1.00  0.00     0.049 A 
ATOM     45  H   UNL A   1      42.130  28.622  29.463  1.00  0.00     0.167 HD
ATOM     46  C   UNL A   1      42.131  30.541  33.541  1.00  0.00     0.034 A 
ATOM     47  C   UNL A   1      42.454  26.213  28.139  1.00  0.00     0.034 A 
ATOM     48  C   UNL A   1      43.225  31.106  32.791  1.00  0.00     0.049 A 
ATOM     49  C   UNL A   1      43.522  26.690  29.050  1.00  0.00     0.074 A 
ATOM     50  C   UNL A   1      43.464  32.320  32.179  1.00  0.00     0.029 A 
ATOM     51  N   UNL A   1      44.133  30.224  32.258  1.00  0.00    -0.354 N 
ATOM     52  N   UNL A   1      44.359  27.642  28.750  1.00  0.00    -0.248 NA
ATOM     53  C   UNL A   1      43.390  26.396  30.468  1.00  0.00     0.031 C 
ATOM     54  C   UNL A   1      44.192  32.001  30.996  1.00  0.00     0.029 A 
ATOM     55  C   UNL A   1      44.408  30.621  30.978  1.00  0.00     0.049 A 
ATOM     56  H   UNL A   1      44.519  29.443  32.717  1.00  0.00     0.167 HD
ATOM     57  C   UNL A   1      44.500  28.361  29.931  1.00  0.00     0.074 A 
ATOM     58  C   UNL A   1      43.983  27.480  30.976  1.00  0.00     0.031 C 
ATOM     59  C   UNL A   1      44.738  29.706  29.908  1.00  0.00     0.034 A 
BRANCH  46  60
ATOM     60  C   UNL A   1      42.366  29.616  34.722  1.00  0.00     0.023 A 
ATOM     61  C   UNL A   1      43.123  30.140  35.793  1.00  0.00     0.012 A 
ATOM     62  C   UNL A   1      42.158  28.214  34.719  1.00  0.00     0.148 A 
ATOM     63  C   UNL A   1      43.720  29.310  36.748  1.00  0.00     0.002 A 
ATOM     64  C   UNL A   1      42.689  27.401  35.713  1.00  0.00     0.091 A 
ATOM     65  F   UNL A   1      41.552  27.615  33.694  1.00  0.00    -0.205 F 
ATOM     66  C   UNL A   1      43.505  27.939  36.708  1.00  0.00     0.022 A 
BRANCH  64  67
ATOM     67  S   UNL A   1      42.402  25.625  35.726  1.00  0.00     0.127 S 
ATOM     68  O   UNL A   1      43.147  25.203  34.544  1.00  0.00    -0.237 OA
ATOM     69  O   UNL A   1      42.994  25.238  37.006  1.00  0.00    -0.237 OA
ATOM     70  O   UNL A   1      40.955  25.458  35.665  1.00  0.00    -0.744 OA
ENDBRANCH  64  67
ENDBRANCH  46  60
BRANCH  47  71
ATOM     71  C   UNL A   1      42.326  24.783  27.771  1.00  0.00     0.023 A 
ATOM     72  C   UNL A   1      41.150  24.083  28.106  1.00  0.00     0.012 A 
ATOM     73  C   UNL A   1      43.227  24.175  26.868  1.00  0.00     0.148 A 
ATOM     74  C   UNL A   1      40.868  22.834  27.542  1.00  0.00     0.002 A 
ATOM     75  C   UNL A   1      42.950  22.927  26.320  1.00  0.00     0.091 A 
ATOM     76  F   UNL A   1      44.309  24.860  26.474  1.00  0.00    -0.205 F 
ATOM     77  C   UNL A   1      41.763  22.258  26.644  1.00  0.00     0.022 A 
BRANCH  75  78
ATOM     78  S   UNL A   1      44.054  22.128  25.146  1.00  0.00     0.127 S 
ATOM     79  O   UNL A   1      43.592  20.740  25.194  1.00  0.00    -0.237 OA
ATOM     80  O   UNL A   1      43.742  22.834  23.907  1.00  0.00    -0.237 OA
ATOM     81  O   UNL A   1      45.400  22.326  25.667  1.00  0.00    -0.744 OA
ENDBRANCH  75  78
ENDBRANCH  47  71
BRANCH  59  82
ATOM     82  C   UNL A   1      45.128  30.337  28.595  1.00  0.00     0.023 A 
ATOM     83  C   UNL A   1      44.173  30.794  27.661  1.00  0.00     0.012 A 
ATOM     84  C   UNL A   1      46.483  30.637  28.382  1.00  0.00     0.148 A 
ATOM     85  C   UNL A   1      44.566  31.515  26.531  1.00  0.00     0.002 A 
ATOM     86  C   UNL A   1      46.865  31.397  27.285  1.00  0.00     0.091 A 
ATOM     87  F   UNL A   1      47.378  30.197  29.282  1.00  0.00    -0.205 F 
ATOM     88  C   UNL A   1      45.911  31.830  26.350  1.00  0.00     0.022 A 
BRANCH  86  89
ATOM     89  S   UNL A   1      48.560  31.945  27.074  1.00  0.00     0.127 S 
ATOM     90  O   UNL A   1      48.438  32.905  25.981  1.00  0.00    -0.237 OA
ATOM     91  O   UNL A   1      48.865  32.539  28.379  1.00  0.00    -0.237 OA
ATOM     92  O   UNL A   1      49.333  30.746  26.776  1.00  0.00    -0.744 OA
ENDBRANCH  86  89
ENDBRANCH  59  82
ENDBRANCH  33  34
ENDBRANCH  26  28
ENDBRANCH  25  26
ENDBRANCH  24  25
ENDBRANCH   1  24
TORSDOF 17
ENDMDL
MODEL 3
REMARK VINA RESULT:     -11.4      3.098      7.770
REMARK SMILES Cc1nc2scc(C)n2c1CNc1ccc(C(=O)OCCOC(=O)c2ccc(-c3c4nc(c(-c5cccc(S(=O)(=O)[O-])c5F)c5ccc([nH]5)c(-c5cccc(S(=O)(=O)[O-])c5F)c5nc(c(-c6cccc(S(=O)(=O)[O-])c6F)c6ccc3[nH]6)C=C5)C=C4)cc2)cc1
REMARK SMILES IDX 20 1 19 2 17 3 18 4 16 5 13 6 14 7 89 8 15 9 88 10 12 11
REMARK SMILES IDX 11 13 10 14 1 15 2 16 3 17 4 18 9 19 5 20 7 21 6 22 8 23
REMARK SMILES IDX 21 24 22 25 23 26 24 27 25 28 26 29 87 30 27 31 86 32 28 33
REMARK SMILES IDX 29 34 30 35 80 36 31 37 85 38 79 39 81 40 32 41 84 42 78 43
REMARK SMILES IDX 77 44 33 46 65 47 45 48 64 49 46 50 49 51 63 52 82 53 47 54
REMARK SMILES IDX 48 55 62 57 83 58 50 59 34 60 35 61 43 62 36 63 38 64 44 65
REMARK SMILES IDX 37 66 39 67 40 68 41 69 42 70 66 71 67 72 75 73 68 74 70 75
REMARK SMILES IDX 76 76 69 77 71 78 72 79 73 80 74 81 51 82 52 83 60 84 53 85
REMARK SMILES IDX 55 86 61 87 54 88 56 89 57 90 58 91 59 92
REMARK H PARENT 12 12 81 45 49 56
REMARK Flexibility Score: inf
ROOT
ATOM      1  C   UNL A   1      34.102  32.966  28.233  1.00  0.00     0.275 C 
ENDROOT
BRANCH   1   2
ATOM      2  O   UNL A   1      33.586  31.625  28.162  1.00  0.00    -0.458 OA
BRANCH   2   3
ATOM      3  C   UNL A   1      34.342  30.746  27.459  1.00  0.00     0.338 C 
ATOM      4  O   UNL A   1      35.531  30.859  27.194  1.00  0.00    -0.246 OA
BRANCH   3   5
ATOM      5  C   UNL A   1      33.552  29.546  27.096  1.00  0.00     0.060 A 
ATOM      6  C   UNL A   1      32.031  27.217  26.726  1.00  0.00     0.034 A 
ATOM      7  C   UNL A   1      31.413  28.409  27.113  1.00  0.00     0.026 A 
ATOM      8  C   UNL A   1      33.392  27.246  26.392  1.00  0.00     0.026 A 
ATOM      9  C   UNL A   1      32.171  29.563  27.323  1.00  0.00     0.018 A 
ATOM     10  C   UNL A   1      34.151  28.404  26.567  1.00  0.00     0.018 A 
BRANCH   6  11
ATOM     11  N   UNL A   1      31.339  26.023  26.869  1.00  0.00    -0.379 N 
ATOM     12  H   UNL A   1      31.233  25.612  27.756  1.00  0.00     0.160 HD
BRANCH  11  13
ATOM     13  C   UNL A   1      30.772  25.387  25.696  1.00  0.00     0.169 C 
BRANCH  13  14
ATOM     14  C   UNL A   1      31.097  23.945  25.568  1.00  0.00     0.066 A 
ATOM     15  C   UNL A   1      29.441  22.828  27.224  1.00  0.00     0.069 C 
ATOM     16  C   UNL A   1      30.526  22.848  26.213  1.00  0.00     0.062 A 
ATOM     17  N   UNL A   1      31.066  21.660  25.771  1.00  0.00    -0.224 NA
ATOM     18  C   UNL A   1      31.947  22.040  24.891  1.00  0.00     0.194 A 
ATOM     19  N   UNL A   1      32.019  23.395  24.701  1.00  0.00    -0.290 N 
ATOM     20  S   UNL A   1      33.035  21.173  23.857  1.00  0.00    -0.105 S 
ATOM     21  C   UNL A   1      32.936  23.783  23.726  1.00  0.00     0.032 A 
ATOM     22  C   UNL A   1      33.556  22.713  23.184  1.00  0.00     0.090 A 
ATOM     23  C   UNL A   1      33.208  25.178  23.294  1.00  0.00     0.066 C 
ENDBRANCH  13  14
ENDBRANCH  11  13
ENDBRANCH   6  11
ENDBRANCH   3   5
ENDBRANCH   2   3
ENDBRANCH   1   2
BRANCH   1  24
ATOM     24  C   UNL A   1      34.413  33.359  29.669  1.00  0.00     0.275 C 
BRANCH  24  25
ATOM     25  O   UNL A   1      35.781  33.115  29.983  1.00  0.00    -0.458 OA
BRANCH  25  26
ATOM     26  C   UNL A   1      36.005  31.966  30.657  1.00  0.00     0.338 C 
ATOM     27  O   UNL A   1      35.503  31.617  31.714  1.00  0.00    -0.246 OA
BRANCH  26  28
ATOM     28  C   UNL A   1      37.150  31.278  30.066  1.00  0.00     0.060 A 
ATOM     29  C   UNL A   1      37.105  29.880  30.037  1.00  0.00     0.016 A 
ATOM     30  C   UNL A   1      38.341  31.995  29.894  1.00  0.00     0.016 A 
ATOM     31  C   UNL A   1      38.295  29.191  30.017  1.00  0.00     0.010 A 
ATOM     32  C   UNL A   1      39.525  31.309  29.903  1.00  0.00     0.010 A 
ATOM     33  C   UNL A   1      39.486  29.922  30.037  1.00  0.00    -0.014 A 
BRANCH  33  34
ATOM     34  C   UNL A   1      40.736  29.199  30.073  1.00  0.00     0.031 A 
ATOM     35  C   UNL A   1      41.186  28.925  31.457  1.00  0.00     0.074 A 
ATOM     36  C   UNL A   1      41.284  28.698  28.950  1.00  0.00     0.049 A 
ATOM     37  N   UNL A   1      42.266  29.328  32.041  1.00  0.00    -0.248 NA
ATOM     38  C   UNL A   1      40.216  28.286  32.365  1.00  0.00     0.031 C 
ATOM     39  C   UNL A   1      40.697  28.685  27.605  1.00  0.00     0.029 A 
ATOM     40  N   UNL A   1      42.402  27.937  28.806  1.00  0.00    -0.354 N 
ATOM     41  C   UNL A   1      42.214  28.762  33.313  1.00  0.00     0.074 A 
ATOM     42  C   UNL A   1      40.852  28.370  33.532  1.00  0.00     0.031 C 
ATOM     43  C   UNL A   1      41.315  27.738  26.866  1.00  0.00     0.029 A 
ATOM     44  C   UNL A   1      42.403  27.173  27.644  1.00  0.00     0.049 A 
ATOM     45  H   UNL A   1      43.137  27.928  29.461  1.00  0.00     0.167 HD
ATOM     46  C   UNL A   1      43.351  28.358  33.942  1.00  0.00     0.034 A 
ATOM     47  C   UNL A   1      43.171  26.081  27.400  1.00  0.00     0.034 A 
ATOM     48  C   UNL A   1      44.511  29.009  33.383  1.00  0.00     0.049 A 
ATOM     49  C   UNL A   1      44.285  26.097  28.378  1.00  0.00     0.074 A 
ATOM     50  C   UNL A   1      44.899  30.321  33.202  1.00  0.00     0.029 A 
ATOM     51  N   UNL A   1      45.307  28.257  32.555  1.00  0.00    -0.354 N 
ATOM     52  N   UNL A   1      45.233  26.990  28.382  1.00  0.00    -0.248 NA
ATOM     53  C   UNL A   1      44.110  25.364  29.621  1.00  0.00     0.031 C 
ATOM     54  C   UNL A   1      45.589  30.334  31.955  1.00  0.00     0.029 A 
ATOM     55  C   UNL A   1      45.634  29.024  31.472  1.00  0.00     0.049 A 
ATOM     56  H   UNL A   1      45.592  27.328  32.714  1.00  0.00     0.167 HD
ATOM     57  C   UNL A   1      45.455  27.251  29.729  1.00  0.00     0.074 A 
ATOM     58  C   UNL A   1      44.829  26.138  30.439  1.00  0.00     0.031 C 
ATOM     59  C   UNL A   1      45.856  28.488  30.147  1.00  0.00     0.034 A 
BRANCH  46  60
ATOM     60  C   UNL A   1      43.466  27.070  34.738  1.00  0.00     0.023 A 
ATOM     61  C   UNL A   1      43.656  27.204  36.131  1.00  0.00     0.012 A 
ATOM     62  C   UNL A   1      43.694  25.784  34.189  1.00  0.00     0.148 A 
ATOM     63  C   UNL A   1      44.139  26.150  36.914  1.00  0.00     0.002 A 
ATOM     64  C   UNL A   1      44.101  24.719  34.982  1.00  0.00     0.091 A 
ATOM     65  F   UNL A   1      43.648  25.586  32.872  1.00  0.00    -0.205 F 
ATOM     66  C   UNL A   1      44.364  24.906  36.339  1.00  0.00     0.022 A 
BRANCH  64  67
ATOM     67  S   UNL A   1      44.364  23.079  34.291  1.00  0.00     0.127 S 
ATOM     68  O   UNL A   1      44.653  22.301  35.491  1.00  0.00    -0.237 OA
ATOM     69  O   UNL A   1      43.068  22.807  33.670  1.00  0.00    -0.237 OA
ATOM     70  O   UNL A   1      45.460  23.222  33.340  1.00  0.00    -0.744 OA
ENDBRANCH  64  67
ENDBRANCH  46  60
BRANCH  47  71
ATOM     71  C   UNL A   1      42.871  24.883  26.582  1.00  0.00     0.023 A 
ATOM     72  C   UNL A   1      43.741  24.524  25.533  1.00  0.00     0.012 A 
ATOM     73  C   UNL A   1      41.895  23.944  26.984  1.00  0.00     0.148 A 
ATOM     74  C   UNL A   1      43.660  23.266  24.925  1.00  0.00     0.002 A 
ATOM     75  C   UNL A   1      41.807  22.700  26.368  1.00  0.00     0.091 A 
ATOM     76  F   UNL A   1      41.113  24.235  28.033  1.00  0.00    -0.205 F 
ATOM     77  C   UNL A   1      42.698  22.352  25.345  1.00  0.00     0.022 A 
BRANCH  75  78
ATOM     78  S   UNL A   1      40.598  21.465  26.866  1.00  0.00     0.127 S 
ATOM     79  O   UNL A   1      39.338  22.101  26.478  1.00  0.00    -0.237 OA
ATOM     80  O   UNL A   1      40.982  20.317  26.049  1.00  0.00    -0.237 OA
ATOM     81  O   UNL A   1      40.765  21.303  28.306  1.00  0.00    -0.744 OA
ENDBRANCH  75  78
ENDBRANCH  47  71
BRANCH  59  82
ATOM     82  C   UNL A   1      46.327  29.471  29.105  1.00  0.00     0.023 A 
ATOM     83  C   UNL A   1      47.644  29.465  28.597  1.00  0.00     0.012 A 
ATOM     84  C   UNL A   1      45.369  30.299  28.497  1.00  0.00     0.148 A 
ATOM     85  C   UNL A   1      47.999  30.282  27.521  1.00  0.00     0.002 A 
ATOM     86  C   UNL A   1      45.713  31.072  27.397  1.00  0.00     0.091 A 
ATOM     87  F   UNL A   1      44.120  30.291  28.991  1.00  0.00    -0.205 F 
ATOM     88  C   UNL A   1      47.030  31.075  26.911  1.00  0.00     0.022 A 
BRANCH  86  89
ATOM     89  S   UNL A   1      44.478  32.007  26.490  1.00  0.00     0.127 S 
ATOM     90  O   UNL A   1      45.246  32.504  25.352  1.00  0.00    -0.237 OA
ATOM     91  O   UNL A   1      43.486  30.981  26.158  1.00  0.00    -0.237 OA
ATOM     92  O   UNL A   1      43.990  33.024  27.414  1.00  0.00    -0.744 OA
ENDBRANCH  86  89
ENDBRANCH  59  82
ENDBRANCH  33  34
ENDBRANCH  26  28
ENDBRANCH  25  26
ENDBRANCH  24  25
ENDBRANCH   1  24
TORSDOF 17
ENDMDL
