MODEL 1
REMARK VINA RESULT:     -11.7      0.000      0.000
REMARK SMILES CCOc1cnc(C(=O)c2[nH]c3cc(Cl)ccc3c2CC(=O)OCCOC(=O)c2ccc(-c3c4nc(c(-c5cccc(S(=O)(=O)[O-])c5F)c5ccc([nH]5)c(-c5cccc(S(=O)(=O)[O-])c5F)c5nc(c(-c6cccc(S(=O)(=O)[O-])c6F)c6ccc3[nH]6)C=C5)C=C4)cc2)cc1CC
REMARK SMILES IDX 24 1 23 2 21 3 22 4 20 5 19 6 10 7 11 8 12 9 18 11 13 12
REMARK SMILES IDX 17 13 14 14 16 15 15 16 8 17 9 18 7 19 4 20 5 21 93 22 6 23
REMARK SMILES IDX 92 24 3 25 2 26 1 27 94 28 95 29 25 30 26 31 27 32 28 33
REMARK SMILES IDX 29 34 30 35 91 36 31 37 90 38 32 39 33 40 34 41 84 42 35 43
REMARK SMILES IDX 89 44 83 45 85 46 36 47 88 48 82 49 81 50 37 52 69 53 49 54
REMARK SMILES IDX 68 55 50 56 53 57 67 58 86 59 51 60 52 61 66 63 87 64 54 65
REMARK SMILES IDX 38 66 39 67 47 68 40 69 42 70 48 71 41 72 43 73 44 74 45 75
REMARK SMILES IDX 46 76 70 77 71 78 79 79 72 80 74 81 80 82 73 83 75 84 76 85
REMARK SMILES IDX 77 86 78 87 55 88 56 89 64 90 57 91 59 92 65 93 58 94 60 95
REMARK SMILES IDX 61 96 62 97 63 98
REMARK H PARENT 11 10 85 51 53 62
REMARK Flexibility Score: inf
ROOT
ATOM      1  C   UNL A   1      31.974  28.260  27.313  1.00  0.00     0.274 C 
ENDROOT
BRANCH   1   2
ATOM      2  O   UNL A   1      31.250  27.206  26.640  1.00  0.00    -0.462 OA
BRANCH   2   3
ATOM      3  C   UNL A   1      31.889  26.016  26.515  1.00  0.00     0.310 C 
ATOM      4  O   UNL A   1      31.416  24.940  26.877  1.00  0.00    -0.252 OA
BRANCH   3   5
ATOM      5  C   UNL A   1      33.196  26.077  25.750  1.00  0.00     0.161 C 
BRANCH   5   6
ATOM      6  C   UNL A   1      33.566  24.910  24.888  1.00  0.00     0.000 A 
ATOM      7  C   UNL A   1      32.785  24.259  23.936  1.00  0.00     0.093 A 
ATOM      8  N   UNL A   1      33.558  23.257  23.396  1.00  0.00    -0.351 N 
ATOM      9  C   UNL A   1      34.697  23.075  24.135  1.00  0.00     0.048 A 
ATOM     10  H   UNL A   1      33.324  22.742  22.591  1.00  0.00     0.167 HD
ATOM     11  C   UNL A   1      34.776  24.143  25.025  1.00  0.00     0.004 A 
ATOM     12  C   UNL A   1      35.650  22.053  24.077  1.00  0.00     0.047 A 
ATOM     13  C   UNL A   1      35.902  24.226  25.872  1.00  0.00     0.012 A 
ATOM     14  C   UNL A   1      36.733  22.140  24.954  1.00  0.00     0.043 A 
ATOM     15  C   UNL A   1      36.872  23.214  25.830  1.00  0.00     0.021 A 
ATOM     16  Cl  UNL A   1      37.914  20.886  24.954  1.00  0.00    -0.084 Cl
BRANCH   7  17
ATOM     17  C   UNL A   1      31.415  24.429  23.466  1.00  0.00     0.227 C 
ATOM     18  O   UNL A   1      30.584  23.535  23.629  1.00  0.00    -0.285 OA
BRANCH  17  19
ATOM     19  C   UNL A   1      30.940  25.828  23.131  1.00  0.00     0.113 A 
ATOM     20  C   UNL A   1      30.353  28.510  23.339  1.00  0.00     0.140 A 
ATOM     21  C   UNL A   1      29.430  27.511  23.630  1.00  0.00     0.158 A 
ATOM     22  C   UNL A   1      31.625  28.135  22.905  1.00  0.00    -0.002 A 
ATOM     23  N   UNL A   1      29.699  26.184  23.555  1.00  0.00    -0.249 NA
ATOM     24  C   UNL A   1      31.889  26.770  22.727  1.00  0.00     0.040 A 
BRANCH  20  25
ATOM     25  O   UNL A   1      30.095  29.810  23.656  1.00  0.00    -0.492 OA
BRANCH  25  26
ATOM     26  C   UNL A   1      29.093  30.402  22.821  1.00  0.00     0.226 C 
ATOM     27  C   UNL A   1      28.304  31.409  23.642  1.00  0.00     0.049 C 
ENDBRANCH  25  26
ENDBRANCH  20  25
BRANCH  22  28
ATOM     28  C   UNL A   1      32.755  29.125  22.765  1.00  0.00     0.036 C 
ATOM     29  C   UNL A   1      34.070  28.424  22.435  1.00  0.00     0.009 C 
ENDBRANCH  22  28
ENDBRANCH  17  19
ENDBRANCH   7  17
ENDBRANCH   5   6
ENDBRANCH   3   5
ENDBRANCH   2   3
ENDBRANCH   1   2
BRANCH   1  30
ATOM     30  C   UNL A   1      31.686  29.631  26.679  1.00  0.00     0.275 C 
BRANCH  30  31
ATOM     31  O   UNL A   1      32.875  30.277  26.176  1.00  0.00    -0.458 OA
BRANCH  31  32
ATOM     32  C   UNL A   1      33.374  31.205  27.014  1.00  0.00     0.338 C 
ATOM     33  O   UNL A   1      32.784  32.187  27.443  1.00  0.00    -0.246 OA
BRANCH  32  34
ATOM     34  C   UNL A   1      34.709  30.900  27.513  1.00  0.00     0.060 A 
ATOM     35  C   UNL A   1      34.958  29.588  27.920  1.00  0.00     0.016 A 
ATOM     36  C   UNL A   1      35.589  31.934  27.834  1.00  0.00     0.016 A 
ATOM     37  C   UNL A   1      36.066  29.312  28.710  1.00  0.00     0.010 A 
ATOM     38  C   UNL A   1      36.738  31.641  28.572  1.00  0.00     0.010 A 
ATOM     39  C   UNL A   1      36.970  30.334  29.034  1.00  0.00    -0.014 A 
BRANCH  39  40
ATOM     40  C   UNL A   1      38.202  30.000  29.785  1.00  0.00     0.031 A 
ATOM     41  C   UNL A   1      39.211  29.029  29.248  1.00  0.00     0.074 A 
ATOM     42  C   UNL A   1      38.385  30.584  30.983  1.00  0.00     0.049 A 
ATOM     43  N   UNL A   1      40.335  28.636  29.788  1.00  0.00    -0.248 NA
ATOM     44  C   UNL A   1      38.931  28.417  27.939  1.00  0.00     0.031 C 
ATOM     45  C   UNL A   1      37.448  31.521  31.610  1.00  0.00     0.029 A 
ATOM     46  N   UNL A   1      39.398  30.461  31.897  1.00  0.00    -0.354 N 
ATOM     47  C   UNL A   1      40.891  27.726  28.900  1.00  0.00     0.074 A 
ATOM     48  C   UNL A   1      39.974  27.609  27.787  1.00  0.00     0.031 C 
ATOM     49  C   UNL A   1      37.922  31.876  32.811  1.00  0.00     0.029 A 
ATOM     50  C   UNL A   1      39.168  31.161  33.057  1.00  0.00     0.049 A 
ATOM     51  H   UNL A   1      40.208  29.926  31.738  1.00  0.00     0.167 HD
ATOM     52  C   UNL A   1      42.072  27.071  28.996  1.00  0.00     0.034 A 
ATOM     53  C   UNL A   1      39.866  31.199  34.208  1.00  0.00     0.034 A 
ATOM     54  C   UNL A   1      42.981  27.199  30.104  1.00  0.00     0.049 A 
ATOM     55  C   UNL A   1      41.145  30.424  34.305  1.00  0.00     0.074 A 
ATOM     56  C   UNL A   1      44.228  26.621  30.263  1.00  0.00     0.029 A 
ATOM     57  N   UNL A   1      42.731  27.937  31.250  1.00  0.00    -0.354 N 
ATOM     58  N   UNL A   1      41.732  29.694  33.388  1.00  0.00    -0.248 NA
ATOM     59  C   UNL A   1      41.871  30.496  35.579  1.00  0.00     0.031 C 
ATOM     60  C   UNL A   1      44.728  27.003  31.513  1.00  0.00     0.029 A 
ATOM     61  C   UNL A   1      43.791  27.815  32.132  1.00  0.00     0.049 A 
ATOM     62  H   UNL A   1      41.920  28.470  31.413  1.00  0.00     0.167 HD
ATOM     63  C   UNL A   1      42.906  29.230  33.968  1.00  0.00     0.074 A 
ATOM     64  C   UNL A   1      42.957  29.783  35.306  1.00  0.00     0.031 C 
ATOM     65  C   UNL A   1      43.846  28.406  33.444  1.00  0.00     0.034 A 
BRANCH  52  66
ATOM     66  C   UNL A   1      42.496  26.208  27.841  1.00  0.00     0.023 A 
ATOM     67  C   UNL A   1      43.422  26.727  26.917  1.00  0.00     0.012 A 
ATOM     68  C   UNL A   1      42.062  24.877  27.714  1.00  0.00     0.148 A 
ATOM     69  C   UNL A   1      43.899  25.940  25.870  1.00  0.00     0.002 A 
ATOM     70  C   UNL A   1      42.562  24.087  26.683  1.00  0.00     0.091 A 
ATOM     71  F   UNL A   1      41.160  24.408  28.590  1.00  0.00    -0.205 F 
ATOM     72  C   UNL A   1      43.477  24.618  25.758  1.00  0.00     0.022 A 
BRANCH  70  73
ATOM     73  S   UNL A   1      42.114  22.356  26.517  1.00  0.00     0.127 S 
ATOM     74  O   UNL A   1      40.663  22.439  26.366  1.00  0.00    -0.237 OA
ATOM     75  O   UNL A   1      42.832  21.954  25.306  1.00  0.00    -0.237 OA
ATOM     76  O   UNL A   1      42.594  21.717  27.735  1.00  0.00    -0.744 OA
ENDBRANCH  70  73
ENDBRANCH  52  66
BRANCH  53  77
ATOM     77  C   UNL A   1      39.361  32.034  35.329  1.00  0.00     0.023 A 
ATOM     78  C   UNL A   1      38.560  31.449  36.325  1.00  0.00     0.012 A 
ATOM     79  C   UNL A   1      39.759  33.379  35.467  1.00  0.00     0.148 A 
ATOM     80  C   UNL A   1      38.158  32.189  37.437  1.00  0.00     0.002 A 
ATOM     81  C   UNL A   1      39.404  34.094  36.605  1.00  0.00     0.091 A 
ATOM     82  F   UNL A   1      40.504  33.929  34.496  1.00  0.00    -0.205 F 
ATOM     83  C   UNL A   1      38.593  33.505  37.586  1.00  0.00     0.022 A 
BRANCH  81  84
ATOM     84  S   UNL A   1      40.069  35.732  36.925  1.00  0.00     0.127 S 
ATOM     85  O   UNL A   1      39.453  36.062  38.207  1.00  0.00    -0.237 OA
ATOM     86  O   UNL A   1      41.510  35.482  36.980  1.00  0.00    -0.237 OA
ATOM     87  O   UNL A   1      39.653  36.536  35.782  1.00  0.00    -0.744 OA
ENDBRANCH  81  84
ENDBRANCH  53  77
BRANCH  65  88
ATOM     88  C   UNL A   1      45.011  28.046  34.320  1.00  0.00     0.023 A 
ATOM     89  C   UNL A   1      46.139  28.888  34.343  1.00  0.00     0.012 A 
ATOM     90  C   UNL A   1      44.962  26.927  35.171  1.00  0.00     0.148 A 
ATOM     91  C   UNL A   1      47.211  28.611  35.189  1.00  0.00     0.002 A 
ATOM     92  C   UNL A   1      46.019  26.677  36.039  1.00  0.00     0.091 A 
ATOM     93  F   UNL A   1      43.890  26.121  35.115  1.00  0.00    -0.205 F 
ATOM     94  C   UNL A   1      47.146  27.513  36.046  1.00  0.00     0.022 A 
BRANCH  92  95
ATOM     95  S   UNL A   1      45.958  25.332  37.230  1.00  0.00     0.127 S 
ATOM     96  O   UNL A   1      45.942  24.160  36.357  1.00  0.00    -0.237 OA
ATOM     97  O   UNL A   1      47.200  25.514  37.982  1.00  0.00    -0.237 OA
ATOM     98  O   UNL A   1      44.750  25.561  38.010  1.00  0.00    -0.744 OA
ENDBRANCH  92  95
ENDBRANCH  65  88
ENDBRANCH  39  40
ENDBRANCH  32  34
ENDBRANCH  31  32
ENDBRANCH  30  31
ENDBRANCH   1  30
TORSDOF 20
ENDMDL
MODEL 2
REMARK VINA RESULT:     -11.3      2.563      8.562
REMARK SMILES CCOc1cnc(C(=O)c2[nH]c3cc(Cl)ccc3c2CC(=O)OCCOC(=O)c2ccc(-c3c4nc(c(-c5cccc(S(=O)(=O)[O-])c5F)c5ccc([nH]5)c(-c5cccc(S(=O)(=O)[O-])c5F)c5nc(c(-c6cccc(S(=O)(=O)[O-])c6F)c6ccc3[nH]6)C=C5)C=C4)cc2)cc1CC
REMARK SMILES IDX 24 1 23 2 21 3 22 4 20 5 19 6 10 7 11 8 12 9 18 11 13 12
REMARK SMILES IDX 17 13 14 14 16 15 15 16 8 17 9 18 7 19 4 20 5 21 93 22 6 23
REMARK SMILES IDX 92 24 3 25 2 26 1 27 94 28 95 29 25 30 26 31 27 32 28 33
REMARK SMILES IDX 29 34 30 35 91 36 31 37 90 38 32 39 33 40 34 41 84 42 35 43
REMARK SMILES IDX 89 44 83 45 85 46 36 47 88 48 82 49 81 50 37 52 69 53 49 54
REMARK SMILES IDX 68 55 50 56 53 57 67 58 86 59 51 60 52 61 66 63 87 64 54 65
REMARK SMILES IDX 38 66 39 67 47 68 40 69 42 70 48 71 41 72 43 73 44 74 45 75
REMARK SMILES IDX 46 76 70 77 71 78 79 79 72 80 74 81 80 82 73 83 75 84 76 85
REMARK SMILES IDX 77 86 78 87 55 88 56 89 64 90 57 91 59 92 65 93 58 94 60 95
REMARK SMILES IDX 61 96 62 97 63 98
REMARK H PARENT 11 10 85 51 53 62
REMARK Flexibility Score: inf
ROOT
ATOM      1  C   UNL A   1      31.578  31.567  26.604  1.00  0.00     0.274 C 
ENDROOT
BRANCH   1   2
ATOM      2  O   UNL A   1      32.840  30.869  26.507  1.00  0.00    -0.462 OA
BRANCH   2   3
ATOM      3  C   UNL A   1      32.799  29.611  26.001  1.00  0.00     0.310 C 
ATOM      4  O   UNL A   1      33.762  28.847  25.979  1.00  0.00    -0.252 OA
BRANCH   3   5
ATOM      5  C   UNL A   1      31.420  29.142  25.584  1.00  0.00     0.161 C 
BRANCH   5   6
ATOM      6  C   UNL A   1      31.070  29.177  24.128  1.00  0.00     0.000 A 
ATOM      7  C   UNL A   1      31.714  28.536  23.071  1.00  0.00     0.093 A 
ATOM      8  N   UNL A   1      31.026  28.857  21.925  1.00  0.00    -0.351 N 
ATOM      9  C   UNL A   1      30.135  29.870  22.164  1.00  0.00     0.048 A 
ATOM     10  H   UNL A   1      31.154  28.419  21.053  1.00  0.00     0.167 HD
ATOM     11  C   UNL A   1      30.077  30.039  23.545  1.00  0.00     0.004 A 
ATOM     12  C   UNL A   1      29.386  30.638  21.266  1.00  0.00     0.047 A 
ATOM     13  C   UNL A   1      29.178  30.994  24.065  1.00  0.00     0.012 A 
ATOM     14  C   UNL A   1      28.535  31.602  21.807  1.00  0.00     0.043 A 
ATOM     15  C   UNL A   1      28.415  31.773  23.184  1.00  0.00     0.021 A 
ATOM     16  Cl  UNL A   1      27.621  32.604  20.744  1.00  0.00    -0.084 Cl
BRANCH   7  17
ATOM     17  C   UNL A   1      32.890  27.678  22.975  1.00  0.00     0.227 C 
ATOM     18  O   UNL A   1      34.013  28.170  22.861  1.00  0.00    -0.285 OA
BRANCH  17  19
ATOM     19  C   UNL A   1      32.756  26.229  23.396  1.00  0.00     0.113 A 
ATOM     20  C   UNL A   1      32.877  23.479  23.373  1.00  0.00     0.140 A 
ATOM     21  C   UNL A   1      31.759  24.187  22.948  1.00  0.00     0.158 A 
ATOM     22  C   UNL A   1      33.977  24.193  23.848  1.00  0.00    -0.002 A 
ATOM     23  N   UNL A   1      31.680  25.542  22.931  1.00  0.00    -0.249 NA
ATOM     24  C   UNL A   1      33.877  25.588  23.929  1.00  0.00     0.040 A 
BRANCH  20  25
ATOM     25  O   UNL A   1      32.977  22.137  23.149  1.00  0.00    -0.492 OA
BRANCH  25  26
ATOM     26  C   UNL A   1      32.539  21.349  24.261  1.00  0.00     0.226 C 
ATOM     27  C   UNL A   1      32.548  19.884  23.856  1.00  0.00     0.049 C 
ENDBRANCH  25  26
ENDBRANCH  20  25
BRANCH  22  28
ATOM     28  C   UNL A   1      35.305  23.535  24.134  1.00  0.00     0.036 C 
ATOM     29  C   UNL A   1      35.529  23.366  25.634  1.00  0.00     0.009 C 
ENDBRANCH  22  28
ENDBRANCH  17  19
ENDBRANCH   7  17
ENDBRANCH   5   6
ENDBRANCH   3   5
ENDBRANCH   2   3
ENDBRANCH   1   2
BRANCH   1  30
ATOM     30  C   UNL A   1      31.780  33.032  27.025  1.00  0.00     0.275 C 
BRANCH  30  31
ATOM     31  O   UNL A   1      33.168  33.429  27.025  1.00  0.00    -0.458 OA
BRANCH  31  32
ATOM     32  C   UNL A   1      33.504  34.193  28.082  1.00  0.00     0.338 C 
ATOM     33  O   UNL A   1      32.991  35.257  28.401  1.00  0.00    -0.246 OA
BRANCH  32  34
ATOM     34  C   UNL A   1      34.504  33.594  28.956  1.00  0.00     0.060 A 
ATOM     35  C   UNL A   1      35.781  34.158  28.952  1.00  0.00     0.016 A 
ATOM     36  C   UNL A   1      34.268  32.349  29.539  1.00  0.00     0.016 A 
ATOM     37  C   UNL A   1      36.849  33.446  29.482  1.00  0.00     0.010 A 
ATOM     38  C   UNL A   1      35.333  31.665  30.131  1.00  0.00     0.010 A 
ATOM     39  C   UNL A   1      36.632  32.198  30.084  1.00  0.00    -0.014 A 
BRANCH  39  40
ATOM     40  C   UNL A   1      37.765  31.504  30.738  1.00  0.00     0.031 A 
ATOM     41  C   UNL A   1      38.193  31.842  32.135  1.00  0.00     0.074 A 
ATOM     42  C   UNL A   1      38.416  30.563  30.032  1.00  0.00     0.049 A 
ATOM     43  N   UNL A   1      39.164  31.323  32.840  1.00  0.00    -0.248 NA
ATOM     44  C   UNL A   1      37.442  32.896  32.836  1.00  0.00     0.031 C 
ATOM     45  C   UNL A   1      38.097  30.178  28.654  1.00  0.00     0.029 A 
ATOM     46  N   UNL A   1      39.491  29.778  30.358  1.00  0.00    -0.354 N 
ATOM     47  C   UNL A   1      39.153  31.988  34.058  1.00  0.00     0.074 A 
ATOM     48  C   UNL A   1      38.087  32.965  33.995  1.00  0.00     0.031 C 
ATOM     49  C   UNL A   1      38.967  29.245  28.247  1.00  0.00     0.029 A 
ATOM     50  C   UNL A   1      39.927  28.996  29.315  1.00  0.00     0.049 A 
ATOM     51  H   UNL A   1      39.908  29.775  31.249  1.00  0.00     0.167 HD
ATOM     52  C   UNL A   1      39.944  31.781  35.137  1.00  0.00     0.034 A 
ATOM     53  C   UNL A   1      41.001  28.191  29.216  1.00  0.00     0.034 A 
ATOM     54  C   UNL A   1      40.997  30.803  35.193  1.00  0.00     0.049 A 
ATOM     55  C   UNL A   1      41.890  28.018  30.410  1.00  0.00     0.074 A 
ATOM     56  C   UNL A   1      41.813  30.479  36.262  1.00  0.00     0.029 A 
ATOM     57  N   UNL A   1      41.394  30.008  34.129  1.00  0.00    -0.354 N 
ATOM     58  N   UNL A   1      41.765  28.540  31.607  1.00  0.00    -0.248 NA
ATOM     59  C   UNL A   1      43.049  27.131  30.255  1.00  0.00     0.031 C 
ATOM     60  C   UNL A   1      42.713  29.494  35.840  1.00  0.00     0.029 A 
ATOM     61  C   UNL A   1      42.457  29.207  34.509  1.00  0.00     0.049 A 
ATOM     62  H   UNL A   1      40.981  30.012  33.236  1.00  0.00     0.167 HD
ATOM     63  C   UNL A   1      42.820  28.033  32.353  1.00  0.00     0.074 A 
ATOM     64  C   UNL A   1      43.560  27.144  31.480  1.00  0.00     0.031 C 
ATOM     65  C   UNL A   1      43.155  28.295  33.640  1.00  0.00     0.034 A 
BRANCH  52  66
ATOM     66  C   UNL A   1      39.661  32.575  36.381  1.00  0.00     0.023 A 
ATOM     67  C   UNL A   1      40.315  33.809  36.556  1.00  0.00     0.012 A 
ATOM     68  C   UNL A   1      38.699  32.161  37.320  1.00  0.00     0.148 A 
ATOM     69  C   UNL A   1      40.032  34.614  37.659  1.00  0.00     0.002 A 
ATOM     70  C   UNL A   1      38.401  32.982  38.403  1.00  0.00     0.091 A 
ATOM     71  F   UNL A   1      38.104  30.971  37.149  1.00  0.00    -0.205 F 
ATOM     72  C   UNL A   1      39.069  34.206  38.577  1.00  0.00     0.022 A 
BRANCH  70  73
ATOM     73  S   UNL A   1      37.123  32.552  39.590  1.00  0.00     0.127 S 
ATOM     74  O   UNL A   1      37.264  33.621  40.577  1.00  0.00    -0.237 OA
ATOM     75  O   UNL A   1      35.902  32.622  38.786  1.00  0.00    -0.237 OA
ATOM     76  O   UNL A   1      37.461  31.211  40.048  1.00  0.00    -0.744 OA
ENDBRANCH  70  73
ENDBRANCH  52  66
BRANCH  53  77
ATOM     77  C   UNL A   1      41.250  27.475  27.937  1.00  0.00     0.023 A 
ATOM     78  C   UNL A   1      41.763  28.181  26.835  1.00  0.00     0.012 A 
ATOM     79  C   UNL A   1      41.078  26.079  27.842  1.00  0.00     0.148 A 
ATOM     80  C   UNL A   1      42.096  27.511  25.657  1.00  0.00     0.002 A 
ATOM     81  C   UNL A   1      41.466  25.411  26.688  1.00  0.00     0.091 A 
ATOM     82  F   UNL A   1      40.565  25.425  28.895  1.00  0.00    -0.205 F 
ATOM     83  C   UNL A   1      41.965  26.125  25.589  1.00  0.00     0.022 A 
BRANCH  81  84
ATOM     84  S   UNL A   1      41.471  23.615  26.605  1.00  0.00     0.127 S 
ATOM     85  O   UNL A   1      42.087  23.256  27.879  1.00  0.00    -0.237 OA
ATOM     86  O   UNL A   1      40.045  23.301  26.500  1.00  0.00    -0.237 OA
ATOM     87  O   UNL A   1      42.235  23.297  25.406  1.00  0.00    -0.744 OA
ENDBRANCH  81  84
ENDBRANCH  53  77
BRANCH  65  88
ATOM     88  C   UNL A   1      44.380  27.616  34.184  1.00  0.00     0.023 A 
ATOM     89  C   UNL A   1      45.636  28.231  34.022  1.00  0.00     0.012 A 
ATOM     90  C   UNL A   1      44.281  26.419  34.918  1.00  0.00     0.148 A 
ATOM     91  C   UNL A   1      46.781  27.653  34.567  1.00  0.00     0.002 A 
ATOM     92  C   UNL A   1      45.422  25.869  35.490  1.00  0.00     0.091 A 
ATOM     93  F   UNL A   1      43.080  25.835  35.039  1.00  0.00    -0.205 F 
ATOM     94  C   UNL A   1      46.673  26.480  35.312  1.00  0.00     0.022 A 
BRANCH  92  95
ATOM     95  S   UNL A   1      45.338  24.408  36.534  1.00  0.00     0.127 S 
ATOM     96  O   UNL A   1      44.548  24.893  37.664  1.00  0.00    -0.237 OA
ATOM     97  O   UNL A   1      44.649  23.442  35.678  1.00  0.00    -0.237 OA
ATOM     98  O   UNL A   1      46.723  24.063  36.828  1.00  0.00    -0.744 OA
ENDBRANCH  92  95
ENDBRANCH  65  88
ENDBRANCH  39  40
ENDBRANCH  32  34
ENDBRANCH  31  32
ENDBRANCH  30  31
ENDBRANCH   1  30
TORSDOF 20
ENDMDL
MODEL 3
REMARK VINA RESULT:     -11.3      2.457      4.483
REMARK SMILES CCOc1cnc(C(=O)c2[nH]c3cc(Cl)ccc3c2CC(=O)OCCOC(=O)c2ccc(-c3c4nc(c(-c5cccc(S(=O)(=O)[O-])c5F)c5ccc([nH]5)c(-c5cccc(S(=O)(=O)[O-])c5F)c5nc(c(-c6cccc(S(=O)(=O)[O-])c6F)c6ccc3[nH]6)C=C5)C=C4)cc2)cc1CC
REMARK SMILES IDX 24 1 23 2 21 3 22 4 20 5 19 6 10 7 11 8 12 9 18 11 13 12
REMARK SMILES IDX 17 13 14 14 16 15 15 16 8 17 9 18 7 19 4 20 5 21 93 22 6 23
REMARK SMILES IDX 92 24 3 25 2 26 1 27 94 28 95 29 25 30 26 31 27 32 28 33
REMARK SMILES IDX 29 34 30 35 91 36 31 37 90 38 32 39 33 40 34 41 84 42 35 43
REMARK SMILES IDX 89 44 83 45 85 46 36 47 88 48 82 49 81 50 37 52 69 53 49 54
REMARK SMILES IDX 68 55 50 56 53 57 67 58 86 59 51 60 52 61 66 63 87 64 54 65
REMARK SMILES IDX 38 66 39 67 47 68 40 69 42 70 48 71 41 72 43 73 44 74 45 75
REMARK SMILES IDX 46 76 70 77 71 78 79 79 72 80 74 81 80 82 73 83 75 84 76 85
REMARK SMILES IDX 77 86 78 87 55 88 56 89 64 90 57 91 59 92 65 93 58 94 60 95
REMARK SMILES IDX 61 96 62 97 63 98
REMARK H PARENT 11 10 85 51 53 62
REMARK Flexibility Score: inf
ROOT
ATOM      1  C   UNL A   1      31.503  31.567  26.722  1.00  0.00     0.274 C 
ENDROOT
BRANCH   1   2
ATOM      2  O   UNL A   1      32.691  30.744  26.697  1.00  0.00    -0.462 OA
BRANCH   2   3
ATOM      3  C   UNL A   1      32.718  29.747  25.778  1.00  0.00     0.310 C 
ATOM      4  O   UNL A   1      33.749  29.299  25.280  1.00  0.00    -0.252 OA
BRANCH   3   5
ATOM      5  C   UNL A   1      31.374  29.104  25.502  1.00  0.00     0.161 C 
BRANCH   5   6
ATOM      6  C   UNL A   1      30.873  29.089  24.091  1.00  0.00     0.000 A 
ATOM      7  C   UNL A   1      31.278  28.266  23.041  1.00  0.00     0.093 A 
ATOM      8  N   UNL A   1      30.528  28.614  21.943  1.00  0.00    -0.351 N 
ATOM      9  C   UNL A   1      29.851  29.783  22.171  1.00  0.00     0.048 A 
ATOM     10  H   UNL A   1      30.483  28.095  21.108  1.00  0.00     0.167 HD
ATOM     11  C   UNL A   1      29.978  30.065  23.529  1.00  0.00     0.004 A 
ATOM     12  C   UNL A   1      29.144  30.599  21.282  1.00  0.00     0.047 A 
ATOM     13  C   UNL A   1      29.315  31.200  24.041  1.00  0.00     0.012 A 
ATOM     14  C   UNL A   1      28.531  31.737  21.809  1.00  0.00     0.043 A 
ATOM     15  C   UNL A   1      28.598  32.031  23.169  1.00  0.00     0.021 A 
ATOM     16  Cl  UNL A   1      27.684  32.799  20.750  1.00  0.00    -0.084 Cl
BRANCH   7  17
ATOM     17  C   UNL A   1      32.277  27.210  22.913  1.00  0.00     0.227 C 
ATOM     18  O   UNL A   1      33.359  27.438  22.373  1.00  0.00    -0.285 OA
BRANCH  17  19
ATOM     19  C   UNL A   1      32.124  25.971  23.771  1.00  0.00     0.113 A 
ATOM     20  C   UNL A   1      32.070  23.339  24.576  1.00  0.00     0.140 A 
ATOM     21  C   UNL A   1      30.943  24.008  24.111  1.00  0.00     0.158 A 
ATOM     22  C   UNL A   1      33.275  24.038  24.654  1.00  0.00    -0.002 A 
ATOM     23  N   UNL A   1      30.946  25.298  23.691  1.00  0.00    -0.249 NA
ATOM     24  C   UNL A   1      33.275  25.398  24.316  1.00  0.00     0.040 A 
BRANCH  20  25
ATOM     25  O   UNL A   1      32.050  21.988  24.761  1.00  0.00    -0.492 OA
BRANCH  25  26
ATOM     26  C   UNL A   1      32.417  21.256  23.586  1.00  0.00     0.226 C 
ATOM     27  C   UNL A   1      32.432  19.773  23.918  1.00  0.00     0.049 C 
ENDBRANCH  25  26
ENDBRANCH  20  25
BRANCH  22  28
ATOM     28  C   UNL A   1      34.589  23.354  24.943  1.00  0.00     0.036 C 
ATOM     29  C   UNL A   1      35.662  24.360  25.347  1.00  0.00     0.009 C 
ENDBRANCH  22  28
ENDBRANCH  17  19
ENDBRANCH   7  17
ENDBRANCH   5   6
ENDBRANCH   3   5
ENDBRANCH   2   3
ENDBRANCH   1   2
BRANCH   1  30
ATOM     30  C   UNL A   1      31.848  33.041  26.994  1.00  0.00     0.275 C 
BRANCH  30  31
ATOM     31  O   UNL A   1      33.265  33.306  26.923  1.00  0.00    -0.458 OA
BRANCH  31  32
ATOM     32  C   UNL A   1      33.799  33.677  28.102  1.00  0.00     0.338 C 
ATOM     33  O   UNL A   1      33.328  34.490  28.888  1.00  0.00    -0.246 OA
BRANCH  32  34
ATOM     34  C   UNL A   1      34.989  32.927  28.480  1.00  0.00     0.060 A 
ATOM     35  C   UNL A   1      34.812  31.814  29.304  1.00  0.00     0.016 A 
ATOM     36  C   UNL A   1      36.256  33.470  28.265  1.00  0.00     0.016 A 
ATOM     37  C   UNL A   1      35.902  31.271  29.970  1.00  0.00     0.010 A 
ATOM     38  C   UNL A   1      37.360  32.880  28.884  1.00  0.00     0.010 A 
ATOM     39  C   UNL A   1      37.186  31.793  29.759  1.00  0.00    -0.014 A 
BRANCH  39  40
ATOM     40  C   UNL A   1      38.350  31.133  30.394  1.00  0.00     0.031 A 
ATOM     41  C   UNL A   1      39.111  30.043  29.700  1.00  0.00     0.074 A 
ATOM     42  C   UNL A   1      38.699  31.531  31.631  1.00  0.00     0.049 A 
ATOM     43  N   UNL A   1      40.148  29.371  30.127  1.00  0.00    -0.248 NA
ATOM     44  C   UNL A   1      38.656  29.651  28.356  1.00  0.00     0.031 C 
ATOM     45  C   UNL A   1      38.006  32.564  32.406  1.00  0.00     0.029 A 
ATOM     46  N   UNL A   1      39.700  31.103  32.462  1.00  0.00    -0.354 N 
ATOM     47  C   UNL A   1      40.466  28.472  29.119  1.00  0.00     0.074 A 
ATOM     48  C   UNL A   1      39.500  28.669  28.058  1.00  0.00     0.031 C 
ATOM     49  C   UNL A   1      38.591  32.678  33.605  1.00  0.00     0.029 A 
ATOM     50  C   UNL A   1      39.669  31.702  33.699  1.00  0.00     0.049 A 
ATOM     51  H   UNL A   1      40.373  30.435  32.200  1.00  0.00     0.167 HD
ATOM     52  C   UNL A   1      41.486  27.583  29.074  1.00  0.00     0.034 A 
ATOM     53  C   UNL A   1      40.405  31.468  34.802  1.00  0.00     0.034 A 
ATOM     54  C   UNL A   1      42.445  27.399  30.130  1.00  0.00     0.049 A 
ATOM     55  C   UNL A   1      41.496  30.443  34.741  1.00  0.00     0.074 A 
ATOM     56  C   UNL A   1      43.549  26.565  30.152  1.00  0.00     0.029 A 
ATOM     57  N   UNL A   1      42.402  28.040  31.358  1.00  0.00    -0.354 N 
ATOM     58  N   UNL A   1      41.880  29.714  33.721  1.00  0.00    -0.248 NA
ATOM     59  C   UNL A   1      42.272  30.222  35.967  1.00  0.00     0.031 C 
ATOM     60  C   UNL A   1      44.167  26.695  31.400  1.00  0.00     0.029 A 
ATOM     61  C   UNL A   1      43.447  27.607  32.155  1.00  0.00     0.049 A 
ATOM     62  H   UNL A   1      41.727  28.706  31.624  1.00  0.00     0.167 HD
ATOM     63  C   UNL A   1      42.952  28.960  34.176  1.00  0.00     0.074 A 
ATOM     64  C   UNL A   1      43.172  29.338  35.557  1.00  0.00     0.031 C 
ATOM     65  C   UNL A   1      43.677  28.025  33.514  1.00  0.00     0.034 A 
BRANCH  52  66
ATOM     66  C   UNL A   1      41.672  26.787  27.814  1.00  0.00     0.023 A 
ATOM     67  C   UNL A   1      42.219  27.427  26.687  1.00  0.00     0.012 A 
ATOM     68  C   UNL A   1      41.400  25.408  27.763  1.00  0.00     0.148 A 
ATOM     69  C   UNL A   1      42.476  26.713  25.517  1.00  0.00     0.002 A 
ATOM     70  C   UNL A   1      41.686  24.694  26.603  1.00  0.00     0.091 A 
ATOM     71  F   UNL A   1      40.857  24.819  28.839  1.00  0.00    -0.205 F 
ATOM     72  C   UNL A   1      42.219  25.346  25.478  1.00  0.00     0.022 A 
BRANCH  70  73
ATOM     73  S   UNL A   1      41.442  22.918  26.503  1.00  0.00     0.127 S 
ATOM     74  O   UNL A   1      41.998  22.471  27.779  1.00  0.00    -0.237 OA
ATOM     75  O   UNL A   1      39.987  22.799  26.398  1.00  0.00    -0.237 OA
ATOM     76  O   UNL A   1      42.164  22.498  25.309  1.00  0.00    -0.744 OA
ENDBRANCH  70  73
ENDBRANCH  52  66
BRANCH  53  77
ATOM     77  C   UNL A   1      40.132  32.259  36.031  1.00  0.00     0.023 A 
ATOM     78  C   UNL A   1      40.870  33.428  36.283  1.00  0.00     0.012 A 
ATOM     79  C   UNL A   1      39.074  31.912  36.895  1.00  0.00     0.148 A 
ATOM     80  C   UNL A   1      40.563  34.237  37.378  1.00  0.00     0.002 A 
ATOM     81  C   UNL A   1      38.736  32.752  37.949  1.00  0.00     0.091 A 
ATOM     82  F   UNL A   1      38.395  30.780  36.653  1.00  0.00    -0.205 F 
ATOM     83  C   UNL A   1      39.487  33.909  38.200  1.00  0.00     0.022 A 
BRANCH  81  84
ATOM     84  S   UNL A   1      37.264  32.465  38.938  1.00  0.00     0.127 S 
ATOM     85  O   UNL A   1      36.199  32.825  38.007  1.00  0.00    -0.237 OA
ATOM     86  O   UNL A   1      37.361  31.036  39.240  1.00  0.00    -0.237 OA
ATOM     87  O   UNL A   1      37.421  33.326  40.104  1.00  0.00    -0.744 OA
ENDBRANCH  81  84
ENDBRANCH  53  77
BRANCH  65  88
ATOM     88  C   UNL A   1      44.776  27.340  34.275  1.00  0.00     0.023 A 
ATOM     89  C   UNL A   1      46.026  27.975  34.398  1.00  0.00     0.012 A 
ATOM     90  C   UNL A   1      44.552  26.113  34.928  1.00  0.00     0.148 A 
ATOM     91  C   UNL A   1      47.046  27.389  35.146  1.00  0.00     0.002 A 
ATOM     92  C   UNL A   1      45.561  25.554  35.703  1.00  0.00     0.091 A 
ATOM     93  F   UNL A   1      43.363  25.511  34.777  1.00  0.00    -0.205 F 
ATOM     94  C   UNL A   1      46.810  26.186  35.809  1.00  0.00     0.022 A 
BRANCH  92  95
ATOM     95  S   UNL A   1      45.292  24.052  36.653  1.00  0.00     0.127 S 
ATOM     96  O   UNL A   1      46.653  23.541  36.798  1.00  0.00    -0.237 OA
ATOM     97  O   UNL A   1      44.697  24.559  37.890  1.00  0.00    -0.237 OA
ATOM     98  O   UNL A   1      44.390  23.241  35.846  1.00  0.00    -0.744 OA
ENDBRANCH  92  95
ENDBRANCH  65  88
ENDBRANCH  39  40
ENDBRANCH  32  34
ENDBRANCH  31  32
ENDBRANCH  30  31
ENDBRANCH   1  30
TORSDOF 20
ENDMDL
