MODEL 1
REMARK VINA RESULT:     -12.7      0.000      0.000
REMARK SMILES C[C@@H](C(=O)OCCOC(=O)c1ccc(-c2c3nc(c(-c4cccc(S(=O)(=O)[O-])c4F)c4ccc([nH]4)c(-c4cccc(S(=O)(=O)[O-])c4F)c4nc(c(-c5cccc(S(=O)(=O)[O-])c5F)c5ccc2[nH]5)C=C4)C=C3)cc1)c1ccc(-c2cccc(OC(=O)Nc3ccccc3)c2)c(F)c1
REMARK SMILES IDX 6 1 5 2 3 3 4 4 2 5 1 6 74 7 75 8 96 9 76 10 94 11 77 12
REMARK SMILES IDX 95 13 78 14 79 15 93 16 80 17 82 18 81 19 83 20 84 21 85 22
REMARK SMILES IDX 86 23 87 25 88 26 92 27 89 28 91 29 90 30 7 31 8 32 9 33
REMARK SMILES IDX 10 34 11 35 12 36 73 37 13 38 72 39 14 40 15 41 16 42 66 43
REMARK SMILES IDX 17 44 71 45 65 46 67 47 18 48 70 49 64 50 63 51 19 53 51 54
REMARK SMILES IDX 31 55 50 56 32 57 35 58 49 59 68 60 33 61 34 62 48 64 69 65
REMARK SMILES IDX 36 66 20 67 21 68 29 69 22 70 24 71 30 72 23 73 25 74 26 75
REMARK SMILES IDX 27 76 28 77 52 78 53 79 61 80 54 81 56 82 62 83 55 84 57 85
REMARK SMILES IDX 58 86 59 87 60 88 37 89 38 90 46 91 39 92 41 93 47 94 40 95
REMARK SMILES IDX 42 96 43 97 44 98 45 99
REMARK H PARENT 86 24 67 52 35 63
REMARK Flexibility Score: inf
ROOT
ATOM      1  C   UNL A   1      31.238  29.706  25.016  1.00  0.00     0.274 C 
ENDROOT
BRANCH   1   2
ATOM      2  O   UNL A   1      30.865  29.953  23.646  1.00  0.00    -0.462 OA
BRANCH   2   3
ATOM      3  C   UNL A   1      29.544  30.172  23.399  1.00  0.00     0.313 C 
ATOM      4  O   UNL A   1      28.938  31.177  23.755  1.00  0.00    -0.252 OA
BRANCH   3   5
ATOM      5  C   UNL A   1      28.874  28.993  22.680  1.00  0.00     0.126 C 
ATOM      6  C   UNL A   1      27.365  28.904  22.940  1.00  0.00     0.025 C 
BRANCH   5   7
ATOM      7  C   UNL A   1      29.613  27.682  22.940  1.00  0.00    -0.031 A 
ATOM      8  C   UNL A   1      29.118  26.784  23.901  1.00  0.00     0.005 A 
ATOM      9  C   UNL A   1      30.756  27.302  22.227  1.00  0.00     0.044 A 
ATOM     10  C   UNL A   1      29.746  25.552  24.139  1.00  0.00     0.012 A 
ATOM     11  C   UNL A   1      31.377  26.073  22.471  1.00  0.00     0.131 A 
ATOM     12  C   UNL A   1      30.893  25.165  23.426  1.00  0.00     0.018 A 
ATOM     13  F   UNL A   1      32.443  25.765  21.716  1.00  0.00    -0.206 F 
BRANCH  12  14
ATOM     14  C   UNL A   1      31.542  23.857  23.662  1.00  0.00    -0.012 A 
ATOM     15  C   UNL A   1      31.851  22.982  22.603  1.00  0.00     0.009 A 
ATOM     16  C   UNL A   1      31.865  23.442  24.966  1.00  0.00     0.056 A 
ATOM     17  C   UNL A   1      32.474  21.751  22.836  1.00  0.00     0.004 A 
ATOM     18  C   UNL A   1      32.454  22.199  25.197  1.00  0.00     0.133 A 
ATOM     19  C   UNL A   1      32.781  21.360  24.134  1.00  0.00     0.047 A 
BRANCH  18  20
ATOM     20  O   UNL A   1      32.732  21.674  26.480  1.00  0.00    -0.410 OA
BRANCH  20  21
ATOM     21  C   UNL A   1      33.345  22.376  27.510  1.00  0.00     0.417 C 
ATOM     22  O   UNL A   1      32.867  22.598  28.620  1.00  0.00    -0.224 OA
ATOM     23  N   UNL A   1      34.649  22.731  27.273  1.00  0.00    -0.291 N 
ATOM     24  H   UNL A   1      35.104  23.153  28.038  1.00  0.00     0.173 HD
BRANCH  23  25
ATOM     25  C   UNL A   1      35.444  22.594  26.126  1.00  0.00     0.044 A 
ATOM     26  C   UNL A   1      35.535  23.717  25.291  1.00  0.00     0.026 A 
ATOM     27  C   UNL A   1      36.121  21.426  25.770  1.00  0.00     0.026 A 
ATOM     28  C   UNL A   1      36.328  23.688  24.142  1.00  0.00     0.002 A 
ATOM     29  C   UNL A   1      36.899  21.393  24.608  1.00  0.00     0.002 A 
ATOM     30  C   UNL A   1      37.010  22.525  23.801  1.00  0.00     0.000 A 
ENDBRANCH  23  25
ENDBRANCH  20  21
ENDBRANCH  18  20
ENDBRANCH  12  14
ENDBRANCH   5   7
ENDBRANCH   3   5
ENDBRANCH   2   3
ENDBRANCH   1   2
BRANCH   1  31
ATOM     31  C   UNL A   1      31.335  31.023  25.779  1.00  0.00     0.275 C 
BRANCH  31  32
ATOM     32  O   UNL A   1      32.205  30.857  26.910  1.00  0.00    -0.458 OA
BRANCH  32  33
ATOM     33  C   UNL A   1      32.913  31.951  27.279  1.00  0.00     0.338 C 
ATOM     34  O   UNL A   1      32.544  33.112  27.256  1.00  0.00    -0.246 OA
BRANCH  33  35
ATOM     35  C   UNL A   1      34.243  31.532  27.749  1.00  0.00     0.060 A 
ATOM     36  C   UNL A   1      34.503  30.182  27.967  1.00  0.00     0.016 A 
ATOM     37  C   UNL A   1      35.195  32.494  28.090  1.00  0.00     0.016 A 
ATOM     38  C   UNL A   1      35.673  29.805  28.623  1.00  0.00     0.010 A 
ATOM     39  C   UNL A   1      36.408  32.096  28.667  1.00  0.00     0.010 A 
ATOM     40  C   UNL A   1      36.643  30.750  28.995  1.00  0.00    -0.014 A 
BRANCH  40  41
ATOM     41  C   UNL A   1      37.853  30.335  29.773  1.00  0.00     0.031 A 
ATOM     42  C   UNL A   1      38.944  29.517  29.120  1.00  0.00     0.074 A 
ATOM     43  C   UNL A   1      38.005  30.703  31.063  1.00  0.00     0.049 A 
ATOM     44  N   UNL A   1      39.973  28.922  29.672  1.00  0.00    -0.248 NA
ATOM     45  C   UNL A   1      38.851  29.308  27.667  1.00  0.00     0.031 C 
ATOM     46  C   UNL A   1      37.058  31.512  31.829  1.00  0.00     0.029 A 
ATOM     47  N   UNL A   1      39.030  30.472  31.950  1.00  0.00    -0.354 N 
ATOM     48  C   UNL A   1      40.573  28.179  28.661  1.00  0.00     0.074 A 
ATOM     49  C   UNL A   1      39.815  28.423  27.454  1.00  0.00     0.031 C 
ATOM     50  C   UNL A   1      37.585  31.791  33.030  1.00  0.00     0.029 A 
ATOM     51  C   UNL A   1      38.865  31.102  33.162  1.00  0.00     0.049 A 
ATOM     52  H   UNL A   1      39.808  29.909  31.737  1.00  0.00     0.167 HD
ATOM     53  C   UNL A   1      41.656  27.367  28.732  1.00  0.00     0.034 A 
ATOM     54  C   UNL A   1      39.649  31.123  34.260  1.00  0.00     0.034 A 
ATOM     55  C   UNL A   1      42.496  27.236  29.893  1.00  0.00     0.049 A 
ATOM     56  C   UNL A   1      40.912  30.309  34.275  1.00  0.00     0.074 A 
ATOM     57  C   UNL A   1      43.625  26.452  30.053  1.00  0.00     0.029 A 
ATOM     58  N   UNL A   1      42.324  27.938  31.074  1.00  0.00    -0.354 N 
ATOM     59  N   UNL A   1      41.457  29.608  33.312  1.00  0.00    -0.248 NA
ATOM     60  C   UNL A   1      41.668  30.282  35.538  1.00  0.00     0.031 C 
ATOM     61  C   UNL A   1      44.143  26.687  31.333  1.00  0.00     0.029 A 
ATOM     62  C   UNL A   1      43.334  27.617  31.964  1.00  0.00     0.049 A 
ATOM     63  H   UNL A   1      41.593  28.571  31.254  1.00  0.00     0.167 HD
ATOM     64  C   UNL A   1      42.606  29.046  33.852  1.00  0.00     0.074 A 
ATOM     65  C   UNL A   1      42.717  29.538  35.209  1.00  0.00     0.031 C 
ATOM     66  C   UNL A   1      43.467  28.161  33.291  1.00  0.00     0.034 A 
BRANCH  53  67
ATOM     67  C   UNL A   1      42.017  26.560  27.512  1.00  0.00     0.023 A 
ATOM     68  C   UNL A   1      42.693  27.167  26.437  1.00  0.00     0.012 A 
ATOM     69  C   UNL A   1      41.749  25.175  27.467  1.00  0.00     0.148 A 
ATOM     70  C   UNL A   1      43.076  26.414  25.326  1.00  0.00     0.002 A 
ATOM     71  C   UNL A   1      42.170  24.425  26.375  1.00  0.00     0.091 A 
ATOM     72  F   UNL A   1      41.084  24.617  28.489  1.00  0.00    -0.205 F 
ATOM     73  C   UNL A   1      42.826  25.044  25.300  1.00  0.00     0.022 A 
BRANCH  71  74
ATOM     74  S   UNL A   1      41.961  22.640  26.301  1.00  0.00     0.127 S 
ATOM     75  O   UNL A   1      40.505  22.510  26.309  1.00  0.00    -0.237 OA
ATOM     76  O   UNL A   1      42.595  22.301  25.026  1.00  0.00    -0.237 OA
ATOM     77  O   UNL A   1      42.650  22.113  27.472  1.00  0.00    -0.744 OA
ENDBRANCH  71  74
ENDBRANCH  53  67
BRANCH  54  78
ATOM     78  C   UNL A   1      39.284  31.995  35.414  1.00  0.00     0.023 A 
ATOM     79  C   UNL A   1      38.539  31.444  36.476  1.00  0.00     0.012 A 
ATOM     80  C   UNL A   1      39.716  33.330  35.506  1.00  0.00     0.148 A 
ATOM     81  C   UNL A   1      38.230  32.208  37.602  1.00  0.00     0.002 A 
ATOM     82  C   UNL A   1      39.469  34.063  36.663  1.00  0.00     0.091 A 
ATOM     83  F   UNL A   1      40.386  33.861  34.473  1.00  0.00    -0.205 F 
ATOM     84  C   UNL A   1      38.712  33.510  37.706  1.00  0.00     0.022 A 
BRANCH  82  85
ATOM     85  S   UNL A   1      40.232  35.668  36.922  1.00  0.00     0.127 S 
ATOM     86  O   UNL A   1      39.681  36.448  35.819  1.00  0.00    -0.237 OA
ATOM     87  O   UNL A   1      39.740  36.042  38.249  1.00  0.00    -0.237 OA
ATOM     88  O   UNL A   1      41.665  35.405  36.878  1.00  0.00    -0.744 OA
ENDBRANCH  82  85
ENDBRANCH  54  78
BRANCH  66  89
ATOM     89  C   UNL A   1      44.600  27.657  34.142  1.00  0.00     0.023 A 
ATOM     90  C   UNL A   1      45.809  28.379  34.174  1.00  0.00     0.012 A 
ATOM     91  C   UNL A   1      44.447  26.526  34.967  1.00  0.00     0.148 A 
ATOM     92  C   UNL A   1      46.861  27.969  34.993  1.00  0.00     0.002 A 
ATOM     93  C   UNL A   1      45.486  26.144  35.808  1.00  0.00     0.091 A 
ATOM     94  F   UNL A   1      43.294  25.842  34.910  1.00  0.00    -0.205 F 
ATOM     95  C   UNL A   1      46.696  26.858  35.817  1.00  0.00     0.022 A 
BRANCH  93  96
ATOM     96  S   UNL A   1      45.324  24.774  36.961  1.00  0.00     0.127 S 
ATOM     97  O   UNL A   1      44.217  25.223  37.803  1.00  0.00    -0.237 OA
ATOM     98  O   UNL A   1      45.001  23.653  36.078  1.00  0.00    -0.237 OA
ATOM     99  O   UNL A   1      46.617  24.663  37.624  1.00  0.00    -0.744 OA
ENDBRANCH  93  96
ENDBRANCH  66  89
ENDBRANCH  40  41
ENDBRANCH  33  35
ENDBRANCH  32  33
ENDBRANCH  31  32
ENDBRANCH   1  31
TORSDOF 19
ENDMDL
MODEL 2
REMARK VINA RESULT:     -11.8      4.517     10.800
REMARK SMILES C[C@@H](C(=O)OCCOC(=O)c1ccc(-c2c3nc(c(-c4cccc(S(=O)(=O)[O-])c4F)c4ccc([nH]4)c(-c4cccc(S(=O)(=O)[O-])c4F)c4nc(c(-c5cccc(S(=O)(=O)[O-])c5F)c5ccc2[nH]5)C=C4)C=C3)cc1)c1ccc(-c2cccc(OC(=O)Nc3ccccc3)c2)c(F)c1
REMARK SMILES IDX 6 1 5 2 3 3 4 4 2 5 1 6 74 7 75 8 96 9 76 10 94 11 77 12
REMARK SMILES IDX 95 13 78 14 79 15 93 16 80 17 82 18 81 19 83 20 84 21 85 22
REMARK SMILES IDX 86 23 87 25 88 26 92 27 89 28 91 29 90 30 7 31 8 32 9 33
REMARK SMILES IDX 10 34 11 35 12 36 73 37 13 38 72 39 14 40 15 41 16 42 66 43
REMARK SMILES IDX 17 44 71 45 65 46 67 47 18 48 70 49 64 50 63 51 19 53 51 54
REMARK SMILES IDX 31 55 50 56 32 57 35 58 49 59 68 60 33 61 34 62 48 64 69 65
REMARK SMILES IDX 36 66 20 67 21 68 29 69 22 70 24 71 30 72 23 73 25 74 26 75
REMARK SMILES IDX 27 76 28 77 52 78 53 79 61 80 54 81 56 82 62 83 55 84 57 85
REMARK SMILES IDX 58 86 59 87 60 88 37 89 38 90 46 91 39 92 41 93 47 94 40 95
REMARK SMILES IDX 42 96 43 97 44 98 45 99
REMARK H PARENT 86 24 67 52 35 63
REMARK Flexibility Score: inf
ROOT
ATOM      1  C   UNL A   1      33.946  35.721  29.667  1.00  0.00     0.274 C 
ENDROOT
BRANCH   1   2
ATOM      2  O   UNL A   1      33.465  36.179  30.947  1.00  0.00    -0.462 OA
BRANCH   2   3
ATOM      3  C   UNL A   1      34.302  36.022  32.009  1.00  0.00     0.313 C 
ATOM      4  O   UNL A   1      34.686  36.944  32.720  1.00  0.00    -0.252 OA
BRANCH   3   5
ATOM      5  C   UNL A   1      34.766  34.569  32.185  1.00  0.00     0.126 C 
ATOM      6  C   UNL A   1      34.037  33.833  33.316  1.00  0.00     0.025 C 
BRANCH   5   7
ATOM      7  C   UNL A   1      36.287  34.472  32.278  1.00  0.00    -0.031 A 
ATOM      8  C   UNL A   1      36.906  34.465  33.539  1.00  0.00     0.005 A 
ATOM      9  C   UNL A   1      37.109  34.345  31.152  1.00  0.00     0.044 A 
ATOM     10  C   UNL A   1      38.299  34.337  33.667  1.00  0.00     0.012 A 
ATOM     11  C   UNL A   1      38.495  34.219  31.287  1.00  0.00     0.131 A 
ATOM     12  C   UNL A   1      39.128  34.208  32.540  1.00  0.00     0.018 A 
ATOM     13  F   UNL A   1      39.208  34.058  30.162  1.00  0.00    -0.206 F 
BRANCH  12  14
ATOM     14  C   UNL A   1      40.592  34.050  32.677  1.00  0.00    -0.012 A 
ATOM     15  C   UNL A   1      41.444  35.158  32.847  1.00  0.00     0.009 A 
ATOM     16  C   UNL A   1      41.184  32.775  32.632  1.00  0.00     0.056 A 
ATOM     17  C   UNL A   1      42.827  34.998  32.985  1.00  0.00     0.004 A 
ATOM     18  C   UNL A   1      42.565  32.621  32.735  1.00  0.00     0.133 A 
ATOM     19  C   UNL A   1      43.389  33.728  32.935  1.00  0.00     0.047 A 
BRANCH  18  20
ATOM     20  O   UNL A   1      43.243  31.386  32.615  1.00  0.00    -0.410 OA
BRANCH  20  21
ATOM     21  C   UNL A   1      44.573  31.174  32.954  1.00  0.00     0.417 C 
ATOM     22  O   UNL A   1      45.061  31.288  34.077  1.00  0.00    -0.224 OA
ATOM     23  N   UNL A   1      45.355  30.675  31.945  1.00  0.00    -0.291 N 
ATOM     24  H   UNL A   1      46.275  30.447  32.214  1.00  0.00     0.173 HD
BRANCH  23  25
ATOM     25  C   UNL A   1      45.068  30.432  30.594  1.00  0.00     0.044 A 
ATOM     26  C   UNL A   1      43.910  31.038  30.083  1.00  0.00     0.026 A 
ATOM     27  C   UNL A   1      45.841  29.629  29.754  1.00  0.00     0.026 A 
ATOM     28  C   UNL A   1      43.557  30.880  28.742  1.00  0.00     0.002 A 
ATOM     29  C   UNL A   1      45.474  29.457  28.416  1.00  0.00     0.002 A 
ATOM     30  C   UNL A   1      44.341  30.089  27.908  1.00  0.00     0.000 A 
ENDBRANCH  23  25
ENDBRANCH  20  21
ENDBRANCH  18  20
ENDBRANCH  12  14
ENDBRANCH   5   7
ENDBRANCH   3   5
ENDBRANCH   2   3
ENDBRANCH   1   2
BRANCH   1  31
ATOM     31  C   UNL A   1      33.099  34.551  29.177  1.00  0.00     0.275 C 
BRANCH  31  32
ATOM     32  O   UNL A   1      33.579  34.117  27.895  1.00  0.00    -0.458 OA
BRANCH  32  33
ATOM     33  C   UNL A   1      33.446  32.797  27.628  1.00  0.00     0.338 C 
ATOM     34  O   UNL A   1      32.486  32.238  27.126  1.00  0.00    -0.246 OA
BRANCH  33  35
ATOM     35  C   UNL A   1      34.676  32.094  28.027  1.00  0.00     0.060 A 
ATOM     36  C   UNL A   1      34.611  30.759  28.416  1.00  0.00     0.016 A 
ATOM     37  C   UNL A   1      35.877  32.798  28.131  1.00  0.00     0.016 A 
ATOM     38  C   UNL A   1      35.723  30.162  29.007  1.00  0.00     0.010 A 
ATOM     39  C   UNL A   1      37.014  32.160  28.644  1.00  0.00     0.010 A 
ATOM     40  C   UNL A   1      36.940  30.849  29.143  1.00  0.00    -0.014 A 
BRANCH  40  41
ATOM     41  C   UNL A   1      38.096  30.218  29.856  1.00  0.00     0.031 A 
ATOM     42  C   UNL A   1      38.227  30.328  31.357  1.00  0.00     0.074 A 
ATOM     43  C   UNL A   1      39.029  29.518  29.175  1.00  0.00     0.049 A 
ATOM     44  N   UNL A   1      39.238  30.002  32.125  1.00  0.00    -0.248 NA
ATOM     45  C   UNL A   1      37.094  30.915  32.091  1.00  0.00     0.031 C 
ATOM     46  C   UNL A   1      39.033  29.297  27.730  1.00  0.00     0.029 A 
ATOM     47  N   UNL A   1      40.139  28.835  29.614  1.00  0.00    -0.354 N 
ATOM     48  C   UNL A   1      38.910  30.450  33.401  1.00  0.00     0.074 A 
ATOM     49  C   UNL A   1      37.593  31.041  33.313  1.00  0.00     0.031 C 
ATOM     50  C   UNL A   1      40.030  28.457  27.414  1.00  0.00     0.029 A 
ATOM     51  C   UNL A   1      40.799  28.154  28.617  1.00  0.00     0.049 A 
ATOM     52  H   UNL A   1      40.433  28.834  30.553  1.00  0.00     0.167 HD
ATOM     53  C   UNL A   1      39.639  30.375  34.541  1.00  0.00     0.034 A 
ATOM     54  C   UNL A   1      41.900  27.376  28.660  1.00  0.00     0.034 A 
ATOM     55  C   UNL A   1      40.882  29.660  34.662  1.00  0.00     0.049 A 
ATOM     56  C   UNL A   1      42.630  27.206  29.963  1.00  0.00     0.074 A 
ATOM     57  C   UNL A   1      41.684  29.513  35.780  1.00  0.00     0.029 A 
ATOM     58  N   UNL A   1      41.480  28.937  33.643  1.00  0.00    -0.354 N 
ATOM     59  N   UNL A   1      42.307  27.644  31.154  1.00  0.00    -0.248 NA
ATOM     60  C   UNL A   1      43.885  26.439  29.925  1.00  0.00     0.031 C 
ATOM     61  C   UNL A   1      42.765  28.692  35.439  1.00  0.00     0.029 A 
ATOM     62  C   UNL A   1      42.632  28.329  34.109  1.00  0.00     0.049 A 
ATOM     63  H   UNL A   1      41.135  28.865  32.724  1.00  0.00     0.167 HD
ATOM     64  C   UNL A   1      43.321  27.222  32.004  1.00  0.00     0.074 A 
ATOM     65  C   UNL A   1      44.239  26.437  31.203  1.00  0.00     0.031 C 
ATOM     66  C   UNL A   1      43.504  27.501  33.318  1.00  0.00     0.034 A 
BRANCH  53  67
ATOM     67  C   UNL A   1      39.109  31.071  35.767  1.00  0.00     0.023 A 
ATOM     68  C   UNL A   1      38.043  30.508  36.494  1.00  0.00     0.012 A 
ATOM     69  C   UNL A   1      39.724  32.249  36.241  1.00  0.00     0.148 A 
ATOM     70  C   UNL A   1      37.581  31.120  37.660  1.00  0.00     0.002 A 
ATOM     71  C   UNL A   1      39.283  32.830  37.425  1.00  0.00     0.091 A 
ATOM     72  F   UNL A   1      40.723  32.784  35.524  1.00  0.00    -0.205 F 
ATOM     73  C   UNL A   1      38.207  32.272  38.131  1.00  0.00     0.022 A 
BRANCH  71  74
ATOM     74  S   UNL A   1      40.090  34.267  38.145  1.00  0.00     0.127 S 
ATOM     75  O   UNL A   1      39.629  35.340  37.265  1.00  0.00    -0.237 OA
ATOM     76  O   UNL A   1      39.526  34.302  39.495  1.00  0.00    -0.237 OA
ATOM     77  O   UNL A   1      41.518  33.983  38.100  1.00  0.00    -0.744 OA
ENDBRANCH  71  74
ENDBRANCH  53  67
BRANCH  54  78
ATOM     78  C   UNL A   1      42.342  26.651  27.433  1.00  0.00     0.023 A 
ATOM     79  C   UNL A   1      43.138  27.330  26.489  1.00  0.00     0.012 A 
ATOM     80  C   UNL A   1      42.047  25.292  27.222  1.00  0.00     0.148 A 
ATOM     81  C   UNL A   1      43.624  26.671  25.359  1.00  0.00     0.002 A 
ATOM     82  C   UNL A   1      42.596  24.622  26.133  1.00  0.00     0.091 A 
ATOM     83  F   UNL A   1      41.254  24.663  28.101  1.00  0.00    -0.205 F 
ATOM     84  C   UNL A   1      43.371  25.312  25.191  1.00  0.00     0.022 A 
BRANCH  82  85
ATOM     85  S   UNL A   1      42.460  22.837  25.981  1.00  0.00     0.127 S 
ATOM     86  O   UNL A   1      43.166  22.585  24.728  1.00  0.00    -0.237 OA
ATOM     87  O   UNL A   1      43.148  22.363  27.182  1.00  0.00    -0.237 OA
ATOM     88  O   UNL A   1      41.026  22.576  25.981  1.00  0.00    -0.744 OA
ENDBRANCH  82  85
ENDBRANCH  54  78
BRANCH  66  89
ATOM     89  C   UNL A   1      44.746  26.965  33.977  1.00  0.00     0.023 A 
ATOM     90  C   UNL A   1      45.903  27.767  34.017  1.00  0.00     0.012 A 
ATOM     91  C   UNL A   1      44.748  25.713  34.622  1.00  0.00     0.148 A 
ATOM     92  C   UNL A   1      47.054  27.322  34.666  1.00  0.00     0.002 A 
ATOM     93  C   UNL A   1      45.887  25.291  35.298  1.00  0.00     0.091 A 
ATOM     94  F   UNL A   1      43.642  24.957  34.558  1.00  0.00    -0.205 F 
ATOM     95  C   UNL A   1      47.043  26.089  35.316  1.00  0.00     0.022 A 
BRANCH  93  96
ATOM     96  S   UNL A   1      45.927  23.754  36.230  1.00  0.00     0.127 S 
ATOM     97  O   UNL A   1      45.749  24.231  37.599  1.00  0.00    -0.237 OA
ATOM     98  O   UNL A   1      44.782  23.024  35.685  1.00  0.00    -0.237 OA
ATOM     99  O   UNL A   1      47.220  23.150  35.935  1.00  0.00    -0.744 OA
ENDBRANCH  93  96
ENDBRANCH  66  89
ENDBRANCH  40  41
ENDBRANCH  33  35
ENDBRANCH  32  33
ENDBRANCH  31  32
ENDBRANCH   1  31
TORSDOF 19
ENDMDL
MODEL 3
REMARK VINA RESULT:     -11.8      4.606     11.058
REMARK SMILES C[C@@H](C(=O)OCCOC(=O)c1ccc(-c2c3nc(c(-c4cccc(S(=O)(=O)[O-])c4F)c4ccc([nH]4)c(-c4cccc(S(=O)(=O)[O-])c4F)c4nc(c(-c5cccc(S(=O)(=O)[O-])c5F)c5ccc2[nH]5)C=C4)C=C3)cc1)c1ccc(-c2cccc(OC(=O)Nc3ccccc3)c2)c(F)c1
REMARK SMILES IDX 6 1 5 2 3 3 4 4 2 5 1 6 74 7 75 8 96 9 76 10 94 11 77 12
REMARK SMILES IDX 95 13 78 14 79 15 93 16 80 17 82 18 81 19 83 20 84 21 85 22
REMARK SMILES IDX 86 23 87 25 88 26 92 27 89 28 91 29 90 30 7 31 8 32 9 33
REMARK SMILES IDX 10 34 11 35 12 36 73 37 13 38 72 39 14 40 15 41 16 42 66 43
REMARK SMILES IDX 17 44 71 45 65 46 67 47 18 48 70 49 64 50 63 51 19 53 51 54
REMARK SMILES IDX 31 55 50 56 32 57 35 58 49 59 68 60 33 61 34 62 48 64 69 65
REMARK SMILES IDX 36 66 20 67 21 68 29 69 22 70 24 71 30 72 23 73 25 74 26 75
REMARK SMILES IDX 27 76 28 77 52 78 53 79 61 80 54 81 56 82 62 83 55 84 57 85
REMARK SMILES IDX 58 86 59 87 60 88 37 89 38 90 46 91 39 92 41 93 47 94 40 95
REMARK SMILES IDX 42 96 43 97 44 98 45 99
REMARK H PARENT 86 24 67 52 35 63
REMARK Flexibility Score: inf
ROOT
ATOM      1  C   UNL A   1      34.093  35.151  29.379  1.00  0.00     0.274 C 
ENDROOT
BRANCH   1   2
ATOM      2  O   UNL A   1      33.344  35.350  30.595  1.00  0.00    -0.462 OA
BRANCH   2   3
ATOM      3  C   UNL A   1      34.053  35.363  31.757  1.00  0.00     0.313 C 
ATOM      4  O   UNL A   1      34.215  36.363  32.449  1.00  0.00    -0.252 OA
BRANCH   3   5
ATOM      5  C   UNL A   1      34.684  34.001  32.080  1.00  0.00     0.126 C 
ATOM      6  C   UNL A   1      33.941  33.235  33.181  1.00  0.00     0.025 C 
BRANCH   5   7
ATOM      7  C   UNL A   1      36.185  34.123  32.331  1.00  0.00    -0.031 A 
ATOM      8  C   UNL A   1      37.077  34.074  31.248  1.00  0.00     0.005 A 
ATOM      9  C   UNL A   1      36.725  34.327  33.606  1.00  0.00     0.044 A 
ATOM     10  C   UNL A   1      38.461  34.223  31.435  1.00  0.00     0.012 A 
ATOM     11  C   UNL A   1      38.105  34.473  33.786  1.00  0.00     0.131 A 
ATOM     12  C   UNL A   1      39.009  34.429  32.712  1.00  0.00     0.018 A 
ATOM     13  F   UNL A   1      38.539  34.709  35.033  1.00  0.00    -0.206 F 
BRANCH  12  14
ATOM     14  C   UNL A   1      40.464  34.607  32.906  1.00  0.00    -0.012 A 
ATOM     15  C   UNL A   1      40.979  35.479  33.884  1.00  0.00     0.009 A 
ATOM     16  C   UNL A   1      41.385  33.910  32.105  1.00  0.00     0.056 A 
ATOM     17  C   UNL A   1      42.357  35.634  34.066  1.00  0.00     0.004 A 
ATOM     18  C   UNL A   1      42.758  34.093  32.266  1.00  0.00     0.133 A 
ATOM     19  C   UNL A   1      43.249  34.936  33.260  1.00  0.00     0.047 A 
BRANCH  18  20
ATOM     20  O   UNL A   1      43.745  33.495  31.448  1.00  0.00    -0.410 OA
BRANCH  20  21
ATOM     21  C   UNL A   1      43.562  32.340  30.699  1.00  0.00     0.417 C 
ATOM     22  O   UNL A   1      43.441  31.200  31.143  1.00  0.00    -0.224 OA
ATOM     23  N   UNL A   1      43.383  32.544  29.354  1.00  0.00    -0.291 N 
ATOM     24  H   UNL A   1      43.170  31.731  28.842  1.00  0.00     0.173 HD
BRANCH  23  25
ATOM     25  C   UNL A   1      43.450  33.716  28.586  1.00  0.00     0.044 A 
ATOM     26  C   UNL A   1      44.301  33.684  27.472  1.00  0.00     0.026 A 
ATOM     27  C   UNL A   1      42.746  34.887  28.870  1.00  0.00     0.026 A 
ATOM     28  C   UNL A   1      44.413  34.790  26.628  1.00  0.00     0.002 A 
ATOM     29  C   UNL A   1      42.874  36.001  28.034  1.00  0.00     0.002 A 
ATOM     30  C   UNL A   1      43.697  35.950  26.911  1.00  0.00     0.000 A 
ENDBRANCH  23  25
ENDBRANCH  20  21
ENDBRANCH  18  20
ENDBRANCH  12  14
ENDBRANCH   5   7
ENDBRANCH   3   5
ENDBRANCH   2   3
ENDBRANCH   1   2
BRANCH   1  31
ATOM     31  C   UNL A   1      33.383  34.138  28.486  1.00  0.00     0.275 C 
BRANCH  31  32
ATOM     32  O   UNL A   1      34.359  33.386  27.748  1.00  0.00    -0.458 OA
BRANCH  32  33
ATOM     33  C   UNL A   1      34.175  32.045  27.717  1.00  0.00     0.338 C 
ATOM     34  O   UNL A   1      33.151  31.446  27.437  1.00  0.00    -0.246 OA
BRANCH  33  35
ATOM     35  C   UNL A   1      35.437  31.374  28.066  1.00  0.00     0.060 A 
ATOM     36  C   UNL A   1      35.416  30.055  28.509  1.00  0.00     0.016 A 
ATOM     37  C   UNL A   1      36.631  32.096  28.070  1.00  0.00     0.016 A 
ATOM     38  C   UNL A   1      36.570  29.494  29.053  1.00  0.00     0.010 A 
ATOM     39  C   UNL A   1      37.807  31.492  28.536  1.00  0.00     0.010 A 
ATOM     40  C   UNL A   1      37.783  30.200  29.088  1.00  0.00    -0.014 A 
BRANCH  40  41
ATOM     41  C   UNL A   1      38.989  29.612  29.752  1.00  0.00     0.031 A 
ATOM     42  C   UNL A   1      39.323  29.955  31.186  1.00  0.00     0.074 A 
ATOM     43  C   UNL A   1      39.787  28.745  29.093  1.00  0.00     0.049 A 
ATOM     44  N   UNL A   1      40.408  29.686  31.869  1.00  0.00    -0.248 NA
ATOM     45  C   UNL A   1      38.328  30.734  31.940  1.00  0.00     0.031 C 
ATOM     46  C   UNL A   1      39.589  28.292  27.716  1.00  0.00     0.029 A 
ATOM     47  N   UNL A   1      40.909  28.064  29.503  1.00  0.00    -0.354 N 
ATOM     48  C   UNL A   1      40.274  30.358  33.080  1.00  0.00     0.074 A 
ATOM     49  C   UNL A   1      38.990  31.021  33.053  1.00  0.00     0.031 C 
ATOM     50  C   UNL A   1      40.491  27.342  27.430  1.00  0.00     0.029 A 
ATOM     51  C   UNL A   1      41.396  27.184  28.565  1.00  0.00     0.049 A 
ATOM     52  H   UNL A   1      41.324  28.194  30.386  1.00  0.00     0.167 HD
ATOM     53  C   UNL A   1      41.143  30.416  34.119  1.00  0.00     0.034 A 
ATOM     54  C   UNL A   1      42.452  26.345  28.605  1.00  0.00     0.034 A 
ATOM     55  C   UNL A   1      42.353  29.643  34.208  1.00  0.00     0.049 A 
ATOM     56  C   UNL A   1      43.337  26.337  29.819  1.00  0.00     0.074 A 
ATOM     57  C   UNL A   1      43.287  29.621  35.229  1.00  0.00     0.029 A 
ATOM     58  N   UNL A   1      42.773  28.722  33.262  1.00  0.00    -0.354 N 
ATOM     59  N   UNL A   1      43.197  26.986  30.949  1.00  0.00    -0.248 NA
ATOM     60  C   UNL A   1      44.536  25.485  29.760  1.00  0.00     0.031 C 
ATOM     61  C   UNL A   1      44.270  28.680  34.904  1.00  0.00     0.029 A 
ATOM     62  C   UNL A   1      43.944  28.116  33.682  1.00  0.00     0.049 A 
ATOM     63  H   UNL A   1      42.307  28.527  32.418  1.00  0.00     0.167 HD
ATOM     64  C   UNL A   1      44.292  26.635  31.728  1.00  0.00     0.074 A 
ATOM     65  C   UNL A   1      45.055  25.666  30.968  1.00  0.00     0.031 C 
ATOM     66  C   UNL A   1      44.661  27.109  32.943  1.00  0.00     0.034 A 
BRANCH  53  67
ATOM     67  C   UNL A   1      40.815  31.339  35.264  1.00  0.00     0.023 A 
ATOM     68  C   UNL A   1      41.689  32.390  35.597  1.00  0.00     0.012 A 
ATOM     69  C   UNL A   1      39.595  31.206  35.961  1.00  0.00     0.148 A 
ATOM     70  C   UNL A   1      41.367  33.280  36.623  1.00  0.00     0.002 A 
ATOM     71  C   UNL A   1      39.264  32.120  36.954  1.00  0.00     0.091 A 
ATOM     72  F   UNL A   1      38.784  30.186  35.645  1.00  0.00    -0.205 F 
ATOM     73  C   UNL A   1      40.152  33.153  37.292  1.00  0.00     0.022 A 
BRANCH  71  74
ATOM     74  S   UNL A   1      37.680  32.078  37.806  1.00  0.00     0.127 S 
ATOM     75  O   UNL A   1      37.969  32.857  39.010  1.00  0.00    -0.237 OA
ATOM     76  O   UNL A   1      36.791  32.741  36.851  1.00  0.00    -0.237 OA
ATOM     77  O   UNL A   1      37.385  30.668  38.020  1.00  0.00    -0.744 OA
ENDBRANCH  71  74
ENDBRANCH  53  67
BRANCH  54  78
ATOM     78  C   UNL A   1      42.691  25.400  27.475  1.00  0.00     0.023 A 
ATOM     79  C   UNL A   1      43.595  25.767  26.459  1.00  0.00     0.012 A 
ATOM     80  C   UNL A   1      42.093  24.127  27.427  1.00  0.00     0.148 A 
ATOM     81  C   UNL A   1      43.894  24.887  25.417  1.00  0.00     0.002 A 
ATOM     82  C   UNL A   1      42.451  23.228  26.429  1.00  0.00     0.091 A 
ATOM     83  F   UNL A   1      41.200  23.802  28.373  1.00  0.00    -0.205 F 
ATOM     84  C   UNL A   1      43.339  23.610  25.413  1.00  0.00     0.022 A 
BRANCH  82  85
ATOM     85  S   UNL A   1      41.915  21.515  26.490  1.00  0.00     0.127 S 
ATOM     86  O   UNL A   1      42.587  20.944  25.327  1.00  0.00    -0.237 OA
ATOM     87  O   UNL A   1      42.434  21.066  27.783  1.00  0.00    -0.237 OA
ATOM     88  O   UNL A   1      40.460  21.582  26.431  1.00  0.00    -0.744 OA
ENDBRANCH  82  85
ENDBRANCH  54  78
BRANCH  66  89
ATOM     89  C   UNL A   1      45.950  26.599  33.528  1.00  0.00     0.023 A 
ATOM     90  C   UNL A   1      47.145  27.301  33.275  1.00  0.00     0.012 A 
ATOM     91  C   UNL A   1      45.971  25.483  34.386  1.00  0.00     0.148 A 
ATOM     92  C   UNL A   1      48.347  26.886  33.845  1.00  0.00     0.002 A 
ATOM     93  C   UNL A   1      47.166  25.096  34.980  1.00  0.00     0.091 A 
ATOM     94  F   UNL A   1      44.826  24.818  34.602  1.00  0.00    -0.205 F 
ATOM     95  C   UNL A   1      48.357  25.790  34.705  1.00  0.00     0.022 A 
BRANCH  93  96
ATOM     96  S   UNL A   1      47.249  23.746  36.165  1.00  0.00     0.127 S 
ATOM     97  O   UNL A   1      47.021  22.584  35.309  1.00  0.00    -0.237 OA
ATOM     98  O   UNL A   1      48.612  23.864  36.684  1.00  0.00    -0.237 OA
ATOM     99  O   UNL A   1      46.207  24.020  37.147  1.00  0.00    -0.744 OA
ENDBRANCH  93  96
ENDBRANCH  66  89
ENDBRANCH  40  41
ENDBRANCH  33  35
ENDBRANCH  32  33
ENDBRANCH  31  32
ENDBRANCH   1  31
TORSDOF 19
ENDMDL
