MODEL 1
REMARK VINA RESULT:     -11.3      0.000      0.000
REMARK SMILES CCCC[C@H](C(=O)OCCOC(=O)c1ccc(-c2c3nc(c(-c4cccc(S(=O)(=O)[O-])c4F)c4ccc([nH]4)c(-c4cccc(S(=O)(=O)[O-])c4F)c4nc(c(-c5cccc(S(=O)(=O)[O-])c5F)c5ccc2[nH]5)C=C4)C=C3)cc1)N1C(=O)/C(=C/c2cccc(Br)c2)SC1=S
REMARK SMILES IDX 9 1 8 2 6 3 7 4 5 5 4 6 3 7 2 8 1 9 77 10 78 11 90 12 79 13
REMARK SMILES IDX 80 14 89 15 91 16 81 17 82 18 83 19 88 20 84 21 86 22 85 23
REMARK SMILES IDX 87 24 10 25 11 26 12 27 13 28 14 29 15 30 76 31 16 32 75 33
REMARK SMILES IDX 17 34 18 35 19 36 69 37 20 38 74 39 68 40 70 41 21 42 73 43
REMARK SMILES IDX 67 44 66 45 22 47 54 48 34 49 53 50 35 51 38 52 52 53 71 54
REMARK SMILES IDX 36 55 37 56 51 58 72 59 39 60 23 61 24 62 32 63 25 64 27 65
REMARK SMILES IDX 33 66 26 67 28 68 29 69 30 70 31 71 55 72 56 73 64 74 57 75
REMARK SMILES IDX 59 76 65 77 58 78 60 79 61 80 62 81 63 82 40 83 41 84 49 85
REMARK SMILES IDX 42 86 44 87 50 88 43 89 45 90 46 91 47 92 48 93
REMARK H PARENT 70 46 38 57
REMARK Flexibility Score: inf
ROOT
ATOM      1  C   UNL A   1      35.627  20.105  25.007  1.00  0.00     0.274 C 
ENDROOT
BRANCH   1   2
ATOM      2  O   UNL A   1      34.649  21.074  24.558  1.00  0.00    -0.461 OA
BRANCH   2   3
ATOM      3  C   UNL A   1      33.517  21.185  25.298  1.00  0.00     0.329 C 
ATOM      4  O   UNL A   1      32.889  20.222  25.724  1.00  0.00    -0.250 OA
BRANCH   3   5
ATOM      5  C   UNL A   1      33.177  22.638  25.704  1.00  0.00     0.202 C 
BRANCH   5   6
ATOM      6  C   UNL A   1      34.464  23.445  25.977  1.00  0.00     0.038 C 
BRANCH   6   7
ATOM      7  C   UNL A   1      34.851  24.670  25.139  1.00  0.00     0.002 C 
BRANCH   7   8
ATOM      8  C   UNL A   1      34.514  26.066  25.655  1.00  0.00    -0.003 C 
ATOM      9  C   UNL A   1      33.493  26.817  24.823  1.00  0.00     0.004 C 
ENDBRANCH   7   8
ENDBRANCH   6   7
ENDBRANCH   5   6
BRANCH   5  10
ATOM     10  N   UNL A   1      32.156  23.338  24.911  1.00  0.00    -0.278 N 
ATOM     11  C   UNL A   1      31.221  24.062  25.643  1.00  0.00     0.266 C 
ATOM     12  C   UNL A   1      32.083  23.478  23.537  1.00  0.00     0.149 C 
ATOM     13  O   UNL A   1      31.086  24.071  26.860  1.00  0.00    -0.268 OA
ATOM     14  C   UNL A   1      30.427  24.926  24.749  1.00  0.00     0.081 C 
ATOM     15  S   UNL A   1      30.692  24.481  23.119  1.00  0.00    -0.054 SA
ATOM     16  S   UNL A   1      33.076  22.897  22.330  1.00  0.00    -0.052 S 
ATOM     17  C   UNL A   1      29.711  25.952  25.225  1.00  0.00     0.029 C 
BRANCH  17  18
ATOM     18  C   UNL A   1      28.927  26.833  24.367  1.00  0.00    -0.023 A 
ATOM     19  C   UNL A   1      27.529  26.781  24.363  1.00  0.00     0.008 A 
ATOM     20  C   UNL A   1      29.595  27.801  23.612  1.00  0.00     0.023 A 
ATOM     21  C   UNL A   1      26.802  27.711  23.619  1.00  0.00     0.002 A 
ATOM     22  C   UNL A   1      28.863  28.726  22.877  1.00  0.00     0.018 A 
ATOM     23  C   UNL A   1      27.469  28.690  22.879  1.00  0.00     0.016 A 
ATOM     24  Br  UNL A   1      29.772  30.061  21.896  1.00  0.00    -0.051 Br
ENDBRANCH  17  18
ENDBRANCH   5  10
ENDBRANCH   3   5
ENDBRANCH   2   3
ENDBRANCH   1   2
BRANCH   1  25
ATOM     25  C   UNL A   1      37.048  20.543  24.634  1.00  0.00     0.275 C 
BRANCH  25  26
ATOM     26  O   UNL A   1      37.585  21.365  25.685  1.00  0.00    -0.458 OA
BRANCH  26  27
ATOM     27  C   UNL A   1      38.872  21.139  26.027  1.00  0.00     0.338 C 
ATOM     28  O   UNL A   1      39.486  20.084  25.935  1.00  0.00    -0.246 OA
BRANCH  27  29
ATOM     29  C   UNL A   1      39.484  22.381  26.535  1.00  0.00     0.060 A 
ATOM     30  C   UNL A   1      39.023  23.628  26.109  1.00  0.00     0.016 A 
ATOM     31  C   UNL A   1      40.597  22.301  27.370  1.00  0.00     0.016 A 
ATOM     32  C   UNL A   1      39.720  24.785  26.437  1.00  0.00     0.010 A 
ATOM     33  C   UNL A   1      41.227  23.473  27.795  1.00  0.00     0.010 A 
ATOM     34  C   UNL A   1      40.813  24.726  27.312  1.00  0.00    -0.014 A 
BRANCH  34  35
ATOM     35  C   UNL A   1      41.503  25.970  27.739  1.00  0.00     0.031 A 
ATOM     36  C   UNL A   1      40.771  27.004  28.549  1.00  0.00     0.074 A 
ATOM     37  C   UNL A   1      42.779  26.186  27.359  1.00  0.00     0.049 A 
ATOM     38  N   UNL A   1      41.140  28.219  28.859  1.00  0.00    -0.248 NA
ATOM     39  C   UNL A   1      39.443  26.632  29.064  1.00  0.00     0.031 C 
ATOM     40  C   UNL A   1      43.595  25.257  26.573  1.00  0.00     0.029 A 
ATOM     41  N   UNL A   1      43.608  27.259  27.564  1.00  0.00    -0.354 N 
ATOM     42  C   UNL A   1      40.066  28.782  29.538  1.00  0.00     0.074 A 
ATOM     43  C   UNL A   1      39.034  27.769  29.610  1.00  0.00     0.031 C 
ATOM     44  C   UNL A   1      44.808  25.792  26.374  1.00  0.00     0.029 A 
ATOM     45  C   UNL A   1      44.832  27.131  26.948  1.00  0.00     0.049 A 
ATOM     46  H   UNL A   1      43.353  28.045  28.101  1.00  0.00     0.167 HD
ATOM     47  C   UNL A   1      39.954  30.028  30.058  1.00  0.00     0.034 A 
ATOM     48  C   UNL A   1      45.847  28.007  26.819  1.00  0.00     0.034 A 
ATOM     49  C   UNL A   1      41.011  31.003  30.042  1.00  0.00     0.049 A 
ATOM     50  C   UNL A   1      45.709  29.369  27.434  1.00  0.00     0.074 A 
ATOM     51  C   UNL A   1      41.016  32.276  30.582  1.00  0.00     0.029 A 
ATOM     52  N   UNL A   1      42.259  30.808  29.467  1.00  0.00    -0.354 N 
ATOM     53  N   UNL A   1      44.707  29.863  28.121  1.00  0.00    -0.248 NA
ATOM     54  C   UNL A   1      46.840  30.291  27.267  1.00  0.00     0.031 C 
ATOM     55  C   UNL A   1      42.266  32.854  30.330  1.00  0.00     0.029 A 
ATOM     56  C   UNL A   1      43.042  31.936  29.641  1.00  0.00     0.049 A 
ATOM     57  H   UNL A   1      42.545  29.988  29.004  1.00  0.00     0.167 HD
ATOM     58  C   UNL A   1      45.092  31.147  28.484  1.00  0.00     0.074 A 
ATOM     59  C   UNL A   1      46.431  31.343  27.965  1.00  0.00     0.031 C 
ATOM     60  C   UNL A   1      44.392  32.089  29.162  1.00  0.00     0.034 A 
BRANCH  47  61
ATOM     61  C   UNL A   1      38.651  30.401  30.715  1.00  0.00     0.023 A 
ATOM     62  C   UNL A   1      38.441  30.092  32.073  1.00  0.00     0.012 A 
ATOM     63  C   UNL A   1      37.660  31.107  30.005  1.00  0.00     0.148 A 
ATOM     64  C   UNL A   1      37.254  30.457  32.709  1.00  0.00     0.002 A 
ATOM     65  C   UNL A   1      36.495  31.500  30.655  1.00  0.00     0.091 A 
ATOM     66  F   UNL A   1      37.866  31.368  28.706  1.00  0.00    -0.205 F 
ATOM     67  C   UNL A   1      36.287  31.169  32.003  1.00  0.00     0.022 A 
BRANCH  65  68
ATOM     68  S   UNL A   1      35.225  32.480  29.845  1.00  0.00     0.127 S 
ATOM     69  O   UNL A   1      34.316  32.763  30.954  1.00  0.00    -0.237 OA
ATOM     70  O   UNL A   1      35.982  33.638  29.367  1.00  0.00    -0.237 OA
ATOM     71  O   UNL A   1      34.687  31.636  28.788  1.00  0.00    -0.744 OA
ENDBRANCH  65  68
ENDBRANCH  47  61
BRANCH  48  72
ATOM     72  C   UNL A   1      47.085  27.596  26.098  1.00  0.00     0.023 A 
ATOM     73  C   UNL A   1      48.059  26.838  26.776  1.00  0.00     0.012 A 
ATOM     74  C   UNL A   1      47.269  27.885  24.732  1.00  0.00     0.148 A 
ATOM     75  C   UNL A   1      49.199  26.386  26.109  1.00  0.00     0.002 A 
ATOM     76  C   UNL A   1      48.376  27.378  24.059  1.00  0.00     0.091 A 
ATOM     77  F   UNL A   1      46.345  28.628  24.107  1.00  0.00    -0.205 F 
ATOM     78  C   UNL A   1      49.349  26.641  24.749  1.00  0.00     0.022 A 
BRANCH  76  79
ATOM     79  S   UNL A   1      48.554  27.532  22.276  1.00  0.00     0.127 S 
ATOM     80  O   UNL A   1      48.724  26.139  21.870  1.00  0.00    -0.237 OA
ATOM     81  O   UNL A   1      47.277  28.135  21.889  1.00  0.00    -0.237 OA
ATOM     82  O   UNL A   1      49.705  28.402  22.079  1.00  0.00    -0.744 OA
ENDBRANCH  76  79
ENDBRANCH  48  72
BRANCH  60  83
ATOM     83  C   UNL A   1      45.067  33.410  29.401  1.00  0.00     0.023 A 
ATOM     84  C   UNL A   1      45.815  33.600  30.580  1.00  0.00     0.012 A 
ATOM     85  C   UNL A   1      45.020  34.432  28.435  1.00  0.00     0.148 A 
ATOM     86  C   UNL A   1      46.489  34.800  30.802  1.00  0.00     0.002 A 
ATOM     87  C   UNL A   1      45.728  35.610  28.645  1.00  0.00     0.091 A 
ATOM     88  F   UNL A   1      44.282  34.238  27.332  1.00  0.00    -0.205 F 
ATOM     89  C   UNL A   1      46.455  35.799  29.831  1.00  0.00     0.022 A 
BRANCH  87  90
ATOM     90  S   UNL A   1      45.805  36.910  27.408  1.00  0.00     0.127 S 
ATOM     91  O   UNL A   1      44.410  37.337  27.337  1.00  0.00    -0.237 OA
ATOM     92  O   UNL A   1      46.710  37.879  28.026  1.00  0.00    -0.237 OA
ATOM     93  O   UNL A   1      46.333  36.279  26.205  1.00  0.00    -0.744 OA
ENDBRANCH  87  90
ENDBRANCH  60  83
ENDBRANCH  34  35
ENDBRANCH  27  29
ENDBRANCH  26  27
ENDBRANCH  25  26
ENDBRANCH   1  25
TORSDOF 19
ENDMDL
MODEL 2
REMARK VINA RESULT:     -11.0      1.472      2.248
REMARK SMILES CCCC[C@H](C(=O)OCCOC(=O)c1ccc(-c2c3nc(c(-c4cccc(S(=O)(=O)[O-])c4F)c4ccc([nH]4)c(-c4cccc(S(=O)(=O)[O-])c4F)c4nc(c(-c5cccc(S(=O)(=O)[O-])c5F)c5ccc2[nH]5)C=C4)C=C3)cc1)N1C(=O)/C(=C/c2cccc(Br)c2)SC1=S
REMARK SMILES IDX 9 1 8 2 6 3 7 4 5 5 4 6 3 7 2 8 1 9 77 10 78 11 90 12 79 13
REMARK SMILES IDX 80 14 89 15 91 16 81 17 82 18 83 19 88 20 84 21 86 22 85 23
REMARK SMILES IDX 87 24 10 25 11 26 12 27 13 28 14 29 15 30 76 31 16 32 75 33
REMARK SMILES IDX 17 34 18 35 19 36 69 37 20 38 74 39 68 40 70 41 21 42 73 43
REMARK SMILES IDX 67 44 66 45 22 47 54 48 34 49 53 50 35 51 38 52 52 53 71 54
REMARK SMILES IDX 36 55 37 56 51 58 72 59 39 60 23 61 24 62 32 63 25 64 27 65
REMARK SMILES IDX 33 66 26 67 28 68 29 69 30 70 31 71 55 72 56 73 64 74 57 75
REMARK SMILES IDX 59 76 65 77 58 78 60 79 61 80 62 81 63 82 40 83 41 84 49 85
REMARK SMILES IDX 42 86 44 87 50 88 43 89 45 90 46 91 47 92 48 93
REMARK H PARENT 70 46 38 57
REMARK Flexibility Score: inf
ROOT
ATOM      1  C   UNL A   1      36.682  20.912  24.638  1.00  0.00     0.274 C 
ENDROOT
BRANCH   1   2
ATOM      2  O   UNL A   1      35.587  21.781  24.259  1.00  0.00    -0.461 OA
BRANCH   2   3
ATOM      3  C   UNL A   1      34.345  21.403  24.652  1.00  0.00     0.329 C 
ATOM      4  O   UNL A   1      34.123  20.761  25.672  1.00  0.00    -0.250 OA
BRANCH   3   5
ATOM      5  C   UNL A   1      33.209  21.995  23.786  1.00  0.00     0.202 C 
BRANCH   5   6
ATOM      6  C   UNL A   1      32.147  20.919  23.466  1.00  0.00     0.038 C 
BRANCH   6   7
ATOM      7  C   UNL A   1      32.520  19.568  22.843  1.00  0.00     0.002 C 
BRANCH   7   8
ATOM      8  C   UNL A   1      32.531  18.318  23.718  1.00  0.00    -0.003 C 
ATOM      9  C   UNL A   1      33.901  17.702  23.920  1.00  0.00     0.004 C 
ENDBRANCH   7   8
ENDBRANCH   6   7
ENDBRANCH   5   6
BRANCH   5  10
ATOM     10  N   UNL A   1      32.672  23.305  24.179  1.00  0.00    -0.278 N 
ATOM     11  C   UNL A   1      33.106  24.384  23.417  1.00  0.00     0.266 C 
ATOM     12  C   UNL A   1      31.697  23.586  25.119  1.00  0.00     0.149 C 
ATOM     13  O   UNL A   1      33.971  24.373  22.549  1.00  0.00    -0.268 OA
ATOM     14  C   UNL A   1      32.306  25.585  23.725  1.00  0.00     0.081 C 
ATOM     15  S   UNL A   1      31.379  25.323  25.139  1.00  0.00    -0.054 SA
ATOM     16  S   UNL A   1      30.833  22.576  26.126  1.00  0.00    -0.052 S 
ATOM     17  C   UNL A   1      32.291  26.643  22.906  1.00  0.00     0.029 C 
BRANCH  17  18
ATOM     18  C   UNL A   1      31.501  27.840  23.175  1.00  0.00    -0.023 A 
ATOM     19  C   UNL A   1      30.364  28.140  22.418  1.00  0.00     0.008 A 
ATOM     20  C   UNL A   1      31.847  28.638  24.269  1.00  0.00     0.023 A 
ATOM     21  C   UNL A   1      29.564  29.227  22.770  1.00  0.00     0.002 A 
ATOM     22  C   UNL A   1      31.042  29.718  24.614  1.00  0.00     0.018 A 
ATOM     23  C   UNL A   1      29.899  30.015  23.873  1.00  0.00     0.016 A 
ATOM     24  Br  UNL A   1      31.490  30.765  26.122  1.00  0.00    -0.051 Br
ENDBRANCH  17  18
ENDBRANCH   5  10
ENDBRANCH   3   5
ENDBRANCH   2   3
ENDBRANCH   1   2
BRANCH   1  25
ATOM     25  C   UNL A   1      37.478  21.508  25.805  1.00  0.00     0.275 C 
BRANCH  25  26
ATOM     26  O   UNL A   1      38.883  21.457  25.498  1.00  0.00    -0.458 OA
BRANCH  26  27
ATOM     27  C   UNL A   1      39.722  21.307  26.546  1.00  0.00     0.338 C 
ATOM     28  O   UNL A   1      40.071  20.256  27.067  1.00  0.00    -0.246 OA
BRANCH  27  29
ATOM     29  C   UNL A   1      40.203  22.625  26.999  1.00  0.00     0.060 A 
ATOM     30  C   UNL A   1      39.770  23.795  26.373  1.00  0.00     0.016 A 
ATOM     31  C   UNL A   1      41.176  22.690  27.995  1.00  0.00     0.016 A 
ATOM     32  C   UNL A   1      40.366  25.015  26.671  1.00  0.00     0.010 A 
ATOM     33  C   UNL A   1      41.691  23.932  28.376  1.00  0.00     0.010 A 
ATOM     34  C   UNL A   1      41.312  25.104  27.701  1.00  0.00    -0.014 A 
BRANCH  34  35
ATOM     35  C   UNL A   1      41.883  26.420  28.086  1.00  0.00     0.031 A 
ATOM     36  C   UNL A   1      41.037  27.435  28.803  1.00  0.00     0.074 A 
ATOM     37  C   UNL A   1      43.155  26.717  27.749  1.00  0.00     0.049 A 
ATOM     38  N   UNL A   1      41.296  28.690  29.060  1.00  0.00    -0.248 NA
ATOM     39  C   UNL A   1      39.718  26.986  29.282  1.00  0.00     0.031 C 
ATOM     40  C   UNL A   1      44.077  25.815  27.052  1.00  0.00     0.029 A 
ATOM     41  N   UNL A   1      43.888  27.862  27.928  1.00  0.00    -0.354 N 
ATOM     42  C   UNL A   1      40.150  29.201  29.660  1.00  0.00     0.074 A 
ATOM     43  C   UNL A   1      39.198  28.114  29.745  1.00  0.00     0.031 C 
ATOM     44  C   UNL A   1      45.252  26.434  26.875  1.00  0.00     0.029 A 
ATOM     45  C   UNL A   1      45.146  27.799  27.373  1.00  0.00     0.049 A 
ATOM     46  H   UNL A   1      43.548  28.652  28.408  1.00  0.00     0.167 HD
ATOM     47  C   UNL A   1      39.918  30.460  30.102  1.00  0.00     0.034 A 
ATOM     48  C   UNL A   1      46.096  28.745  27.238  1.00  0.00     0.034 A 
ATOM     49  C   UNL A   1      40.897  31.513  30.077  1.00  0.00     0.049 A 
ATOM     50  C   UNL A   1      45.823  30.123  27.767  1.00  0.00     0.074 A 
ATOM     51  C   UNL A   1      40.778  32.810  30.543  1.00  0.00     0.029 A 
ATOM     52  N   UNL A   1      42.181  31.388  29.567  1.00  0.00    -0.354 N 
ATOM     53  N   UNL A   1      44.756  30.571  28.382  1.00  0.00    -0.248 NA
ATOM     54  C   UNL A   1      46.887  31.122  27.597  1.00  0.00     0.031 C 
ATOM     55  C   UNL A   1      41.990  33.471  30.312  1.00  0.00     0.029 A 
ATOM     56  C   UNL A   1      42.866  32.582  29.710  1.00  0.00     0.049 A 
ATOM     57  H   UNL A   1      42.551  30.570  29.164  1.00  0.00     0.167 HD
ATOM     58  C   UNL A   1      45.023  31.899  28.687  1.00  0.00     0.074 A 
ATOM     59  C   UNL A   1      46.365  32.174  28.216  1.00  0.00     0.031 C 
ATOM     60  C   UNL A   1      44.221  32.817  29.281  1.00  0.00     0.034 A 
BRANCH  47  61
ATOM     61  C   UNL A   1      38.561  30.762  30.682  1.00  0.00     0.023 A 
ATOM     62  C   UNL A   1      38.295  30.460  32.032  1.00  0.00     0.012 A 
ATOM     63  C   UNL A   1      37.570  31.396  29.906  1.00  0.00     0.148 A 
ATOM     64  C   UNL A   1      37.056  30.762  32.596  1.00  0.00     0.002 A 
ATOM     65  C   UNL A   1      36.349  31.727  30.485  1.00  0.00     0.091 A 
ATOM     66  F   UNL A   1      37.831  31.651  28.616  1.00  0.00    -0.205 F 
ATOM     67  C   UNL A   1      36.088  31.403  31.826  1.00  0.00     0.022 A 
BRANCH  65  68
ATOM     68  S   UNL A   1      35.070  32.616  29.590  1.00  0.00     0.127 S 
ATOM     69  O   UNL A   1      34.117  32.918  30.657  1.00  0.00    -0.237 OA
ATOM     70  O   UNL A   1      35.798  33.777  29.076  1.00  0.00    -0.237 OA
ATOM     71  O   UNL A   1      34.596  31.700  28.562  1.00  0.00    -0.744 OA
ENDBRANCH  65  68
ENDBRANCH  47  61
BRANCH  48  72
ATOM     72  C   UNL A   1      47.394  28.397  26.594  1.00  0.00     0.023 A 
ATOM     73  C   UNL A   1      48.535  28.213  27.399  1.00  0.00     0.012 A 
ATOM     74  C   UNL A   1      47.490  28.173  25.207  1.00  0.00     0.148 A 
ATOM     75  C   UNL A   1      49.749  27.824  26.831  1.00  0.00     0.002 A 
ATOM     76  C   UNL A   1      48.686  27.726  24.657  1.00  0.00     0.091 A 
ATOM     77  F   UNL A   1      46.401  28.376  24.452  1.00  0.00    -0.205 F 
ATOM     78  C   UNL A   1      49.821  27.565  25.465  1.00  0.00     0.022 A 
BRANCH  76  79
ATOM     79  S   UNL A   1      48.809  27.220  22.936  1.00  0.00     0.127 S 
ATOM     80  O   UNL A   1      47.986  28.225  22.269  1.00  0.00    -0.237 OA
ATOM     81  O   UNL A   1      50.246  27.334  22.682  1.00  0.00    -0.237 OA
ATOM     82  O   UNL A   1      48.307  25.854  22.901  1.00  0.00    -0.744 OA
ENDBRANCH  76  79
ENDBRANCH  48  72
BRANCH  60  83
ATOM     83  C   UNL A   1      44.780  34.199  29.473  1.00  0.00     0.023 A 
ATOM     84  C   UNL A   1      45.471  34.505  30.662  1.00  0.00     0.012 A 
ATOM     85  C   UNL A   1      44.685  35.166  28.455  1.00  0.00     0.148 A 
ATOM     86  C   UNL A   1      46.039  35.765  30.844  1.00  0.00     0.002 A 
ATOM     87  C   UNL A   1      45.289  36.406  28.627  1.00  0.00     0.091 A 
ATOM     88  F   UNL A   1      44.002  34.860  27.342  1.00  0.00    -0.205 F 
ATOM     89  C   UNL A   1      45.958  36.710  29.823  1.00  0.00     0.022 A 
BRANCH  87  90
ATOM     90  S   UNL A   1      45.303  37.647  27.329  1.00  0.00     0.127 S 
ATOM     91  O   UNL A   1      45.999  38.754  27.983  1.00  0.00    -0.237 OA
ATOM     92  O   UNL A   1      46.067  36.987  26.271  1.00  0.00    -0.237 OA
ATOM     93  O   UNL A   1      43.905  37.889  26.998  1.00  0.00    -0.744 OA
ENDBRANCH  87  90
ENDBRANCH  60  83
ENDBRANCH  34  35
ENDBRANCH  27  29
ENDBRANCH  26  27
ENDBRANCH  25  26
ENDBRANCH   1  25
TORSDOF 19
ENDMDL
MODEL 3
REMARK VINA RESULT:     -10.9      2.730      7.967
REMARK SMILES CCCC[C@H](C(=O)OCCOC(=O)c1ccc(-c2c3nc(c(-c4cccc(S(=O)(=O)[O-])c4F)c4ccc([nH]4)c(-c4cccc(S(=O)(=O)[O-])c4F)c4nc(c(-c5cccc(S(=O)(=O)[O-])c5F)c5ccc2[nH]5)C=C4)C=C3)cc1)N1C(=O)/C(=C/c2cccc(Br)c2)SC1=S
REMARK SMILES IDX 9 1 8 2 6 3 7 4 5 5 4 6 3 7 2 8 1 9 77 10 78 11 90 12 79 13
REMARK SMILES IDX 80 14 89 15 91 16 81 17 82 18 83 19 88 20 84 21 86 22 85 23
REMARK SMILES IDX 87 24 10 25 11 26 12 27 13 28 14 29 15 30 76 31 16 32 75 33
REMARK SMILES IDX 17 34 18 35 19 36 69 37 20 38 74 39 68 40 70 41 21 42 73 43
REMARK SMILES IDX 67 44 66 45 22 47 54 48 34 49 53 50 35 51 38 52 52 53 71 54
REMARK SMILES IDX 36 55 37 56 51 58 72 59 39 60 23 61 24 62 32 63 25 64 27 65
REMARK SMILES IDX 33 66 26 67 28 68 29 69 30 70 31 71 55 72 56 73 64 74 57 75
REMARK SMILES IDX 59 76 65 77 58 78 60 79 61 80 62 81 63 82 40 83 41 84 49 85
REMARK SMILES IDX 42 86 44 87 50 88 43 89 45 90 46 91 47 92 48 93
REMARK H PARENT 70 46 38 57
REMARK Flexibility Score: inf
ROOT
ATOM      1  C   UNL A   1      36.668  21.565  24.668  1.00  0.00     0.274 C 
ENDROOT
BRANCH   1   2
ATOM      2  O   UNL A   1      35.639  20.567  24.871  1.00  0.00    -0.461 OA
BRANCH   2   3
ATOM      3  C   UNL A   1      34.435  21.015  25.311  1.00  0.00     0.329 C 
ATOM      4  O   UNL A   1      34.113  21.041  26.494  1.00  0.00    -0.250 OA
BRANCH   3   5
ATOM      5  C   UNL A   1      33.562  21.648  24.203  1.00  0.00     0.202 C 
BRANCH   5   6
ATOM      6  C   UNL A   1      32.612  20.597  23.588  1.00  0.00     0.038 C 
BRANCH   6   7
ATOM      7  C   UNL A   1      32.620  19.131  24.039  1.00  0.00     0.002 C 
BRANCH   7   8
ATOM      8  C   UNL A   1      32.725  18.026  22.992  1.00  0.00    -0.003 C 
ATOM      9  C   UNL A   1      33.797  16.991  23.273  1.00  0.00     0.004 C 
ENDBRANCH   7   8
ENDBRANCH   6   7
ENDBRANCH   5   6
BRANCH   5  10
ATOM     10  N   UNL A   1      32.950  22.953  24.489  1.00  0.00    -0.278 N 
ATOM     11  C   UNL A   1      33.486  24.032  23.794  1.00  0.00     0.266 C 
ATOM     12  C   UNL A   1      31.830  23.226  25.254  1.00  0.00     0.149 C 
ATOM     13  O   UNL A   1      34.480  24.027  23.080  1.00  0.00    -0.268 OA
ATOM     14  C   UNL A   1      32.629  25.222  23.955  1.00  0.00     0.081 C 
ATOM     15  S   UNL A   1      31.487  24.957  25.201  1.00  0.00    -0.054 SA
ATOM     16  S   UNL A   1      30.829  22.211  26.119  1.00  0.00    -0.052 S 
ATOM     17  C   UNL A   1      32.732  26.272  23.131  1.00  0.00     0.029 C 
BRANCH  17  18
ATOM     18  C   UNL A   1      31.891  27.458  23.255  1.00  0.00    -0.023 A 
ATOM     19  C   UNL A   1      30.788  27.652  22.415  1.00  0.00     0.008 A 
ATOM     20  C   UNL A   1      32.150  28.358  24.292  1.00  0.00     0.023 A 
ATOM     21  C   UNL A   1      29.936  28.736  22.629  1.00  0.00     0.002 A 
ATOM     22  C   UNL A   1      31.294  29.433  24.501  1.00  0.00     0.018 A 
ATOM     23  C   UNL A   1      30.184  29.625  23.677  1.00  0.00     0.016 A 
ATOM     24  Br  UNL A   1      31.624  30.619  25.934  1.00  0.00    -0.051 Br
ENDBRANCH  17  18
ENDBRANCH   5  10
ENDBRANCH   3   5
ENDBRANCH   2   3
ENDBRANCH   1   2
BRANCH   1  25
ATOM     25  C   UNL A   1      37.451  21.820  25.961  1.00  0.00     0.275 C 
BRANCH  25  26
ATOM     26  O   UNL A   1      38.784  22.253  25.635  1.00  0.00    -0.458 OA
BRANCH  26  27
ATOM     27  C   UNL A   1      39.697  22.188  26.628  1.00  0.00     0.338 C 
ATOM     28  O   UNL A   1      40.113  21.180  27.183  1.00  0.00    -0.246 OA
BRANCH  27  29
ATOM     29  C   UNL A   1      40.167  23.544  26.969  1.00  0.00     0.060 A 
ATOM     30  C   UNL A   1      40.892  23.774  28.139  1.00  0.00     0.016 A 
ATOM     31  C   UNL A   1      39.792  24.616  26.162  1.00  0.00     0.016 A 
ATOM     32  C   UNL A   1      41.166  25.072  28.553  1.00  0.00     0.010 A 
ATOM     33  C   UNL A   1      40.171  25.913  26.519  1.00  0.00     0.010 A 
ATOM     34  C   UNL A   1      40.837  26.158  27.732  1.00  0.00    -0.014 A 
BRANCH  34  35
ATOM     35  C   UNL A   1      41.212  27.540  28.127  1.00  0.00     0.031 A 
ATOM     36  C   UNL A   1      42.648  27.982  28.076  1.00  0.00     0.074 A 
ATOM     37  C   UNL A   1      40.259  28.385  28.573  1.00  0.00     0.049 A 
ATOM     38  N   UNL A   1      43.191  29.075  28.545  1.00  0.00    -0.248 NA
ATOM     39  C   UNL A   1      43.605  27.069  27.427  1.00  0.00     0.031 C 
ATOM     40  C   UNL A   1      38.830  28.072  28.668  1.00  0.00     0.029 A 
ATOM     41  N   UNL A   1      40.347  29.668  29.048  1.00  0.00    -0.354 N 
ATOM     42  C   UNL A   1      44.557  28.950  28.318  1.00  0.00     0.074 A 
ATOM     43  C   UNL A   1      44.760  27.680  27.653  1.00  0.00     0.031 C 
ATOM     44  C   UNL A   1      38.177  29.135  29.156  1.00  0.00     0.029 A 
ATOM     45  C   UNL A   1      39.144  30.176  29.482  1.00  0.00     0.049 A 
ATOM     46  H   UNL A   1      41.190  30.178  29.075  1.00  0.00     0.167 HD
ATOM     47  C   UNL A   1      45.548  29.818  28.632  1.00  0.00     0.034 A 
ATOM     48  C   UNL A   1      38.852  31.330  30.112  1.00  0.00     0.034 A 
ATOM     49  C   UNL A   1      45.327  31.107  29.229  1.00  0.00     0.049 A 
ATOM     50  C   UNL A   1      39.967  32.288  30.417  1.00  0.00     0.074 A 
ATOM     51  C   UNL A   1      46.258  32.081  29.544  1.00  0.00     0.029 A 
ATOM     52  N   UNL A   1      44.086  31.610  29.591  1.00  0.00    -0.354 N 
ATOM     53  N   UNL A   1      41.244  32.177  30.144  1.00  0.00    -0.248 NA
ATOM     54  C   UNL A   1      39.602  33.533  31.106  1.00  0.00     0.031 C 
ATOM     55  C   UNL A   1      45.579  33.171  30.100  1.00  0.00     0.029 A 
ATOM     56  C   UNL A   1      44.225  32.880  30.122  1.00  0.00     0.049 A 
ATOM     57  H   UNL A   1      43.231  31.133  29.483  1.00  0.00     0.167 HD
ATOM     58  C   UNL A   1      41.835  33.343  30.612  1.00  0.00     0.074 A 
ATOM     59  C   UNL A   1      40.771  34.160  31.159  1.00  0.00     0.031 C 
ATOM     60  C   UNL A   1      43.144  33.696  30.613  1.00  0.00     0.034 A 
BRANCH  47  61
ATOM     61  C   UNL A   1      46.963  29.416  28.308  1.00  0.00     0.023 A 
ATOM     62  C   UNL A   1      47.554  29.850  27.106  1.00  0.00     0.012 A 
ATOM     63  C   UNL A   1      47.724  28.656  29.219  1.00  0.00     0.148 A 
ATOM     64  C   UNL A   1      48.874  29.515  26.803  1.00  0.00     0.002 A 
ATOM     65  C   UNL A   1      49.050  28.357  28.927  1.00  0.00     0.091 A 
ATOM     66  F   UNL A   1      47.136  28.229  30.346  1.00  0.00    -0.205 F 
ATOM     67  C   UNL A   1      49.624  28.778  27.717  1.00  0.00     0.022 A 
BRANCH  65  68
ATOM     68  S   UNL A   1      50.113  27.473  30.076  1.00  0.00     0.127 S 
ATOM     69  O   UNL A   1      50.061  28.338  31.253  1.00  0.00    -0.237 OA
ATOM     70  O   UNL A   1      49.414  26.196  30.226  1.00  0.00    -0.237 OA
ATOM     71  O   UNL A   1      51.410  27.375  29.421  1.00  0.00    -0.744 OA
ENDBRANCH  65  68
ENDBRANCH  47  61
BRANCH  48  72
ATOM     72  C   UNL A   1      37.437  31.638  30.464  1.00  0.00     0.023 A 
ATOM     73  C   UNL A   1      36.944  31.262  31.728  1.00  0.00     0.012 A 
ATOM     74  C   UNL A   1      36.604  32.363  29.590  1.00  0.00     0.148 A 
ATOM     75  C   UNL A   1      35.642  31.593  32.109  1.00  0.00     0.002 A 
ATOM     76  C   UNL A   1      35.331  32.743  30.001  1.00  0.00     0.091 A 
ATOM     77  F   UNL A   1      37.081  32.692  28.381  1.00  0.00    -0.205 F 
ATOM     78  C   UNL A   1      34.843  32.347  31.255  1.00  0.00     0.022 A 
BRANCH  76  79
ATOM     79  S   UNL A   1      34.308  33.847  29.018  1.00  0.00     0.127 S 
ATOM     80  O   UNL A   1      33.374  34.360  30.017  1.00  0.00    -0.237 OA
ATOM     81  O   UNL A   1      35.285  34.822  28.530  1.00  0.00    -0.237 OA
ATOM     82  O   UNL A   1      33.733  33.010  27.974  1.00  0.00    -0.744 OA
ENDBRANCH  76  79
ENDBRANCH  48  72
BRANCH  60  83
ATOM     83  C   UNL A   1      43.497  35.032  31.205  1.00  0.00     0.023 A 
ATOM     84  C   UNL A   1      43.736  35.133  32.589  1.00  0.00     0.012 A 
ATOM     85  C   UNL A   1      43.660  36.166  30.386  1.00  0.00     0.148 A 
ATOM     86  C   UNL A   1      44.110  36.351  33.154  1.00  0.00     0.002 A 
ATOM     87  C   UNL A   1      44.073  37.366  30.951  1.00  0.00     0.091 A 
ATOM     88  F   UNL A   1      43.404  36.052  29.075  1.00  0.00    -0.205 F 
ATOM     89  C   UNL A   1      44.290  37.463  32.334  1.00  0.00     0.022 A 
BRANCH  87  90
ATOM     90  S   UNL A   1      44.410  38.822  29.954  1.00  0.00     0.127 S 
ATOM     91  O   UNL A   1      45.067  39.700  30.920  1.00  0.00    -0.237 OA
ATOM     92  O   UNL A   1      45.290  38.294  28.912  1.00  0.00    -0.237 OA
ATOM     93  O   UNL A   1      43.113  39.277  29.469  1.00  0.00    -0.744 OA
ENDBRANCH  87  90
ENDBRANCH  60  83
ENDBRANCH  34  35
ENDBRANCH  27  29
ENDBRANCH  26  27
ENDBRANCH  25  26
ENDBRANCH   1  25
TORSDOF 19
ENDMDL
