MODEL 1
REMARK VINA RESULT:     -10.9      0.000      0.000
REMARK SMILES C[C@@H]1[C@@H](C)CC[C@H]1[NH2+][C@@H](C)[C@@H](C)C(=O)OCCOC(=O)c1ccc(-c2c3nc(c(-c4cccc(S(=O)(=O)[O-])c4F)c4ccc([nH]4)c(-c4cccc(S(=O)(=O)[O-])c4F)c4nc(c(-c5cccc(S(=O)(=O)[O-])c5F)c5ccc2[nH]5)C=C4)C=C3)cc1
REMARK SMILES IDX 16 1 15 2 13 3 14 4 11 5 12 6 9 7 10 8 8 9 7 12 1 13 2 14
REMARK SMILES IDX 3 15 5 16 4 17 6 18 17 19 18 20 19 21 20 22 21 23 22 24
REMARK SMILES IDX 83 25 23 26 82 27 24 28 25 29 26 30 76 31 27 32 81 33 75 34
REMARK SMILES IDX 77 35 28 36 80 37 74 38 73 39 29 41 61 42 41 43 60 44 42 45
REMARK SMILES IDX 45 46 59 47 78 48 43 49 44 50 58 52 79 53 46 54 30 55 31 56
REMARK SMILES IDX 39 57 32 58 34 59 40 60 33 61 35 62 36 63 37 64 38 65 62 66
REMARK SMILES IDX 63 67 71 68 64 69 66 70 72 71 65 72 67 73 68 74 69 75 70 76
REMARK SMILES IDX 47 77 48 78 56 79 49 80 51 81 57 82 50 83 52 84 53 85 54 86
REMARK SMILES IDX 55 87
REMARK H PARENT 8 10 8 11 77 40 45 51
REMARK Flexibility Score: inf
ROOT
ATOM      1  C   UNL A   1      31.480  28.313  26.627  1.00  0.00     0.274 C 
ENDROOT
BRANCH   1   2
ATOM      2  O   UNL A   1      32.120  27.152  26.058  1.00  0.00    -0.462 OA
BRANCH   2   3
ATOM      3  C   UNL A   1      31.279  26.126  25.762  1.00  0.00     0.314 C 
ATOM      4  O   UNL A   1      30.439  25.676  26.534  1.00  0.00    -0.252 OA
BRANCH   3   5
ATOM      5  C   UNL A   1      31.497  25.529  24.382  1.00  0.00     0.154 C 
ATOM      6  C   UNL A   1      32.987  25.687  24.066  1.00  0.00     0.026 C 
BRANCH   5   7
ATOM      7  C   UNL A   1      30.572  26.052  23.245  1.00  0.00     0.193 C 
ATOM      8  C   UNL A   1      31.368  26.326  21.964  1.00  0.00     0.076 C 
BRANCH   7   9
ATOM      9  N   UNL A   1      29.943  27.293  23.735  1.00  0.00    -0.341 N 
ATOM     10  H   UNL A   1      29.171  27.021  24.344  1.00  0.00     0.346 HD
ATOM     11  H   UNL A   1      30.703  27.803  24.185  1.00  0.00     0.346 HD
BRANCH   9  12
ATOM     12  C   UNL A   1      29.410  28.228  22.750  1.00  0.00     0.185 C 
ATOM     13  C   UNL A   1      26.956  28.214  23.495  1.00  0.00     0.014 C 
ATOM     14  C   UNL A   1      28.244  29.022  23.382  1.00  0.00     0.047 C 
ATOM     15  C   UNL A   1      28.085  30.265  22.485  1.00  0.00    -0.005 C 
ATOM     16  C   UNL A   1      29.443  30.456  21.798  1.00  0.00     0.010 C 
ATOM     17  C   UNL A   1      27.670  31.499  23.280  1.00  0.00     0.008 C 
ATOM     18  C   UNL A   1      30.353  29.359  22.335  1.00  0.00     0.065 C 
ENDBRANCH   9  12
ENDBRANCH   7   9
ENDBRANCH   5   7
ENDBRANCH   3   5
ENDBRANCH   2   3
ENDBRANCH   1   2
BRANCH   1  19
ATOM     19  C   UNL A   1      31.676  29.531  25.722  1.00  0.00     0.275 C 
BRANCH  19  20
ATOM     20  O   UNL A   1      33.003  30.056  25.892  1.00  0.00    -0.458 OA
BRANCH  20  21
ATOM     21  C   UNL A   1      33.124  31.038  26.816  1.00  0.00     0.338 C 
ATOM     22  O   UNL A   1      32.325  31.937  27.024  1.00  0.00    -0.246 OA
BRANCH  21  23
ATOM     23  C   UNL A   1      34.386  30.878  27.575  1.00  0.00     0.060 A 
ATOM     24  C   UNL A   1      35.260  31.949  27.794  1.00  0.00     0.016 A 
ATOM     25  C   UNL A   1      34.727  29.602  28.024  1.00  0.00     0.016 A 
ATOM     26  C   UNL A   1      36.490  31.736  28.424  1.00  0.00     0.010 A 
ATOM     27  C   UNL A   1      35.923  29.403  28.714  1.00  0.00     0.010 A 
ATOM     28  C   UNL A   1      36.826  30.463  28.905  1.00  0.00    -0.014 A 
BRANCH  28  29
ATOM     29  C   UNL A   1      38.095  30.212  29.638  1.00  0.00     0.031 A 
ATOM     30  C   UNL A   1      39.117  29.258  29.081  1.00  0.00     0.074 A 
ATOM     31  C   UNL A   1      38.280  30.760  30.855  1.00  0.00     0.049 A 
ATOM     32  N   UNL A   1      40.178  28.755  29.657  1.00  0.00    -0.248 NA
ATOM     33  C   UNL A   1      38.907  28.795  27.700  1.00  0.00     0.031 C 
ATOM     34  C   UNL A   1      37.355  31.683  31.516  1.00  0.00     0.029 A 
ATOM     35  N   UNL A   1      39.287  30.584  31.773  1.00  0.00    -0.354 N 
ATOM     36  C   UNL A   1      40.729  27.871  28.736  1.00  0.00     0.074 A 
ATOM     37  C   UNL A   1      39.890  27.914  27.557  1.00  0.00     0.031 C 
ATOM     38  C   UNL A   1      37.824  31.975  32.739  1.00  0.00     0.029 A 
ATOM     39  C   UNL A   1      39.051  31.220  32.970  1.00  0.00     0.049 A 
ATOM     40  H   UNL A   1      40.097  30.055  31.592  1.00  0.00     0.167 HD
ATOM     41  C   UNL A   1      41.836  27.101  28.859  1.00  0.00     0.034 A 
ATOM     42  C   UNL A   1      39.721  31.173  34.138  1.00  0.00     0.034 A 
ATOM     43  C   UNL A   1      42.699  27.105  30.010  1.00  0.00     0.049 A 
ATOM     44  C   UNL A   1      40.961  30.330  34.239  1.00  0.00     0.074 A 
ATOM     45  C   UNL A   1      43.886  26.416  30.197  1.00  0.00     0.029 A 
ATOM     46  N   UNL A   1      42.473  27.832  31.168  1.00  0.00    -0.354 N 
ATOM     47  N   UNL A   1      41.524  29.580  33.323  1.00  0.00    -0.248 NA
ATOM     48  C   UNL A   1      41.670  30.341  35.526  1.00  0.00     0.031 C 
ATOM     49  C   UNL A   1      44.372  26.720  31.474  1.00  0.00     0.029 A 
ATOM     50  C   UNL A   1      43.493  27.606  32.077  1.00  0.00     0.049 A 
ATOM     51  H   UNL A   1      41.700  28.422  31.322  1.00  0.00     0.167 HD
ATOM     52  C   UNL A   1      42.664  29.050  33.913  1.00  0.00     0.074 A 
ATOM     53  C   UNL A   1      42.726  29.583  35.259  1.00  0.00     0.031 C 
ATOM     54  C   UNL A   1      43.569  28.184  33.393  1.00  0.00     0.034 A 
BRANCH  41  55
ATOM     55  C   UNL A   1      42.210  26.214  27.701  1.00  0.00     0.023 A 
ATOM     56  C   UNL A   1      43.002  26.733  26.657  1.00  0.00     0.012 A 
ATOM     57  C   UNL A   1      41.845  24.854  27.682  1.00  0.00     0.148 A 
ATOM     58  C   UNL A   1      43.406  25.918  25.601  1.00  0.00     0.002 A 
ATOM     59  C   UNL A   1      42.282  24.037  26.644  1.00  0.00     0.091 A 
ATOM     60  F   UNL A   1      41.071  24.385  28.671  1.00  0.00    -0.205 F 
ATOM     61  C   UNL A   1      43.057  24.569  25.599  1.00  0.00     0.022 A 
BRANCH  59  62
ATOM     62  S   UNL A   1      41.941  22.274  26.593  1.00  0.00     0.127 S 
ATOM     63  O   UNL A   1      40.485  22.259  26.464  1.00  0.00    -0.237 OA
ATOM     64  O   UNL A   1      42.664  21.851  25.394  1.00  0.00    -0.237 OA
ATOM     65  O   UNL A   1      42.468  21.731  27.838  1.00  0.00    -0.744 OA
ENDBRANCH  59  62
ENDBRANCH  41  55
BRANCH  42  66
ATOM     66  C   UNL A   1      39.242  31.986  35.290  1.00  0.00     0.023 A 
ATOM     67  C   UNL A   1      38.398  31.393  36.247  1.00  0.00     0.012 A 
ATOM     68  C   UNL A   1      39.668  33.316  35.479  1.00  0.00     0.148 A 
ATOM     69  C   UNL A   1      37.977  32.111  37.366  1.00  0.00     0.002 A 
ATOM     70  C   UNL A   1      39.290  34.007  36.625  1.00  0.00     0.091 A 
ATOM     71  F   UNL A   1      40.454  33.871  34.546  1.00  0.00    -0.205 F 
ATOM     72  C   UNL A   1      38.434  33.411  37.563  1.00  0.00     0.022 A 
BRANCH  70  73
ATOM     73  S   UNL A   1      39.949  35.631  37.023  1.00  0.00     0.127 S 
ATOM     74  O   UNL A   1      39.611  36.394  35.826  1.00  0.00    -0.237 OA
ATOM     75  O   UNL A   1      39.182  35.987  38.218  1.00  0.00    -0.237 OA
ATOM     76  O   UNL A   1      41.370  35.424  37.267  1.00  0.00    -0.744 OA
ENDBRANCH  70  73
ENDBRANCH  42  66
BRANCH  54  77
ATOM     77  C   UNL A   1      44.718  27.769  34.272  1.00  0.00     0.023 A 
ATOM     78  C   UNL A   1      45.922  28.501  34.231  1.00  0.00     0.012 A 
ATOM     79  C   UNL A   1      44.583  26.708  35.188  1.00  0.00     0.148 A 
ATOM     80  C   UNL A   1      46.983  28.165  35.070  1.00  0.00     0.002 A 
ATOM     81  C   UNL A   1      45.631  26.405  36.049  1.00  0.00     0.091 A 
ATOM     82  F   UNL A   1      43.438  26.009  35.196  1.00  0.00    -0.205 F 
ATOM     83  C   UNL A   1      46.834  27.126  35.987  1.00  0.00     0.022 A 
BRANCH  81  84
ATOM     84  S   UNL A   1      45.488  25.139  37.316  1.00  0.00     0.127 S 
ATOM     85  O   UNL A   1      45.335  23.927  36.513  1.00  0.00    -0.237 OA
ATOM     86  O   UNL A   1      46.768  25.247  38.017  1.00  0.00    -0.237 OA
ATOM     87  O   UNL A   1      44.331  25.512  38.120  1.00  0.00    -0.744 OA
ENDBRANCH  81  84
ENDBRANCH  54  77
ENDBRANCH  28  29
ENDBRANCH  21  23
ENDBRANCH  20  21
ENDBRANCH  19  20
ENDBRANCH   1  19
TORSDOF 17
ENDMDL
MODEL 2
REMARK VINA RESULT:     -10.8      6.213     10.164
REMARK SMILES C[C@@H]1[C@@H](C)CC[C@H]1[NH2+][C@@H](C)[C@@H](C)C(=O)OCCOC(=O)c1ccc(-c2c3nc(c(-c4cccc(S(=O)(=O)[O-])c4F)c4ccc([nH]4)c(-c4cccc(S(=O)(=O)[O-])c4F)c4nc(c(-c5cccc(S(=O)(=O)[O-])c5F)c5ccc2[nH]5)C=C4)C=C3)cc1
REMARK SMILES IDX 16 1 15 2 13 3 14 4 11 5 12 6 9 7 10 8 8 9 7 12 1 13 2 14
REMARK SMILES IDX 3 15 5 16 4 17 6 18 17 19 18 20 19 21 20 22 21 23 22 24
REMARK SMILES IDX 83 25 23 26 82 27 24 28 25 29 26 30 76 31 27 32 81 33 75 34
REMARK SMILES IDX 77 35 28 36 80 37 74 38 73 39 29 41 61 42 41 43 60 44 42 45
REMARK SMILES IDX 45 46 59 47 78 48 43 49 44 50 58 52 79 53 46 54 30 55 31 56
REMARK SMILES IDX 39 57 32 58 34 59 40 60 33 61 35 62 36 63 37 64 38 65 62 66
REMARK SMILES IDX 63 67 71 68 64 69 66 70 72 71 65 72 67 73 68 74 69 75 70 76
REMARK SMILES IDX 47 77 48 78 56 79 49 80 51 81 57 82 50 83 52 84 53 85 54 86
REMARK SMILES IDX 55 87
REMARK H PARENT 8 10 8 11 77 40 45 51
REMARK Flexibility Score: inf
ROOT
ATOM      1  C   UNL A   1      41.378  19.933  26.552  1.00  0.00     0.274 C 
ENDROOT
BRANCH   1   2
ATOM      2  O   UNL A   1      42.192  19.601  25.407  1.00  0.00    -0.462 OA
BRANCH   2   3
ATOM      3  C   UNL A   1      43.249  18.789  25.676  1.00  0.00     0.314 C 
ATOM      4  O   UNL A   1      43.224  17.867  26.486  1.00  0.00    -0.252 OA
BRANCH   3   5
ATOM      5  C   UNL A   1      44.511  19.146  24.911  1.00  0.00     0.154 C 
ATOM      6  C   UNL A   1      45.639  18.295  25.503  1.00  0.00     0.026 C 
BRANCH   5   7
ATOM      7  C   UNL A   1      44.869  20.658  24.827  1.00  0.00     0.193 C 
ATOM      8  C   UNL A   1      46.348  20.861  24.477  1.00  0.00     0.076 C 
BRANCH   7   9
ATOM      9  N   UNL A   1      44.567  21.248  26.145  1.00  0.00    -0.341 N 
ATOM     10  H   UNL A   1      43.908  20.625  26.612  1.00  0.00     0.346 HD
ATOM     11  H   UNL A   1      45.477  21.348  26.594  1.00  0.00     0.346 HD
BRANCH   9  12
ATOM     12  C   UNL A   1      43.994  22.590  26.182  1.00  0.00     0.185 C 
ATOM     13  C   UNL A   1      45.691  23.688  27.762  1.00  0.00     0.014 C 
ATOM     14  C   UNL A   1      45.132  23.624  26.344  1.00  0.00     0.047 C 
ATOM     15  C   UNL A   1      44.514  24.960  25.891  1.00  0.00    -0.005 C 
ATOM     16  C   UNL A   1      43.346  24.586  24.971  1.00  0.00     0.010 C 
ATOM     17  C   UNL A   1      45.530  25.855  25.187  1.00  0.00     0.008 C 
ATOM     18  C   UNL A   1      43.340  23.065  24.884  1.00  0.00     0.065 C 
ENDBRANCH   9  12
ENDBRANCH   7   9
ENDBRANCH   5   7
ENDBRANCH   3   5
ENDBRANCH   2   3
ENDBRANCH   1   2
BRANCH   1  19
ATOM     19  C   UNL A   1      40.156  20.748  26.123  1.00  0.00     0.275 C 
BRANCH  19  20
ATOM     20  O   UNL A   1      40.049  21.928  26.936  1.00  0.00    -0.458 OA
BRANCH  20  21
ATOM     21  C   UNL A   1      39.121  22.827  26.531  1.00  0.00     0.338 C 
ATOM     22  O   UNL A   1      38.095  22.580  25.919  1.00  0.00    -0.246 OA
BRANCH  21  23
ATOM     23  C   UNL A   1      39.517  24.195  26.939  1.00  0.00     0.060 A 
ATOM     24  C   UNL A   1      40.081  25.105  26.038  1.00  0.00     0.016 A 
ATOM     25  C   UNL A   1      39.373  24.547  28.282  1.00  0.00     0.016 A 
ATOM     26  C   UNL A   1      40.537  26.348  26.486  1.00  0.00     0.010 A 
ATOM     27  C   UNL A   1      39.764  25.815  28.714  1.00  0.00     0.010 A 
ATOM     28  C   UNL A   1      40.368  26.722  27.826  1.00  0.00    -0.014 A 
BRANCH  28  29
ATOM     29  C   UNL A   1      40.780  28.061  28.324  1.00  0.00     0.031 A 
ATOM     30  C   UNL A   1      42.236  28.373  28.545  1.00  0.00     0.074 A 
ATOM     31  C   UNL A   1      39.839  28.958  28.678  1.00  0.00     0.049 A 
ATOM     32  N   UNL A   1      42.778  29.393  29.157  1.00  0.00    -0.248 NA
ATOM     33  C   UNL A   1      43.208  27.398  28.024  1.00  0.00     0.031 C 
ATOM     34  C   UNL A   1      38.394  28.768  28.534  1.00  0.00     0.029 A 
ATOM     35  N   UNL A   1      39.956  30.190  29.274  1.00  0.00    -0.354 N 
ATOM     36  C   UNL A   1      44.148  29.156  29.152  1.00  0.00     0.074 A 
ATOM     37  C   UNL A   1      44.356  27.899  28.465  1.00  0.00     0.031 C 
ATOM     38  C   UNL A   1      37.758  29.832  29.047  1.00  0.00     0.029 A 
ATOM     39  C   UNL A   1      38.744  30.753  29.604  1.00  0.00     0.049 A 
ATOM     40  H   UNL A   1      40.820  30.627  29.448  1.00  0.00     0.167 HD
ATOM     41  C   UNL A   1      45.142  29.920  29.664  1.00  0.00     0.034 A 
ATOM     42  C   UNL A   1      38.453  31.864  30.309  1.00  0.00     0.034 A 
ATOM     43  C   UNL A   1      44.936  31.197  30.295  1.00  0.00     0.049 A 
ATOM     44  C   UNL A   1      39.576  32.707  30.845  1.00  0.00     0.074 A 
ATOM     45  C   UNL A   1      45.886  32.081  30.779  1.00  0.00     0.029 A 
ATOM     46  N   UNL A   1      43.697  31.775  30.530  1.00  0.00    -0.354 N 
ATOM     47  N   UNL A   1      40.869  32.520  30.740  1.00  0.00    -0.248 NA
ATOM     48  C   UNL A   1      39.201  33.924  31.579  1.00  0.00     0.031 C 
ATOM     49  C   UNL A   1      45.220  33.189  31.315  1.00  0.00     0.029 A 
ATOM     50  C   UNL A   1      43.857  32.999  31.156  1.00  0.00     0.049 A 
ATOM     51  H   UNL A   1      42.832  31.372  30.289  1.00  0.00     0.167 HD
ATOM     52  C   UNL A   1      41.463  33.606  31.371  1.00  0.00     0.074 A 
ATOM     53  C   UNL A   1      40.388  34.459  31.837  1.00  0.00     0.031 C 
ATOM     54  C   UNL A   1      42.780  33.863  31.566  1.00  0.00     0.034 A 
BRANCH  41  55
ATOM     55  C   UNL A   1      46.556  29.422  29.530  1.00  0.00     0.023 A 
ATOM     56  C   UNL A   1      47.123  28.654  30.566  1.00  0.00     0.012 A 
ATOM     57  C   UNL A   1      47.296  29.649  28.353  1.00  0.00     0.148 A 
ATOM     58  C   UNL A   1      48.411  28.136  30.443  1.00  0.00     0.002 A 
ATOM     59  C   UNL A   1      48.567  29.099  28.222  1.00  0.00     0.091 A 
ATOM     60  F   UNL A   1      46.751  30.403  27.389  1.00  0.00    -0.205 F 
ATOM     61  C   UNL A   1      49.129  28.349  29.268  1.00  0.00     0.022 A 
BRANCH  59  62
ATOM     62  S   UNL A   1      49.538  29.261  26.718  1.00  0.00     0.127 S 
ATOM     63  O   UNL A   1      48.651  28.657  25.727  1.00  0.00    -0.237 OA
ATOM     64  O   UNL A   1      49.688  30.712  26.599  1.00  0.00    -0.237 OA
ATOM     65  O   UNL A   1      50.782  28.545  26.969  1.00  0.00    -0.744 OA
ENDBRANCH  59  62
ENDBRANCH  41  55
BRANCH  42  66
ATOM     66  C   UNL A   1      37.029  32.253  30.508  1.00  0.00     0.023 A 
ATOM     67  C   UNL A   1      36.427  32.039  31.762  1.00  0.00     0.012 A 
ATOM     68  C   UNL A   1      36.292  32.890  29.491  1.00  0.00     0.148 A 
ATOM     69  C   UNL A   1      35.113  32.442  31.997  1.00  0.00     0.002 A 
ATOM     70  C   UNL A   1      35.002  33.340  29.749  1.00  0.00     0.091 A 
ATOM     71  F   UNL A   1      36.875  33.065  28.297  1.00  0.00    -0.205 F 
ATOM     72  C   UNL A   1      34.406  33.105  30.998  1.00  0.00     0.022 A 
BRANCH  70  73
ATOM     73  S   UNL A   1      34.078  34.326  28.566  1.00  0.00     0.127 S 
ATOM     74  O   UNL A   1      34.090  33.468  27.385  1.00  0.00    -0.237 OA
ATOM     75  O   UNL A   1      32.775  34.451  29.223  1.00  0.00    -0.237 OA
ATOM     76  O   UNL A   1      34.809  35.580  28.450  1.00  0.00    -0.744 OA
ENDBRANCH  70  73
ENDBRANCH  42  66
BRANCH  54  77
ATOM     77  C   UNL A   1      43.140  35.128  32.298  1.00  0.00     0.023 A 
ATOM     78  C   UNL A   1      43.141  35.137  33.707  1.00  0.00     0.012 A 
ATOM     79  C   UNL A   1      43.545  36.280  31.596  1.00  0.00     0.148 A 
ATOM     80  C   UNL A   1      43.517  36.283  34.407  1.00  0.00     0.002 A 
ATOM     81  C   UNL A   1      43.958  37.405  32.301  1.00  0.00     0.091 A 
ATOM     82  F   UNL A   1      43.515  36.258  30.256  1.00  0.00    -0.205 F 
ATOM     83  C   UNL A   1      43.936  37.412  33.705  1.00  0.00     0.022 A 
BRANCH  81  84
ATOM     84  S   UNL A   1      44.593  38.868  31.475  1.00  0.00     0.127 S 
ATOM     85  O   UNL A   1      45.923  38.424  31.060  1.00  0.00    -0.237 OA
ATOM     86  O   UNL A   1      43.641  39.050  30.378  1.00  0.00    -0.237 OA
ATOM     87  O   UNL A   1      44.566  39.929  32.474  1.00  0.00    -0.744 OA
ENDBRANCH  81  84
ENDBRANCH  54  77
ENDBRANCH  28  29
ENDBRANCH  21  23
ENDBRANCH  20  21
ENDBRANCH  19  20
ENDBRANCH   1  19
TORSDOF 17
ENDMDL
MODEL 3
REMARK VINA RESULT:     -10.8      4.999      9.915
REMARK SMILES C[C@@H]1[C@@H](C)CC[C@H]1[NH2+][C@@H](C)[C@@H](C)C(=O)OCCOC(=O)c1ccc(-c2c3nc(c(-c4cccc(S(=O)(=O)[O-])c4F)c4ccc([nH]4)c(-c4cccc(S(=O)(=O)[O-])c4F)c4nc(c(-c5cccc(S(=O)(=O)[O-])c5F)c5ccc2[nH]5)C=C4)C=C3)cc1
REMARK SMILES IDX 16 1 15 2 13 3 14 4 11 5 12 6 9 7 10 8 8 9 7 12 1 13 2 14
REMARK SMILES IDX 3 15 5 16 4 17 6 18 17 19 18 20 19 21 20 22 21 23 22 24
REMARK SMILES IDX 83 25 23 26 82 27 24 28 25 29 26 30 76 31 27 32 81 33 75 34
REMARK SMILES IDX 77 35 28 36 80 37 74 38 73 39 29 41 61 42 41 43 60 44 42 45
REMARK SMILES IDX 45 46 59 47 78 48 43 49 44 50 58 52 79 53 46 54 30 55 31 56
REMARK SMILES IDX 39 57 32 58 34 59 40 60 33 61 35 62 36 63 37 64 38 65 62 66
REMARK SMILES IDX 63 67 71 68 64 69 66 70 72 71 65 72 67 73 68 74 69 75 70 76
REMARK SMILES IDX 47 77 48 78 56 79 49 80 51 81 57 82 50 83 52 84 53 85 54 86
REMARK SMILES IDX 55 87
REMARK H PARENT 8 10 8 11 77 40 45 51
REMARK Flexibility Score: inf
ROOT
ATOM      1  C   UNL A   1      34.575  20.885  25.537  1.00  0.00     0.274 C 
ENDROOT
BRANCH   1   2
ATOM      2  O   UNL A   1      33.807  21.467  24.463  1.00  0.00    -0.462 OA
BRANCH   2   3
ATOM      3  C   UNL A   1      32.464  21.492  24.671  1.00  0.00     0.314 C 
ATOM      4  O   UNL A   1      31.829  20.584  25.199  1.00  0.00    -0.252 OA
BRANCH   3   5
ATOM      5  C   UNL A   1      31.781  22.741  24.144  1.00  0.00     0.154 C 
ATOM      6  C   UNL A   1      32.395  23.030  22.770  1.00  0.00     0.026 C 
BRANCH   5   7
ATOM      7  C   UNL A   1      31.778  23.981  25.084  1.00  0.00     0.193 C 
ATOM      8  C   UNL A   1      30.606  23.927  26.071  1.00  0.00     0.076 C 
BRANCH   7   9
ATOM      9  N   UNL A   1      31.671  25.175  24.224  1.00  0.00    -0.341 N 
ATOM     10  H   UNL A   1      31.959  24.899  23.285  1.00  0.00     0.346 HD
ATOM     11  H   UNL A   1      30.700  25.473  24.320  1.00  0.00     0.346 HD
BRANCH   9  12
ATOM     12  C   UNL A   1      32.449  26.355  24.587  1.00  0.00     0.185 C 
ATOM     13  C   UNL A   1      30.634  28.134  24.243  1.00  0.00     0.014 C 
ATOM     14  C   UNL A   1      31.517  27.397  25.245  1.00  0.00     0.047 C 
ATOM     15  C   UNL A   1      32.464  28.344  26.007  1.00  0.00    -0.005 C 
ATOM     16  C   UNL A   1      33.740  27.534  26.264  1.00  0.00     0.010 C 
ATOM     17  C   UNL A   1      31.844  28.857  27.303  1.00  0.00     0.008 C 
ATOM     18  C   UNL A   1      33.491  26.146  25.687  1.00  0.00     0.065 C 
ENDBRANCH   9  12
ENDBRANCH   7   9
ENDBRANCH   5   7
ENDBRANCH   3   5
ENDBRANCH   2   3
ENDBRANCH   1   2
BRANCH   1  19
ATOM     19  C   UNL A   1      36.017  20.634  25.091  1.00  0.00     0.275 C 
BRANCH  19  20
ATOM     20  O   UNL A   1      36.897  21.565  25.744  1.00  0.00    -0.458 OA
BRANCH  20  21
ATOM     21  C   UNL A   1      38.202  21.206  25.771  1.00  0.00     0.338 C 
ATOM     22  O   UNL A   1      38.661  20.127  25.435  1.00  0.00    -0.246 OA
BRANCH  21  23
ATOM     23  C   UNL A   1      39.034  22.325  26.271  1.00  0.00     0.060 A 
ATOM     24  C   UNL A   1      40.135  22.114  27.109  1.00  0.00     0.016 A 
ATOM     25  C   UNL A   1      38.656  23.626  25.936  1.00  0.00     0.016 A 
ATOM     26  C   UNL A   1      40.831  23.202  27.644  1.00  0.00     0.010 A 
ATOM     27  C   UNL A   1      39.395  24.709  26.414  1.00  0.00     0.010 A 
ATOM     28  C   UNL A   1      40.477  24.511  27.288  1.00  0.00    -0.014 A 
BRANCH  28  29
ATOM     29  C   UNL A   1      41.236  25.689  27.784  1.00  0.00     0.031 A 
ATOM     30  C   UNL A   1      40.537  26.763  28.574  1.00  0.00     0.074 A 
ATOM     31  C   UNL A   1      42.527  25.846  27.432  1.00  0.00     0.049 A 
ATOM     32  N   UNL A   1      40.967  27.950  28.915  1.00  0.00    -0.248 NA
ATOM     33  C   UNL A   1      39.167  26.469  29.024  1.00  0.00     0.031 C 
ATOM     34  C   UNL A   1      43.312  24.889  26.650  1.00  0.00     0.029 A 
ATOM     35  N   UNL A   1      43.393  26.890  27.648  1.00  0.00    -0.354 N 
ATOM     36  C   UNL A   1      39.905  28.569  29.564  1.00  0.00     0.074 A 
ATOM     37  C   UNL A   1      38.811  27.621  29.578  1.00  0.00     0.031 C 
ATOM     38  C   UNL A   1      44.534  25.397  26.432  1.00  0.00     0.029 A 
ATOM     39  C   UNL A   1      44.604  26.735  27.011  1.00  0.00     0.049 A 
ATOM     40  H   UNL A   1      43.171  27.672  28.203  1.00  0.00     0.167 HD
ATOM     41  C   UNL A   1      39.849  29.809  30.105  1.00  0.00     0.034 A 
ATOM     42  C   UNL A   1      45.639  27.586  26.870  1.00  0.00     0.034 A 
ATOM     43  C   UNL A   1      40.957  30.726  30.139  1.00  0.00     0.049 A 
ATOM     44  C   UNL A   1      45.560  28.947  27.502  1.00  0.00     0.074 A 
ATOM     45  C   UNL A   1      41.021  31.976  30.731  1.00  0.00     0.029 A 
ATOM     46  N   UNL A   1      42.196  30.496  29.560  1.00  0.00    -0.354 N 
ATOM     47  N   UNL A   1      44.586  29.476  28.201  1.00  0.00    -0.248 NA
ATOM     48  C   UNL A   1      46.731  29.821  27.345  1.00  0.00     0.031 C 
ATOM     49  C   UNL A   1      42.296  32.505  30.501  1.00  0.00     0.029 A 
ATOM     50  C   UNL A   1      43.029  31.580  29.775  1.00  0.00     0.049 A 
ATOM     51  H   UNL A   1      42.445  29.681  29.067  1.00  0.00     0.167 HD
ATOM     52  C   UNL A   1      45.032  30.733  28.587  1.00  0.00     0.074 A 
ATOM     53  C   UNL A   1      46.376  30.879  28.064  1.00  0.00     0.031 C 
ATOM     54  C   UNL A   1      44.382  31.690  29.294  1.00  0.00     0.034 A 
BRANCH  41  55
ATOM     55  C   UNL A   1      38.557  30.241  30.747  1.00  0.00     0.023 A 
ATOM     56  C   UNL A   1      38.325  29.948  32.105  1.00  0.00     0.012 A 
ATOM     57  C   UNL A   1      37.610  31.000  30.031  1.00  0.00     0.148 A 
ATOM     58  C   UNL A   1      37.162  30.384  32.737  1.00  0.00     0.002 A 
ATOM     59  C   UNL A   1      36.468  31.462  30.677  1.00  0.00     0.091 A 
ATOM     60  F   UNL A   1      37.836  31.247  28.733  1.00  0.00    -0.205 F 
ATOM     61  C   UNL A   1      36.239  31.149  32.027  1.00  0.00     0.022 A 
BRANCH  59  62
ATOM     62  S   UNL A   1      35.258  32.513  29.864  1.00  0.00     0.127 S 
ATOM     63  O   UNL A   1      34.755  31.627  28.816  1.00  0.00    -0.237 OA
ATOM     64  O   UNL A   1      34.306  32.783  30.942  1.00  0.00    -0.237 OA
ATOM     65  O   UNL A   1      35.993  33.681  29.401  1.00  0.00    -0.744 OA
ENDBRANCH  59  62
ENDBRANCH  41  55
BRANCH  42  66
ATOM     66  C   UNL A   1      46.852  27.146  26.127  1.00  0.00     0.023 A 
ATOM     67  C   UNL A   1      46.958  27.432  24.753  1.00  0.00     0.012 A 
ATOM     68  C   UNL A   1      47.925  26.509  26.782  1.00  0.00     0.148 A 
ATOM     69  C   UNL A   1      48.105  27.082  24.041  1.00  0.00     0.002 A 
ATOM     70  C   UNL A   1      49.087  26.214  26.079  1.00  0.00     0.091 A 
ATOM     71  F   UNL A   1      47.797  26.226  28.085  1.00  0.00    -0.205 F 
ATOM     72  C   UNL A   1      49.174  26.488  24.705  1.00  0.00     0.022 A 
BRANCH  70  73
ATOM     73  S   UNL A   1      50.561  25.580  26.889  1.00  0.00     0.127 S 
ATOM     74  O   UNL A   1      50.886  26.664  27.811  1.00  0.00    -0.237 OA
ATOM     75  O   UNL A   1      50.060  24.360  27.524  1.00  0.00    -0.237 OA
ATOM     76  O   UNL A   1      51.520  25.343  25.819  1.00  0.00    -0.744 OA
ENDBRANCH  70  73
ENDBRANCH  42  66
BRANCH  54  77
ATOM     77  C   UNL A   1      45.116  32.975  29.564  1.00  0.00     0.023 A 
ATOM     78  C   UNL A   1      45.925  33.082  30.713  1.00  0.00     0.012 A 
ATOM     79  C   UNL A   1      45.066  34.044  28.649  1.00  0.00     0.148 A 
ATOM     80  C   UNL A   1      46.653  34.245  30.960  1.00  0.00     0.002 A 
ATOM     81  C   UNL A   1      45.826  35.185  28.882  1.00  0.00     0.091 A 
ATOM     82  F   UNL A   1      44.273  33.931  27.574  1.00  0.00    -0.205 F 
ATOM     83  C   UNL A   1      46.613  35.291  30.040  1.00  0.00     0.022 A 
BRANCH  81  84
ATOM     84  S   UNL A   1      45.897  36.539  27.704  1.00  0.00     0.127 S 
ATOM     85  O   UNL A   1      46.413  35.872  26.510  1.00  0.00    -0.237 OA
ATOM     86  O   UNL A   1      44.496  36.953  27.612  1.00  0.00    -0.237 OA
ATOM     87  O   UNL A   1      46.778  37.536  28.300  1.00  0.00    -0.744 OA
ENDBRANCH  81  84
ENDBRANCH  54  77
ENDBRANCH  28  29
ENDBRANCH  21  23
ENDBRANCH  20  21
ENDBRANCH  19  20
ENDBRANCH   1  19
TORSDOF 17
ENDMDL
