MODEL 1
REMARK VINA RESULT:     -12.2      0.000      0.000
REMARK SMILES O=C(OCCOC(=O)c1ccccc1Sc1ccc(S(=O)(=O)N2CCCC2)cc1[N+](=O)[O-])c1ccc(-c2c3nc(c(-c4cccc(S(=O)(=O)[O-])c4F)c4ccc([nH]4)c(-c4cccc(S(=O)(=O)[O-])c4F)c4nc(c(-c5cccc(S(=O)(=O)[O-])c5F)c5ccc2[nH]5)C=C4)C=C3)cc1
REMARK SMILES IDX 5 1 4 2 3 3 2 4 1 5 33 6 34 7 95 8 35 9 94 10 36 11 37 12
REMARK SMILES IDX 38 13 88 14 39 15 93 16 87 17 89 18 40 19 92 20 86 21 85 22
REMARK SMILES IDX 41 24 73 25 53 26 72 27 54 28 57 29 71 30 90 31 55 32 56 33
REMARK SMILES IDX 70 35 91 36 58 37 42 38 43 39 51 40 44 41 46 42 52 43 45 44
REMARK SMILES IDX 47 45 48 46 49 47 50 48 74 49 75 50 83 51 76 52 78 53 84 54
REMARK SMILES IDX 77 55 79 56 80 57 81 58 82 59 59 60 60 61 68 62 61 63 63 64
REMARK SMILES IDX 69 65 62 66 64 67 65 68 66 69 67 70 6 71 7 72 8 73 9 74
REMARK SMILES IDX 10 75 14 76 11 77 13 78 12 79 15 80 16 81 17 82 29 83 18 84
REMARK SMILES IDX 28 85 19 86 30 87 31 88 32 89 20 90 21 91 22 92 23 93 24 94
REMARK SMILES IDX 27 95 25 96 26 97
REMARK H PARENT 89 23 57 34
REMARK Flexibility Score: inf
ROOT
ATOM      1  C   UNL A   1      32.376  30.767  26.551  1.00  0.00     0.275 C 
ENDROOT
BRANCH   1   2
ATOM      2  C   UNL A   1      31.893  32.017  27.276  1.00  0.00     0.275 C 
BRANCH   2   3
ATOM      3  O   UNL A   1      32.765  33.139  27.121  1.00  0.00    -0.458 OA
BRANCH   3   4
ATOM      4  C   UNL A   1      33.707  33.608  27.969  1.00  0.00     0.338 C 
ATOM      5  O   UNL A   1      33.645  34.796  28.286  1.00  0.00    -0.246 OA
BRANCH   4   6
ATOM      6  C   UNL A   1      34.869  32.805  28.480  1.00  0.00     0.060 A 
ATOM      7  C   UNL A   1      34.823  31.499  28.981  1.00  0.00     0.016 A 
ATOM      8  C   UNL A   1      36.125  33.438  28.420  1.00  0.00     0.016 A 
ATOM      9  C   UNL A   1      35.985  30.811  29.321  1.00  0.00     0.010 A 
ATOM     10  C   UNL A   1      37.292  32.773  28.802  1.00  0.00     0.010 A 
ATOM     11  C   UNL A   1      37.216  31.456  29.259  1.00  0.00    -0.014 A 
BRANCH  11  12
ATOM     12  C   UNL A   1      38.359  30.816  29.931  1.00  0.00     0.031 A 
ATOM     13  C   UNL A   1      38.651  31.257  31.323  1.00  0.00     0.074 A 
ATOM     14  C   UNL A   1      39.035  29.810  29.352  1.00  0.00     0.049 A 
ATOM     15  N   UNL A   1      39.542  30.799  32.152  1.00  0.00    -0.248 NA
ATOM     16  C   UNL A   1      37.789  32.319  31.873  1.00  0.00     0.031 C 
ATOM     17  C   UNL A   1      38.709  29.258  28.049  1.00  0.00     0.029 A 
ATOM     18  N   UNL A   1      40.112  29.076  29.758  1.00  0.00    -0.354 N 
ATOM     19  C   UNL A   1      39.343  31.506  33.326  1.00  0.00     0.074 A 
ATOM     20  C   UNL A   1      38.255  32.430  33.105  1.00  0.00     0.031 C 
ATOM     21  C   UNL A   1      39.602  28.312  27.718  1.00  0.00     0.029 A 
ATOM     22  C   UNL A   1      40.568  28.196  28.799  1.00  0.00     0.049 A 
ATOM     23  H   UNL A   1      40.524  29.166  30.648  1.00  0.00     0.167 HD
ATOM     24  C   UNL A   1      40.015  31.381  34.488  1.00  0.00     0.034 A 
ATOM     25  C   UNL A   1      41.655  27.404  28.806  1.00  0.00     0.034 A 
ATOM     26  C   UNL A   1      41.141  30.509  34.644  1.00  0.00     0.049 A 
ATOM     27  C   UNL A   1      42.472  27.385  30.068  1.00  0.00     0.074 A 
ATOM     28  C   UNL A   1      41.978  30.363  35.732  1.00  0.00     0.029 A 
ATOM     29  N   UNL A   1      41.609  29.653  33.653  1.00  0.00    -0.354 N 
ATOM     30  N   UNL A   1      42.256  28.032  31.190  1.00  0.00    -0.248 NA
ATOM     31  C   UNL A   1      43.649  26.510  30.091  1.00  0.00     0.031 C 
ATOM     32  C   UNL A   1      42.970  29.438  35.386  1.00  0.00     0.029 A 
ATOM     33  C   UNL A   1      42.728  28.979  34.099  1.00  0.00     0.049 A 
ATOM     34  H   UNL A   1      41.199  29.542  32.764  1.00  0.00     0.167 HD
ATOM     35  C   UNL A   1      43.243  27.614  32.068  1.00  0.00     0.074 A 
ATOM     36  C   UNL A   1      44.049  26.644  31.349  1.00  0.00     0.031 C 
ATOM     37  C   UNL A   1      43.472  27.997  33.349  1.00  0.00     0.034 A 
BRANCH  24  38
ATOM     38  C   UNL A   1      39.553  32.251  35.618  1.00  0.00     0.023 A 
ATOM     39  C   UNL A   1      38.557  31.780  36.500  1.00  0.00     0.012 A 
ATOM     40  C   UNL A   1      40.038  33.564  35.753  1.00  0.00     0.148 A 
ATOM     41  C   UNL A   1      38.024  32.619  37.479  1.00  0.00     0.002 A 
ATOM     42  C   UNL A   1      39.529  34.382  36.753  1.00  0.00     0.091 A 
ATOM     43  F   UNL A   1      40.952  33.999  34.875  1.00  0.00    -0.205 F 
ATOM     44  C   UNL A   1      38.514  33.917  37.607  1.00  0.00     0.022 A 
BRANCH  42  45
ATOM     45  S   UNL A   1      40.110  36.057  37.023  1.00  0.00     0.127 S 
ATOM     46  O   UNL A   1      39.287  36.478  38.155  1.00  0.00    -0.237 OA
ATOM     47  O   UNL A   1      41.521  35.839  37.339  1.00  0.00    -0.237 OA
ATOM     48  O   UNL A   1      39.865  36.775  35.779  1.00  0.00    -0.744 OA
ENDBRANCH  42  45
ENDBRANCH  24  38
BRANCH  25  49
ATOM     49  C   UNL A   1      42.012  26.573  27.618  1.00  0.00     0.023 A 
ATOM     50  C   UNL A   1      42.668  27.157  26.517  1.00  0.00     0.012 A 
ATOM     51  C   UNL A   1      41.698  25.199  27.570  1.00  0.00     0.148 A 
ATOM     52  C   UNL A   1      42.967  26.402  25.379  1.00  0.00     0.002 A 
ATOM     53  C   UNL A   1      42.040  24.442  26.453  1.00  0.00     0.091 A 
ATOM     54  F   UNL A   1      41.060  24.655  28.616  1.00  0.00    -0.205 F 
ATOM     55  C   UNL A   1      42.660  25.044  25.349  1.00  0.00     0.022 A 
BRANCH  53  56
ATOM     56  S   UNL A   1      41.773  22.665  26.385  1.00  0.00     0.127 S 
ATOM     57  O   UNL A   1      42.441  22.310  25.137  1.00  0.00    -0.237 OA
ATOM     58  O   UNL A   1      42.448  22.205  27.599  1.00  0.00    -0.237 OA
ATOM     59  O   UNL A   1      40.325  22.494  26.407  1.00  0.00    -0.744 OA
ENDBRANCH  53  56
ENDBRANCH  25  49
BRANCH  37  60
ATOM     60  C   UNL A   1      44.619  27.335  34.055  1.00  0.00     0.023 A 
ATOM     61  C   UNL A   1      45.899  27.922  34.020  1.00  0.00     0.012 A 
ATOM     62  C   UNL A   1      44.399  26.176  34.820  1.00  0.00     0.148 A 
ATOM     63  C   UNL A   1      46.955  27.341  34.717  1.00  0.00     0.002 A 
ATOM     64  C   UNL A   1      45.442  25.637  35.558  1.00  0.00     0.091 A 
ATOM     65  F   UNL A   1      43.175  25.627  34.815  1.00  0.00    -0.205 F 
ATOM     66  C   UNL A   1      46.723  26.209  35.498  1.00  0.00     0.022 A 
BRANCH  64  67
ATOM     67  S   UNL A   1      45.203  24.251  36.672  1.00  0.00     0.127 S 
ATOM     68  O   UNL A   1      46.561  24.033  37.168  1.00  0.00    -0.237 OA
ATOM     69  O   UNL A   1      44.273  24.804  37.657  1.00  0.00    -0.237 OA
ATOM     70  O   UNL A   1      44.653  23.175  35.861  1.00  0.00    -0.744 OA
ENDBRANCH  64  67
ENDBRANCH  37  60
ENDBRANCH  11  12
ENDBRANCH   4   6
ENDBRANCH   3   4
ENDBRANCH   2   3
ENDBRANCH   1   2
BRANCH   1  71
ATOM     71  O   UNL A   1      31.355  30.004  25.895  1.00  0.00    -0.458 OA
BRANCH  71  72
ATOM     72  C   UNL A   1      31.549  29.765  24.577  1.00  0.00     0.339 C 
ATOM     73  O   UNL A   1      32.579  29.365  24.057  1.00  0.00    -0.246 OA
BRANCH  72  74
ATOM     74  C   UNL A   1      30.293  29.913  23.837  1.00  0.00     0.074 A 
ATOM     75  C   UNL A   1      29.501  30.994  24.284  1.00  0.00     0.017 A 
ATOM     76  C   UNL A   1      29.837  29.058  22.822  1.00  0.00     0.027 A 
ATOM     77  C   UNL A   1      28.272  31.274  23.693  1.00  0.00     0.001 A 
ATOM     78  C   UNL A   1      28.562  29.349  22.278  1.00  0.00     0.016 A 
ATOM     79  C   UNL A   1      27.804  30.451  22.684  1.00  0.00     0.001 A 
BRANCH  76  80
ATOM     80  S   UNL A   1      30.585  27.629  22.040  1.00  0.00    -0.082 SA
BRANCH  80  81
ATOM     81  C   UNL A   1      31.011  26.419  23.252  1.00  0.00     0.090 A 
ATOM     82  C   UNL A   1      30.172  26.281  24.377  1.00  0.00     0.024 A 
ATOM     83  C   UNL A   1      32.165  25.630  23.212  1.00  0.00     0.284 A 
ATOM     84  C   UNL A   1      30.415  25.298  25.353  1.00  0.00     0.023 A 
ATOM     85  C   UNL A   1      32.413  24.649  24.184  1.00  0.00     0.108 A 
ATOM     86  C   UNL A   1      31.514  24.441  25.221  1.00  0.00     0.089 A 
BRANCH  83  87
ATOM     87  N   UNL A   1      33.163  25.762  22.153  1.00  0.00     0.063 N 
ATOM     88  O   UNL A   1      33.932  26.732  22.231  1.00  0.00    -0.258 OA
ATOM     89  O   UNL A   1      33.110  24.978  21.200  1.00  0.00    -0.258 OA
ENDBRANCH  83  87
BRANCH  86  90
ATOM     90  S   UNL A   1      31.636  23.017  26.297  1.00  0.00     0.243 S 
ATOM     91  O   UNL A   1      31.389  23.499  27.637  1.00  0.00    -0.207 OA
ATOM     92  O   UNL A   1      30.809  21.993  25.691  1.00  0.00    -0.207 OA
BRANCH  90  93
ATOM     93  N   UNL A   1      33.218  22.454  26.231  1.00  0.00    -0.198 NA
ATOM     94  C   UNL A   1      34.353  23.238  26.731  1.00  0.00     0.102 C 
ATOM     95  C   UNL A   1      33.699  21.525  25.207  1.00  0.00     0.102 C 
ATOM     96  C   UNL A   1      35.420  23.152  25.633  1.00  0.00     0.018 C 
ATOM     97  C   UNL A   1      34.834  22.273  24.534  1.00  0.00     0.018 C 
ENDBRANCH  90  93
ENDBRANCH  86  90
ENDBRANCH  80  81
ENDBRANCH  76  80
ENDBRANCH  72  74
ENDBRANCH  71  72
ENDBRANCH   1  71
TORSDOF 19
ENDMDL
MODEL 2
REMARK VINA RESULT:     -11.8      2.097      7.639
REMARK SMILES O=C(OCCOC(=O)c1ccccc1Sc1ccc(S(=O)(=O)N2CCCC2)cc1[N+](=O)[O-])c1ccc(-c2c3nc(c(-c4cccc(S(=O)(=O)[O-])c4F)c4ccc([nH]4)c(-c4cccc(S(=O)(=O)[O-])c4F)c4nc(c(-c5cccc(S(=O)(=O)[O-])c5F)c5ccc2[nH]5)C=C4)C=C3)cc1
REMARK SMILES IDX 5 1 4 2 3 3 2 4 1 5 33 6 34 7 95 8 35 9 94 10 36 11 37 12
REMARK SMILES IDX 38 13 88 14 39 15 93 16 87 17 89 18 40 19 92 20 86 21 85 22
REMARK SMILES IDX 41 24 73 25 53 26 72 27 54 28 57 29 71 30 90 31 55 32 56 33
REMARK SMILES IDX 70 35 91 36 58 37 42 38 43 39 51 40 44 41 46 42 52 43 45 44
REMARK SMILES IDX 47 45 48 46 49 47 50 48 74 49 75 50 83 51 76 52 78 53 84 54
REMARK SMILES IDX 77 55 79 56 80 57 81 58 82 59 59 60 60 61 68 62 61 63 63 64
REMARK SMILES IDX 69 65 62 66 64 67 65 68 66 69 67 70 6 71 7 72 8 73 9 74
REMARK SMILES IDX 10 75 14 76 11 77 13 78 12 79 15 80 16 81 17 82 29 83 18 84
REMARK SMILES IDX 28 85 19 86 30 87 31 88 32 89 20 90 21 91 22 92 23 93 24 94
REMARK SMILES IDX 27 95 25 96 26 97
REMARK H PARENT 89 23 57 34
REMARK Flexibility Score: inf
ROOT
ATOM      1  C   UNL A   1      31.801  31.223  26.890  1.00  0.00     0.275 C 
ENDROOT
BRANCH   1   2
ATOM      2  C   UNL A   1      32.957  32.196  27.078  1.00  0.00     0.275 C 
BRANCH   2   3
ATOM      3  O   UNL A   1      32.554  33.469  27.586  1.00  0.00    -0.458 OA
BRANCH   3   4
ATOM      4  C   UNL A   1      33.163  34.249  28.508  1.00  0.00     0.338 C 
ATOM      5  O   UNL A   1      32.747  35.400  28.642  1.00  0.00    -0.246 OA
BRANCH   4   6
ATOM      6  C   UNL A   1      34.361  33.837  29.314  1.00  0.00     0.060 A 
ATOM      7  C   UNL A   1      35.698  34.141  29.034  1.00  0.00     0.016 A 
ATOM      8  C   UNL A   1      34.091  33.091  30.476  1.00  0.00     0.016 A 
ATOM      9  C   UNL A   1      36.720  33.803  29.918  1.00  0.00     0.010 A 
ATOM     10  C   UNL A   1      35.113  32.706  31.347  1.00  0.00     0.010 A 
ATOM     11  C   UNL A   1      36.432  33.060  31.059  1.00  0.00    -0.014 A 
BRANCH  11  12
ATOM     12  C   UNL A   1      37.560  32.448  31.779  1.00  0.00     0.031 A 
ATOM     13  C   UNL A   1      38.232  31.295  31.118  1.00  0.00     0.074 A 
ATOM     14  C   UNL A   1      38.024  32.974  32.925  1.00  0.00     0.049 A 
ATOM     15  N   UNL A   1      39.286  30.637  31.501  1.00  0.00    -0.248 NA
ATOM     16  C   UNL A   1      37.673  30.860  29.825  1.00  0.00     0.031 C 
ATOM     17  C   UNL A   1      37.486  34.171  33.545  1.00  0.00     0.029 A 
ATOM     18  N   UNL A   1      39.030  32.593  33.767  1.00  0.00    -0.354 N 
ATOM     19  C   UNL A   1      39.526  29.718  30.495  1.00  0.00     0.074 A 
ATOM     20  C   UNL A   1      38.506  29.892  29.486  1.00  0.00     0.031 C 
ATOM     21  C   UNL A   1      38.114  34.405  34.707  1.00  0.00     0.029 A 
ATOM     22  C   UNL A   1      39.106  33.361  34.909  1.00  0.00     0.049 A 
ATOM     23  H   UNL A   1      39.640  31.844  33.578  1.00  0.00     0.167 HD
ATOM     24  C   UNL A   1      40.522  28.812  30.424  1.00  0.00     0.034 A 
ATOM     25  C   UNL A   1      39.888  33.213  35.995  1.00  0.00     0.034 A 
ATOM     26  C   UNL A   1      41.469  28.615  31.483  1.00  0.00     0.049 A 
ATOM     27  C   UNL A   1      40.903  32.104  35.953  1.00  0.00     0.074 A 
ATOM     28  C   UNL A   1      42.462  27.664  31.589  1.00  0.00     0.029 A 
ATOM     29  N   UNL A   1      41.510  29.378  32.645  1.00  0.00    -0.354 N 
ATOM     30  N   UNL A   1      41.148  31.259  34.979  1.00  0.00    -0.248 NA
ATOM     31  C   UNL A   1      41.772  31.947  37.124  1.00  0.00     0.031 C 
ATOM     32  C   UNL A   1      43.084  27.833  32.831  1.00  0.00     0.029 A 
ATOM     33  C   UNL A   1      42.506  28.915  33.480  1.00  0.00     0.049 A 
ATOM     34  H   UNL A   1      40.916  30.139  32.842  1.00  0.00     0.167 HD
ATOM     35  C   UNL A   1      42.225  30.495  35.398  1.00  0.00     0.074 A 
ATOM     36  C   UNL A   1      42.595  30.991  36.711  1.00  0.00     0.031 C 
ATOM     37  C   UNL A   1      42.852  29.471  34.765  1.00  0.00     0.034 A 
BRANCH  24  38
ATOM     38  C   UNL A   1      40.566  27.967  29.187  1.00  0.00     0.023 A 
ATOM     39  C   UNL A   1      39.792  26.789  29.118  1.00  0.00     0.012 A 
ATOM     40  C   UNL A   1      41.436  28.290  28.132  1.00  0.00     0.148 A 
ATOM     41  C   UNL A   1      39.913  25.925  28.030  1.00  0.00     0.002 A 
ATOM     42  C   UNL A   1      41.525  27.444  27.034  1.00  0.00     0.091 A 
ATOM     43  F   UNL A   1      42.191  29.392  28.242  1.00  0.00    -0.205 F 
ATOM     44  C   UNL A   1      40.776  26.256  26.988  1.00  0.00     0.022 A 
BRANCH  42  45
ATOM     45  S   UNL A   1      42.581  27.792  25.627  1.00  0.00     0.127 S 
ATOM     46  O   UNL A   1      43.891  27.918  26.264  1.00  0.00    -0.237 OA
ATOM     47  O   UNL A   1      42.408  26.588  24.816  1.00  0.00    -0.237 OA
ATOM     48  O   UNL A   1      42.065  29.015  25.027  1.00  0.00    -0.744 OA
ENDBRANCH  42  45
ENDBRANCH  24  38
BRANCH  25  49
ATOM     49  C   UNL A   1      39.758  34.124  37.170  1.00  0.00     0.023 A 
ATOM     50  C   UNL A   1      40.279  35.431  37.113  1.00  0.00     0.012 A 
ATOM     51  C   UNL A   1      39.122  33.698  38.355  1.00  0.00     0.148 A 
ATOM     52  C   UNL A   1      40.206  36.280  38.221  1.00  0.00     0.002 A 
ATOM     53  C   UNL A   1      39.011  34.564  39.439  1.00  0.00     0.091 A 
ATOM     54  F   UNL A   1      38.642  32.448  38.405  1.00  0.00    -0.205 F 
ATOM     55  C   UNL A   1      39.567  35.850  39.381  1.00  0.00     0.022 A 
BRANCH  53  56
ATOM     56  S   UNL A   1      38.108  34.119  40.929  1.00  0.00     0.127 S 
ATOM     57  O   UNL A   1      39.097  33.324  41.651  1.00  0.00    -0.237 OA
ATOM     58  O   UNL A   1      37.820  35.427  41.517  1.00  0.00    -0.237 OA
ATOM     59  O   UNL A   1      36.928  33.402  40.462  1.00  0.00    -0.744 OA
ENDBRANCH  53  56
ENDBRANCH  25  49
BRANCH  37  60
ATOM     60  C   UNL A   1      44.019  28.852  35.477  1.00  0.00     0.023 A 
ATOM     61  C   UNL A   1      45.312  29.381  35.300  1.00  0.00     0.012 A 
ATOM     62  C   UNL A   1      43.809  27.800  36.386  1.00  0.00     0.148 A 
ATOM     63  C   UNL A   1      46.389  28.846  36.000  1.00  0.00     0.002 A 
ATOM     64  C   UNL A   1      44.878  27.310  37.122  1.00  0.00     0.091 A 
ATOM     65  F   UNL A   1      42.571  27.301  36.516  1.00  0.00    -0.205 F 
ATOM     66  C   UNL A   1      46.171  27.822  36.921  1.00  0.00     0.022 A 
BRANCH  64  67
ATOM     67  S   UNL A   1      44.665  26.075  38.404  1.00  0.00     0.127 S 
ATOM     68  O   UNL A   1      43.971  25.011  37.679  1.00  0.00    -0.237 OA
ATOM     69  O   UNL A   1      46.048  25.766  38.768  1.00  0.00    -0.237 OA
ATOM     70  O   UNL A   1      43.894  26.720  39.458  1.00  0.00    -0.744 OA
ENDBRANCH  64  67
ENDBRANCH  37  60
ENDBRANCH  11  12
ENDBRANCH   4   6
ENDBRANCH   3   4
ENDBRANCH   2   3
ENDBRANCH   1   2
BRANCH   1  71
ATOM     71  O   UNL A   1      31.058  31.378  25.674  1.00  0.00    -0.458 OA
BRANCH  71  72
ATOM     72  C   UNL A   1      31.184  30.377  24.771  1.00  0.00     0.339 C 
ATOM     73  O   UNL A   1      32.098  29.569  24.708  1.00  0.00    -0.246 OA
BRANCH  72  74
ATOM     74  C   UNL A   1      29.984  30.283  23.936  1.00  0.00     0.074 A 
ATOM     75  C   UNL A   1      28.964  31.183  24.314  1.00  0.00     0.017 A 
ATOM     76  C   UNL A   1      29.784  29.365  22.892  1.00  0.00     0.027 A 
ATOM     77  C   UNL A   1      27.752  31.223  23.629  1.00  0.00     0.001 A 
ATOM     78  C   UNL A   1      28.523  29.406  22.250  1.00  0.00     0.016 A 
ATOM     79  C   UNL A   1      27.534  30.335  22.591  1.00  0.00     0.001 A 
BRANCH  76  80
ATOM     80  S   UNL A   1      30.856  28.119  22.179  1.00  0.00    -0.082 SA
BRANCH  80  81
ATOM     81  C   UNL A   1      31.144  26.820  23.338  1.00  0.00     0.090 A 
ATOM     82  C   UNL A   1      30.316  26.749  24.476  1.00  0.00     0.024 A 
ATOM     83  C   UNL A   1      32.185  25.892  23.243  1.00  0.00     0.284 A 
ATOM     84  C   UNL A   1      30.448  25.708  25.412  1.00  0.00     0.023 A 
ATOM     85  C   UNL A   1      32.324  24.851  24.175  1.00  0.00     0.108 A 
ATOM     86  C   UNL A   1      31.425  24.722  25.225  1.00  0.00     0.089 A 
BRANCH  83  87
ATOM     87  N   UNL A   1      33.173  25.933  22.167  1.00  0.00     0.063 N 
ATOM     88  O   UNL A   1      33.274  24.916  21.464  1.00  0.00    -0.258 OA
ATOM     89  O   UNL A   1      33.915  26.917  22.094  1.00  0.00    -0.258 OA
ENDBRANCH  83  87
BRANCH  86  90
ATOM     90  S   UNL A   1      31.382  23.255  26.249  1.00  0.00     0.243 S 
ATOM     91  O   UNL A   1      30.443  23.531  27.313  1.00  0.00    -0.207 OA
ATOM     92  O   UNL A   1      31.195  22.144  25.337  1.00  0.00    -0.207 OA
BRANCH  90  93
ATOM     93  N   UNL A   1      32.903  23.059  26.934  1.00  0.00    -0.198 NA
ATOM     94  C   UNL A   1      34.043  23.911  26.575  1.00  0.00     0.102 C 
ATOM     95  C   UNL A   1      33.409  21.774  27.419  1.00  0.00     0.102 C 
ATOM     96  C   UNL A   1      35.212  22.948  26.343  1.00  0.00     0.018 C 
ATOM     97  C   UNL A   1      34.674  21.548  26.614  1.00  0.00     0.018 C 
ENDBRANCH  90  93
ENDBRANCH  86  90
ENDBRANCH  80  81
ENDBRANCH  76  80
ENDBRANCH  72  74
ENDBRANCH  71  72
ENDBRANCH   1  71
TORSDOF 19
ENDMDL
MODEL 3
REMARK VINA RESULT:     -11.6      1.231      7.806
REMARK SMILES O=C(OCCOC(=O)c1ccccc1Sc1ccc(S(=O)(=O)N2CCCC2)cc1[N+](=O)[O-])c1ccc(-c2c3nc(c(-c4cccc(S(=O)(=O)[O-])c4F)c4ccc([nH]4)c(-c4cccc(S(=O)(=O)[O-])c4F)c4nc(c(-c5cccc(S(=O)(=O)[O-])c5F)c5ccc2[nH]5)C=C4)C=C3)cc1
REMARK SMILES IDX 5 1 4 2 3 3 2 4 1 5 33 6 34 7 95 8 35 9 94 10 36 11 37 12
REMARK SMILES IDX 38 13 88 14 39 15 93 16 87 17 89 18 40 19 92 20 86 21 85 22
REMARK SMILES IDX 41 24 73 25 53 26 72 27 54 28 57 29 71 30 90 31 55 32 56 33
REMARK SMILES IDX 70 35 91 36 58 37 42 38 43 39 51 40 44 41 46 42 52 43 45 44
REMARK SMILES IDX 47 45 48 46 49 47 50 48 74 49 75 50 83 51 76 52 78 53 84 54
REMARK SMILES IDX 77 55 79 56 80 57 81 58 82 59 59 60 60 61 68 62 61 63 63 64
REMARK SMILES IDX 69 65 62 66 64 67 65 68 66 69 67 70 6 71 7 72 8 73 9 74
REMARK SMILES IDX 10 75 14 76 11 77 13 78 12 79 15 80 16 81 17 82 29 83 18 84
REMARK SMILES IDX 28 85 19 86 30 87 31 88 32 89 20 90 21 91 22 92 23 93 24 94
REMARK SMILES IDX 27 95 25 96 26 97
REMARK H PARENT 89 23 57 34
REMARK Flexibility Score: inf
ROOT
ATOM      1  C   UNL A   1      31.919  28.879  26.568  1.00  0.00     0.275 C 
ENDROOT
BRANCH   1   2
ATOM      2  C   UNL A   1      31.662  30.380  26.564  1.00  0.00     0.275 C 
BRANCH   2   3
ATOM      3  O   UNL A   1      32.841  31.160  26.354  1.00  0.00    -0.458 OA
BRANCH   3   4
ATOM      4  C   UNL A   1      33.581  31.843  27.256  1.00  0.00     0.338 C 
ATOM      5  O   UNL A   1      33.291  33.023  27.451  1.00  0.00    -0.246 OA
BRANCH   4   6
ATOM      6  C   UNL A   1      34.782  31.287  27.967  1.00  0.00     0.060 A 
ATOM      7  C   UNL A   1      34.915  29.998  28.495  1.00  0.00     0.016 A 
ATOM      8  C   UNL A   1      35.881  32.158  28.086  1.00  0.00     0.016 A 
ATOM      9  C   UNL A   1      36.120  29.554  29.033  1.00  0.00     0.010 A 
ATOM     10  C   UNL A   1      37.080  31.739  28.666  1.00  0.00     0.010 A 
ATOM     11  C   UNL A   1      37.194  30.433  29.146  1.00  0.00    -0.014 A 
BRANCH  11  12
ATOM     12  C   UNL A   1      38.318  30.033  30.008  1.00  0.00     0.031 A 
ATOM     13  C   UNL A   1      39.286  29.057  29.436  1.00  0.00     0.074 A 
ATOM     14  C   UNL A   1      38.515  30.604  31.207  1.00  0.00     0.049 A 
ATOM     15  N   UNL A   1      40.392  28.609  29.953  1.00  0.00    -0.248 NA
ATOM     16  C   UNL A   1      38.998  28.561  28.078  1.00  0.00     0.031 C 
ATOM     17  C   UNL A   1      37.672  31.651  31.756  1.00  0.00     0.029 A 
ATOM     18  N   UNL A   1      39.458  30.403  32.174  1.00  0.00    -0.354 N 
ATOM     19  C   UNL A   1      40.940  27.787  28.983  1.00  0.00     0.074 A 
ATOM     20  C   UNL A   1      40.045  27.788  27.849  1.00  0.00     0.031 C 
ATOM     21  C   UNL A   1      38.084  31.968  32.993  1.00  0.00     0.029 A 
ATOM     22  C   UNL A   1      39.231  31.135  33.320  1.00  0.00     0.049 A 
ATOM     23  H   UNL A   1      40.225  29.795  32.065  1.00  0.00     0.167 HD
ATOM     24  C   UNL A   1      42.098  27.099  29.042  1.00  0.00     0.034 A 
ATOM     25  C   UNL A   1      39.878  31.110  34.500  1.00  0.00     0.034 A 
ATOM     26  C   UNL A   1      42.919  27.060  30.216  1.00  0.00     0.049 A 
ATOM     27  C   UNL A   1      41.091  30.225  34.588  1.00  0.00     0.074 A 
ATOM     28  C   UNL A   1      44.060  26.320  30.449  1.00  0.00     0.029 A 
ATOM     29  N   UNL A   1      42.655  27.779  31.377  1.00  0.00    -0.354 N 
ATOM     30  N   UNL A   1      41.625  29.477  33.652  1.00  0.00    -0.248 NA
ATOM     31  C   UNL A   1      41.814  30.207  35.864  1.00  0.00     0.031 C 
ATOM     32  C   UNL A   1      44.469  26.570  31.764  1.00  0.00     0.029 A 
ATOM     33  C   UNL A   1      43.607  27.496  32.336  1.00  0.00     0.049 A 
ATOM     34  H   UNL A   1      41.901  28.401  31.497  1.00  0.00     0.167 HD
ATOM     35  C   UNL A   1      42.769  28.927  34.207  1.00  0.00     0.074 A 
ATOM     36  C   UNL A   1      42.858  29.445  35.560  1.00  0.00     0.031 C 
ATOM     37  C   UNL A   1      43.665  28.068  33.658  1.00  0.00     0.034 A 
BRANCH  24  38
ATOM     38  C   UNL A   1      42.470  26.319  27.817  1.00  0.00     0.023 A 
ATOM     39  C   UNL A   1      43.077  26.978  26.728  1.00  0.00     0.012 A 
ATOM     40  C   UNL A   1      42.137  24.957  27.710  1.00  0.00     0.148 A 
ATOM     41  C   UNL A   1      43.315  26.298  25.533  1.00  0.00     0.002 A 
ATOM     42  C   UNL A   1      42.411  24.277  26.530  1.00  0.00     0.091 A 
ATOM     43  F   UNL A   1      41.522  24.367  28.744  1.00  0.00    -0.205 F 
ATOM     44  C   UNL A   1      42.986  24.948  25.437  1.00  0.00     0.022 A 
BRANCH  42  45
ATOM     45  S   UNL A   1      42.054  22.532  26.314  1.00  0.00     0.127 S 
ATOM     46  O   UNL A   1      40.593  22.529  26.292  1.00  0.00    -0.237 OA
ATOM     47  O   UNL A   1      42.686  22.254  25.025  1.00  0.00    -0.237 OA
ATOM     48  O   UNL A   1      42.658  21.852  27.452  1.00  0.00    -0.744 OA
ENDBRANCH  42  45
ENDBRANCH  24  38
BRANCH  25  49
ATOM     49  C   UNL A   1      39.417  31.940  35.652  1.00  0.00     0.023 A 
ATOM     50  C   UNL A   1      38.536  31.398  36.607  1.00  0.00     0.012 A 
ATOM     51  C   UNL A   1      39.845  33.276  35.804  1.00  0.00     0.148 A 
ATOM     52  C   UNL A   1      38.060  32.177  37.665  1.00  0.00     0.002 A 
ATOM     53  C   UNL A   1      39.403  34.032  36.886  1.00  0.00     0.091 A 
ATOM     54  F   UNL A   1      40.671  33.788  34.881  1.00  0.00    -0.205 F 
ATOM     55  C   UNL A   1      38.497  33.491  37.808  1.00  0.00     0.022 A 
BRANCH  53  56
ATOM     56  S   UNL A   1      40.006  35.698  37.196  1.00  0.00     0.127 S 
ATOM     57  O   UNL A   1      39.288  36.053  38.416  1.00  0.00    -0.237 OA
ATOM     58  O   UNL A   1      41.442  35.478  37.368  1.00  0.00    -0.237 OA
ATOM     59  O   UNL A   1      39.657  36.460  36.004  1.00  0.00    -0.744 OA
ENDBRANCH  53  56
ENDBRANCH  25  49
BRANCH  37  60
ATOM     60  C   UNL A   1      44.830  27.671  34.517  1.00  0.00     0.023 A 
ATOM     61  C   UNL A   1      45.990  28.467  34.541  1.00  0.00     0.012 A 
ATOM     62  C   UNL A   1      44.730  26.550  35.361  1.00  0.00     0.148 A 
ATOM     63  C   UNL A   1      47.052  28.133  35.376  1.00  0.00     0.002 A 
ATOM     64  C   UNL A   1      45.768  26.256  36.231  1.00  0.00     0.091 A 
ATOM     65  F   UNL A   1      43.622  25.796  35.298  1.00  0.00    -0.205 F 
ATOM     66  C   UNL A   1      46.936  27.038  36.231  1.00  0.00     0.022 A 
BRANCH  64  67
ATOM     67  S   UNL A   1      45.654  24.935  37.440  1.00  0.00     0.127 S 
ATOM     68  O   UNL A   1      45.596  23.753  36.582  1.00  0.00    -0.237 OA
ATOM     69  O   UNL A   1      46.903  25.090  38.186  1.00  0.00    -0.237 OA
ATOM     70  O   UNL A   1      44.451  25.205  38.215  1.00  0.00    -0.744 OA
ENDBRANCH  64  67
ENDBRANCH  37  60
ENDBRANCH  11  12
ENDBRANCH   4   6
ENDBRANCH   3   4
ENDBRANCH   2   3
ENDBRANCH   1   2
BRANCH   1  71
ATOM     71  O   UNL A   1      31.300  28.146  25.504  1.00  0.00    -0.458 OA
BRANCH  71  72
ATOM     72  C   UNL A   1      31.550  28.595  24.252  1.00  0.00     0.339 C 
ATOM     73  O   UNL A   1      32.647  28.693  23.723  1.00  0.00    -0.246 OA
BRANCH  72  74
ATOM     74  C   UNL A   1      30.297  28.826  23.528  1.00  0.00     0.074 A 
ATOM     75  C   UNL A   1      30.242  30.083  22.887  1.00  0.00     0.017 A 
ATOM     76  C   UNL A   1      29.199  27.952  23.494  1.00  0.00     0.027 A 
ATOM     77  C   UNL A   1      29.119  30.467  22.158  1.00  0.00     0.001 A 
ATOM     78  C   UNL A   1      28.060  28.397  22.782  1.00  0.00     0.016 A 
ATOM     79  C   UNL A   1      28.027  29.619  22.102  1.00  0.00     0.001 A 
BRANCH  76  80
ATOM     80  S   UNL A   1      28.955  26.317  24.187  1.00  0.00    -0.082 SA
BRANCH  80  81
ATOM     81  C   UNL A   1      30.454  25.388  24.112  1.00  0.00     0.090 A 
ATOM     82  C   UNL A   1      31.160  25.364  22.892  1.00  0.00     0.024 A 
ATOM     83  C   UNL A   1      30.959  24.614  25.161  1.00  0.00     0.284 A 
ATOM     84  C   UNL A   1      32.391  24.695  22.774  1.00  0.00     0.023 A 
ATOM     85  C   UNL A   1      32.186  23.942  25.049  1.00  0.00     0.108 A 
ATOM     86  C   UNL A   1      32.931  24.027  23.880  1.00  0.00     0.089 A 
BRANCH  83  87
ATOM     87  N   UNL A   1      30.258  24.474  26.436  1.00  0.00     0.063 N 
ATOM     88  O   UNL A   1      29.338  25.277  26.656  1.00  0.00    -0.258 OA
ATOM     89  O   UNL A   1      30.689  23.654  27.252  1.00  0.00    -0.258 OA
ENDBRANCH  83  87
BRANCH  86  90
ATOM     90  S   UNL A   1      34.621  23.445  23.800  1.00  0.00     0.243 S 
ATOM     91  O   UNL A   1      34.917  23.249  22.399  1.00  0.00    -0.207 OA
ATOM     92  O   UNL A   1      35.392  24.356  24.622  1.00  0.00    -0.207 OA
BRANCH  90  93
ATOM     93  N   UNL A   1      34.687  21.947  24.560  1.00  0.00    -0.198 NA
ATOM     94  C   UNL A   1      33.737  20.870  24.257  1.00  0.00     0.102 C 
ATOM     95  C   UNL A   1      35.205  21.754  25.916  1.00  0.00     0.102 C 
ATOM     96  C   UNL A   1      33.285  20.333  25.620  1.00  0.00     0.018 C 
ATOM     97  C   UNL A   1      34.042  21.138  26.670  1.00  0.00     0.018 C 
ENDBRANCH  90  93
ENDBRANCH  86  90
ENDBRANCH  80  81
ENDBRANCH  76  80
ENDBRANCH  72  74
ENDBRANCH  71  72
ENDBRANCH   1  71
TORSDOF 19
ENDMDL
