MODEL 1
REMARK VINA RESULT:     -10.9      0.000      0.000
REMARK SMILES CC(C)(C)OC(=O)[C@@H](C(=O)OCCOC(=O)c1ccc(-c2c3nc(c(-c4cccc(S(=O)(=O)[O-])c4F)c4ccc([nH]4)c(-c4cccc(S(=O)(=O)[O-])c4F)c4nc(c(-c5cccc(S(=O)(=O)[O-])c5F)c5ccc2[nH]5)C=C4)C=C3)cc1)[C@@H]([NH3+])Cc1cccc(F)c1
REMARK SMILES IDX 12 1 11 2 9 3 10 4 8 5 6 6 7 7 5 8 2 9 1 10 3 11 4 12 80 13
REMARK SMILES IDX 81 14 82 18 83 19 84 20 89 21 85 22 87 23 86 24 88 25 13 26
REMARK SMILES IDX 14 27 15 28 16 29 17 30 18 31 79 32 19 33 78 34 20 35 21 36
REMARK SMILES IDX 22 37 72 38 23 39 77 40 71 41 73 42 24 43 76 44 70 45 69 46
REMARK SMILES IDX 25 48 57 49 37 50 56 51 38 52 41 53 55 54 74 55 39 56 40 57
REMARK SMILES IDX 54 59 75 60 42 61 26 62 27 63 35 64 28 65 30 66 36 67 29 68
REMARK SMILES IDX 31 69 32 70 33 71 34 72 58 73 59 74 67 75 60 76 62 77 68 78
REMARK SMILES IDX 61 79 63 80 64 81 65 82 66 83 43 84 44 85 52 86 45 87 47 88
REMARK SMILES IDX 53 89 46 90 48 91 49 92 50 93 51 94
REMARK H PARENT 81 15 81 16 81 17 73 47 41 58
REMARK Flexibility Score: inf
ROOT
ATOM      1  C   UNL A   1      31.931  28.353  26.258  1.00  0.00     0.274 C 
ENDROOT
BRANCH   1   2
ATOM      2  O   UNL A   1      33.212  27.928  25.753  1.00  0.00    -0.461 OA
BRANCH   2   3
ATOM      3  C   UNL A   1      33.301  27.850  24.395  1.00  0.00     0.326 C 
ATOM      4  O   UNL A   1      34.142  28.438  23.726  1.00  0.00    -0.251 OA
BRANCH   3   5
ATOM      5  C   UNL A   1      32.255  26.940  23.799  1.00  0.00     0.266 C 
BRANCH   5   6
ATOM      6  C   UNL A   1      32.846  25.557  23.579  1.00  0.00     0.327 C 
ATOM      7  O   UNL A   1      33.981  25.401  23.139  1.00  0.00    -0.251 OA
BRANCH   6   8
ATOM      8  O   UNL A   1      31.980  24.538  23.857  1.00  0.00    -0.459 OA
BRANCH   8   9
ATOM      9  C   UNL A   1      32.200  23.696  25.033  1.00  0.00     0.104 C 
ATOM     10  C   UNL A   1      32.881  22.402  24.554  1.00  0.00     0.056 C 
ATOM     11  C   UNL A   1      30.863  23.297  25.669  1.00  0.00     0.056 C 
ATOM     12  C   UNL A   1      33.147  24.366  26.041  1.00  0.00     0.056 C 
ENDBRANCH   8   9
ENDBRANCH   6   8
ENDBRANCH   5   6
BRANCH   5  13
ATOM     13  C   UNL A   1      31.509  27.522  22.575  1.00  0.00     0.211 C 
BRANCH  13  14
ATOM     14  N   UNL A   1      31.693  26.604  21.418  1.00  0.00    -0.354 N 
ATOM     15  H   UNL A   1      30.995  25.862  21.458  1.00  0.00     0.344 HD
ATOM     16  H   UNL A   1      32.627  26.194  21.455  1.00  0.00     0.344 HD
ATOM     17  H   UNL A   1      31.586  27.126  20.549  1.00  0.00     0.344 HD
ENDBRANCH  13  14
BRANCH  13  18
ATOM     18  C   UNL A   1      29.965  27.708  22.748  1.00  0.00     0.102 C 
BRANCH  18  19
ATOM     19  C   UNL A   1      29.327  29.083  22.808  1.00  0.00    -0.039 A 
ATOM     20  C   UNL A   1      28.230  29.470  22.040  1.00  0.00     0.004 A 
ATOM     21  C   UNL A   1      29.820  30.016  23.734  1.00  0.00     0.043 A 
ATOM     22  C   UNL A   1      27.683  30.759  22.123  1.00  0.00     0.003 A 
ATOM     23  C   UNL A   1      29.266  31.294  23.827  1.00  0.00     0.123 A 
ATOM     24  C   UNL A   1      28.209  31.679  23.018  1.00  0.00     0.039 A 
ATOM     25  F   UNL A   1      29.771  32.167  24.706  1.00  0.00    -0.207 F 
ENDBRANCH  18  19
ENDBRANCH  13  18
ENDBRANCH   5  13
ENDBRANCH   3   5
ENDBRANCH   2   3
ENDBRANCH   1   2
BRANCH   1  26
ATOM     26  C   UNL A   1      31.962  29.853  26.572  1.00  0.00     0.275 C 
BRANCH  26  27
ATOM     27  O   UNL A   1      33.290  30.380  26.367  1.00  0.00    -0.458 OA
BRANCH  27  28
ATOM     28  C   UNL A   1      33.655  31.394  27.190  1.00  0.00     0.338 C 
ATOM     29  O   UNL A   1      32.968  32.344  27.521  1.00  0.00    -0.246 OA
BRANCH  28  30
ATOM     30  C   UNL A   1      34.961  31.090  27.808  1.00  0.00     0.060 A 
ATOM     31  C   UNL A   1      35.177  29.785  28.265  1.00  0.00     0.016 A 
ATOM     32  C   UNL A   1      35.962  32.052  27.938  1.00  0.00     0.016 A 
ATOM     33  C   UNL A   1      36.412  29.416  28.795  1.00  0.00     0.010 A 
ATOM     34  C   UNL A   1      37.181  31.698  28.534  1.00  0.00     0.010 A 
ATOM     35  C   UNL A   1      37.415  30.378  28.962  1.00  0.00    -0.014 A 
BRANCH  35  36
ATOM     36  C   UNL A   1      38.627  30.036  29.746  1.00  0.00     0.031 A 
ATOM     37  C   UNL A   1      39.599  29.045  29.166  1.00  0.00     0.074 A 
ATOM     38  C   UNL A   1      38.882  30.605  30.939  1.00  0.00     0.049 A 
ATOM     39  N   UNL A   1      40.700  28.565  29.680  1.00  0.00    -0.248 NA
ATOM     40  C   UNL A   1      39.292  28.540  27.818  1.00  0.00     0.031 C 
ATOM     41  C   UNL A   1      38.059  31.628  31.583  1.00  0.00     0.029 A 
ATOM     42  N   UNL A   1      39.907  30.388  31.827  1.00  0.00    -0.354 N 
ATOM     43  C   UNL A   1      41.207  27.685  28.731  1.00  0.00     0.074 A 
ATOM     44  C   UNL A   1      40.301  27.710  27.603  1.00  0.00     0.031 C 
ATOM     45  C   UNL A   1      38.595  31.924  32.781  1.00  0.00     0.029 A 
ATOM     46  C   UNL A   1      39.778  31.091  33.003  1.00  0.00     0.049 A 
ATOM     47  H   UNL A   1      40.663  29.785  31.641  1.00  0.00     0.167 HD
ATOM     48  C   UNL A   1      42.321  26.920  28.791  1.00  0.00     0.034 A 
ATOM     49  C   UNL A   1      40.511  31.042  34.134  1.00  0.00     0.034 A 
ATOM     50  C   UNL A   1      43.213  26.873  29.916  1.00  0.00     0.049 A 
ATOM     51  C   UNL A   1      41.703  30.117  34.207  1.00  0.00     0.074 A 
ATOM     52  C   UNL A   1      44.360  26.115  30.071  1.00  0.00     0.029 A 
ATOM     53  N   UNL A   1      43.048  27.597  31.086  1.00  0.00    -0.354 N 
ATOM     54  N   UNL A   1      42.215  29.350  33.274  1.00  0.00    -0.248 NA
ATOM     55  C   UNL A   1      42.431  30.064  35.485  1.00  0.00     0.031 C 
ATOM     56  C   UNL A   1      44.874  26.360  31.350  1.00  0.00     0.029 A 
ATOM     57  C   UNL A   1      44.064  27.295  31.975  1.00  0.00     0.049 A 
ATOM     58  H   UNL A   1      42.317  28.233  31.258  1.00  0.00     0.167 HD
ATOM     59  C   UNL A   1      43.340  28.755  33.840  1.00  0.00     0.074 A 
ATOM     60  C   UNL A   1      43.447  29.264  35.190  1.00  0.00     0.031 C 
ATOM     61  C   UNL A   1      44.196  27.854  33.296  1.00  0.00     0.034 A 
BRANCH  48  62
ATOM     62  C   UNL A   1      42.624  26.053  27.601  1.00  0.00     0.023 A 
ATOM     63  C   UNL A   1      43.367  26.577  26.525  1.00  0.00     0.012 A 
ATOM     64  C   UNL A   1      42.188  24.716  27.557  1.00  0.00     0.148 A 
ATOM     65  C   UNL A   1      43.647  25.790  25.408  1.00  0.00     0.002 A 
ATOM     66  C   UNL A   1      42.504  23.925  26.459  1.00  0.00     0.091 A 
ATOM     67  F   UNL A   1      41.457  24.248  28.580  1.00  0.00    -0.205 F 
ATOM     68  C   UNL A   1      43.224  24.464  25.380  1.00  0.00     0.022 A 
BRANCH  66  69
ATOM     69  S   UNL A   1      42.054  22.190  26.357  1.00  0.00     0.127 S 
ATOM     70  O   UNL A   1      42.701  21.791  25.108  1.00  0.00    -0.237 OA
ATOM     71  O   UNL A   1      42.669  21.642  27.566  1.00  0.00    -0.237 OA
ATOM     72  O   UNL A   1      40.598  22.153  26.347  1.00  0.00    -0.744 OA
ENDBRANCH  66  69
ENDBRANCH  48  62
BRANCH  49  73
ATOM     73  C   UNL A   1      40.148  31.890  35.309  1.00  0.00     0.023 A 
ATOM     74  C   UNL A   1      40.822  33.108  35.525  1.00  0.00     0.012 A 
ATOM     75  C   UNL A   1      39.159  31.483  36.226  1.00  0.00     0.148 A 
ATOM     76  C   UNL A   1      40.540  33.889  36.648  1.00  0.00     0.002 A 
ATOM     77  C   UNL A   1      38.845  32.292  37.313  1.00  0.00     0.091 A 
ATOM     78  F   UNL A   1      38.549  30.307  36.021  1.00  0.00    -0.205 F 
ATOM     79  C   UNL A   1      39.546  33.486  37.536  1.00  0.00     0.022 A 
BRANCH  77  80
ATOM     80  S   UNL A   1      37.506  31.903  38.446  1.00  0.00     0.127 S 
ATOM     81  O   UNL A   1      38.137  32.137  39.744  1.00  0.00    -0.237 OA
ATOM     82  O   UNL A   1      36.495  32.889  38.067  1.00  0.00    -0.237 OA
ATOM     83  O   UNL A   1      37.139  30.523  38.161  1.00  0.00    -0.744 OA
ENDBRANCH  77  80
ENDBRANCH  49  73
BRANCH  61  84
ATOM     84  C   UNL A   1      45.357  27.382  34.135  1.00  0.00     0.023 A 
ATOM     85  C   UNL A   1      46.569  28.100  34.124  1.00  0.00     0.012 A 
ATOM     86  C   UNL A   1      45.213  26.285  35.007  1.00  0.00     0.148 A 
ATOM     87  C   UNL A   1      47.629  27.717  34.948  1.00  0.00     0.002 A 
ATOM     88  C   UNL A   1      46.255  25.938  35.861  1.00  0.00     0.091 A 
ATOM     89  F   UNL A   1      44.058  25.602  34.991  1.00  0.00    -0.205 F 
ATOM     90  C   UNL A   1      47.466  26.646  35.824  1.00  0.00     0.022 A 
BRANCH  88  91
ATOM     91  S   UNL A   1      46.098  24.639  37.091  1.00  0.00     0.127 S 
ATOM     92  O   UNL A   1      47.153  24.996  38.038  1.00  0.00    -0.237 OA
ATOM     93  O   UNL A   1      44.737  24.844  37.589  1.00  0.00    -0.237 OA
ATOM     94  O   UNL A   1      46.295  23.384  36.377  1.00  0.00    -0.744 OA
ENDBRANCH  88  91
ENDBRANCH  61  84
ENDBRANCH  35  36
ENDBRANCH  28  30
ENDBRANCH  27  28
ENDBRANCH  26  27
ENDBRANCH   1  26
TORSDOF 21
ENDMDL
MODEL 2
REMARK VINA RESULT:     -10.8      1.470      1.840
REMARK SMILES CC(C)(C)OC(=O)[C@@H](C(=O)OCCOC(=O)c1ccc(-c2c3nc(c(-c4cccc(S(=O)(=O)[O-])c4F)c4ccc([nH]4)c(-c4cccc(S(=O)(=O)[O-])c4F)c4nc(c(-c5cccc(S(=O)(=O)[O-])c5F)c5ccc2[nH]5)C=C4)C=C3)cc1)[C@@H]([NH3+])Cc1cccc(F)c1
REMARK SMILES IDX 12 1 11 2 9 3 10 4 8 5 6 6 7 7 5 8 2 9 1 10 3 11 4 12 80 13
REMARK SMILES IDX 81 14 82 18 83 19 84 20 89 21 85 22 87 23 86 24 88 25 13 26
REMARK SMILES IDX 14 27 15 28 16 29 17 30 18 31 79 32 19 33 78 34 20 35 21 36
REMARK SMILES IDX 22 37 72 38 23 39 77 40 71 41 73 42 24 43 76 44 70 45 69 46
REMARK SMILES IDX 25 48 57 49 37 50 56 51 38 52 41 53 55 54 74 55 39 56 40 57
REMARK SMILES IDX 54 59 75 60 42 61 26 62 27 63 35 64 28 65 30 66 36 67 29 68
REMARK SMILES IDX 31 69 32 70 33 71 34 72 58 73 59 74 67 75 60 76 62 77 68 78
REMARK SMILES IDX 61 79 63 80 64 81 65 82 66 83 43 84 44 85 52 86 45 87 47 88
REMARK SMILES IDX 53 89 46 90 48 91 49 92 50 93 51 94
REMARK H PARENT 81 15 81 16 81 17 73 47 41 58
REMARK Flexibility Score: inf
ROOT
ATOM      1  C   UNL A   1      32.724  27.892  25.976  1.00  0.00     0.274 C 
ENDROOT
BRANCH   1   2
ATOM      2  O   UNL A   1      33.755  27.786  24.975  1.00  0.00    -0.461 OA
BRANCH   2   3
ATOM      3  C   UNL A   1      33.306  27.713  23.690  1.00  0.00     0.326 C 
ATOM      4  O   UNL A   1      33.376  28.634  22.884  1.00  0.00    -0.251 OA
BRANCH   3   5
ATOM      5  C   UNL A   1      32.723  26.362  23.356  1.00  0.00     0.266 C 
BRANCH   5   6
ATOM      6  C   UNL A   1      33.660  25.619  22.419  1.00  0.00     0.327 C 
ATOM      7  O   UNL A   1      33.381  25.432  21.238  1.00  0.00    -0.251 OA
BRANCH   6   8
ATOM      8  O   UNL A   1      34.786  25.142  23.029  1.00  0.00    -0.459 OA
BRANCH   8   9
ATOM      9  C   UNL A   1      34.751  23.854  23.720  1.00  0.00     0.104 C 
ATOM     10  C   UNL A   1      36.133  23.199  23.545  1.00  0.00     0.056 C 
ATOM     11  C   UNL A   1      33.721  22.922  23.074  1.00  0.00     0.056 C 
ATOM     12  C   UNL A   1      34.513  24.027  25.229  1.00  0.00     0.056 C 
ENDBRANCH   8   9
ENDBRANCH   6   8
ENDBRANCH   5   6
BRANCH   5  13
ATOM     13  C   UNL A   1      31.244  26.386  22.900  1.00  0.00     0.211 C 
BRANCH  13  14
ATOM     14  N   UNL A   1      30.811  24.993  22.601  1.00  0.00    -0.354 N 
ATOM     15  H   UNL A   1      31.181  24.709  21.694  1.00  0.00     0.344 HD
ATOM     16  H   UNL A   1      29.792  24.952  22.580  1.00  0.00     0.344 HD
ATOM     17  H   UNL A   1      31.162  24.366  23.324  1.00  0.00     0.344 HD
ENDBRANCH  13  14
BRANCH  13  18
ATOM     18  C   UNL A   1      30.223  26.951  23.942  1.00  0.00     0.102 C 
BRANCH  18  19
ATOM     19  C   UNL A   1      29.259  28.068  23.591  1.00  0.00    -0.039 A 
ATOM     20  C   UNL A   1      27.909  27.874  23.302  1.00  0.00     0.004 A 
ATOM     21  C   UNL A   1      29.723  29.393  23.615  1.00  0.00     0.043 A 
ATOM     22  C   UNL A   1      27.060  28.940  22.972  1.00  0.00     0.003 A 
ATOM     23  C   UNL A   1      28.874  30.456  23.301  1.00  0.00     0.123 A 
ATOM     24  C   UNL A   1      27.548  30.239  22.965  1.00  0.00     0.039 A 
ATOM     25  F   UNL A   1      29.352  31.706  23.315  1.00  0.00    -0.207 F 
ENDBRANCH  18  19
ENDBRANCH  13  18
ENDBRANCH   5  13
ENDBRANCH   3   5
ENDBRANCH   2   3
ENDBRANCH   1   2
BRANCH   1  26
ATOM     26  C   UNL A   1      32.190  29.328  26.029  1.00  0.00     0.275 C 
BRANCH  26  27
ATOM     27  O   UNL A   1      33.274  30.271  25.891  1.00  0.00    -0.458 OA
BRANCH  27  28
ATOM     28  C   UNL A   1      33.417  31.157  26.907  1.00  0.00     0.338 C 
ATOM     29  O   UNL A   1      32.569  31.924  27.327  1.00  0.00    -0.246 OA
BRANCH  28  30
ATOM     30  C   UNL A   1      34.706  30.931  27.589  1.00  0.00     0.060 A 
ATOM     31  C   UNL A   1      35.002  29.629  28.008  1.00  0.00     0.016 A 
ATOM     32  C   UNL A   1      35.617  31.963  27.815  1.00  0.00     0.016 A 
ATOM     33  C   UNL A   1      36.231  29.336  28.596  1.00  0.00     0.010 A 
ATOM     34  C   UNL A   1      36.826  31.680  28.467  1.00  0.00     0.010 A 
ATOM     35  C   UNL A   1      37.142  30.366  28.858  1.00  0.00    -0.014 A 
BRANCH  35  36
ATOM     36  C   UNL A   1      38.332  30.087  29.700  1.00  0.00     0.031 A 
ATOM     37  C   UNL A   1      39.386  29.158  29.163  1.00  0.00     0.074 A 
ATOM     38  C   UNL A   1      38.495  30.661  30.906  1.00  0.00     0.049 A 
ATOM     39  N   UNL A   1      40.487  28.737  29.728  1.00  0.00    -0.248 NA
ATOM     40  C   UNL A   1      39.174  28.647  27.799  1.00  0.00     0.031 C 
ATOM     41  C   UNL A   1      37.586  31.630  31.514  1.00  0.00     0.029 A 
ATOM     42  N   UNL A   1      39.488  30.496  31.842  1.00  0.00    -0.354 N 
ATOM     43  C   UNL A   1      41.088  27.894  28.801  1.00  0.00     0.074 A 
ATOM     44  C   UNL A   1      40.238  27.877  27.630  1.00  0.00     0.031 C 
ATOM     45  C   UNL A   1      38.045  31.948  32.738  1.00  0.00     0.029 A 
ATOM     46  C   UNL A   1      39.261  31.181  33.013  1.00  0.00     0.049 A 
ATOM     47  H   UNL A   1      40.285  29.939  31.690  1.00  0.00     0.167 HD
ATOM     48  C   UNL A   1      42.240  27.194  28.911  1.00  0.00     0.034 A 
ATOM     49  C   UNL A   1      39.940  31.166  34.179  1.00  0.00     0.034 A 
ATOM     50  C   UNL A   1      43.077  27.189  30.078  1.00  0.00     0.049 A 
ATOM     51  C   UNL A   1      41.178  30.309  34.306  1.00  0.00     0.074 A 
ATOM     52  C   UNL A   1      44.257  26.496  30.286  1.00  0.00     0.029 A 
ATOM     53  N   UNL A   1      42.815  27.894  31.242  1.00  0.00    -0.354 N 
ATOM     54  N   UNL A   1      41.777  29.580  33.395  1.00  0.00    -0.248 NA
ATOM     55  C   UNL A   1      41.845  30.288  35.618  1.00  0.00     0.031 C 
ATOM     56  C   UNL A   1      44.693  26.760  31.589  1.00  0.00     0.029 A 
ATOM     57  C   UNL A   1      43.802  27.643  32.179  1.00  0.00     0.049 A 
ATOM     58  H   UNL A   1      42.041  28.486  31.381  1.00  0.00     0.167 HD
ATOM     59  C   UNL A   1      42.905  29.045  34.012  1.00  0.00     0.074 A 
ATOM     60  C   UNL A   1      42.918  29.550  35.369  1.00  0.00     0.031 C 
ATOM     61  C   UNL A   1      43.837  28.199  33.507  1.00  0.00     0.034 A 
BRANCH  48  62
ATOM     62  C   UNL A   1      42.649  26.355  27.733  1.00  0.00     0.023 A 
ATOM     63  C   UNL A   1      43.494  26.899  26.746  1.00  0.00     0.012 A 
ATOM     64  C   UNL A   1      42.211  25.022  27.614  1.00  0.00     0.148 A 
ATOM     65  C   UNL A   1      43.874  26.138  25.641  1.00  0.00     0.002 A 
ATOM     66  C   UNL A   1      42.626  24.257  26.531  1.00  0.00     0.091 A 
ATOM     67  F   UNL A   1      41.384  24.535  28.550  1.00  0.00    -0.205 F 
ATOM     68  C   UNL A   1      43.448  24.816  25.539  1.00  0.00     0.022 A 
BRANCH  66  69
ATOM     69  S   UNL A   1      42.178  22.529  26.342  1.00  0.00     0.127 S 
ATOM     70  O   UNL A   1      40.723  22.613  26.224  1.00  0.00    -0.237 OA
ATOM     71  O   UNL A   1      42.871  22.164  25.107  1.00  0.00    -0.237 OA
ATOM     72  O   UNL A   1      42.670  21.854  27.535  1.00  0.00    -0.744 OA
ENDBRANCH  66  69
ENDBRANCH  48  62
BRANCH  49  73
ATOM     73  C   UNL A   1      39.472  31.983  35.339  1.00  0.00     0.023 A 
ATOM     74  C   UNL A   1      38.564  31.428  36.262  1.00  0.00     0.012 A 
ATOM     75  C   UNL A   1      39.902  33.313  35.516  1.00  0.00     0.148 A 
ATOM     76  C   UNL A   1      38.069  32.193  37.320  1.00  0.00     0.002 A 
ATOM     77  C   UNL A   1      39.446  34.050  36.603  1.00  0.00     0.091 A 
ATOM     78  F   UNL A   1      40.743  33.833  34.611  1.00  0.00    -0.205 F 
ATOM     79  C   UNL A   1      38.516  33.499  37.496  1.00  0.00     0.022 A 
BRANCH  77  80
ATOM     80  S   UNL A   1      40.052  35.702  36.967  1.00  0.00     0.127 S 
ATOM     81  O   UNL A   1      39.358  36.006  38.216  1.00  0.00    -0.237 OA
ATOM     82  O   UNL A   1      41.490  35.472  37.102  1.00  0.00    -0.237 OA
ATOM     83  O   UNL A   1      39.678  36.519  35.821  1.00  0.00    -0.744 OA
ENDBRANCH  77  80
ENDBRANCH  49  73
BRANCH  61  84
ATOM     84  C   UNL A   1      44.981  27.787  34.400  1.00  0.00     0.023 A 
ATOM     85  C   UNL A   1      46.159  28.558  34.431  1.00  0.00     0.012 A 
ATOM     86  C   UNL A   1      44.848  26.693  35.278  1.00  0.00     0.148 A 
ATOM     87  C   UNL A   1      47.199  28.230  35.303  1.00  0.00     0.002 A 
ATOM     88  C   UNL A   1      45.867  26.401  36.178  1.00  0.00     0.091 A 
ATOM     89  F   UNL A   1      43.726  25.960  35.221  1.00  0.00    -0.205 F 
ATOM     90  C   UNL A   1      47.047  27.162  36.185  1.00  0.00     0.022 A 
BRANCH  88  91
ATOM     91  S   UNL A   1      45.716  25.109  37.416  1.00  0.00     0.127 S 
ATOM     92  O   UNL A   1      45.947  23.904  36.621  1.00  0.00    -0.237 OA
ATOM     93  O   UNL A   1      46.795  25.441  38.347  1.00  0.00    -0.237 OA
ATOM     94  O   UNL A   1      44.377  25.244  37.975  1.00  0.00    -0.744 OA
ENDBRANCH  88  91
ENDBRANCH  61  84
ENDBRANCH  35  36
ENDBRANCH  28  30
ENDBRANCH  27  28
ENDBRANCH  26  27
ENDBRANCH   1  26
TORSDOF 21
ENDMDL
MODEL 3
REMARK VINA RESULT:     -10.7      2.099      8.329
REMARK SMILES CC(C)(C)OC(=O)[C@@H](C(=O)OCCOC(=O)c1ccc(-c2c3nc(c(-c4cccc(S(=O)(=O)[O-])c4F)c4ccc([nH]4)c(-c4cccc(S(=O)(=O)[O-])c4F)c4nc(c(-c5cccc(S(=O)(=O)[O-])c5F)c5ccc2[nH]5)C=C4)C=C3)cc1)[C@@H]([NH3+])Cc1cccc(F)c1
REMARK SMILES IDX 12 1 11 2 9 3 10 4 8 5 6 6 7 7 5 8 2 9 1 10 3 11 4 12 80 13
REMARK SMILES IDX 81 14 82 18 83 19 84 20 89 21 85 22 87 23 86 24 88 25 13 26
REMARK SMILES IDX 14 27 15 28 16 29 17 30 18 31 79 32 19 33 78 34 20 35 21 36
REMARK SMILES IDX 22 37 72 38 23 39 77 40 71 41 73 42 24 43 76 44 70 45 69 46
REMARK SMILES IDX 25 48 57 49 37 50 56 51 38 52 41 53 55 54 74 55 39 56 40 57
REMARK SMILES IDX 54 59 75 60 42 61 26 62 27 63 35 64 28 65 30 66 36 67 29 68
REMARK SMILES IDX 31 69 32 70 33 71 34 72 58 73 59 74 67 75 60 76 62 77 68 78
REMARK SMILES IDX 61 79 63 80 64 81 65 82 66 83 43 84 44 85 52 86 45 87 47 88
REMARK SMILES IDX 53 89 46 90 48 91 49 92 50 93 51 94
REMARK H PARENT 81 15 81 16 81 17 73 47 41 58
REMARK Flexibility Score: inf
ROOT
ATOM      1  C   UNL A   1      31.278  31.500  26.368  1.00  0.00     0.274 C 
ENDROOT
BRANCH   1   2
ATOM      2  O   UNL A   1      32.454  30.680  26.505  1.00  0.00    -0.461 OA
BRANCH   2   3
ATOM      3  C   UNL A   1      32.213  29.353  26.705  1.00  0.00     0.326 C 
ATOM      4  O   UNL A   1      31.486  28.912  27.587  1.00  0.00    -0.251 OA
BRANCH   3   5
ATOM      5  C   UNL A   1      32.929  28.478  25.706  1.00  0.00     0.266 C 
BRANCH   5   6
ATOM      6  C   UNL A   1      32.314  28.665  24.329  1.00  0.00     0.327 C 
ATOM      7  O   UNL A   1      32.997  28.933  23.346  1.00  0.00    -0.251 OA
BRANCH   6   8
ATOM      8  O   UNL A   1      30.951  28.565  24.317  1.00  0.00    -0.459 OA
BRANCH   8   9
ATOM      9  C   UNL A   1      30.261  28.166  23.090  1.00  0.00     0.104 C 
ATOM     10  C   UNL A   1      28.891  27.594  23.497  1.00  0.00     0.056 C 
ATOM     11  C   UNL A   1      31.028  27.046  22.378  1.00  0.00     0.056 C 
ATOM     12  C   UNL A   1      30.001  29.369  22.170  1.00  0.00     0.056 C 
ENDBRANCH   8   9
ENDBRANCH   6   8
ENDBRANCH   5   6
BRANCH   5  13
ATOM     13  C   UNL A   1      33.099  27.002  26.139  1.00  0.00     0.211 C 
BRANCH  13  14
ATOM     14  N   UNL A   1      31.852  26.258  25.811  1.00  0.00    -0.354 N 
ATOM     15  H   UNL A   1      31.370  26.004  26.673  1.00  0.00     0.344 HD
ATOM     16  H   UNL A   1      32.088  25.411  25.292  1.00  0.00     0.344 HD
ATOM     17  H   UNL A   1      31.245  26.847  25.242  1.00  0.00     0.344 HD
ENDBRANCH  13  14
BRANCH  13  18
ATOM     18  C   UNL A   1      34.270  26.224  25.450  1.00  0.00     0.102 C 
BRANCH  18  19
ATOM     19  C   UNL A   1      34.058  24.871  24.801  1.00  0.00    -0.039 A 
ATOM     20  C   UNL A   1      34.083  23.660  25.491  1.00  0.00     0.004 A 
ATOM     21  C   UNL A   1      33.754  24.819  23.431  1.00  0.00     0.043 A 
ATOM     22  C   UNL A   1      33.892  22.431  24.842  1.00  0.00     0.003 A 
ATOM     23  C   UNL A   1      33.548  23.597  22.788  1.00  0.00     0.123 A 
ATOM     24  C   UNL A   1      33.629  22.400  23.480  1.00  0.00     0.039 A 
ATOM     25  F   UNL A   1      33.278  23.580  21.477  1.00  0.00    -0.207 F 
ENDBRANCH  18  19
ENDBRANCH  13  18
ENDBRANCH   5  13
ENDBRANCH   3   5
ENDBRANCH   2   3
ENDBRANCH   1   2
BRANCH   1  26
ATOM     26  C   UNL A   1      31.565  32.918  26.873  1.00  0.00     0.275 C 
BRANCH  26  27
ATOM     27  O   UNL A   1      32.977  33.207  26.781  1.00  0.00    -0.458 OA
BRANCH  27  28
ATOM     28  C   UNL A   1      33.513  33.869  27.834  1.00  0.00     0.338 C 
ATOM     29  O   UNL A   1      33.039  34.836  28.403  1.00  0.00    -0.246 OA
BRANCH  28  30
ATOM     30  C   UNL A   1      34.683  33.127  28.346  1.00  0.00     0.060 A 
ATOM     31  C   UNL A   1      34.459  31.863  28.902  1.00  0.00     0.016 A 
ATOM     32  C   UNL A   1      35.976  33.647  28.284  1.00  0.00     0.016 A 
ATOM     33  C   UNL A   1      35.529  31.083  29.341  1.00  0.00     0.010 A 
ATOM     34  C   UNL A   1      37.044  32.890  28.787  1.00  0.00     0.010 A 
ATOM     35  C   UNL A   1      36.828  31.603  29.314  1.00  0.00    -0.014 A 
BRANCH  35  36
ATOM     36  C   UNL A   1      37.919  30.871  30.004  1.00  0.00     0.031 A 
ATOM     37  C   UNL A   1      38.200  31.198  31.445  1.00  0.00     0.074 A 
ATOM     38  C   UNL A   1      38.635  29.917  29.381  1.00  0.00     0.049 A 
ATOM     39  N   UNL A   1      39.122  30.721  32.240  1.00  0.00    -0.248 NA
ATOM     40  C   UNL A   1      37.311  32.186  32.077  1.00  0.00     0.031 C 
ATOM     41  C   UNL A   1      38.422  29.456  28.010  1.00  0.00     0.029 A 
ATOM     42  N   UNL A   1      39.701  29.173  29.826  1.00  0.00    -0.354 N 
ATOM     43  C   UNL A   1      38.941  31.366  33.457  1.00  0.00     0.074 A 
ATOM     44  C   UNL A   1      37.810  32.256  33.302  1.00  0.00     0.031 C 
ATOM     45  C   UNL A   1      39.352  28.530  27.714  1.00  0.00     0.029 A 
ATOM     46  C   UNL A   1      40.246  28.357  28.860  1.00  0.00     0.049 A 
ATOM     47  H   UNL A   1      40.044  29.218  30.747  1.00  0.00     0.167 HD
ATOM     48  C   UNL A   1      39.650  31.235  34.601  1.00  0.00     0.034 A 
ATOM     49  C   UNL A   1      41.353  27.587  28.891  1.00  0.00     0.034 A 
ATOM     50  C   UNL A   1      40.786  30.370  34.757  1.00  0.00     0.049 A 
ATOM     51  C   UNL A   1      42.177  27.523  30.156  1.00  0.00     0.074 A 
ATOM     52  C   UNL A   1      41.577  30.185  35.877  1.00  0.00     0.029 A 
ATOM     53  N   UNL A   1      41.307  29.563  33.759  1.00  0.00    -0.354 N 
ATOM     54  N   UNL A   1      41.948  28.077  31.323  1.00  0.00    -0.248 NA
ATOM     55  C   UNL A   1      43.405  26.711  30.113  1.00  0.00     0.031 C 
ATOM     56  C   UNL A   1      42.596  29.284  35.546  1.00  0.00     0.029 A 
ATOM     57  C   UNL A   1      42.418  28.886  34.230  1.00  0.00     0.049 A 
ATOM     58  H   UNL A   1      40.940  29.482  32.849  1.00  0.00     0.167 HD
ATOM     59  C   UNL A   1      42.979  27.653  32.158  1.00  0.00     0.074 A 
ATOM     60  C   UNL A   1      43.823  26.780  31.369  1.00  0.00     0.031 C 
ATOM     61  C   UNL A   1      43.216  27.972  33.454  1.00  0.00     0.034 A 
BRANCH  48  62
ATOM     62  C   UNL A   1      39.220  32.071  35.775  1.00  0.00     0.023 A 
ATOM     63  C   UNL A   1      38.304  31.548  36.708  1.00  0.00     0.012 A 
ATOM     64  C   UNL A   1      39.739  33.366  35.962  1.00  0.00     0.148 A 
ATOM     65  C   UNL A   1      37.887  32.314  37.797  1.00  0.00     0.002 A 
ATOM     66  C   UNL A   1      39.348  34.109  37.070  1.00  0.00     0.091 A 
ATOM     67  F   UNL A   1      40.586  33.854  35.045  1.00  0.00    -0.205 F 
ATOM     68  C   UNL A   1      38.415  33.589  37.981  1.00  0.00     0.022 A 
BRANCH  66  69
ATOM     69  S   UNL A   1      40.018  35.737  37.425  1.00  0.00     0.127 S 
ATOM     70  O   UNL A   1      39.654  36.475  36.217  1.00  0.00    -0.237 OA
ATOM     71  O   UNL A   1      39.273  36.121  38.623  1.00  0.00    -0.237 OA
ATOM     72  O   UNL A   1      41.447  35.546  37.634  1.00  0.00    -0.744 OA
ENDBRANCH  66  69
ENDBRANCH  48  62
BRANCH  49  73
ATOM     73  C   UNL A   1      41.766  26.806  27.687  1.00  0.00     0.023 A 
ATOM     74  C   UNL A   1      42.353  27.472  26.592  1.00  0.00     0.012 A 
ATOM     75  C   UNL A   1      41.558  25.415  27.611  1.00  0.00     0.148 A 
ATOM     76  C   UNL A   1      42.694  26.771  25.433  1.00  0.00     0.002 A 
ATOM     77  C   UNL A   1      41.949  24.716  26.475  1.00  0.00     0.091 A 
ATOM     78  F   UNL A   1      40.972  24.804  28.650  1.00  0.00    -0.205 F 
ATOM     79  C   UNL A   1      42.501  25.394  25.377  1.00  0.00     0.022 A 
BRANCH  77  80
ATOM     80  S   UNL A   1      41.837  22.926  26.360  1.00  0.00     0.127 S 
ATOM     81  O   UNL A   1      42.433  22.673  25.050  1.00  0.00    -0.237 OA
ATOM     82  O   UNL A   1      42.652  22.501  27.499  1.00  0.00    -0.237 OA
ATOM     83  O   UNL A   1      40.421  22.613  26.483  1.00  0.00    -0.744 OA
ENDBRANCH  77  80
ENDBRANCH  49  73
BRANCH  61  84
ATOM     84  C   UNL A   1      44.410  27.348  34.133  1.00  0.00     0.023 A 
ATOM     85  C   UNL A   1      45.649  28.016  34.128  1.00  0.00     0.012 A 
ATOM     86  C   UNL A   1      44.276  26.146  34.857  1.00  0.00     0.148 A 
ATOM     87  C   UNL A   1      46.745  27.486  34.811  1.00  0.00     0.002 A 
ATOM     88  C   UNL A   1      45.358  25.648  35.576  1.00  0.00     0.091 A 
ATOM     89  F   UNL A   1      43.094  25.514  34.836  1.00  0.00    -0.205 F 
ATOM     90  C   UNL A   1      46.595  26.311  35.545  1.00  0.00     0.022 A 
BRANCH  88  91
ATOM     91  S   UNL A   1      45.228  24.199  36.629  1.00  0.00     0.127 S 
ATOM     92  O   UNL A   1      44.226  24.627  37.603  1.00  0.00    -0.237 OA
ATOM     93  O   UNL A   1      44.769  23.174  35.692  1.00  0.00    -0.237 OA
ATOM     94  O   UNL A   1      46.564  23.970  37.163  1.00  0.00    -0.744 OA
ENDBRANCH  88  91
ENDBRANCH  61  84
ENDBRANCH  35  36
ENDBRANCH  28  30
ENDBRANCH  27  28
ENDBRANCH  26  27
ENDBRANCH   1  26
TORSDOF 21
ENDMDL
