MODEL 1
REMARK VINA RESULT:     -13.1      0.000      0.000
REMARK SMILES C[C@@]12CCC[C@](C)(C(=O)OCCOC(=O)c3ccc(-c4c5nc(c(-c6cccc(S(=O)(=O)[O-])c6F)c6ccc([nH]6)c(-c6cccc(S(=O)(=O)[O-])c6F)c6nc(c(-c7cccc(S(=O)(=O)[O-])c7F)c7ccc4[nH]7)C=C6)C=C5)cc3)[C@H]1CC[C@@]13C=C(CO)[C@@H](CC[C@@H]12)C3
REMARK SMILES IDX 12 1 11 2 10 3 8 4 9 5 6 6 1 7 2 8 3 9 79 10 90 11 4 12
REMARK SMILES IDX 80 13 82 14 89 15 5 16 7 17 81 18 83 19 91 20 88 21 84 22
REMARK SMILES IDX 87 23 85 24 86 25 13 27 14 28 15 29 16 30 17 31 78 32 18 33
REMARK SMILES IDX 77 34 19 35 20 36 21 37 71 38 22 39 76 40 70 41 72 42 23 43
REMARK SMILES IDX 75 44 69 45 68 46 24 48 56 49 36 50 55 51 37 52 40 53 54 54
REMARK SMILES IDX 73 55 38 56 39 57 53 59 74 60 41 61 25 62 26 63 34 64 27 65
REMARK SMILES IDX 29 66 35 67 28 68 30 69 31 70 32 71 33 72 57 73 58 74 66 75
REMARK SMILES IDX 59 76 61 77 67 78 60 79 62 80 63 81 64 82 65 83 42 84 43 85
REMARK SMILES IDX 51 86 44 87 46 88 52 89 45 90 47 91 48 92 49 93 50 94
REMARK H PARENT 86 26 72 47 40 58
REMARK Flexibility Score: inf
ROOT
ATOM      1  C   UNL A   1      36.105  20.512  24.944  1.00  0.00     0.275 C 
ENDROOT
BRANCH   1   2
ATOM      2  C   UNL A   1      34.660  20.859  25.290  1.00  0.00     0.274 C 
BRANCH   2   3
ATOM      3  O   UNL A   1      34.244  22.096  24.672  1.00  0.00    -0.462 OA
BRANCH   3   4
ATOM      4  C   UNL A   1      33.046  22.042  24.050  1.00  0.00     0.312 C 
ATOM      5  O   UNL A   1      32.830  21.294  23.097  1.00  0.00    -0.252 OA
BRANCH   4   6
ATOM      6  C   UNL A   1      32.004  23.095  24.498  1.00  0.00     0.069 C 
ATOM      7  C   UNL A   1      30.128  25.590  24.381  1.00  0.00     0.012 C 
ATOM      8  C   UNL A   1      31.343  25.498  25.378  1.00  0.00    -0.025 C 
ATOM      9  C   UNL A   1      30.839  24.869  26.696  1.00  0.00     0.007 C 
ATOM     10  C   UNL A   1      32.496  24.583  24.784  1.00  0.00     0.012 C 
ATOM     11  C   UNL A   1      31.769  26.987  25.617  1.00  0.00     0.005 C 
ATOM     12  C   UNL A   1      30.392  23.420  26.544  1.00  0.00     0.002 C 
ATOM     13  C   UNL A   1      33.225  25.290  23.619  1.00  0.00     0.006 C 
ATOM     14  C   UNL A   1      32.729  27.618  24.540  1.00  0.00    -0.008 C 
ATOM     15  C   UNL A   1      32.009  27.650  26.980  1.00  0.00     0.006 C 
ATOM     16  C   UNL A   1      31.446  22.567  25.854  1.00  0.00     0.019 C 
ATOM     17  C   UNL A   1      30.950  22.939  23.375  1.00  0.00     0.024 C 
ATOM     18  C   UNL A   1      33.779  26.655  24.021  1.00  0.00     0.012 C 
ATOM     19  C   UNL A   1      31.787  28.265  23.558  1.00  0.00    -0.018 C 
ATOM     20  C   UNL A   1      33.392  28.932  25.031  1.00  0.00     0.019 C 
ATOM     21  C   UNL A   1      31.679  29.179  26.778  1.00  0.00     0.008 C 
ATOM     22  C   UNL A   1      31.311  29.386  24.143  1.00  0.00    -0.045 C 
ATOM     23  C   UNL A   1      32.144  29.735  25.393  1.00  0.00     0.018 C 
BRANCH  22  24
ATOM     24  C   UNL A   1      30.091  30.128  23.724  1.00  0.00     0.187 C 
BRANCH  24  25
ATOM     25  O   UNL A   1      30.230  30.573  22.377  1.00  0.00    -0.392 OA
ATOM     26  H   UNL A   1      30.860  31.309  22.345  1.00  0.00     0.211 HD
ENDBRANCH  24  25
ENDBRANCH  22  24
ENDBRANCH   4   6
ENDBRANCH   3   4
ENDBRANCH   2   3
ENDBRANCH   1   2
BRANCH   1  27
ATOM     27  O   UNL A   1      36.976  21.616  25.244  1.00  0.00    -0.458 OA
BRANCH  27  28
ATOM     28  C   UNL A   1      38.238  21.282  25.608  1.00  0.00     0.338 C 
ATOM     29  O   UNL A   1      38.830  20.252  25.339  1.00  0.00    -0.246 OA
BRANCH  28  30
ATOM     30  C   UNL A   1      38.872  22.388  26.353  1.00  0.00     0.060 A 
ATOM     31  C   UNL A   1      38.441  23.690  26.137  1.00  0.00     0.016 A 
ATOM     32  C   UNL A   1      40.012  22.164  27.115  1.00  0.00     0.016 A 
ATOM     33  C   UNL A   1      39.223  24.772  26.528  1.00  0.00     0.010 A 
ATOM     34  C   UNL A   1      40.708  23.257  27.653  1.00  0.00     0.010 A 
ATOM     35  C   UNL A   1      40.355  24.582  27.325  1.00  0.00    -0.014 A 
BRANCH  35  36
ATOM     36  C   UNL A   1      41.180  25.743  27.779  1.00  0.00     0.031 A 
ATOM     37  C   UNL A   1      40.565  26.802  28.660  1.00  0.00     0.074 A 
ATOM     38  C   UNL A   1      42.473  25.879  27.407  1.00  0.00     0.049 A 
ATOM     39  N   UNL A   1      40.978  28.018  28.902  1.00  0.00    -0.248 NA
ATOM     40  C   UNL A   1      39.303  26.456  29.336  1.00  0.00     0.031 C 
ATOM     41  C   UNL A   1      43.238  24.924  26.604  1.00  0.00     0.029 A 
ATOM     42  N   UNL A   1      43.374  26.891  27.650  1.00  0.00    -0.354 N 
ATOM     43  C   UNL A   1      39.972  28.619  29.651  1.00  0.00     0.074 A 
ATOM     44  C   UNL A   1      38.946  27.621  29.858  1.00  0.00     0.031 C 
ATOM     45  C   UNL A   1      44.493  25.369  26.454  1.00  0.00     0.029 A 
ATOM     46  C   UNL A   1      44.590  26.701  27.034  1.00  0.00     0.049 A 
ATOM     47  H   UNL A   1      43.168  27.675  28.208  1.00  0.00     0.167 HD
ATOM     48  C   UNL A   1      39.910  29.889  30.119  1.00  0.00     0.034 A 
ATOM     49  C   UNL A   1      45.647  27.524  26.880  1.00  0.00     0.034 A 
ATOM     50  C   UNL A   1      40.987  30.838  30.013  1.00  0.00     0.049 A 
ATOM     51  C   UNL A   1      45.568  28.919  27.428  1.00  0.00     0.074 A 
ATOM     52  C   UNL A   1      41.038  32.138  30.487  1.00  0.00     0.029 A 
ATOM     53  N   UNL A   1      42.212  30.581  29.420  1.00  0.00    -0.354 N 
ATOM     54  N   UNL A   1      44.601  29.483  28.110  1.00  0.00    -0.248 NA
ATOM     55  C   UNL A   1      46.722  29.795  27.181  1.00  0.00     0.031 C 
ATOM     56  C   UNL A   1      42.297  32.665  30.180  1.00  0.00     0.029 A 
ATOM     57  C   UNL A   1      43.031  31.693  29.523  1.00  0.00     0.049 A 
ATOM     58  H   UNL A   1      42.464  29.732  28.988  1.00  0.00     0.167 HD
ATOM     59  C   UNL A   1      45.032  30.775  28.381  1.00  0.00     0.074 A 
ATOM     60  C   UNL A   1      46.362  30.900  27.821  1.00  0.00     0.031 C 
ATOM     61  C   UNL A   1      44.374  31.779  29.011  1.00  0.00     0.034 A 
BRANCH  48  62
ATOM     62  C   UNL A   1      38.641  30.330  30.799  1.00  0.00     0.023 A 
ATOM     63  C   UNL A   1      38.469  30.119  32.181  1.00  0.00     0.012 A 
ATOM     64  C   UNL A   1      37.643  31.009  30.072  1.00  0.00     0.148 A 
ATOM     65  C   UNL A   1      37.309  30.553  32.823  1.00  0.00     0.002 A 
ATOM     66  C   UNL A   1      36.508  31.475  30.727  1.00  0.00     0.091 A 
ATOM     67  F   UNL A   1      37.813  31.178  28.753  1.00  0.00    -0.205 F 
ATOM     68  C   UNL A   1      36.335  31.239  32.100  1.00  0.00     0.022 A 
BRANCH  66  69
ATOM     69  S   UNL A   1      35.239  32.436  29.893  1.00  0.00     0.127 S 
ATOM     70  O   UNL A   1      34.298  32.691  30.982  1.00  0.00    -0.237 OA
ATOM     71  O   UNL A   1      35.984  33.612  29.443  1.00  0.00    -0.237 OA
ATOM     72  O   UNL A   1      34.742  31.590  28.817  1.00  0.00    -0.744 OA
ENDBRANCH  66  69
ENDBRANCH  48  62
BRANCH  49  73
ATOM     73  C   UNL A   1      46.859  27.049  26.151  1.00  0.00     0.023 A 
ATOM     74  C   UNL A   1      46.967  27.279  24.766  1.00  0.00     0.012 A 
ATOM     75  C   UNL A   1      47.927  26.423  26.826  1.00  0.00     0.148 A 
ATOM     76  C   UNL A   1      48.110  26.887  24.068  1.00  0.00     0.002 A 
ATOM     77  C   UNL A   1      49.089  26.097  26.136  1.00  0.00     0.091 A 
ATOM     78  F   UNL A   1      47.797  26.179  28.138  1.00  0.00    -0.205 F 
ATOM     79  C   UNL A   1      49.177  26.313  24.754  1.00  0.00     0.022 A 
BRANCH  77  80
ATOM     80  S   UNL A   1      50.563  25.512  26.983  1.00  0.00     0.127 S 
ATOM     81  O   UNL A   1      50.886  26.647  27.841  1.00  0.00    -0.237 OA
ATOM     82  O   UNL A   1      50.066  24.330  27.686  1.00  0.00    -0.237 OA
ATOM     83  O   UNL A   1      51.521  25.215  25.926  1.00  0.00    -0.744 OA
ENDBRANCH  77  80
ENDBRANCH  49  73
BRANCH  61  84
ATOM     84  C   UNL A   1      45.090  33.094  29.151  1.00  0.00     0.023 A 
ATOM     85  C   UNL A   1      45.930  33.312  30.260  1.00  0.00     0.012 A 
ATOM     86  C   UNL A   1      44.985  34.082  28.154  1.00  0.00     0.148 A 
ATOM     87  C   UNL A   1      46.636  34.507  30.389  1.00  0.00     0.002 A 
ATOM     88  C   UNL A   1      45.724  35.254  28.268  1.00  0.00     0.091 A 
ATOM     89  F   UNL A   1      44.161  33.863  27.119  1.00  0.00    -0.205 F 
ATOM     90  C   UNL A   1      46.542  35.471  29.389  1.00  0.00     0.022 A 
BRANCH  88  91
ATOM     91  S   UNL A   1      45.727  36.511  26.986  1.00  0.00     0.127 S 
ATOM     92  O   UNL A   1      46.182  35.751  25.823  1.00  0.00    -0.237 OA
ATOM     93  O   UNL A   1      44.321  36.915  26.938  1.00  0.00    -0.237 OA
ATOM     94  O   UNL A   1      46.635  37.551  27.451  1.00  0.00    -0.744 OA
ENDBRANCH  88  91
ENDBRANCH  61  84
ENDBRANCH  35  36
ENDBRANCH  28  30
ENDBRANCH  27  28
ENDBRANCH   1  27
TORSDOF 16
ENDMDL
MODEL 2
REMARK VINA RESULT:     -13.1      4.734      9.980
REMARK SMILES C[C@@]12CCC[C@](C)(C(=O)OCCOC(=O)c3ccc(-c4c5nc(c(-c6cccc(S(=O)(=O)[O-])c6F)c6ccc([nH]6)c(-c6cccc(S(=O)(=O)[O-])c6F)c6nc(c(-c7cccc(S(=O)(=O)[O-])c7F)c7ccc4[nH]7)C=C6)C=C5)cc3)[C@H]1CC[C@@]13C=C(CO)[C@@H](CC[C@@H]12)C3
REMARK SMILES IDX 12 1 11 2 10 3 8 4 9 5 6 6 1 7 2 8 3 9 79 10 90 11 4 12
REMARK SMILES IDX 80 13 82 14 89 15 5 16 7 17 81 18 83 19 91 20 88 21 84 22
REMARK SMILES IDX 87 23 85 24 86 25 13 27 14 28 15 29 16 30 17 31 78 32 18 33
REMARK SMILES IDX 77 34 19 35 20 36 21 37 71 38 22 39 76 40 70 41 72 42 23 43
REMARK SMILES IDX 75 44 69 45 68 46 24 48 56 49 36 50 55 51 37 52 40 53 54 54
REMARK SMILES IDX 73 55 38 56 39 57 53 59 74 60 41 61 25 62 26 63 34 64 27 65
REMARK SMILES IDX 29 66 35 67 28 68 30 69 31 70 32 71 33 72 57 73 58 74 66 75
REMARK SMILES IDX 59 76 61 77 67 78 60 79 62 80 63 81 64 82 65 83 42 84 43 85
REMARK SMILES IDX 51 86 44 87 46 88 52 89 45 90 47 91 48 92 49 93 50 94
REMARK H PARENT 86 26 72 47 40 58
REMARK Flexibility Score: inf
ROOT
ATOM      1  C   UNL A   1      31.406  30.301  25.503  1.00  0.00     0.275 C 
ENDROOT
BRANCH   1   2
ATOM      2  C   UNL A   1      31.583  29.371  24.307  1.00  0.00     0.274 C 
BRANCH   2   3
ATOM      3  O   UNL A   1      31.503  27.982  24.692  1.00  0.00    -0.462 OA
BRANCH   3   4
ATOM      4  C   UNL A   1      30.637  27.242  23.964  1.00  0.00     0.312 C 
ATOM      5  O   UNL A   1      29.448  27.536  23.855  1.00  0.00    -0.252 OA
BRANCH   4   6
ATOM      6  C   UNL A   1      31.192  25.909  23.407  1.00  0.00     0.069 C 
ATOM      7  C   UNL A   1      31.703  22.839  23.131  1.00  0.00     0.012 C 
ATOM      8  C   UNL A   1      32.853  23.855  23.489  1.00  0.00    -0.025 C 
ATOM      9  C   UNL A   1      33.500  24.334  22.170  1.00  0.00     0.007 C 
ATOM     10  C   UNL A   1      32.275  25.115  24.262  1.00  0.00     0.012 C 
ATOM     11  C   UNL A   1      33.879  23.010  24.319  1.00  0.00     0.005 C 
ATOM     12  C   UNL A   1      32.559  25.155  21.297  1.00  0.00     0.002 C 
ATOM     13  C   UNL A   1      31.860  24.742  25.703  1.00  0.00     0.006 C 
ATOM     14  C   UNL A   1      33.569  22.853  25.855  1.00  0.00    -0.008 C 
ATOM     15  C   UNL A   1      35.393  22.944  24.084  1.00  0.00     0.006 C 
ATOM     16  C   UNL A   1      31.901  26.287  22.072  1.00  0.00     0.019 C 
ATOM     17  C   UNL A   1      29.870  25.153  23.128  1.00  0.00     0.024 C 
ATOM     18  C   UNL A   1      33.001  24.106  26.493  1.00  0.00     0.012 C 
ATOM     19  C   UNL A   1      32.775  21.575  25.930  1.00  0.00    -0.018 C 
ATOM     20  C   UNL A   1      34.793  22.341  26.659  1.00  0.00     0.019 C 
ATOM     21  C   UNL A   1      35.845  21.521  24.594  1.00  0.00     0.008 C 
ATOM     22  C   UNL A   1      33.645  20.556  25.754  1.00  0.00    -0.045 C 
ATOM     23  C   UNL A   1      35.096  21.059  25.886  1.00  0.00     0.018 C 
BRANCH  22  24
ATOM     24  C   UNL A   1      33.279  19.164  25.374  1.00  0.00     0.187 C 
BRANCH  24  25
ATOM     25  O   UNL A   1      32.725  18.483  26.497  1.00  0.00    -0.392 OA
ATOM     26  H   UNL A   1      33.142  17.612  26.582  1.00  0.00     0.211 HD
ENDBRANCH  24  25
ENDBRANCH  22  24
ENDBRANCH   4   6
ENDBRANCH   3   4
ENDBRANCH   2   3
ENDBRANCH   1   2
BRANCH   1  27
ATOM     27  O   UNL A   1      32.449  30.088  26.469  1.00  0.00    -0.458 OA
BRANCH  27  28
ATOM     28  C   UNL A   1      32.960  31.207  27.035  1.00  0.00     0.338 C 
ATOM     29  O   UNL A   1      32.382  32.262  27.224  1.00  0.00    -0.246 OA
BRANCH  28  30
ATOM     30  C   UNL A   1      34.350  30.977  27.477  1.00  0.00     0.060 A 
ATOM     31  C   UNL A   1      34.763  29.687  27.781  1.00  0.00     0.016 A 
ATOM     32  C   UNL A   1      35.184  32.048  27.775  1.00  0.00     0.016 A 
ATOM     33  C   UNL A   1      35.916  29.467  28.527  1.00  0.00     0.010 A 
ATOM     34  C   UNL A   1      36.428  31.808  28.377  1.00  0.00     0.010 A 
ATOM     35  C   UNL A   1      36.792  30.518  28.811  1.00  0.00    -0.014 A 
BRANCH  35  36
ATOM     36  C   UNL A   1      38.053  30.282  29.582  1.00  0.00     0.031 A 
ATOM     37  C   UNL A   1      39.151  29.438  28.984  1.00  0.00     0.074 A 
ATOM     38  C   UNL A   1      38.231  30.800  30.817  1.00  0.00     0.049 A 
ATOM     39  N   UNL A   1      40.158  28.852  29.576  1.00  0.00    -0.248 NA
ATOM     40  C   UNL A   1      39.091  29.197  27.532  1.00  0.00     0.031 C 
ATOM     41  C   UNL A   1      37.297  31.680  31.521  1.00  0.00     0.029 A 
ATOM     42  N   UNL A   1      39.267  30.648  31.712  1.00  0.00    -0.354 N 
ATOM     43  C   UNL A   1      40.776  28.079  28.599  1.00  0.00     0.074 A 
ATOM     44  C   UNL A   1      40.054  28.300  27.365  1.00  0.00     0.031 C 
ATOM     45  C   UNL A   1      37.812  32.021  32.710  1.00  0.00     0.029 A 
ATOM     46  C   UNL A   1      39.049  31.281  32.914  1.00  0.00     0.049 A 
ATOM     47  H   UNL A   1      40.082  30.134  31.511  1.00  0.00     0.167 HD
ATOM     48  C   UNL A   1      41.845  27.256  28.723  1.00  0.00     0.034 A 
ATOM     49  C   UNL A   1      39.721  31.225  34.083  1.00  0.00     0.034 A 
ATOM     50  C   UNL A   1      42.631  27.134  29.922  1.00  0.00     0.049 A 
ATOM     51  C   UNL A   1      40.918  30.327  34.191  1.00  0.00     0.074 A 
ATOM     52  C   UNL A   1      43.756  26.357  30.138  1.00  0.00     0.029 A 
ATOM     53  N   UNL A   1      42.395  27.831  31.096  1.00  0.00    -0.354 N 
ATOM     54  N   UNL A   1      41.475  29.581  33.269  1.00  0.00    -0.248 NA
ATOM     55  C   UNL A   1      41.577  30.256  35.503  1.00  0.00     0.031 C 
ATOM     56  C   UNL A   1      44.200  26.585  31.445  1.00  0.00     0.029 A 
ATOM     57  C   UNL A   1      43.357  27.510  32.039  1.00  0.00     0.049 A 
ATOM     58  H   UNL A   1      41.652  28.461  31.240  1.00  0.00     0.167 HD
ATOM     59  C   UNL A   1      42.553  28.959  33.884  1.00  0.00     0.074 A 
ATOM     60  C   UNL A   1      42.594  29.443  35.249  1.00  0.00     0.031 C 
ATOM     61  C   UNL A   1      43.415  28.046  33.374  1.00  0.00     0.034 A 
BRANCH  48  62
ATOM     62  C   UNL A   1      42.239  26.427  27.530  1.00  0.00     0.023 A 
ATOM     63  C   UNL A   1      43.041  26.984  26.515  1.00  0.00     0.012 A 
ATOM     64  C   UNL A   1      41.862  25.072  27.447  1.00  0.00     0.148 A 
ATOM     65  C   UNL A   1      43.437  26.213  25.421  1.00  0.00     0.002 A 
ATOM     66  C   UNL A   1      42.294  24.298  26.376  1.00  0.00     0.091 A 
ATOM     67  F   UNL A   1      41.078  24.566  28.410  1.00  0.00    -0.205 F 
ATOM     68  C   UNL A   1      43.073  24.870  25.357  1.00  0.00     0.022 A 
BRANCH  66  69
ATOM     69  S   UNL A   1      41.939  22.541  26.250  1.00  0.00     0.127 S 
ATOM     70  O   UNL A   1      42.618  22.190  25.004  1.00  0.00    -0.237 OA
ATOM     71  O   UNL A   1      42.570  22.008  27.458  1.00  0.00    -0.237 OA
ATOM     72  O   UNL A   1      40.487  22.428  26.229  1.00  0.00    -0.744 OA
ENDBRANCH  66  69
ENDBRANCH  48  62
BRANCH  49  73
ATOM     73  C   UNL A   1      39.251  32.031  35.248  1.00  0.00     0.023 A 
ATOM     74  C   UNL A   1      38.397  31.439  36.198  1.00  0.00     0.012 A 
ATOM     75  C   UNL A   1      39.689  33.355  35.452  1.00  0.00     0.148 A 
ATOM     76  C   UNL A   1      37.980  32.154  37.321  1.00  0.00     0.002 A 
ATOM     77  C   UNL A   1      39.325  34.037  36.608  1.00  0.00     0.091 A 
ATOM     78  F   UNL A   1      40.474  33.918  34.523  1.00  0.00    -0.205 F 
ATOM     79  C   UNL A   1      38.458  33.444  37.536  1.00  0.00     0.022 A 
BRANCH  77  80
ATOM     80  S   UNL A   1      40.034  35.633  37.031  1.00  0.00     0.127 S 
ATOM     81  O   UNL A   1      41.456  35.317  37.116  1.00  0.00    -0.237 OA
ATOM     82  O   UNL A   1      39.652  36.455  35.883  1.00  0.00    -0.237 OA
ATOM     83  O   UNL A   1      39.388  36.021  38.279  1.00  0.00    -0.744 OA
ENDBRANCH  77  80
ENDBRANCH  49  73
BRANCH  61  84
ATOM     84  C   UNL A   1      44.493  27.527  34.286  1.00  0.00     0.023 A 
ATOM     85  C   UNL A   1      45.684  28.261  34.441  1.00  0.00     0.012 A 
ATOM     86  C   UNL A   1      44.297  26.353  35.038  1.00  0.00     0.148 A 
ATOM     87  C   UNL A   1      46.677  27.821  35.314  1.00  0.00     0.002 A 
ATOM     88  C   UNL A   1      45.274  25.942  35.937  1.00  0.00     0.091 A 
ATOM     89  F   UNL A   1      43.165  25.657  34.857  1.00  0.00    -0.205 F 
ATOM     90  C   UNL A   1      46.468  26.670  36.069  1.00  0.00     0.022 A 
BRANCH  88  91
ATOM     91  S   UNL A   1      45.051  24.519  37.009  1.00  0.00     0.127 S 
ATOM     92  O   UNL A   1      43.827  24.874  37.726  1.00  0.00    -0.237 OA
ATOM     93  O   UNL A   1      44.899  23.424  36.050  1.00  0.00    -0.237 OA
ATOM     94  O   UNL A   1      46.256  24.442  37.824  1.00  0.00    -0.744 OA
ENDBRANCH  88  91
ENDBRANCH  61  84
ENDBRANCH  35  36
ENDBRANCH  28  30
ENDBRANCH  27  28
ENDBRANCH   1  27
TORSDOF 16
ENDMDL
MODEL 3
REMARK VINA RESULT:     -12.9      4.973      9.962
REMARK SMILES C[C@@]12CCC[C@](C)(C(=O)OCCOC(=O)c3ccc(-c4c5nc(c(-c6cccc(S(=O)(=O)[O-])c6F)c6ccc([nH]6)c(-c6cccc(S(=O)(=O)[O-])c6F)c6nc(c(-c7cccc(S(=O)(=O)[O-])c7F)c7ccc4[nH]7)C=C6)C=C5)cc3)[C@H]1CC[C@@]13C=C(CO)[C@@H](CC[C@@H]12)C3
REMARK SMILES IDX 12 1 11 2 10 3 8 4 9 5 6 6 1 7 2 8 3 9 79 10 90 11 4 12
REMARK SMILES IDX 80 13 82 14 89 15 5 16 7 17 81 18 83 19 91 20 88 21 84 22
REMARK SMILES IDX 87 23 85 24 86 25 13 27 14 28 15 29 16 30 17 31 78 32 18 33
REMARK SMILES IDX 77 34 19 35 20 36 21 37 71 38 22 39 76 40 70 41 72 42 23 43
REMARK SMILES IDX 75 44 69 45 68 46 24 48 56 49 36 50 55 51 37 52 40 53 54 54
REMARK SMILES IDX 73 55 38 56 39 57 53 59 74 60 41 61 25 62 26 63 34 64 27 65
REMARK SMILES IDX 29 66 35 67 28 68 30 69 31 70 32 71 33 72 57 73 58 74 66 75
REMARK SMILES IDX 59 76 61 77 67 78 60 79 62 80 63 81 64 82 65 83 42 84 43 85
REMARK SMILES IDX 51 86 44 87 46 88 52 89 45 90 47 91 48 92 49 93 50 94
REMARK H PARENT 86 26 72 47 40 58
REMARK Flexibility Score: inf
ROOT
ATOM      1  C   UNL A   1      31.845  30.367  26.601  1.00  0.00     0.275 C 
ENDROOT
BRANCH   1   2
ATOM      2  C   UNL A   1      31.326  30.040  25.204  1.00  0.00     0.274 C 
BRANCH   2   3
ATOM      3  O   UNL A   1      31.651  28.688  24.815  1.00  0.00    -0.462 OA
BRANCH   3   4
ATOM      4  C   UNL A   1      30.737  28.094  24.016  1.00  0.00     0.312 C 
ATOM      5  O   UNL A   1      29.621  28.574  23.821  1.00  0.00    -0.252 OA
BRANCH   4   6
ATOM      6  C   UNL A   1      31.113  26.688  23.489  1.00  0.00     0.069 C 
ATOM      7  C   UNL A   1      31.417  23.581  23.401  1.00  0.00     0.012 C 
ATOM      8  C   UNL A   1      32.660  24.547  23.448  1.00  0.00    -0.025 C 
ATOM      9  C   UNL A   1      33.069  24.877  21.996  1.00  0.00     0.007 C 
ATOM     10  C   UNL A   1      32.299  25.898  24.199  1.00  0.00     0.012 C 
ATOM     11  C   UNL A   1      33.782  23.707  24.149  1.00  0.00     0.005 C 
ATOM     12  C   UNL A   1      32.021  25.684  21.240  1.00  0.00     0.002 C 
ATOM     13  C   UNL A   1      32.145  25.668  25.718  1.00  0.00     0.006 C 
ATOM     14  C   UNL A   1      33.761  23.692  25.723  1.00  0.00    -0.008 C 
ATOM     15  C   UNL A   1      35.221  23.526  23.646  1.00  0.00     0.006 C 
ATOM     16  C   UNL A   1      31.575  26.913  22.018  1.00  0.00     0.019 C 
ATOM     17  C   UNL A   1      29.727  25.998  23.526  1.00  0.00     0.024 C 
ATOM     18  C   UNL A   1      33.384  25.025  26.340  1.00  0.00     0.012 C 
ATOM     19  C   UNL A   1      32.935  22.477  26.058  1.00  0.00    -0.018 C 
ATOM     20  C   UNL A   1      35.088  23.169  26.332  1.00  0.00     0.019 C 
ATOM     21  C   UNL A   1      35.692  22.122  24.191  1.00  0.00     0.008 C 
ATOM     22  C   UNL A   1      33.706  21.394  25.817  1.00  0.00    -0.045 C 
ATOM     23  C   UNL A   1      35.179  21.813  25.634  1.00  0.00     0.018 C 
BRANCH  22  24
ATOM     24  C   UNL A   1      33.210  20.003  25.638  1.00  0.00     0.187 C 
BRANCH  24  25
ATOM     25  O   UNL A   1      31.800  20.012  25.429  1.00  0.00    -0.392 OA
ATOM     26  H   UNL A   1      31.551  19.256  24.875  1.00  0.00     0.211 HD
ENDBRANCH  24  25
ENDBRANCH  22  24
ENDBRANCH   4   6
ENDBRANCH   3   4
ENDBRANCH   2   3
ENDBRANCH   1   2
BRANCH   1  27
ATOM     27  O   UNL A   1      33.281  30.430  26.606  1.00  0.00    -0.458 OA
BRANCH  27  28
ATOM     28  C   UNL A   1      33.820  31.406  27.376  1.00  0.00     0.338 C 
ATOM     29  O   UNL A   1      33.267  32.417  27.771  1.00  0.00    -0.246 OA
BRANCH  28  30
ATOM     30  C   UNL A   1      35.205  31.063  27.753  1.00  0.00     0.060 A 
ATOM     31  C   UNL A   1      35.527  29.743  28.038  1.00  0.00     0.016 A 
ATOM     32  C   UNL A   1      36.136  32.063  28.012  1.00  0.00     0.016 A 
ATOM     33  C   UNL A   1      36.692  29.429  28.730  1.00  0.00     0.010 A 
ATOM     34  C   UNL A   1      37.383  31.721  28.555  1.00  0.00     0.010 A 
ATOM     35  C   UNL A   1      37.662  30.404  28.973  1.00  0.00    -0.014 A 
BRANCH  35  36
ATOM     36  C   UNL A   1      38.934  30.065  29.684  1.00  0.00     0.031 A 
ATOM     37  C   UNL A   1      39.914  29.108  29.053  1.00  0.00     0.074 A 
ATOM     38  C   UNL A   1      39.225  30.589  30.896  1.00  0.00     0.049 A 
ATOM     39  N   UNL A   1      40.891  28.441  29.608  1.00  0.00    -0.248 NA
ATOM     40  C   UNL A   1      39.755  28.844  27.613  1.00  0.00     0.031 C 
ATOM     41  C   UNL A   1      38.417  31.568  31.623  1.00  0.00     0.029 A 
ATOM     42  N   UNL A   1      40.288  30.357  31.740  1.00  0.00    -0.354 N 
ATOM     43  C   UNL A   1      41.381  27.592  28.621  1.00  0.00     0.074 A 
ATOM     44  C   UNL A   1      40.619  27.856  27.420  1.00  0.00     0.031 C 
ATOM     45  C   UNL A   1      39.024  31.883  32.776  1.00  0.00     0.029 A 
ATOM     46  C   UNL A   1      40.195  31.033  32.935  1.00  0.00     0.049 A 
ATOM     47  H   UNL A   1      41.039  29.764  31.511  1.00  0.00     0.167 HD
ATOM     48  C   UNL A   1      42.373  26.674  28.712  1.00  0.00     0.034 A 
ATOM     49  C   UNL A   1      40.919  30.937  34.069  1.00  0.00     0.034 A 
ATOM     50  C   UNL A   1      43.206  26.502  29.872  1.00  0.00     0.049 A 
ATOM     51  C   UNL A   1      42.030  29.931  34.140  1.00  0.00     0.074 A 
ATOM     52  C   UNL A   1      44.262  25.625  30.051  1.00  0.00     0.029 A 
ATOM     53  N   UNL A   1      43.099  27.242  31.039  1.00  0.00    -0.354 N 
ATOM     54  N   UNL A   1      42.465  29.116  33.209  1.00  0.00    -0.248 NA
ATOM     55  C   UNL A   1      42.748  29.825  35.417  1.00  0.00     0.031 C 
ATOM     56  C   UNL A   1      44.794  25.837  31.327  1.00  0.00     0.029 A 
ATOM     57  C   UNL A   1      44.075  26.850  31.939  1.00  0.00     0.049 A 
ATOM     58  H   UNL A   1      42.428  27.944  31.204  1.00  0.00     0.167 HD
ATOM     59  C   UNL A   1      43.510  28.407  33.785  1.00  0.00     0.074 A 
ATOM     60  C   UNL A   1      43.669  28.913  35.133  1.00  0.00     0.031 C 
ATOM     61  C   UNL A   1      44.254  27.405  33.255  1.00  0.00     0.034 A 
BRANCH  48  62
ATOM     62  C   UNL A   1      42.624  25.787  27.521  1.00  0.00     0.023 A 
ATOM     63  C   UNL A   1      43.426  26.240  26.457  1.00  0.00     0.012 A 
ATOM     64  C   UNL A   1      42.109  24.475  27.489  1.00  0.00     0.148 A 
ATOM     65  C   UNL A   1      43.689  25.412  25.365  1.00  0.00     0.002 A 
ATOM     66  C   UNL A   1      42.408  23.641  26.418  1.00  0.00     0.091 A 
ATOM     67  F   UNL A   1      41.326  24.069  28.500  1.00  0.00    -0.205 F 
ATOM     68  C   UNL A   1      43.190  24.112  25.351  1.00  0.00     0.022 A 
BRANCH  66  69
ATOM     69  S   UNL A   1      41.874  21.927  26.351  1.00  0.00     0.127 S 
ATOM     70  O   UNL A   1      42.720  21.394  25.284  1.00  0.00    -0.237 OA
ATOM     71  O   UNL A   1      42.208  21.444  27.691  1.00  0.00    -0.237 OA
ATOM     72  O   UNL A   1      40.447  21.965  26.063  1.00  0.00    -0.744 OA
ENDBRANCH  66  69
ENDBRANCH  48  62
BRANCH  49  73
ATOM     73  C   UNL A   1      40.590  31.808  35.236  1.00  0.00     0.023 A 
ATOM     74  C   UNL A   1      41.374  32.949  35.490  1.00  0.00     0.012 A 
ATOM     75  C   UNL A   1      39.475  31.546  36.058  1.00  0.00     0.148 A 
ATOM     76  C   UNL A   1      41.060  33.805  36.546  1.00  0.00     0.002 A 
ATOM     77  C   UNL A   1      39.129  32.440  37.064  1.00  0.00     0.091 A 
ATOM     78  F   UNL A   1      38.756  30.438  35.826  1.00  0.00    -0.205 F 
ATOM     79  C   UNL A   1      39.929  33.562  37.321  1.00  0.00     0.022 A 
BRANCH  77  80
ATOM     80  S   UNL A   1      37.596  32.281  37.990  1.00  0.00     0.127 S 
ATOM     81  O   UNL A   1      37.923  32.971  39.233  1.00  0.00    -0.237 OA
ATOM     82  O   UNL A   1      36.642  32.981  37.129  1.00  0.00    -0.237 OA
ATOM     83  O   UNL A   1      37.358  30.847  38.096  1.00  0.00    -0.744 OA
ENDBRANCH  77  80
ENDBRANCH  49  73
BRANCH  61  84
ATOM     84  C   UNL A   1      45.325  26.805  34.125  1.00  0.00     0.023 A 
ATOM     85  C   UNL A   1      46.619  27.359  34.115  1.00  0.00     0.012 A 
ATOM     86  C   UNL A   1      45.031  25.740  34.998  1.00  0.00     0.148 A 
ATOM     87  C   UNL A   1      47.615  26.846  34.944  1.00  0.00     0.002 A 
ATOM     88  C   UNL A   1      46.017  25.261  35.852  1.00  0.00     0.091 A 
ATOM     89  F   UNL A   1      43.799  25.213  34.974  1.00  0.00    -0.205 F 
ATOM     90  C   UNL A   1      47.311  25.806  35.819  1.00  0.00     0.022 A 
BRANCH  88  91
ATOM     91  S   UNL A   1      45.690  23.982  37.069  1.00  0.00     0.127 S 
ATOM     92  O   UNL A   1      46.968  23.904  37.773  1.00  0.00    -0.237 OA
ATOM     93  O   UNL A   1      44.597  24.564  37.850  1.00  0.00    -0.237 OA
ATOM     94  O   UNL A   1      45.318  22.795  36.309  1.00  0.00    -0.744 OA
ENDBRANCH  88  91
ENDBRANCH  61  84
ENDBRANCH  35  36
ENDBRANCH  28  30
ENDBRANCH  27  28
ENDBRANCH   1  27
TORSDOF 16
ENDMDL
