MODEL 1
REMARK VINA RESULT:     -10.8      0.000      0.000
REMARK SMILES CCCCCCNC(=O)Oc1cccc(-c2ccc([C@@H](C)C(=O)OCCOC(=O)c3ccc(-c4c5nc(c(-c6cccc(S(=O)(=O)[O-])c6F)c6ccc([nH]6)c(-c6cccc(S(=O)(=O)[O-])c6F)c6nc(c(-c7cccc(S(=O)(=O)[O-])c7F)c7ccc4[nH]7)C=C6)C=C5)cc3)cc2F)c1
REMARK SMILES IDX 20 1 21 2 19 3 16 4 17 5 94 6 18 7 93 8 95 9 15 10 11 11
REMARK SMILES IDX 12 12 96 13 13 14 14 15 10 16 8 17 7 18 9 20 6 21 5 22 4 23
REMARK SMILES IDX 3 24 2 25 1 26 22 27 23 28 24 29 25 30 26 31 27 32 28 33
REMARK SMILES IDX 29 34 30 35 31 36 92 37 32 38 91 39 33 40 34 41 35 42 85 43
REMARK SMILES IDX 36 44 90 45 84 46 86 47 37 48 89 49 83 50 82 51 38 53 70 54
REMARK SMILES IDX 50 55 69 56 51 57 54 58 68 59 87 60 52 61 53 62 67 64 88 65
REMARK SMILES IDX 55 66 39 67 40 68 48 69 41 70 43 71 49 72 42 73 44 74 45 75
REMARK SMILES IDX 46 76 47 77 71 78 72 79 80 80 73 81 75 82 81 83 74 84 76 85
REMARK SMILES IDX 77 86 78 87 79 88 56 89 57 90 65 91 58 92 60 93 66 94 59 95
REMARK SMILES IDX 61 96 62 97 63 98 64 99
REMARK H PARENT 7 19 86 52 54 63
REMARK Flexibility Score: inf
ROOT
ATOM      1  C   UNL A   1      30.005  26.775  23.097  1.00  0.00     0.126 C 
ATOM      2  C   UNL A   1      28.841  26.418  24.022  1.00  0.00     0.025 C 
ENDROOT
BRANCH   1   3
ATOM      3  C   UNL A   1      31.300  26.088  23.503  1.00  0.00    -0.031 A 
ATOM      4  C   UNL A   1      33.695  24.760  24.293  1.00  0.00     0.018 A 
ATOM      5  C   UNL A   1      33.630  25.498  23.100  1.00  0.00     0.012 A 
ATOM      6  C   UNL A   1      32.537  24.702  25.077  1.00  0.00     0.131 A 
ATOM      7  C   UNL A   1      32.456  26.154  22.713  1.00  0.00     0.005 A 
ATOM      8  C   UNL A   1      31.361  25.355  24.699  1.00  0.00     0.044 A 
ATOM      9  F   UNL A   1      32.539  24.031  26.239  1.00  0.00    -0.206 F 
BRANCH   4  10
ATOM     10  C   UNL A   1      34.944  24.095  24.694  1.00  0.00    -0.012 A 
ATOM     11  C   UNL A   1      36.589  22.328  24.448  1.00  0.00     0.133 A 
ATOM     12  C   UNL A   1      37.356  22.858  25.484  1.00  0.00     0.047 A 
ATOM     13  C   UNL A   1      35.385  22.921  24.062  1.00  0.00     0.056 A 
ATOM     14  C   UNL A   1      36.927  24.016  26.126  1.00  0.00     0.004 A 
ATOM     15  C   UNL A   1      35.734  24.628  25.732  1.00  0.00     0.009 A 
BRANCH  11  16
ATOM     16  O   UNL A   1      37.028  21.117  23.891  1.00  0.00    -0.410 OA
BRANCH  16  17
ATOM     17  C   UNL A   1      37.402  20.109  24.767  1.00  0.00     0.412 C 
ATOM     18  N   UNL A   1      36.400  19.209  25.009  1.00  0.00    -0.321 N 
ATOM     19  H   UNL A   1      36.626  18.446  25.589  1.00  0.00     0.167 HD
ATOM     20  O   UNL A   1      38.488  20.001  25.323  1.00  0.00    -0.224 OA
BRANCH  18  21
ATOM     21  C   UNL A   1      35.043  19.257  24.504  1.00  0.00     0.119 C 
BRANCH  21  22
ATOM     22  C   UNL A   1      34.092  19.986  25.451  1.00  0.00     0.021 C 
BRANCH  22  23
ATOM     23  C   UNL A   1      32.759  20.419  24.825  1.00  0.00     0.002 C 
BRANCH  23  24
ATOM     24  C   UNL A   1      32.350  19.677  23.549  1.00  0.00    -0.000 C 
BRANCH  24  25
ATOM     25  C   UNL A   1      32.112  20.556  22.318  1.00  0.00    -0.003 C 
ATOM     26  C   UNL A   1      32.123  22.045  22.628  1.00  0.00     0.004 C 
ENDBRANCH  24  25
ENDBRANCH  23  24
ENDBRANCH  22  23
ENDBRANCH  21  22
ENDBRANCH  18  21
ENDBRANCH  16  17
ENDBRANCH  11  16
ENDBRANCH   4  10
ENDBRANCH   1   3
BRANCH   1  27
ATOM     27  C   UNL A   1      30.076  28.289  22.920  1.00  0.00     0.313 C 
ATOM     28  O   UNL A   1      30.178  28.809  21.814  1.00  0.00    -0.252 OA
BRANCH  27  29
ATOM     29  O   UNL A   1      29.960  28.984  24.082  1.00  0.00    -0.462 OA
BRANCH  29  30
ATOM     30  C   UNL A   1      31.011  29.920  24.389  1.00  0.00     0.274 C 
BRANCH  30  31
ATOM     31  C   UNL A   1      31.686  29.579  25.720  1.00  0.00     0.275 C 
BRANCH  31  32
ATOM     32  O   UNL A   1      33.002  30.153  25.800  1.00  0.00    -0.458 OA
BRANCH  32  33
ATOM     33  C   UNL A   1      33.181  31.032  26.814  1.00  0.00     0.338 C 
ATOM     34  O   UNL A   1      32.369  31.826  27.255  1.00  0.00    -0.246 OA
BRANCH  33  35
ATOM     35  C   UNL A   1      34.495  30.808  27.434  1.00  0.00     0.060 A 
ATOM     36  C   UNL A   1      34.834  29.501  27.788  1.00  0.00     0.016 A 
ATOM     37  C   UNL A   1      35.345  31.871  27.737  1.00  0.00     0.016 A 
ATOM     38  C   UNL A   1      36.018  29.247  28.471  1.00  0.00     0.010 A 
ATOM     39  C   UNL A   1      36.544  31.613  28.411  1.00  0.00     0.010 A 
ATOM     40  C   UNL A   1      36.878  30.303  28.797  1.00  0.00    -0.014 A 
BRANCH  40  41
ATOM     41  C   UNL A   1      38.114  30.025  29.567  1.00  0.00     0.031 A 
ATOM     42  C   UNL A   1      39.158  29.101  29.009  1.00  0.00     0.074 A 
ATOM     43  C   UNL A   1      38.294  30.610  30.766  1.00  0.00     0.049 A 
ATOM     44  N   UNL A   1      40.287  28.717  29.543  1.00  0.00    -0.248 NA
ATOM     45  C   UNL A   1      38.895  28.531  27.678  1.00  0.00     0.031 C 
ATOM     46  C   UNL A   1      37.348  31.522  31.408  1.00  0.00     0.029 A 
ATOM     47  N   UNL A   1      39.329  30.514  31.661  1.00  0.00    -0.354 N 
ATOM     48  C   UNL A   1      40.854  27.833  28.634  1.00  0.00     0.074 A 
ATOM     49  C   UNL A   1      39.941  27.732  27.515  1.00  0.00     0.031 C 
ATOM     50  C   UNL A   1      37.839  31.892  32.601  1.00  0.00     0.029 A 
ATOM     51  C   UNL A   1      39.118  31.223  32.819  1.00  0.00     0.049 A 
ATOM     52  H   UNL A   1      40.143  29.987  31.491  1.00  0.00     0.167 HD
ATOM     53  C   UNL A   1      42.037  27.177  28.716  1.00  0.00     0.034 A 
ATOM     54  C   UNL A   1      39.864  31.312  33.938  1.00  0.00     0.034 A 
ATOM     55  C   UNL A   1      42.960  27.311  29.812  1.00  0.00     0.049 A 
ATOM     56  C   UNL A   1      41.177  30.580  34.001  1.00  0.00     0.074 A 
ATOM     57  C   UNL A   1      44.206  26.728  29.964  1.00  0.00     0.029 A 
ATOM     58  N   UNL A   1      42.738  28.079  30.945  1.00  0.00    -0.354 N 
ATOM     59  N   UNL A   1      41.751  29.836  33.085  1.00  0.00    -0.248 NA
ATOM     60  C   UNL A   1      41.962  30.723  35.235  1.00  0.00     0.031 C 
ATOM     61  C   UNL A   1      44.731  27.136  31.196  1.00  0.00     0.029 A 
ATOM     62  C   UNL A   1      43.819  27.982  31.804  1.00  0.00     0.049 A 
ATOM     63  H   UNL A   1      41.930  28.617  31.113  1.00  0.00     0.167 HD
ATOM     64  C   UNL A   1      42.972  29.444  33.621  1.00  0.00     0.074 A 
ATOM     65  C   UNL A   1      43.066  30.053  34.932  1.00  0.00     0.031 C 
ATOM     66  C   UNL A   1      43.920  28.637  33.084  1.00  0.00     0.034 A 
BRANCH  53  67
ATOM     67  C   UNL A   1      42.417  26.279  27.569  1.00  0.00     0.023 A 
ATOM     68  C   UNL A   1      43.230  26.783  26.533  1.00  0.00     0.012 A 
ATOM     69  C   UNL A   1      42.011  24.931  27.537  1.00  0.00     0.148 A 
ATOM     70  C   UNL A   1      43.607  25.967  25.467  1.00  0.00     0.002 A 
ATOM     71  C   UNL A   1      42.423  24.113  26.489  1.00  0.00     0.091 A 
ATOM     72  F   UNL A   1      41.217  24.476  28.516  1.00  0.00    -0.205 F 
ATOM     73  C   UNL A   1      43.213  24.632  25.451  1.00  0.00     0.022 A 
BRANCH  71  74
ATOM     74  S   UNL A   1      42.021  22.364  26.421  1.00  0.00     0.127 S 
ATOM     75  O   UNL A   1      42.669  21.959  25.175  1.00  0.00    -0.237 OA
ATOM     76  O   UNL A   1      42.659  21.849  27.634  1.00  0.00    -0.237 OA
ATOM     77  O   UNL A   1      40.567  22.291  26.429  1.00  0.00    -0.744 OA
ENDBRANCH  71  74
ENDBRANCH  53  67
BRANCH  54  78
ATOM     78  C   UNL A   1      39.402  32.167  35.066  1.00  0.00     0.023 A 
ATOM     79  C   UNL A   1      39.560  33.564  34.985  1.00  0.00     0.012 A 
ATOM     80  C   UNL A   1      38.759  31.612  36.190  1.00  0.00     0.148 A 
ATOM     81  C   UNL A   1      39.103  34.391  36.011  1.00  0.00     0.002 A 
ATOM     82  C   UNL A   1      38.258  32.445  37.183  1.00  0.00     0.091 A 
ATOM     83  F   UNL A   1      38.637  30.279  36.258  1.00  0.00    -0.205 F 
ATOM     84  C   UNL A   1      38.441  33.834  37.102  1.00  0.00     0.022 A 
BRANCH  82  85
ATOM     85  S   UNL A   1      37.276  31.824  38.553  1.00  0.00     0.127 S 
ATOM     86  O   UNL A   1      36.105  32.695  38.500  1.00  0.00    -0.237 OA
ATOM     87  O   UNL A   1      37.031  30.439  38.150  1.00  0.00    -0.237 OA
ATOM     88  O   UNL A   1      38.119  31.963  39.732  1.00  0.00    -0.744 OA
ENDBRANCH  82  85
ENDBRANCH  54  78
BRANCH  66  89
ATOM     89  C   UNL A   1      45.157  28.377  33.903  1.00  0.00     0.023 A 
ATOM     90  C   UNL A   1      46.341  29.087  33.618  1.00  0.00     0.012 A 
ATOM     91  C   UNL A   1      45.129  27.492  34.997  1.00  0.00     0.148 A 
ATOM     92  C   UNL A   1      47.484  28.899  34.393  1.00  0.00     0.002 A 
ATOM     93  C   UNL A   1      46.259  27.341  35.792  1.00  0.00     0.091 A 
ATOM     94  F   UNL A   1      44.000  26.808  35.239  1.00  0.00    -0.205 F 
ATOM     95  C   UNL A   1      47.440  28.036  35.486  1.00  0.00     0.022 A 
BRANCH  93  96
ATOM     96  S   UNL A   1      46.261  26.320  37.270  1.00  0.00     0.127 S 
ATOM     97  O   UNL A   1      47.548  26.668  37.873  1.00  0.00    -0.237 OA
ATOM     98  O   UNL A   1      45.092  26.816  37.998  1.00  0.00    -0.237 OA
ATOM     99  O   UNL A   1      46.138  24.945  36.802  1.00  0.00    -0.744 OA
ENDBRANCH  93  96
ENDBRANCH  66  89
ENDBRANCH  40  41
ENDBRANCH  33  35
ENDBRANCH  32  33
ENDBRANCH  31  32
ENDBRANCH  30  31
ENDBRANCH  29  30
ENDBRANCH  27  29
ENDBRANCH   1  27
TORSDOF 23
ENDMDL
MODEL 2
REMARK VINA RESULT:     -10.7      2.511      7.812
REMARK SMILES CCCCCCNC(=O)Oc1cccc(-c2ccc([C@@H](C)C(=O)OCCOC(=O)c3ccc(-c4c5nc(c(-c6cccc(S(=O)(=O)[O-])c6F)c6ccc([nH]6)c(-c6cccc(S(=O)(=O)[O-])c6F)c6nc(c(-c7cccc(S(=O)(=O)[O-])c7F)c7ccc4[nH]7)C=C6)C=C5)cc3)cc2F)c1
REMARK SMILES IDX 20 1 21 2 19 3 16 4 17 5 94 6 18 7 93 8 95 9 15 10 11 11
REMARK SMILES IDX 12 12 96 13 13 14 14 15 10 16 8 17 7 18 9 20 6 21 5 22 4 23
REMARK SMILES IDX 3 24 2 25 1 26 22 27 23 28 24 29 25 30 26 31 27 32 28 33
REMARK SMILES IDX 29 34 30 35 31 36 92 37 32 38 91 39 33 40 34 41 35 42 85 43
REMARK SMILES IDX 36 44 90 45 84 46 86 47 37 48 89 49 83 50 82 51 38 53 70 54
REMARK SMILES IDX 50 55 69 56 51 57 54 58 68 59 87 60 52 61 53 62 67 64 88 65
REMARK SMILES IDX 55 66 39 67 40 68 48 69 41 70 43 71 49 72 42 73 44 74 45 75
REMARK SMILES IDX 46 76 47 77 71 78 72 79 80 80 73 81 75 82 81 83 74 84 76 85
REMARK SMILES IDX 77 86 78 87 79 88 56 89 57 90 65 91 58 92 60 93 66 94 59 95
REMARK SMILES IDX 61 96 62 97 63 98 64 99
REMARK H PARENT 7 19 86 52 54 63
REMARK Flexibility Score: inf
ROOT
ATOM      1  C   UNL A   1      31.776  27.065  23.841  1.00  0.00     0.126 C 
ATOM      2  C   UNL A   1      30.318  27.520  23.792  1.00  0.00     0.025 C 
ENDROOT
BRANCH   1   3
ATOM      3  C   UNL A   1      31.921  25.561  23.658  1.00  0.00    -0.031 A 
ATOM      4  C   UNL A   1      32.141  22.738  23.344  1.00  0.00     0.018 A 
ATOM      5  C   UNL A   1      32.748  23.621  22.437  1.00  0.00     0.012 A 
ATOM      6  C   UNL A   1      31.425  23.299  24.407  1.00  0.00     0.131 A 
ATOM      7  C   UNL A   1      32.644  25.008  22.592  1.00  0.00     0.005 A 
ATOM      8  C   UNL A   1      31.317  24.682  24.570  1.00  0.00     0.044 A 
ATOM      9  F   UNL A   1      30.839  22.510  25.321  1.00  0.00    -0.206 F 
BRANCH   4  10
ATOM     10  C   UNL A   1      32.279  21.282  23.176  1.00  0.00    -0.012 A 
ATOM     11  C   UNL A   1      32.889  19.091  24.019  1.00  0.00     0.133 A 
ATOM     12  C   UNL A   1      32.512  18.492  22.820  1.00  0.00     0.047 A 
ATOM     13  C   UNL A   1      32.796  20.473  24.200  1.00  0.00     0.056 A 
ATOM     14  C   UNL A   1      32.006  19.283  21.793  1.00  0.00     0.004 A 
ATOM     15  C   UNL A   1      31.890  20.664  21.972  1.00  0.00     0.009 A 
BRANCH  11  16
ATOM     16  O   UNL A   1      33.466  18.256  24.990  1.00  0.00    -0.410 OA
BRANCH  16  17
ATOM     17  C   UNL A   1      34.587  17.527  24.621  1.00  0.00     0.412 C 
ATOM     18  N   UNL A   1      35.748  18.247  24.706  1.00  0.00    -0.321 N 
ATOM     19  H   UNL A   1      36.580  17.764  24.500  1.00  0.00     0.167 HD
ATOM     20  O   UNL A   1      34.597  16.370  24.221  1.00  0.00    -0.224 OA
BRANCH  18  21
ATOM     21  C   UNL A   1      35.884  19.644  25.069  1.00  0.00     0.119 C 
BRANCH  21  22
ATOM     22  C   UNL A   1      37.210  20.242  24.603  1.00  0.00     0.021 C 
BRANCH  22  23
ATOM     23  C   UNL A   1      37.351  21.754  24.820  1.00  0.00     0.002 C 
BRANCH  23  24
ATOM     24  C   UNL A   1      36.609  22.644  23.817  1.00  0.00    -0.000 C 
BRANCH  24  25
ATOM     25  C   UNL A   1      35.839  23.822  24.420  1.00  0.00    -0.003 C 
ATOM     26  C   UNL A   1      35.001  23.440  25.630  1.00  0.00     0.004 C 
ENDBRANCH  24  25
ENDBRANCH  23  24
ENDBRANCH  22  23
ENDBRANCH  21  22
ENDBRANCH  18  21
ENDBRANCH  16  17
ENDBRANCH  11  16
ENDBRANCH   4  10
ENDBRANCH   1   3
BRANCH   1  27
ATOM     27  C   UNL A   1      32.461  27.661  25.068  1.00  0.00     0.313 C 
ATOM     28  O   UNL A   1      33.617  27.380  25.367  1.00  0.00    -0.252 OA
BRANCH  27  29
ATOM     29  O   UNL A   1      31.694  28.556  25.744  1.00  0.00    -0.462 OA
BRANCH  29  30
ATOM     30  C   UNL A   1      32.163  28.966  27.042  1.00  0.00     0.274 C 
BRANCH  30  31
ATOM     31  C   UNL A   1      32.623  30.427  27.029  1.00  0.00     0.275 C 
BRANCH  31  32
ATOM     32  O   UNL A   1      34.051  30.523  26.895  1.00  0.00    -0.458 OA
BRANCH  32  33
ATOM     33  C   UNL A   1      34.634  31.476  27.658  1.00  0.00     0.338 C 
ATOM     34  O   UNL A   1      34.222  32.603  27.874  1.00  0.00    -0.246 OA
BRANCH  33  35
ATOM     35  C   UNL A   1      35.813  30.915  28.332  1.00  0.00     0.060 A 
ATOM     36  C   UNL A   1      37.018  31.611  28.223  1.00  0.00     0.016 A 
ATOM     37  C   UNL A   1      35.758  29.687  28.990  1.00  0.00     0.016 A 
ATOM     38  C   UNL A   1      38.186  31.073  28.751  1.00  0.00     0.010 A 
ATOM     39  C   UNL A   1      36.930  29.153  29.536  1.00  0.00     0.010 A 
ATOM     40  C   UNL A   1      38.153  29.834  29.404  1.00  0.00    -0.014 A 
BRANCH  40  41
ATOM     41  C   UNL A   1      39.414  29.249  29.921  1.00  0.00     0.031 A 
ATOM     42  C   UNL A   1      40.038  29.793  31.174  1.00  0.00     0.074 A 
ATOM     43  C   UNL A   1      39.990  28.227  29.261  1.00  0.00     0.049 A 
ATOM     44  N   UNL A   1      41.146  29.431  31.765  1.00  0.00    -0.248 NA
ATOM     45  C   UNL A   1      39.324  30.888  31.849  1.00  0.00     0.031 C 
ATOM     46  C   UNL A   1      39.476  27.621  28.033  1.00  0.00     0.029 A 
ATOM     47  N   UNL A   1      41.140  27.528  29.526  1.00  0.00    -0.354 N 
ATOM     48  C   UNL A   1      41.286  30.276  32.859  1.00  0.00     0.074 A 
ATOM     49  C   UNL A   1      40.149  31.174  32.847  1.00  0.00     0.031 C 
ATOM     50  C   UNL A   1      40.314  26.648  27.643  1.00  0.00     0.029 A 
ATOM     51  C   UNL A   1      41.436  26.581  28.574  1.00  0.00     0.049 A 
ATOM     52  H   UNL A   1      41.699  27.689  30.320  1.00  0.00     0.167 HD
ATOM     53  C   UNL A   1      42.262  30.291  33.798  1.00  0.00     0.034 A 
ATOM     54  C   UNL A   1      42.501  25.763  28.456  1.00  0.00     0.034 A 
ATOM     55  C   UNL A   1      43.367  29.371  33.828  1.00  0.00     0.049 A 
ATOM     56  C   UNL A   1      43.567  25.795  29.517  1.00  0.00     0.074 A 
ATOM     57  C   UNL A   1      44.380  29.273  34.765  1.00  0.00     0.029 A 
ATOM     58  N   UNL A   1      43.608  28.391  32.876  1.00  0.00    -0.354 N 
ATOM     59  N   UNL A   1      43.626  26.524  30.606  1.00  0.00    -0.248 NA
ATOM     60  C   UNL A   1      44.698  24.870  29.353  1.00  0.00     0.031 C 
ATOM     61  C   UNL A   1      45.240  28.240  34.373  1.00  0.00     0.029 A 
ATOM     62  C   UNL A   1      44.756  27.687  33.199  1.00  0.00     0.049 A 
ATOM     63  H   UNL A   1      43.044  28.220  32.087  1.00  0.00     0.167 HD
ATOM     64  C   UNL A   1      44.783  26.131  31.268  1.00  0.00     0.074 A 
ATOM     65  C   UNL A   1      45.383  25.081  30.470  1.00  0.00     0.031 C 
ATOM     66  C   UNL A   1      45.311  26.608  32.422  1.00  0.00     0.034 A 
BRANCH  53  67
ATOM     67  C   UNL A   1      42.158  31.318  34.893  1.00  0.00     0.023 A 
ATOM     68  C   UNL A   1      41.356  31.049  36.022  1.00  0.00     0.012 A 
ATOM     69  C   UNL A   1      42.884  32.523  34.832  1.00  0.00     0.148 A 
ATOM     70  C   UNL A   1      41.255  31.978  37.057  1.00  0.00     0.002 A 
ATOM     71  C   UNL A   1      42.808  33.427  35.886  1.00  0.00     0.091 A 
ATOM     72  F   UNL A   1      43.620  32.773  33.740  1.00  0.00    -0.205 F 
ATOM     73  C   UNL A   1      41.988  33.160  36.994  1.00  0.00     0.022 A 
BRANCH  71  74
ATOM     74  S   UNL A   1      43.769  34.944  35.922  1.00  0.00     0.127 S 
ATOM     75  O   UNL A   1      43.044  35.777  34.964  1.00  0.00    -0.237 OA
ATOM     76  O   UNL A   1      43.637  35.365  37.317  1.00  0.00    -0.237 OA
ATOM     77  O   UNL A   1      45.121  34.566  35.533  1.00  0.00    -0.744 OA
ENDBRANCH  71  74
ENDBRANCH  53  67
BRANCH  54  78
ATOM     78  C   UNL A   1      42.576  24.814  27.312  1.00  0.00     0.023 A 
ATOM     79  C   UNL A   1      43.209  25.216  26.120  1.00  0.00     0.012 A 
ATOM     80  C   UNL A   1      42.075  23.501  27.414  1.00  0.00     0.148 A 
ATOM     81  C   UNL A   1      43.325  24.335  25.045  1.00  0.00     0.002 A 
ATOM     82  C   UNL A   1      42.242  22.612  26.361  1.00  0.00     0.091 A 
ATOM     83  F   UNL A   1      41.458  23.144  28.550  1.00  0.00    -0.205 F 
ATOM     84  C   UNL A   1      42.854  23.030  25.169  1.00  0.00     0.022 A 
BRANCH  82  85
ATOM     85  S   UNL A   1      41.788  20.878  26.486  1.00  0.00     0.127 S 
ATOM     86  O   UNL A   1      40.345  20.930  26.268  1.00  0.00    -0.237 OA
ATOM     87  O   UNL A   1      42.556  20.281  25.393  1.00  0.00    -0.237 OA
ATOM     88  O   UNL A   1      42.215  20.458  27.815  1.00  0.00    -0.744 OA
ENDBRANCH  82  85
ENDBRANCH  54  78
BRANCH  66  89
ATOM     89  C   UNL A   1      46.595  25.989  32.907  1.00  0.00     0.023 A 
ATOM     90  C   UNL A   1      47.827  26.567  32.540  1.00  0.00     0.012 A 
ATOM     91  C   UNL A   1      46.582  24.888  33.784  1.00  0.00     0.148 A 
ATOM     92  C   UNL A   1      49.026  26.041  33.017  1.00  0.00     0.002 A 
ATOM     93  C   UNL A   1      47.779  24.395  34.291  1.00  0.00     0.091 A 
ATOM     94  F   UNL A   1      45.401  24.338  34.105  1.00  0.00    -0.205 F 
ATOM     95  C   UNL A   1      49.003  24.964  33.901  1.00  0.00     0.022 A 
BRANCH  93  96
ATOM     96  S   UNL A   1      47.833  23.069  35.502  1.00  0.00     0.127 S 
ATOM     97  O   UNL A   1      47.184  23.692  36.656  1.00  0.00    -0.237 OA
ATOM     98  O   UNL A   1      47.047  22.018  34.854  1.00  0.00    -0.237 OA
ATOM     99  O   UNL A   1      49.244  22.745  35.673  1.00  0.00    -0.744 OA
ENDBRANCH  93  96
ENDBRANCH  66  89
ENDBRANCH  40  41
ENDBRANCH  33  35
ENDBRANCH  32  33
ENDBRANCH  31  32
ENDBRANCH  30  31
ENDBRANCH  29  30
ENDBRANCH  27  29
ENDBRANCH   1  27
TORSDOF 23
ENDMDL
MODEL 3
REMARK VINA RESULT:     -10.3      1.507      7.462
REMARK SMILES CCCCCCNC(=O)Oc1cccc(-c2ccc([C@@H](C)C(=O)OCCOC(=O)c3ccc(-c4c5nc(c(-c6cccc(S(=O)(=O)[O-])c6F)c6ccc([nH]6)c(-c6cccc(S(=O)(=O)[O-])c6F)c6nc(c(-c7cccc(S(=O)(=O)[O-])c7F)c7ccc4[nH]7)C=C6)C=C5)cc3)cc2F)c1
REMARK SMILES IDX 20 1 21 2 19 3 16 4 17 5 94 6 18 7 93 8 95 9 15 10 11 11
REMARK SMILES IDX 12 12 96 13 13 14 14 15 10 16 8 17 7 18 9 20 6 21 5 22 4 23
REMARK SMILES IDX 3 24 2 25 1 26 22 27 23 28 24 29 25 30 26 31 27 32 28 33
REMARK SMILES IDX 29 34 30 35 31 36 92 37 32 38 91 39 33 40 34 41 35 42 85 43
REMARK SMILES IDX 36 44 90 45 84 46 86 47 37 48 89 49 83 50 82 51 38 53 70 54
REMARK SMILES IDX 50 55 69 56 51 57 54 58 68 59 87 60 52 61 53 62 67 64 88 65
REMARK SMILES IDX 55 66 39 67 40 68 48 69 41 70 43 71 49 72 42 73 44 74 45 75
REMARK SMILES IDX 46 76 47 77 71 78 72 79 80 80 73 81 75 82 81 83 74 84 76 85
REMARK SMILES IDX 77 86 78 87 79 88 56 89 57 90 65 91 58 92 60 93 66 94 59 95
REMARK SMILES IDX 61 96 62 97 63 98 64 99
REMARK H PARENT 7 19 86 52 54 63
REMARK Flexibility Score: inf
ROOT
ATOM      1  C   UNL A   1      29.850  27.081  23.073  1.00  0.00     0.126 C 
ATOM      2  C   UNL A   1      28.641  26.677  23.916  1.00  0.00     0.025 C 
ENDROOT
BRANCH   1   3
ATOM      3  C   UNL A   1      31.120  26.357  23.496  1.00  0.00    -0.031 A 
ATOM      4  C   UNL A   1      33.465  24.954  24.302  1.00  0.00     0.018 A 
ATOM      5  C   UNL A   1      33.515  25.950  23.313  1.00  0.00     0.012 A 
ATOM      6  C   UNL A   1      32.218  24.678  24.874  1.00  0.00     0.131 A 
ATOM      7  C   UNL A   1      32.365  26.642  22.919  1.00  0.00     0.005 A 
ATOM      8  C   UNL A   1      31.066  25.366  24.487  1.00  0.00     0.044 A 
ATOM      9  F   UNL A   1      32.106  23.753  25.839  1.00  0.00    -0.206 F 
BRANCH   4  10
ATOM     10  C   UNL A   1      34.689  24.251  24.718  1.00  0.00    -0.012 A 
ATOM     11  C   UNL A   1      36.314  22.468  24.454  1.00  0.00     0.133 A 
ATOM     12  C   UNL A   1      37.051  22.940  25.538  1.00  0.00     0.047 A 
ATOM     13  C   UNL A   1      35.134  23.098  24.052  1.00  0.00     0.056 A 
ATOM     14  C   UNL A   1      36.617  24.077  26.214  1.00  0.00     0.004 A 
ATOM     15  C   UNL A   1      35.449  24.725  25.805  1.00  0.00     0.009 A 
BRANCH  11  16
ATOM     16  O   UNL A   1      36.754  21.275  23.861  1.00  0.00    -0.410 OA
BRANCH  16  17
ATOM     17  C   UNL A   1      37.077  20.223  24.705  1.00  0.00     0.412 C 
ATOM     18  N   UNL A   1      35.979  19.546  25.164  1.00  0.00    -0.321 N 
ATOM     19  H   UNL A   1      36.153  18.761  25.732  1.00  0.00     0.167 HD
ATOM     20  O   UNL A   1      38.203  19.904  25.065  1.00  0.00    -0.224 OA
BRANCH  18  21
ATOM     21  C   UNL A   1      34.588  19.861  24.905  1.00  0.00     0.119 C 
BRANCH  21  22
ATOM     22  C   UNL A   1      33.916  18.834  23.996  1.00  0.00     0.021 C 
BRANCH  22  23
ATOM     23  C   UNL A   1      34.419  17.394  24.161  1.00  0.00     0.002 C 
BRANCH  23  24
ATOM     24  C   UNL A   1      34.055  16.708  25.483  1.00  0.00    -0.000 C 
BRANCH  24  25
ATOM     25  C   UNL A   1      32.612  16.209  25.594  1.00  0.00    -0.003 C 
ATOM     26  C   UNL A   1      32.490  14.694  25.531  1.00  0.00     0.004 C 
ENDBRANCH  24  25
ENDBRANCH  23  24
ENDBRANCH  22  23
ENDBRANCH  21  22
ENDBRANCH  18  21
ENDBRANCH  16  17
ENDBRANCH  11  16
ENDBRANCH   4  10
ENDBRANCH   1   3
BRANCH   1  27
ATOM     27  C   UNL A   1      29.940  28.603  22.998  1.00  0.00     0.313 C 
ATOM     28  O   UNL A   1      29.903  29.204  21.929  1.00  0.00    -0.252 OA
BRANCH  27  29
ATOM     29  O   UNL A   1      30.005  29.210  24.212  1.00  0.00    -0.462 OA
BRANCH  29  30
ATOM     30  C   UNL A   1      31.124  30.087  24.443  1.00  0.00     0.274 C 
BRANCH  30  31
ATOM     31  C   UNL A   1      31.710  29.882  25.842  1.00  0.00     0.275 C 
BRANCH  31  32
ATOM     32  O   UNL A   1      33.087  30.294  25.897  1.00  0.00    -0.458 OA
BRANCH  32  33
ATOM     33  C   UNL A   1      33.377  31.185  26.874  1.00  0.00     0.338 C 
ATOM     34  O   UNL A   1      32.667  32.083  27.289  1.00  0.00    -0.246 OA
BRANCH  33  35
ATOM     35  C   UNL A   1      34.665  30.836  27.491  1.00  0.00     0.060 A 
ATOM     36  C   UNL A   1      34.936  29.485  27.714  1.00  0.00     0.016 A 
ATOM     37  C   UNL A   1      35.555  31.820  27.920  1.00  0.00     0.016 A 
ATOM     38  C   UNL A   1      36.090  29.106  28.390  1.00  0.00     0.010 A 
ATOM     39  C   UNL A   1      36.724  31.437  28.585  1.00  0.00     0.010 A 
ATOM     40  C   UNL A   1      36.989  30.080  28.839  1.00  0.00    -0.014 A 
BRANCH  40  41
ATOM     41  C   UNL A   1      38.193  29.666  29.600  1.00  0.00     0.031 A 
ATOM     42  C   UNL A   1      38.416  30.176  30.994  1.00  0.00     0.074 A 
ATOM     43  C   UNL A   1      39.080  28.827  29.032  1.00  0.00     0.049 A 
ATOM     44  N   UNL A   1      39.415  29.948  31.804  1.00  0.00    -0.248 NA
ATOM     45  C   UNL A   1      37.380  31.062  31.549  1.00  0.00     0.031 C 
ATOM     46  C   UNL A   1      38.969  28.270  27.684  1.00  0.00     0.029 A 
ATOM     47  N   UNL A   1      40.254  28.308  29.515  1.00  0.00    -0.354 N 
ATOM     48  C   UNL A   1      39.153  30.689  32.949  1.00  0.00     0.074 A 
ATOM     49  C   UNL A   1      37.899  31.380  32.727  1.00  0.00     0.031 C 
ATOM     50  C   UNL A   1      40.038  27.497  27.441  1.00  0.00     0.029 A 
ATOM     51  C   UNL A   1      40.922  27.525  28.603  1.00  0.00     0.049 A 
ATOM     52  H   UNL A   1      40.586  28.479  30.425  1.00  0.00     0.167 HD
ATOM     53  C   UNL A   1      39.880  30.773  34.089  1.00  0.00     0.034 A 
ATOM     54  C   UNL A   1      42.120  26.914  28.688  1.00  0.00     0.034 A 
ATOM     55  C   UNL A   1      41.104  30.053  34.321  1.00  0.00     0.049 A 
ATOM     56  C   UNL A   1      42.904  27.017  29.968  1.00  0.00     0.074 A 
ATOM     57  C   UNL A   1      41.887  30.032  35.461  1.00  0.00     0.029 A 
ATOM     58  N   UNL A   1      41.725  29.229  33.394  1.00  0.00    -0.354 N 
ATOM     59  N   UNL A   1      42.587  27.631  31.082  1.00  0.00    -0.248 NA
ATOM     60  C   UNL A   1      44.195  26.317  30.016  1.00  0.00     0.031 C 
ATOM     61  C   UNL A   1      42.990  29.204  35.218  1.00  0.00     0.029 A 
ATOM     62  C   UNL A   1      42.885  28.699  33.933  1.00  0.00     0.049 A 
ATOM     63  H   UNL A   1      41.389  29.046  32.486  1.00  0.00     0.167 HD
ATOM     64  C   UNL A   1      43.623  27.373  31.971  1.00  0.00     0.074 A 
ATOM     65  C   UNL A   1      44.568  26.525  31.272  1.00  0.00     0.031 C 
ATOM     66  C   UNL A   1      43.788  27.813  33.242  1.00  0.00     0.034 A 
BRANCH  53  67
ATOM     67  C   UNL A   1      39.349  31.651  35.190  1.00  0.00     0.023 A 
ATOM     68  C   UNL A   1      38.440  31.117  36.127  1.00  0.00     0.012 A 
ATOM     69  C   UNL A   1      39.781  32.985  35.328  1.00  0.00     0.148 A 
ATOM     70  C   UNL A   1      37.945  31.907  37.165  1.00  0.00     0.002 A 
ATOM     71  C   UNL A   1      39.312  33.754  36.388  1.00  0.00     0.091 A 
ATOM     72  F   UNL A   1      40.625  33.484  34.414  1.00  0.00    -0.205 F 
ATOM     73  C   UNL A   1      38.389  33.219  37.301  1.00  0.00     0.022 A 
BRANCH  71  74
ATOM     74  S   UNL A   1      39.880  35.432  36.682  1.00  0.00     0.127 S 
ATOM     75  O   UNL A   1      39.213  35.755  37.942  1.00  0.00    -0.237 OA
ATOM     76  O   UNL A   1      41.329  35.257  36.789  1.00  0.00    -0.237 OA
ATOM     77  O   UNL A   1      39.451  36.204  35.524  1.00  0.00    -0.744 OA
ENDBRANCH  71  74
ENDBRANCH  53  67
BRANCH  54  78
ATOM     78  C   UNL A   1      42.619  26.112  27.538  1.00  0.00     0.023 A 
ATOM     79  C   UNL A   1      43.559  26.678  26.655  1.00  0.00     0.012 A 
ATOM     80  C   UNL A   1      42.212  24.777  27.343  1.00  0.00     0.148 A 
ATOM     81  C   UNL A   1      44.070  25.937  25.589  1.00  0.00     0.002 A 
ATOM     82  C   UNL A   1      42.766  24.027  26.313  1.00  0.00     0.091 A 
ATOM     83  F   UNL A   1      41.301  24.263  28.182  1.00  0.00    -0.205 F 
ATOM     84  C   UNL A   1      43.685  24.608  25.426  1.00  0.00     0.022 A 
BRANCH  82  85
ATOM     85  S   UNL A   1      42.428  22.274  26.113  1.00  0.00     0.127 S 
ATOM     86  O   UNL A   1      40.980  22.268  25.925  1.00  0.00    -0.237 OA
ATOM     87  O   UNL A   1      43.206  21.946  24.919  1.00  0.00    -0.237 OA
ATOM     88  O   UNL A   1      42.912  21.642  27.334  1.00  0.00    -0.744 OA
ENDBRANCH  82  85
ENDBRANCH  54  78
BRANCH  66  89
ATOM     89  C   UNL A   1      45.027  27.373  33.976  1.00  0.00     0.023 A 
ATOM     90  C   UNL A   1      46.212  28.126  33.853  1.00  0.00     0.012 A 
ATOM     91  C   UNL A   1      45.001  26.263  34.842  1.00  0.00     0.148 A 
ATOM     92  C   UNL A   1      47.357  27.766  34.561  1.00  0.00     0.002 A 
ATOM     93  C   UNL A   1      46.134  25.935  35.578  1.00  0.00     0.091 A 
ATOM     94  F   UNL A   1      43.871  25.544  34.929  1.00  0.00    -0.205 F 
ATOM     95  C   UNL A   1      47.316  26.679  35.431  1.00  0.00     0.022 A 
BRANCH  93  96
ATOM     96  S   UNL A   1      46.139  24.606  36.787  1.00  0.00     0.127 S 
ATOM     97  O   UNL A   1      45.178  23.668  36.205  1.00  0.00    -0.237 OA
ATOM     98  O   UNL A   1      47.531  24.153  36.751  1.00  0.00    -0.237 OA
ATOM     99  O   UNL A   1      45.739  25.216  38.048  1.00  0.00    -0.744 OA
ENDBRANCH  93  96
ENDBRANCH  66  89
ENDBRANCH  40  41
ENDBRANCH  33  35
ENDBRANCH  32  33
ENDBRANCH  31  32
ENDBRANCH  30  31
ENDBRANCH  29  30
ENDBRANCH  27  29
ENDBRANCH   1  27
TORSDOF 23
ENDMDL
