MODEL 1
REMARK VINA RESULT:     -11.3      0.000      0.000
REMARK SMILES C=CCc1cccc(-c2ccc([C@@H](C)C(=O)OCCOC(=O)c3ccc(-c4c5nc(c(-c6cccc(S(=O)(=O)[O-])c6F)c6ccc([nH]6)c(-c6cccc(S(=O)(=O)[O-])c6F)c6nc(c(-c7cccc(S(=O)(=O)[O-])c7F)c7ccc4[nH]7)C=C6)C=C5)cc3)cc2)c1
REMARK SMILES IDX 18 1 17 2 15 3 16 4 13 5 14 6 12 7 9 8 10 9 87 10 11 11
REMARK SMILES IDX 86 12 8 13 4 14 5 15 88 16 6 17 7 18 3 19 2 20 1 21 19 22
REMARK SMILES IDX 20 23 21 24 22 25 23 26 24 27 85 28 25 29 84 30 26 31 27 32
REMARK SMILES IDX 28 33 78 34 29 35 83 36 77 37 79 38 30 39 82 40 76 41 75 42
REMARK SMILES IDX 31 44 63 45 43 46 62 47 44 48 47 49 61 50 80 51 45 52 46 53
REMARK SMILES IDX 60 55 81 56 48 57 32 58 33 59 41 60 34 61 36 62 42 63 35 64
REMARK SMILES IDX 37 65 38 66 39 67 40 68 64 69 65 70 73 71 66 72 68 73 74 74
REMARK SMILES IDX 67 75 69 76 70 77 71 78 72 79 49 80 50 81 58 82 51 83 53 84
REMARK SMILES IDX 59 85 52 86 54 87 55 88 56 89 57 90
REMARK H PARENT 79 43 47 54
REMARK Flexibility Score: inf
ROOT
ATOM      1  C   UNL A   1      32.148  30.056  25.633  1.00  0.00     0.274 C 
ENDROOT
BRANCH   1   2
ATOM      2  O   UNL A   1      31.104  29.470  24.832  1.00  0.00    -0.462 OA
BRANCH   2   3
ATOM      3  C   UNL A   1      31.449  28.399  24.069  1.00  0.00     0.313 C 
ATOM      4  O   UNL A   1      30.643  27.602  23.598  1.00  0.00    -0.252 OA
BRANCH   3   5
ATOM      5  C   UNL A   1      32.952  28.220  23.899  1.00  0.00     0.126 C 
ATOM      6  C   UNL A   1      33.393  28.820  22.566  1.00  0.00     0.025 C 
BRANCH   5   7
ATOM      7  C   UNL A   1      33.487  26.810  24.109  1.00  0.00    -0.034 A 
ATOM      8  C   UNL A   1      34.471  24.164  24.442  1.00  0.00    -0.018 A 
ATOM      9  C   UNL A   1      34.329  25.028  25.538  1.00  0.00     0.009 A 
ATOM     10  C   UNL A   1      34.117  24.647  23.177  1.00  0.00     0.009 A 
ATOM     11  C   UNL A   1      33.844  26.331  25.376  1.00  0.00     0.005 A 
ATOM     12  C   UNL A   1      33.627  25.946  23.012  1.00  0.00     0.005 A 
BRANCH   8  13
ATOM     13  C   UNL A   1      34.953  22.785  24.619  1.00  0.00    -0.018 A 
ATOM     14  C   UNL A   1      34.516  20.387  24.877  1.00  0.00    -0.044 A 
ATOM     15  C   UNL A   1      35.893  20.158  25.002  1.00  0.00     0.004 A 
ATOM     16  C   UNL A   1      34.059  21.701  24.686  1.00  0.00     0.012 A 
ATOM     17  C   UNL A   1      36.793  21.219  24.933  1.00  0.00     0.001 A 
ATOM     18  C   UNL A   1      36.326  22.520  24.744  1.00  0.00     0.009 A 
BRANCH  14  19
ATOM     19  C   UNL A   1      33.543  19.233  24.956  1.00  0.00     0.062 C 
BRANCH  19  20
ATOM     20  C   UNL A   1      32.929  18.908  23.622  1.00  0.00    -0.030 C 
ATOM     21  C   UNL A   1      32.661  17.666  23.194  1.00  0.00     0.004 C 
ENDBRANCH  19  20
ENDBRANCH  14  19
ENDBRANCH   8  13
ENDBRANCH   5   7
ENDBRANCH   3   5
ENDBRANCH   2   3
ENDBRANCH   1   2
BRANCH   1  22
ATOM     22  C   UNL A   1      31.710  31.400  26.216  1.00  0.00     0.275 C 
BRANCH  22  23
ATOM     23  O   UNL A   1      32.319  31.631  27.498  1.00  0.00    -0.458 OA
BRANCH  23  24
ATOM     24  C   UNL A   1      33.285  32.578  27.510  1.00  0.00     0.338 C 
ATOM     25  O   UNL A   1      33.169  33.760  27.242  1.00  0.00    -0.246 OA
BRANCH  24  26
ATOM     26  C   UNL A   1      34.537  31.992  28.005  1.00  0.00     0.060 A 
ATOM     27  C   UNL A   1      34.528  30.652  28.397  1.00  0.00     0.016 A 
ATOM     28  C   UNL A   1      35.676  32.778  28.178  1.00  0.00     0.016 A 
ATOM     29  C   UNL A   1      35.651  30.094  29.001  1.00  0.00     0.010 A 
ATOM     30  C   UNL A   1      36.809  32.212  28.769  1.00  0.00     0.010 A 
ATOM     31  C   UNL A   1      36.794  30.876  29.207  1.00  0.00    -0.014 A 
BRANCH  31  32
ATOM     32  C   UNL A   1      37.953  30.305  29.932  1.00  0.00     0.031 A 
ATOM     33  C   UNL A   1      38.231  30.721  31.348  1.00  0.00     0.074 A 
ATOM     34  C   UNL A   1      38.760  29.423  29.315  1.00  0.00     0.049 A 
ATOM     35  N   UNL A   1      39.215  30.369  32.134  1.00  0.00    -0.248 NA
ATOM     36  C   UNL A   1      37.281  31.666  31.957  1.00  0.00     0.031 C 
ATOM     37  C   UNL A   1      38.598  28.954  27.938  1.00  0.00     0.029 A 
ATOM     38  N   UNL A   1      39.891  28.785  29.758  1.00  0.00    -0.354 N 
ATOM     39  C   UNL A   1      39.030  31.079  33.314  1.00  0.00     0.074 A 
ATOM     40  C   UNL A   1      37.839  31.885  33.140  1.00  0.00     0.031 C 
ATOM     41  C   UNL A   1      39.605  28.117  27.642  1.00  0.00     0.029 A 
ATOM     42  C   UNL A   1      40.496  28.013  28.795  1.00  0.00     0.049 A 
ATOM     43  H   UNL A   1      40.235  28.871  30.675  1.00  0.00     0.167 HD
ATOM     44  C   UNL A   1      39.773  31.050  34.444  1.00  0.00     0.034 A 
ATOM     45  C   UNL A   1      41.649  27.316  28.830  1.00  0.00     0.034 A 
ATOM     46  C   UNL A   1      40.929  30.215  34.631  1.00  0.00     0.049 A 
ATOM     47  C   UNL A   1      42.444  27.280  30.107  1.00  0.00     0.074 A 
ATOM     48  C   UNL A   1      41.709  30.063  35.763  1.00  0.00     0.029 A 
ATOM     49  N   UNL A   1      41.476  29.392  33.656  1.00  0.00    -0.354 N 
ATOM     50  N   UNL A   1      42.186  27.856  31.256  1.00  0.00    -0.248 NA
ATOM     51  C   UNL A   1      43.674  26.474  30.102  1.00  0.00     0.031 C 
ATOM     52  C   UNL A   1      42.734  29.156  35.470  1.00  0.00     0.029 A 
ATOM     53  C   UNL A   1      42.587  28.736  34.157  1.00  0.00     0.049 A 
ATOM     54  H   UNL A   1      41.124  29.290  32.742  1.00  0.00     0.167 HD
ATOM     55  C   UNL A   1      43.204  27.466  32.118  1.00  0.00     0.074 A 
ATOM     56  C   UNL A   1      44.072  26.583  31.364  1.00  0.00     0.031 C 
ATOM     57  C   UNL A   1      43.412  27.821  33.410  1.00  0.00     0.034 A 
BRANCH  44  58
ATOM     58  C   UNL A   1      39.333  31.927  35.585  1.00  0.00     0.023 A 
ATOM     59  C   UNL A   1      38.459  31.411  36.562  1.00  0.00     0.012 A 
ATOM     60  C   UNL A   1      39.805  33.248  35.709  1.00  0.00     0.148 A 
ATOM     61  C   UNL A   1      38.037  32.204  37.628  1.00  0.00     0.002 A 
ATOM     62  C   UNL A   1      39.409  34.021  36.795  1.00  0.00     0.091 A 
ATOM     63  F   UNL A   1      40.611  33.734  34.754  1.00  0.00    -0.205 F 
ATOM     64  C   UNL A   1      38.518  33.504  37.750  1.00  0.00     0.022 A 
BRANCH  62  65
ATOM     65  S   UNL A   1      40.035  35.684  37.057  1.00  0.00     0.127 S 
ATOM     66  O   UNL A   1      39.364  36.063  38.299  1.00  0.00    -0.237 OA
ATOM     67  O   UNL A   1      41.476  35.463  37.188  1.00  0.00    -0.237 OA
ATOM     68  O   UNL A   1      39.651  36.437  35.871  1.00  0.00    -0.744 OA
ENDBRANCH  62  65
ENDBRANCH  44  58
BRANCH  45  69
ATOM     69  C   UNL A   1      42.081  26.557  27.624  1.00  0.00     0.023 A 
ATOM     70  C   UNL A   1      42.845  27.203  26.637  1.00  0.00     0.012 A 
ATOM     71  C   UNL A   1      41.796  25.184  27.488  1.00  0.00     0.148 A 
ATOM     72  C   UNL A   1      43.310  26.500  25.525  1.00  0.00     0.002 A 
ATOM     73  C   UNL A   1      42.308  24.477  26.407  1.00  0.00     0.091 A 
ATOM     74  F   UNL A   1      41.051  24.592  28.433  1.00  0.00    -0.205 F 
ATOM     75  C   UNL A   1      43.053  25.135  25.416  1.00  0.00     0.022 A 
BRANCH  73  76
ATOM     76  S   UNL A   1      42.141  22.694  26.258  1.00  0.00     0.127 S 
ATOM     77  O   UNL A   1      42.808  22.436  24.984  1.00  0.00    -0.237 OA
ATOM     78  O   UNL A   1      42.866  22.222  27.439  1.00  0.00    -0.237 OA
ATOM     79  O   UNL A   1      40.709  22.429  26.288  1.00  0.00    -0.744 OA
ENDBRANCH  73  76
ENDBRANCH  45  69
BRANCH  57  80
ATOM     80  C   UNL A   1      44.622  27.252  34.103  1.00  0.00     0.023 A 
ATOM     81  C   UNL A   1      45.834  27.969  34.080  1.00  0.00     0.012 A 
ATOM     82  C   UNL A   1      44.540  26.053  34.838  1.00  0.00     0.148 A 
ATOM     83  C   UNL A   1      46.954  27.489  34.760  1.00  0.00     0.002 A 
ATOM     84  C   UNL A   1      45.649  25.602  35.546  1.00  0.00     0.091 A 
ATOM     85  F   UNL A   1      43.385  25.371  34.829  1.00  0.00    -0.205 F 
ATOM     86  C   UNL A   1      46.859  26.314  35.501  1.00  0.00     0.022 A 
BRANCH  84  87
ATOM     87  S   UNL A   1      45.580  24.145  36.596  1.00  0.00     0.127 S 
ATOM     88  O   UNL A   1      45.303  23.089  35.625  1.00  0.00    -0.237 OA
ATOM     89  O   UNL A   1      46.924  24.106  37.174  1.00  0.00    -0.237 OA
ATOM     90  O   UNL A   1      44.522  24.408  37.563  1.00  0.00    -0.744 OA
ENDBRANCH  84  87
ENDBRANCH  57  80
ENDBRANCH  31  32
ENDBRANCH  24  26
ENDBRANCH  23  24
ENDBRANCH  22  23
ENDBRANCH   1  22
TORSDOF 18
ENDMDL
MODEL 2
REMARK VINA RESULT:     -11.0      5.493     11.546
REMARK SMILES C=CCc1cccc(-c2ccc([C@@H](C)C(=O)OCCOC(=O)c3ccc(-c4c5nc(c(-c6cccc(S(=O)(=O)[O-])c6F)c6ccc([nH]6)c(-c6cccc(S(=O)(=O)[O-])c6F)c6nc(c(-c7cccc(S(=O)(=O)[O-])c7F)c7ccc4[nH]7)C=C6)C=C5)cc3)cc2)c1
REMARK SMILES IDX 18 1 17 2 15 3 16 4 13 5 14 6 12 7 9 8 10 9 87 10 11 11
REMARK SMILES IDX 86 12 8 13 4 14 5 15 88 16 6 17 7 18 3 19 2 20 1 21 19 22
REMARK SMILES IDX 20 23 21 24 22 25 23 26 24 27 85 28 25 29 84 30 26 31 27 32
REMARK SMILES IDX 28 33 78 34 29 35 83 36 77 37 79 38 30 39 82 40 76 41 75 42
REMARK SMILES IDX 31 44 63 45 43 46 62 47 44 48 47 49 61 50 80 51 45 52 46 53
REMARK SMILES IDX 60 55 81 56 48 57 32 58 33 59 41 60 34 61 36 62 42 63 35 64
REMARK SMILES IDX 37 65 38 66 39 67 40 68 64 69 65 70 73 71 66 72 68 73 74 74
REMARK SMILES IDX 67 75 69 76 70 77 71 78 72 79 49 80 50 81 58 82 51 83 53 84
REMARK SMILES IDX 59 85 52 86 54 87 55 88 56 89 57 90
REMARK H PARENT 79 43 47 54
REMARK Flexibility Score: inf
ROOT
ATOM      1  C   UNL A   1      43.471  19.727  25.656  1.00  0.00     0.274 C 
ENDROOT
BRANCH   1   2
ATOM      2  O   UNL A   1      43.385  21.006  24.999  1.00  0.00    -0.462 OA
BRANCH   2   3
ATOM      3  C   UNL A   1      44.174  21.998  25.491  1.00  0.00     0.313 C 
ATOM      4  O   UNL A   1      44.510  22.091  26.668  1.00  0.00    -0.252 OA
BRANCH   3   5
ATOM      5  C   UNL A   1      44.558  23.050  24.458  1.00  0.00     0.126 C 
ATOM      6  C   UNL A   1      45.882  22.665  23.801  1.00  0.00     0.025 C 
BRANCH   5   7
ATOM      7  C   UNL A   1      44.543  24.495  24.936  1.00  0.00    -0.034 A 
ATOM      8  C   UNL A   1      44.577  27.190  25.840  1.00  0.00    -0.018 A 
ATOM      9  C   UNL A   1      43.370  26.538  25.547  1.00  0.00     0.009 A 
ATOM     10  C   UNL A   1      45.767  26.473  25.669  1.00  0.00     0.009 A 
ATOM     11  C   UNL A   1      43.351  25.211  25.102  1.00  0.00     0.005 A 
ATOM     12  C   UNL A   1      45.752  25.146  25.230  1.00  0.00     0.005 A 
BRANCH   8  13
ATOM     13  C   UNL A   1      44.592  28.575  26.337  1.00  0.00    -0.018 A 
ATOM     14  C   UNL A   1      45.808  30.623  26.917  1.00  0.00    -0.044 A 
ATOM     15  C   UNL A   1      44.605  31.210  27.331  1.00  0.00     0.004 A 
ATOM     16  C   UNL A   1      45.789  29.308  26.422  1.00  0.00     0.012 A 
ATOM     17  C   UNL A   1      43.409  30.500  27.249  1.00  0.00     0.001 A 
ATOM     18  C   UNL A   1      43.404  29.195  26.757  1.00  0.00     0.009 A 
BRANCH  14  19
ATOM     19  C   UNL A   1      47.104  31.396  27.010  1.00  0.00     0.062 C 
BRANCH  19  20
ATOM     20  C   UNL A   1      48.299  30.497  27.173  1.00  0.00    -0.030 C 
ATOM     21  C   UNL A   1      49.428  30.845  27.804  1.00  0.00     0.004 C 
ENDBRANCH  19  20
ENDBRANCH  14  19
ENDBRANCH   8  13
ENDBRANCH   5   7
ENDBRANCH   3   5
ENDBRANCH   2   3
ENDBRANCH   1   2
BRANCH   1  22
ATOM     22  C   UNL A   1      42.093  19.078  25.786  1.00  0.00     0.275 C 
BRANCH  22  23
ATOM     23  O   UNL A   1      41.361  19.635  26.891  1.00  0.00    -0.458 OA
BRANCH  23  24
ATOM     24  C   UNL A   1      40.438  20.564  26.556  1.00  0.00     0.338 C 
ATOM     25  O   UNL A   1      39.443  20.408  25.871  1.00  0.00    -0.246 OA
BRANCH  24  26
ATOM     26  C   UNL A   1      40.748  21.830  27.234  1.00  0.00     0.060 A 
ATOM     27  C   UNL A   1      40.296  23.017  26.655  1.00  0.00     0.016 A 
ATOM     28  C   UNL A   1      41.560  21.853  28.368  1.00  0.00     0.016 A 
ATOM     29  C   UNL A   1      40.684  24.244  27.185  1.00  0.00     0.010 A 
ATOM     30  C   UNL A   1      41.935  23.086  28.910  1.00  0.00     0.010 A 
ATOM     31  C   UNL A   1      41.521  24.287  28.307  1.00  0.00    -0.014 A 
BRANCH  31  32
ATOM     32  C   UNL A   1      42.005  25.593  28.812  1.00  0.00     0.031 A 
ATOM     33  C   UNL A   1      43.478  25.834  28.974  1.00  0.00     0.074 A 
ATOM     34  C   UNL A   1      41.121  26.554  29.136  1.00  0.00     0.049 A 
ATOM     35  N   UNL A   1      44.095  26.889  29.438  1.00  0.00    -0.248 NA
ATOM     36  C   UNL A   1      44.376  24.740  28.568  1.00  0.00     0.031 C 
ATOM     37  C   UNL A   1      39.667  26.430  29.033  1.00  0.00     0.029 A 
ATOM     38  N   UNL A   1      41.318  27.815  29.639  1.00  0.00    -0.354 N 
ATOM     39  C   UNL A   1      45.449  26.574  29.422  1.00  0.00     0.074 A 
ATOM     40  C   UNL A   1      45.563  25.227  28.903  1.00  0.00     0.031 C 
ATOM     41  C   UNL A   1      39.100  27.562  29.480  1.00  0.00     0.029 A 
ATOM     42  C   UNL A   1      40.148  28.478  29.924  1.00  0.00     0.049 A 
ATOM     43  H   UNL A   1      42.209  28.207  29.782  1.00  0.00     0.167 HD
ATOM     44  C   UNL A   1      46.500  27.342  29.790  1.00  0.00     0.034 A 
ATOM     45  C   UNL A   1      39.942  29.680  30.498  1.00  0.00     0.034 A 
ATOM     46  C   UNL A   1      46.387  28.695  30.262  1.00  0.00     0.049 A 
ATOM     47  C   UNL A   1      41.129  30.525  30.875  1.00  0.00     0.074 A 
ATOM     48  C   UNL A   1      47.398  29.580  30.595  1.00  0.00     0.029 A 
ATOM     49  N   UNL A   1      45.189  29.362  30.475  1.00  0.00    -0.354 N 
ATOM     50  N   UNL A   1      42.406  30.263  30.734  1.00  0.00    -0.248 NA
ATOM     51  C   UNL A   1      40.848  31.843  31.462  1.00  0.00     0.031 C 
ATOM     52  C   UNL A   1      46.811  30.777  31.018  1.00  0.00     0.029 A 
ATOM     53  C   UNL A   1      45.434  30.642  30.942  1.00  0.00     0.049 A 
ATOM     54  H   UNL A   1      44.296  28.979  30.316  1.00  0.00     0.167 HD
ATOM     55  C   UNL A   1      43.081  31.389  31.191  1.00  0.00     0.074 A 
ATOM     56  C   UNL A   1      42.070  32.346  31.592  1.00  0.00     0.031 C 
ATOM     57  C   UNL A   1      44.416  31.602  31.289  1.00  0.00     0.034 A 
BRANCH  44  58
ATOM     58  C   UNL A   1      47.874  26.742  29.660  1.00  0.00     0.023 A 
ATOM     59  C   UNL A   1      48.464  26.108  30.772  1.00  0.00     0.012 A 
ATOM     60  C   UNL A   1      48.567  26.773  28.435  1.00  0.00     0.148 A 
ATOM     61  C   UNL A   1      49.735  25.544  30.677  1.00  0.00     0.002 A 
ATOM     62  C   UNL A   1      49.820  26.177  28.338  1.00  0.00     0.091 A 
ATOM     63  F   UNL A   1      48.005  27.406  27.395  1.00  0.00    -0.205 F 
ATOM     64  C   UNL A   1      50.408  25.570  29.459  1.00  0.00     0.022 A 
BRANCH  62  65
ATOM     65  S   UNL A   1      50.723  26.111  26.787  1.00  0.00     0.127 S 
ATOM     66  O   UNL A   1      49.637  26.007  25.813  1.00  0.00    -0.237 OA
ATOM     67  O   UNL A   1      51.428  27.393  26.776  1.00  0.00    -0.237 OA
ATOM     68  O   UNL A   1      51.595  24.949  26.893  1.00  0.00    -0.744 OA
ENDBRANCH  62  65
ENDBRANCH  44  58
BRANCH  45  69
ATOM     69  C   UNL A   1      38.549  30.165  30.696  1.00  0.00     0.023 A 
ATOM     70  C   UNL A   1      37.887  29.893  31.907  1.00  0.00     0.012 A 
ATOM     71  C   UNL A   1      37.906  30.952  29.720  1.00  0.00     0.148 A 
ATOM     72  C   UNL A   1      36.602  30.385  32.140  1.00  0.00     0.002 A 
ATOM     73  C   UNL A   1      36.649  31.484  29.980  1.00  0.00     0.091 A 
ATOM     74  F   UNL A   1      38.548  31.184  28.566  1.00  0.00    -0.205 F 
ATOM     75  C   UNL A   1      35.988  31.191  31.184  1.00  0.00     0.022 A 
BRANCH  73  76
ATOM     76  S   UNL A   1      35.844  32.640  28.864  1.00  0.00     0.127 S 
ATOM     77  O   UNL A   1      34.636  32.985  29.611  1.00  0.00    -0.237 OA
ATOM     78  O   UNL A   1      36.836  33.712  28.771  1.00  0.00    -0.237 OA
ATOM     79  O   UNL A   1      35.634  31.907  27.623  1.00  0.00    -0.744 OA
ENDBRANCH  73  76
ENDBRANCH  45  69
BRANCH  57  80
ATOM     80  C   UNL A   1      44.871  32.926  31.843  1.00  0.00     0.023 A 
ATOM     81  C   UNL A   1      45.114  33.052  33.225  1.00  0.00     0.012 A 
ATOM     82  C   UNL A   1      45.132  34.018  30.992  1.00  0.00     0.148 A 
ATOM     83  C   UNL A   1      45.588  34.252  33.755  1.00  0.00     0.002 A 
ATOM     84  C   UNL A   1      45.643  35.198  31.523  1.00  0.00     0.091 A 
ATOM     85  F   UNL A   1      44.873  33.889  29.683  1.00  0.00    -0.205 F 
ATOM     86  C   UNL A   1      45.863  35.319  32.905  1.00  0.00     0.022 A 
BRANCH  84  87
ATOM     87  S   UNL A   1      46.106  36.587  30.482  1.00  0.00     0.127 S 
ATOM     88  O   UNL A   1      45.747  37.727  31.322  1.00  0.00    -0.237 OA
ATOM     89  O   UNL A   1      47.546  36.388  30.308  1.00  0.00    -0.237 OA
ATOM     90  O   UNL A   1      45.332  36.435  29.257  1.00  0.00    -0.744 OA
ENDBRANCH  84  87
ENDBRANCH  57  80
ENDBRANCH  31  32
ENDBRANCH  24  26
ENDBRANCH  23  24
ENDBRANCH  22  23
ENDBRANCH   1  22
TORSDOF 18
ENDMDL
MODEL 3
REMARK VINA RESULT:     -10.8      6.248     11.651
REMARK SMILES C=CCc1cccc(-c2ccc([C@@H](C)C(=O)OCCOC(=O)c3ccc(-c4c5nc(c(-c6cccc(S(=O)(=O)[O-])c6F)c6ccc([nH]6)c(-c6cccc(S(=O)(=O)[O-])c6F)c6nc(c(-c7cccc(S(=O)(=O)[O-])c7F)c7ccc4[nH]7)C=C6)C=C5)cc3)cc2)c1
REMARK SMILES IDX 18 1 17 2 15 3 16 4 13 5 14 6 12 7 9 8 10 9 87 10 11 11
REMARK SMILES IDX 86 12 8 13 4 14 5 15 88 16 6 17 7 18 3 19 2 20 1 21 19 22
REMARK SMILES IDX 20 23 21 24 22 25 23 26 24 27 85 28 25 29 84 30 26 31 27 32
REMARK SMILES IDX 28 33 78 34 29 35 83 36 77 37 79 38 30 39 82 40 76 41 75 42
REMARK SMILES IDX 31 44 63 45 43 46 62 47 44 48 47 49 61 50 80 51 45 52 46 53
REMARK SMILES IDX 60 55 81 56 48 57 32 58 33 59 41 60 34 61 36 62 42 63 35 64
REMARK SMILES IDX 37 65 38 66 39 67 40 68 64 69 65 70 73 71 66 72 68 73 74 74
REMARK SMILES IDX 67 75 69 76 70 77 71 78 72 79 49 80 50 81 58 82 51 83 53 84
REMARK SMILES IDX 59 85 52 86 54 87 55 88 56 89 57 90
REMARK H PARENT 79 43 47 54
REMARK Flexibility Score: inf
ROOT
ATOM      1  C   UNL A   1      42.766  18.668  26.652  1.00  0.00     0.274 C 
ENDROOT
BRANCH   1   2
ATOM      2  O   UNL A   1      41.889  19.732  26.234  1.00  0.00    -0.462 OA
BRANCH   2   3
ATOM      3  C   UNL A   1      41.230  20.401  27.217  1.00  0.00     0.313 C 
ATOM      4  O   UNL A   1      40.737  19.863  28.204  1.00  0.00    -0.252 OA
BRANCH   3   5
ATOM      5  C   UNL A   1      41.087  21.895  26.958  1.00  0.00     0.126 C 
ATOM      6  C   UNL A   1      41.541  22.676  28.189  1.00  0.00     0.025 C 
BRANCH   5   7
ATOM      7  C   UNL A   1      39.732  22.358  26.441  1.00  0.00    -0.034 A 
ATOM      8  C   UNL A   1      37.208  23.275  25.509  1.00  0.00    -0.018 A 
ATOM      9  C   UNL A   1      37.647  21.969  25.246  1.00  0.00     0.009 A 
ATOM     10  C   UNL A   1      38.054  24.116  26.241  1.00  0.00     0.009 A 
ATOM     11  C   UNL A   1      38.889  21.516  25.705  1.00  0.00     0.005 A 
ATOM     12  C   UNL A   1      39.293  23.664  26.706  1.00  0.00     0.005 A 
BRANCH   8  13
ATOM     13  C   UNL A   1      35.888  23.741  25.052  1.00  0.00    -0.018 A 
ATOM     14  C   UNL A   1      34.016  23.634  23.474  1.00  0.00    -0.044 A 
ATOM     15  C   UNL A   1      33.384  24.675  24.168  1.00  0.00     0.004 A 
ATOM     16  C   UNL A   1      35.265  23.176  23.925  1.00  0.00     0.012 A 
ATOM     17  C   UNL A   1      33.985  25.243  25.289  1.00  0.00     0.001 A 
ATOM     18  C   UNL A   1      35.226  24.780  25.726  1.00  0.00     0.009 A 
BRANCH  14  19
ATOM     19  C   UNL A   1      33.361  23.024  22.257  1.00  0.00     0.062 C 
BRANCH  19  20
ATOM     20  C   UNL A   1      32.145  22.210  22.606  1.00  0.00    -0.030 C 
ATOM     21  C   UNL A   1      32.041  20.887  22.421  1.00  0.00     0.004 C 
ENDBRANCH  19  20
ENDBRANCH  14  19
ENDBRANCH   8  13
ENDBRANCH   5   7
ENDBRANCH   3   5
ENDBRANCH   2   3
ENDBRANCH   1   2
BRANCH   1  22
ATOM     22  C   UNL A   1      43.654  18.198  25.499  1.00  0.00     0.275 C 
BRANCH  22  23
ATOM     23  O   UNL A   1      44.790  19.064  25.334  1.00  0.00    -0.458 OA
BRANCH  23  24
ATOM     24  C   UNL A   1      44.698  19.940  24.308  1.00  0.00     0.338 C 
ATOM     25  O   UNL A   1      44.548  19.686  23.127  1.00  0.00    -0.246 OA
BRANCH  24  26
ATOM     26  C   UNL A   1      44.704  21.312  24.834  1.00  0.00     0.060 A 
ATOM     27  C   UNL A   1      44.484  22.361  23.940  1.00  0.00     0.016 A 
ATOM     28  C   UNL A   1      45.024  21.565  26.168  1.00  0.00     0.016 A 
ATOM     29  C   UNL A   1      44.618  23.680  24.366  1.00  0.00     0.010 A 
ATOM     30  C   UNL A   1      45.142  22.890  26.598  1.00  0.00     0.010 A 
ATOM     31  C   UNL A   1      44.965  23.953  25.695  1.00  0.00    -0.014 A 
BRANCH  31  32
ATOM     32  C   UNL A   1      45.197  25.353  26.121  1.00  0.00     0.031 A 
ATOM     33  C   UNL A   1      46.588  25.918  26.113  1.00  0.00     0.074 A 
ATOM     34  C   UNL A   1      44.160  26.110  26.524  1.00  0.00     0.049 A 
ATOM     35  N   UNL A   1      47.000  27.102  26.487  1.00  0.00    -0.248 NA
ATOM     36  C   UNL A   1      47.659  25.032  25.628  1.00  0.00     0.031 C 
ATOM     37  C   UNL A   1      42.767  25.665  26.586  1.00  0.00     0.029 A 
ATOM     38  N   UNL A   1      44.122  27.402  26.980  1.00  0.00    -0.354 N 
ATOM     39  C   UNL A   1      48.380  27.091  26.325  1.00  0.00     0.074 A 
ATOM     40  C   UNL A   1      48.736  25.782  25.820  1.00  0.00     0.031 C 
ATOM     41  C   UNL A   1      42.013  26.663  27.074  1.00  0.00     0.029 A 
ATOM     42  C   UNL A   1      42.871  27.804  27.383  1.00  0.00     0.049 A 
ATOM     43  H   UNL A   1      44.914  27.986  27.016  1.00  0.00     0.167 HD
ATOM     44  C   UNL A   1      49.267  28.086  26.560  1.00  0.00     0.034 A 
ATOM     45  C   UNL A   1      42.464  28.954  27.955  1.00  0.00     0.034 A 
ATOM     46  C   UNL A   1      48.905  29.400  27.018  1.00  0.00     0.049 A 
ATOM     47  C   UNL A   1      43.466  30.054  28.183  1.00  0.00     0.074 A 
ATOM     48  C   UNL A   1      49.723  30.498  27.220  1.00  0.00     0.029 A 
ATOM     49  N   UNL A   1      47.618  29.795  27.352  1.00  0.00    -0.354 N 
ATOM     50  N   UNL A   1      44.747  30.073  27.904  1.00  0.00    -0.248 NA
ATOM     51  C   UNL A   1      42.961  31.301  28.774  1.00  0.00     0.031 C 
ATOM     52  C   UNL A   1      48.931  31.553  27.686  1.00  0.00     0.029 A 
ATOM     53  C   UNL A   1      47.619  31.116  27.766  1.00  0.00     0.049 A 
ATOM     54  H   UNL A   1      46.821  29.219  27.301  1.00  0.00     0.167 HD
ATOM     55  C   UNL A   1      45.198  31.338  28.264  1.00  0.00     0.074 A 
ATOM     56  C   UNL A   1      44.047  32.066  28.759  1.00  0.00     0.031 C 
ATOM     57  C   UNL A   1      46.455  31.843  28.208  1.00  0.00     0.034 A 
BRANCH  44  58
ATOM     58  C   UNL A   1      50.718  27.796  26.288  1.00  0.00     0.023 A 
ATOM     59  C   UNL A   1      51.574  27.466  27.358  1.00  0.00     0.012 A 
ATOM     60  C   UNL A   1      51.229  27.819  24.976  1.00  0.00     0.148 A 
ATOM     61  C   UNL A   1      52.922  27.193  27.131  1.00  0.00     0.002 A 
ATOM     62  C   UNL A   1      52.567  27.510  24.754  1.00  0.00     0.091 A 
ATOM     63  F   UNL A   1      50.410  28.165  23.973  1.00  0.00    -0.205 F 
ATOM     64  C   UNL A   1      53.416  27.206  25.830  1.00  0.00     0.022 A 
BRANCH  62  65
ATOM     65  S   UNL A   1      53.264  27.442  23.100  1.00  0.00     0.127 S 
ATOM     66  O   UNL A   1      53.267  28.853  22.719  1.00  0.00    -0.237 OA
ATOM     67  O   UNL A   1      54.593  26.875  23.339  1.00  0.00    -0.237 OA
ATOM     68  O   UNL A   1      52.374  26.578  22.337  1.00  0.00    -0.744 OA
ENDBRANCH  62  65
ENDBRANCH  44  58
BRANCH  45  69
ATOM     69  C   UNL A   1      41.026  29.130  28.299  1.00  0.00     0.023 A 
ATOM     70  C   UNL A   1      40.085  29.309  27.270  1.00  0.00     0.012 A 
ATOM     71  C   UNL A   1      40.583  29.051  29.634  1.00  0.00     0.148 A 
ATOM     72  C   UNL A   1      38.725  29.418  27.563  1.00  0.00     0.002 A 
ATOM     73  C   UNL A   1      39.223  29.107  29.915  1.00  0.00     0.091 A 
ATOM     74  F   UNL A   1      41.499  28.899  30.601  1.00  0.00    -0.205 F 
ATOM     75  C   UNL A   1      38.292  29.304  28.882  1.00  0.00     0.022 A 
BRANCH  73  76
ATOM     76  S   UNL A   1      38.569  28.834  31.566  1.00  0.00     0.127 S 
ATOM     77  O   UNL A   1      39.073  27.496  31.870  1.00  0.00    -0.237 OA
ATOM     78  O   UNL A   1      39.199  29.916  32.324  1.00  0.00    -0.237 OA
ATOM     79  O   UNL A   1      37.123  28.953  31.441  1.00  0.00    -0.744 OA
ENDBRANCH  73  76
ENDBRANCH  45  69
BRANCH  57  80
ATOM     80  C   UNL A   1      46.660  33.257  28.685  1.00  0.00     0.023 A 
ATOM     81  C   UNL A   1      46.962  33.493  30.040  1.00  0.00     0.012 A 
ATOM     82  C   UNL A   1      46.630  34.338  27.783  1.00  0.00     0.148 A 
ATOM     83  C   UNL A   1      47.209  34.788  30.496  1.00  0.00     0.002 A 
ATOM     84  C   UNL A   1      46.917  35.622  28.237  1.00  0.00     0.091 A 
ATOM     85  F   UNL A   1      46.317  34.098  26.501  1.00  0.00    -0.205 F 
ATOM     86  C   UNL A   1      47.198  35.849  29.594  1.00  0.00     0.022 A 
BRANCH  84  87
ATOM     87  S   UNL A   1      47.010  37.027  27.121  1.00  0.00     0.127 S 
ATOM     88  O   UNL A   1      45.622  37.154  26.683  1.00  0.00    -0.237 OA
ATOM     89  O   UNL A   1      47.472  38.101  28.001  1.00  0.00    -0.237 OA
ATOM     90  O   UNL A   1      47.966  36.646  26.090  1.00  0.00    -0.744 OA
ENDBRANCH  84  87
ENDBRANCH  57  80
ENDBRANCH  31  32
ENDBRANCH  24  26
ENDBRANCH  23  24
ENDBRANCH  22  23
ENDBRANCH   1  22
TORSDOF 18
ENDMDL
