MODEL 1
REMARK VINA RESULT:     -12.7      0.000      0.000
REMARK SMILES C[C@@H]1CC[C@@H](C(=O)OCCOC(=O)c2ccc(-c3c4nc(c(-c5cccc(S(=O)(=O)[O-])c5F)c5ccc([nH]5)c(-c5cccc(S(=O)(=O)[O-])c5F)c5nc(c(-c6cccc(S(=O)(=O)[O-])c6F)c6ccc3[nH]6)C=C5)C=C4)cc2)[C@H]2C(=O)N(c3ccccc3)C(=O)[C@@H]21
REMARK SMILES IDX 10 1 9 2 8 3 6 4 7 5 5 6 1 7 2 8 3 9 89 10 4 11 77 12 87 13
REMARK SMILES IDX 78 14 80 15 88 16 79 17 81 18 82 19 86 20 83 21 85 22 84 23
REMARK SMILES IDX 11 24 12 25 13 26 14 27 15 28 76 29 16 30 75 31 17 32 18 33
REMARK SMILES IDX 19 34 69 35 20 36 74 37 68 38 70 39 21 40 73 41 67 42 66 43
REMARK SMILES IDX 22 45 54 46 34 47 53 48 35 49 38 50 52 51 71 52 36 53 37 54
REMARK SMILES IDX 51 56 72 57 39 58 23 59 24 60 32 61 25 62 27 63 33 64 26 65
REMARK SMILES IDX 28 66 29 67 30 68 31 69 55 70 56 71 64 72 57 73 59 74 65 75
REMARK SMILES IDX 58 76 60 77 61 78 62 79 63 80 40 81 41 82 49 83 42 84 44 85
REMARK SMILES IDX 50 86 43 87 45 88 46 89 47 90 48 91
REMARK H PARENT 70 44 38 55
REMARK Flexibility Score: inf
ROOT
ATOM      1  C   UNL A   1      31.634  29.295  26.990  1.00  0.00     0.275 C 
ENDROOT
BRANCH   1   2
ATOM      2  C   UNL A   1      31.938  27.801  27.106  1.00  0.00     0.274 C 
BRANCH   2   3
ATOM      3  O   UNL A   1      30.819  26.978  26.699  1.00  0.00    -0.462 OA
BRANCH   3   4
ATOM      4  C   UNL A   1      31.104  25.692  26.378  1.00  0.00     0.309 C 
ATOM      5  O   UNL A   1      31.443  24.844  27.198  1.00  0.00    -0.252 OA
BRANCH   4   6
ATOM      6  C   UNL A   1      31.134  25.413  24.880  1.00  0.00     0.112 C 
ATOM      7  C   UNL A   1      33.342  26.113  21.879  1.00  0.00     0.008 C 
ATOM      8  C   UNL A   1      33.483  26.590  23.330  1.00  0.00    -0.001 C 
ATOM      9  C   UNL A   1      33.668  25.384  24.288  1.00  0.00     0.005 C 
ATOM     10  C   UNL A   1      32.296  27.408  23.831  1.00  0.00     0.095 C 
ATOM     11  C   UNL A   1      32.387  24.562  24.562  1.00  0.00     0.016 C 
ATOM     12  C   UNL A   1      31.055  26.547  23.868  1.00  0.00     0.106 C 
ATOM     13  C   UNL A   1      31.821  28.623  23.063  1.00  0.00     0.237 C 
ATOM     14  C   UNL A   1      29.932  27.542  23.776  1.00  0.00     0.238 C 
ATOM     15  N   UNL A   1      30.470  28.732  23.329  1.00  0.00    -0.250 N 
ATOM     16  O   UNL A   1      32.542  29.355  22.411  1.00  0.00    -0.274 OA
ATOM     17  O   UNL A   1      28.757  27.210  23.806  1.00  0.00    -0.274 OA
BRANCH  15  18
ATOM     18  C   UNL A   1      29.678  29.832  22.951  1.00  0.00     0.052 A 
ATOM     19  C   UNL A   1      29.368  30.851  23.853  1.00  0.00     0.027 A 
ATOM     20  C   UNL A   1      29.196  29.913  21.641  1.00  0.00     0.027 A 
ATOM     21  C   UNL A   1      28.607  31.948  23.430  1.00  0.00     0.002 A 
ATOM     22  C   UNL A   1      28.425  30.998  21.222  1.00  0.00     0.002 A 
ATOM     23  C   UNL A   1      28.135  32.021  22.118  1.00  0.00     0.000 A 
ENDBRANCH  15  18
ENDBRANCH   4   6
ENDBRANCH   3   4
ENDBRANCH   2   3
ENDBRANCH   1   2
BRANCH   1  24
ATOM     24  O   UNL A   1      32.688  29.990  26.300  1.00  0.00    -0.458 OA
BRANCH  24  25
ATOM     25  C   UNL A   1      33.210  31.008  27.019  1.00  0.00     0.338 C 
ATOM     26  O   UNL A   1      32.595  31.974  27.447  1.00  0.00    -0.246 OA
BRANCH  25  27
ATOM     27  C   UNL A   1      34.622  30.780  27.351  1.00  0.00     0.060 A 
ATOM     28  C   UNL A   1      35.030  29.475  27.615  1.00  0.00     0.016 A 
ATOM     29  C   UNL A   1      35.437  31.860  27.696  1.00  0.00     0.016 A 
ATOM     30  C   UNL A   1      36.192  29.256  28.349  1.00  0.00     0.010 A 
ATOM     31  C   UNL A   1      36.644  31.628  28.364  1.00  0.00     0.010 A 
ATOM     32  C   UNL A   1      37.010  30.325  28.735  1.00  0.00    -0.014 A 
BRANCH  32  33
ATOM     33  C   UNL A   1      38.286  30.058  29.444  1.00  0.00     0.031 A 
ATOM     34  C   UNL A   1      39.327  29.128  28.887  1.00  0.00     0.074 A 
ATOM     35  C   UNL A   1      38.469  30.643  30.641  1.00  0.00     0.049 A 
ATOM     36  N   UNL A   1      40.384  28.629  29.475  1.00  0.00    -0.248 NA
ATOM     37  C   UNL A   1      39.159  28.692  27.493  1.00  0.00     0.031 C 
ATOM     38  C   UNL A   1      37.526  31.569  31.274  1.00  0.00     0.029 A 
ATOM     39  N   UNL A   1      39.483  30.521  31.555  1.00  0.00    -0.354 N 
ATOM     40  C   UNL A   1      40.968  27.765  28.553  1.00  0.00     0.074 A 
ATOM     41  C   UNL A   1      40.159  27.828  27.354  1.00  0.00     0.031 C 
ATOM     42  C   UNL A   1      37.987  31.908  32.483  1.00  0.00     0.029 A 
ATOM     43  C   UNL A   1      39.216  31.168  32.737  1.00  0.00     0.049 A 
ATOM     44  H   UNL A   1      40.314  30.023  31.382  1.00  0.00     0.167 HD
ATOM     45  C   UNL A   1      42.078  27.002  28.702  1.00  0.00     0.034 A 
ATOM     46  C   UNL A   1      39.848  31.125  33.923  1.00  0.00     0.034 A 
ATOM     47  C   UNL A   1      42.923  27.034  29.871  1.00  0.00     0.049 A 
ATOM     48  C   UNL A   1      41.094  30.307  34.046  1.00  0.00     0.074 A 
ATOM     49  C   UNL A   1      44.122  26.374  30.085  1.00  0.00     0.029 A 
ATOM     50  N   UNL A   1      42.666  27.772  31.016  1.00  0.00    -0.354 N 
ATOM     51  N   UNL A   1      41.673  29.554  33.143  1.00  0.00    -0.248 NA
ATOM     52  C   UNL A   1      41.793  30.354  35.335  1.00  0.00     0.031 C 
ATOM     53  C   UNL A   1      44.583  26.705  31.363  1.00  0.00     0.029 A 
ATOM     54  C   UNL A   1      43.678  27.580  31.943  1.00  0.00     0.049 A 
ATOM     55  H   UNL A   1      41.880  28.349  31.151  1.00  0.00     0.167 HD
ATOM     56  C   UNL A   1      42.813  29.045  33.748  1.00  0.00     0.074 A 
ATOM     57  C   UNL A   1      42.858  29.604  35.086  1.00  0.00     0.031 C 
ATOM     58  C   UNL A   1      43.725  28.176  33.252  1.00  0.00     0.034 A 
BRANCH  45  59
ATOM     59  C   UNL A   1      42.493  26.086  27.578  1.00  0.00     0.023 A 
ATOM     60  C   UNL A   1      43.475  26.504  26.659  1.00  0.00     0.012 A 
ATOM     61  C   UNL A   1      42.016  24.759  27.521  1.00  0.00     0.148 A 
ATOM     62  C   UNL A   1      43.972  25.619  25.700  1.00  0.00     0.002 A 
ATOM     63  C   UNL A   1      42.541  23.874  26.586  1.00  0.00     0.091 A 
ATOM     64  F   UNL A   1      41.069  24.383  28.393  1.00  0.00    -0.205 F 
ATOM     65  C   UNL A   1      43.517  24.303  25.672  1.00  0.00     0.022 A 
BRANCH  63  66
ATOM     66  S   UNL A   1      42.078  22.137  26.524  1.00  0.00     0.127 S 
ATOM     67  O   UNL A   1      40.649  22.224  26.228  1.00  0.00    -0.237 OA
ATOM     68  O   UNL A   1      42.898  21.635  25.421  1.00  0.00    -0.237 OA
ATOM     69  O   UNL A   1      42.415  21.584  27.829  1.00  0.00    -0.744 OA
ENDBRANCH  63  66
ENDBRANCH  45  59
BRANCH  46  70
ATOM     70  C   UNL A   1      39.281  31.894  35.063  1.00  0.00     0.023 A 
ATOM     71  C   UNL A   1      38.438  31.250  35.985  1.00  0.00     0.012 A 
ATOM     72  C   UNL A   1      39.676  33.226  35.302  1.00  0.00     0.148 A 
ATOM     73  C   UNL A   1      37.991  31.922  37.123  1.00  0.00     0.002 A 
ATOM     74  C   UNL A   1      39.284  33.865  36.472  1.00  0.00     0.091 A 
ATOM     75  F   UNL A   1      40.468  33.831  34.404  1.00  0.00    -0.205 F 
ATOM     76  C   UNL A   1      38.429  33.221  37.376  1.00  0.00     0.022 A 
BRANCH  74  77
ATOM     77  S   UNL A   1      39.970  35.461  36.932  1.00  0.00     0.127 S 
ATOM     78  O   UNL A   1      39.497  36.319  35.850  1.00  0.00    -0.237 OA
ATOM     79  O   UNL A   1      39.346  35.711  38.233  1.00  0.00    -0.237 OA
ATOM     80  O   UNL A   1      41.410  35.243  37.003  1.00  0.00    -0.744 OA
ENDBRANCH  74  77
ENDBRANCH  46  70
BRANCH  58  81
ATOM     81  C   UNL A   1      44.853  27.780  34.164  1.00  0.00     0.023 A 
ATOM     82  C   UNL A   1      46.031  28.553  34.178  1.00  0.00     0.012 A 
ATOM     83  C   UNL A   1      44.738  26.673  35.024  1.00  0.00     0.148 A 
ATOM     84  C   UNL A   1      47.092  28.210  35.013  1.00  0.00     0.002 A 
ATOM     85  C   UNL A   1      45.785  26.359  35.883  1.00  0.00     0.091 A 
ATOM     86  F   UNL A   1      43.618  25.935  34.976  1.00  0.00    -0.205 F 
ATOM     87  C   UNL A   1      46.966  27.120  35.872  1.00  0.00     0.022 A 
BRANCH  85  88
ATOM     88  S   UNL A   1      45.670  25.016  37.070  1.00  0.00     0.127 S 
ATOM     89  O   UNL A   1      47.073  24.803  37.416  1.00  0.00    -0.237 OA
ATOM     90  O   UNL A   1      44.862  25.608  38.139  1.00  0.00    -0.237 OA
ATOM     91  O   UNL A   1      45.018  23.922  36.364  1.00  0.00    -0.744 OA
ENDBRANCH  85  88
ENDBRANCH  58  81
ENDBRANCH  32  33
ENDBRANCH  25  27
ENDBRANCH  24  25
ENDBRANCH   1  24
TORSDOF 15
ENDMDL
MODEL 2
REMARK VINA RESULT:     -12.7      5.289     10.388
REMARK SMILES C[C@@H]1CC[C@@H](C(=O)OCCOC(=O)c2ccc(-c3c4nc(c(-c5cccc(S(=O)(=O)[O-])c5F)c5ccc([nH]5)c(-c5cccc(S(=O)(=O)[O-])c5F)c5nc(c(-c6cccc(S(=O)(=O)[O-])c6F)c6ccc3[nH]6)C=C5)C=C4)cc2)[C@H]2C(=O)N(c3ccccc3)C(=O)[C@@H]21
REMARK SMILES IDX 10 1 9 2 8 3 6 4 7 5 5 6 1 7 2 8 3 9 89 10 4 11 77 12 87 13
REMARK SMILES IDX 78 14 80 15 88 16 79 17 81 18 82 19 86 20 83 21 85 22 84 23
REMARK SMILES IDX 11 24 12 25 13 26 14 27 15 28 76 29 16 30 75 31 17 32 18 33
REMARK SMILES IDX 19 34 69 35 20 36 74 37 68 38 70 39 21 40 73 41 67 42 66 43
REMARK SMILES IDX 22 45 54 46 34 47 53 48 35 49 38 50 52 51 71 52 36 53 37 54
REMARK SMILES IDX 51 56 72 57 39 58 23 59 24 60 32 61 25 62 27 63 33 64 26 65
REMARK SMILES IDX 28 66 29 67 30 68 31 69 55 70 56 71 64 72 57 73 59 74 65 75
REMARK SMILES IDX 58 76 60 77 61 78 62 79 63 80 40 81 41 82 49 83 42 84 44 85
REMARK SMILES IDX 50 86 43 87 45 88 46 89 47 90 48 91
REMARK H PARENT 70 44 38 55
REMARK Flexibility Score: inf
ROOT
ATOM      1  C   UNL A   1      36.832  22.101  23.857  1.00  0.00     0.275 C 
ENDROOT
BRANCH   1   2
ATOM      2  C   UNL A   1      36.005  23.341  23.515  1.00  0.00     0.274 C 
BRANCH   2   3
ATOM      3  O   UNL A   1      34.846  23.024  22.708  1.00  0.00    -0.462 OA
BRANCH   3   4
ATOM      4  C   UNL A   1      33.880  23.974  22.645  1.00  0.00     0.309 C 
ATOM      5  O   UNL A   1      34.033  25.066  22.107  1.00  0.00    -0.252 OA
BRANCH   4   6
ATOM      6  C   UNL A   1      32.627  23.646  23.449  1.00  0.00     0.112 C 
ATOM      7  C   UNL A   1      31.542  23.340  27.068  1.00  0.00     0.008 C 
ATOM      8  C   UNL A   1      32.935  23.608  26.483  1.00  0.00    -0.001 C 
ATOM      9  C   UNL A   1      32.948  24.938  25.685  1.00  0.00     0.005 C 
ATOM     10  C   UNL A   1      33.442  22.503  25.561  1.00  0.00     0.095 C 
ATOM     11  C   UNL A   1      32.253  24.880  24.304  1.00  0.00     0.016 C 
ATOM     12  C   UNL A   1      32.563  22.410  24.335  1.00  0.00     0.106 C 
ATOM     13  C   UNL A   1      33.485  21.066  26.034  1.00  0.00     0.237 C 
ATOM     14  C   UNL A   1      32.766  20.999  23.861  1.00  0.00     0.238 C 
ATOM     15  N   UNL A   1      33.335  20.291  24.900  1.00  0.00    -0.250 N 
ATOM     16  O   UNL A   1      33.679  20.722  27.185  1.00  0.00    -0.274 OA
ATOM     17  O   UNL A   1      32.227  20.560  22.856  1.00  0.00    -0.274 OA
BRANCH  15  18
ATOM     18  C   UNL A   1      33.496  18.893  24.873  1.00  0.00     0.052 A 
ATOM     19  C   UNL A   1      34.604  18.299  24.270  1.00  0.00     0.027 A 
ATOM     20  C   UNL A   1      32.527  18.080  25.470  1.00  0.00     0.027 A 
ATOM     21  C   UNL A   1      34.748  16.906  24.295  1.00  0.00     0.002 A 
ATOM     22  C   UNL A   1      32.660  16.691  25.481  1.00  0.00     0.002 A 
ATOM     23  C   UNL A   1      33.777  16.104  24.898  1.00  0.00     0.000 A 
ENDBRANCH  15  18
ENDBRANCH   4   6
ENDBRANCH   3   4
ENDBRANCH   2   3
ENDBRANCH   1   2
BRANCH   1  24
ATOM     24  O   UNL A   1      36.931  21.917  25.280  1.00  0.00    -0.458 OA
BRANCH  24  25
ATOM     25  C   UNL A   1      38.182  21.617  25.690  1.00  0.00     0.338 C 
ATOM     26  O   UNL A   1      38.829  20.633  25.364  1.00  0.00    -0.246 OA
BRANCH  25  27
ATOM     27  C   UNL A   1      38.764  22.689  26.510  1.00  0.00     0.060 A 
ATOM     28  C   UNL A   1      38.206  23.961  26.416  1.00  0.00     0.016 A 
ATOM     29  C   UNL A   1      40.014  22.506  27.105  1.00  0.00     0.016 A 
ATOM     30  C   UNL A   1      38.957  25.068  26.795  1.00  0.00     0.010 A 
ATOM     31  C   UNL A   1      40.732  23.618  27.558  1.00  0.00     0.010 A 
ATOM     32  C   UNL A   1      40.227  24.914  27.366  1.00  0.00    -0.014 A 
BRANCH  32  33
ATOM     33  C   UNL A   1      40.973  26.106  27.838  1.00  0.00     0.031 A 
ATOM     34  C   UNL A   1      40.310  27.197  28.632  1.00  0.00     0.074 A 
ATOM     35  C   UNL A   1      42.269  26.210  27.491  1.00  0.00     0.049 A 
ATOM     36  N   UNL A   1      40.762  28.388  28.931  1.00  0.00    -0.248 NA
ATOM     37  C   UNL A   1      38.963  26.924  29.152  1.00  0.00     0.031 C 
ATOM     38  C   UNL A   1      43.013  25.207  26.726  1.00  0.00     0.029 A 
ATOM     39  N   UNL A   1      43.175  27.216  27.697  1.00  0.00    -0.354 N 
ATOM     40  C   UNL A   1      39.733  29.033  29.609  1.00  0.00     0.074 A 
ATOM     41  C   UNL A   1      38.639  28.089  29.701  1.00  0.00     0.031 C 
ATOM     42  C   UNL A   1      44.252  25.657  26.500  1.00  0.00     0.029 A 
ATOM     43  C   UNL A   1      44.363  27.006  27.039  1.00  0.00     0.049 A 
ATOM     44  H   UNL A   1      42.996  28.005  28.258  1.00  0.00     0.167 HD
ATOM     45  C   UNL A   1      39.716  30.292  30.111  1.00  0.00     0.034 A 
ATOM     46  C   UNL A   1      45.407  27.828  26.829  1.00  0.00     0.034 A 
ATOM     47  C   UNL A   1      40.856  31.177  30.096  1.00  0.00     0.049 A 
ATOM     48  C   UNL A   1      45.379  29.197  27.430  1.00  0.00     0.074 A 
ATOM     49  C   UNL A   1      40.975  32.436  30.662  1.00  0.00     0.029 A 
ATOM     50  N   UNL A   1      42.073  30.893  29.497  1.00  0.00    -0.354 N 
ATOM     51  N   UNL A   1      44.427  29.766  28.130  1.00  0.00    -0.248 NA
ATOM     52  C   UNL A   1      46.573  30.028  27.242  1.00  0.00     0.031 C 
ATOM     53  C   UNL A   1      42.261  32.917  30.394  1.00  0.00     0.029 A 
ATOM     54  C   UNL A   1      42.947  31.954  29.671  1.00  0.00     0.049 A 
ATOM     55  H   UNL A   1      42.286  30.061  29.018  1.00  0.00     0.167 HD
ATOM     56  C   UNL A   1      44.911  31.018  28.479  1.00  0.00     0.074 A 
ATOM     57  C   UNL A   1      46.254  31.110  27.939  1.00  0.00     0.031 C 
ATOM     58  C   UNL A   1      44.292  32.010  29.162  1.00  0.00     0.034 A 
BRANCH  45  59
ATOM     59  C   UNL A   1      38.455  30.805  30.760  1.00  0.00     0.023 A 
ATOM     60  C   UNL A   1      38.369  30.884  32.163  1.00  0.00     0.012 A 
ATOM     61  C   UNL A   1      37.413  31.346  29.974  1.00  0.00     0.148 A 
ATOM     62  C   UNL A   1      37.267  31.486  32.774  1.00  0.00     0.002 A 
ATOM     63  C   UNL A   1      36.337  31.975  30.589  1.00  0.00     0.091 A 
ATOM     64  F   UNL A   1      37.503  31.247  28.639  1.00  0.00    -0.205 F 
ATOM     65  C   UNL A   1      36.261  32.043  31.989  1.00  0.00     0.022 A 
BRANCH  63  66
ATOM     66  S   UNL A   1      35.031  32.793  29.663  1.00  0.00     0.127 S 
ATOM     67  O   UNL A   1      34.633  31.745  28.725  1.00  0.00    -0.237 OA
ATOM     68  O   UNL A   1      34.045  33.083  30.705  1.00  0.00    -0.237 OA
ATOM     69  O   UNL A   1      35.641  33.972  29.064  1.00  0.00    -0.744 OA
ENDBRANCH  63  66
ENDBRANCH  45  59
BRANCH  46  70
ATOM     70  C   UNL A   1      46.547  27.338  26.009  1.00  0.00     0.023 A 
ATOM     71  C   UNL A   1      46.620  27.677  24.647  1.00  0.00     0.012 A 
ATOM     72  C   UNL A   1      47.619  26.643  26.606  1.00  0.00     0.148 A 
ATOM     73  C   UNL A   1      47.738  27.327  23.891  1.00  0.00     0.002 A 
ATOM     74  C   UNL A   1      48.759  26.360  25.864  1.00  0.00     0.091 A 
ATOM     75  F   UNL A   1      47.527  26.312  27.902  1.00  0.00    -0.205 F 
ATOM     76  C   UNL A   1      48.815  26.687  24.502  1.00  0.00     0.022 A 
BRANCH  74  77
ATOM     77  S   UNL A   1      50.239  25.708  26.647  1.00  0.00     0.127 S 
ATOM     78  O   UNL A   1      51.158  25.599  25.518  1.00  0.00    -0.237 OA
ATOM     79  O   UNL A   1      50.573  26.755  27.614  1.00  0.00    -0.237 OA
ATOM     80  O   UNL A   1      49.816  24.455  27.261  1.00  0.00    -0.744 OA
ENDBRANCH  74  77
ENDBRANCH  46  70
BRANCH  58  81
ATOM     81  C   UNL A   1      45.068  33.282  29.365  1.00  0.00     0.023 A 
ATOM     82  C   UNL A   1      45.876  33.420  30.510  1.00  0.00     0.012 A 
ATOM     83  C   UNL A   1      45.025  34.319  28.416  1.00  0.00     0.148 A 
ATOM     84  C   UNL A   1      46.606  34.587  30.725  1.00  0.00     0.002 A 
ATOM     85  C   UNL A   1      45.787  35.465  28.616  1.00  0.00     0.091 A 
ATOM     86  F   UNL A   1      44.230  34.178  27.344  1.00  0.00    -0.205 F 
ATOM     87  C   UNL A   1      46.570  35.604  29.774  1.00  0.00     0.022 A 
BRANCH  85  88
ATOM     88  S   UNL A   1      45.851  36.787  27.402  1.00  0.00     0.127 S 
ATOM     89  O   UNL A   1      44.485  37.304  27.451  1.00  0.00    -0.237 OA
ATOM     90  O   UNL A   1      46.862  37.685  27.965  1.00  0.00    -0.237 OA
ATOM     91  O   UNL A   1      46.244  36.153  26.151  1.00  0.00    -0.744 OA
ENDBRANCH  85  88
ENDBRANCH  58  81
ENDBRANCH  32  33
ENDBRANCH  25  27
ENDBRANCH  24  25
ENDBRANCH   1  24
TORSDOF 15
ENDMDL
MODEL 3
REMARK VINA RESULT:     -12.6      1.773      3.877
REMARK SMILES C[C@@H]1CC[C@@H](C(=O)OCCOC(=O)c2ccc(-c3c4nc(c(-c5cccc(S(=O)(=O)[O-])c5F)c5ccc([nH]5)c(-c5cccc(S(=O)(=O)[O-])c5F)c5nc(c(-c6cccc(S(=O)(=O)[O-])c6F)c6ccc3[nH]6)C=C5)C=C4)cc2)[C@H]2C(=O)N(c3ccccc3)C(=O)[C@@H]21
REMARK SMILES IDX 10 1 9 2 8 3 6 4 7 5 5 6 1 7 2 8 3 9 89 10 4 11 77 12 87 13
REMARK SMILES IDX 78 14 80 15 88 16 79 17 81 18 82 19 86 20 83 21 85 22 84 23
REMARK SMILES IDX 11 24 12 25 13 26 14 27 15 28 76 29 16 30 75 31 17 32 18 33
REMARK SMILES IDX 19 34 69 35 20 36 74 37 68 38 70 39 21 40 73 41 67 42 66 43
REMARK SMILES IDX 22 45 54 46 34 47 53 48 35 49 38 50 52 51 71 52 36 53 37 54
REMARK SMILES IDX 51 56 72 57 39 58 23 59 24 60 32 61 25 62 27 63 33 64 26 65
REMARK SMILES IDX 28 66 29 67 30 68 31 69 55 70 56 71 64 72 57 73 59 74 65 75
REMARK SMILES IDX 58 76 60 77 61 78 62 79 63 80 40 81 41 82 49 83 42 84 44 85
REMARK SMILES IDX 50 86 43 87 45 88 46 89 47 90 48 91
REMARK H PARENT 70 44 38 55
REMARK Flexibility Score: inf
ROOT
ATOM      1  C   UNL A   1      31.812  30.018  25.578  1.00  0.00     0.275 C 
ENDROOT
BRANCH   1   2
ATOM      2  C   UNL A   1      32.829  29.409  24.611  1.00  0.00     0.274 C 
BRANCH   2   3
ATOM      3  O   UNL A   1      32.991  27.984  24.811  1.00  0.00    -0.462 OA
BRANCH   3   4
ATOM      4  C   UNL A   1      33.048  27.224  23.689  1.00  0.00     0.309 C 
ATOM      5  O   UNL A   1      33.650  27.554  22.672  1.00  0.00    -0.252 OA
BRANCH   4   6
ATOM      6  C   UNL A   1      32.159  25.986  23.727  1.00  0.00     0.112 C 
ATOM      7  C   UNL A   1      30.428  23.779  26.277  1.00  0.00     0.008 C 
ATOM      8  C   UNL A   1      31.378  24.965  26.493  1.00  0.00    -0.001 C 
ATOM      9  C   UNL A   1      30.770  26.267  25.909  1.00  0.00     0.005 C 
ATOM     10  C   UNL A   1      32.759  24.773  25.872  1.00  0.00     0.095 C 
ATOM     11  C   UNL A   1      30.804  26.373  24.366  1.00  0.00     0.016 C 
ATOM     12  C   UNL A   1      32.641  24.693  24.367  1.00  0.00     0.106 C 
ATOM     13  C   UNL A   1      33.583  23.546  26.195  1.00  0.00     0.237 C 
ATOM     14  C   UNL A   1      33.872  23.935  23.957  1.00  0.00     0.238 C 
ATOM     15  N   UNL A   1      34.376  23.322  25.087  1.00  0.00    -0.250 N 
ATOM     16  O   UNL A   1      33.557  22.956  27.259  1.00  0.00    -0.274 OA
ATOM     17  O   UNL A   1      34.138  23.698  22.789  1.00  0.00    -0.274 OA
BRANCH  15  18
ATOM     18  C   UNL A   1      35.420  22.380  25.042  1.00  0.00     0.052 A 
ATOM     19  C   UNL A   1      36.758  22.775  25.019  1.00  0.00     0.027 A 
ATOM     20  C   UNL A   1      35.113  21.015  25.026  1.00  0.00     0.027 A 
ATOM     21  C   UNL A   1      37.771  21.808  25.010  1.00  0.00     0.002 A 
ATOM     22  C   UNL A   1      36.121  20.050  25.002  1.00  0.00     0.002 A 
ATOM     23  C   UNL A   1      37.453  20.449  25.000  1.00  0.00     0.000 A 
ENDBRANCH  15  18
ENDBRANCH   4   6
ENDBRANCH   3   4
ENDBRANCH   2   3
ENDBRANCH   1   2
BRANCH   1  24
ATOM     24  O   UNL A   1      32.332  30.068  26.918  1.00  0.00    -0.458 OA
BRANCH  24  25
ATOM     25  C   UNL A   1      33.026  31.197  27.175  1.00  0.00     0.338 C 
ATOM     26  O   UNL A   1      32.563  32.327  27.241  1.00  0.00    -0.246 OA
BRANCH  25  27
ATOM     27  C   UNL A   1      34.432  30.918  27.497  1.00  0.00     0.060 A 
ATOM     28  C   UNL A   1      34.785  29.606  27.800  1.00  0.00     0.016 A 
ATOM     29  C   UNL A   1      35.298  31.971  27.796  1.00  0.00     0.016 A 
ATOM     30  C   UNL A   1      35.946  29.359  28.525  1.00  0.00     0.010 A 
ATOM     31  C   UNL A   1      36.504  31.708  28.455  1.00  0.00     0.010 A 
ATOM     32  C   UNL A   1      36.817  30.403  28.865  1.00  0.00    -0.014 A 
BRANCH  32  33
ATOM     33  C   UNL A   1      38.089  30.103  29.566  1.00  0.00     0.031 A 
ATOM     34  C   UNL A   1      39.133  29.200  28.971  1.00  0.00     0.074 A 
ATOM     35  C   UNL A   1      38.267  30.631  30.791  1.00  0.00     0.049 A 
ATOM     36  N   UNL A   1      40.187  28.673  29.539  1.00  0.00    -0.248 NA
ATOM     37  C   UNL A   1      38.972  28.830  27.557  1.00  0.00     0.031 C 
ATOM     38  C   UNL A   1      37.321  31.525  31.462  1.00  0.00     0.029 A 
ATOM     39  N   UNL A   1      39.276  30.466  31.702  1.00  0.00    -0.354 N 
ATOM     40  C   UNL A   1      40.776  27.854  28.580  1.00  0.00     0.074 A 
ATOM     41  C   UNL A   1      39.973  27.974  27.382  1.00  0.00     0.031 C 
ATOM     42  C   UNL A   1      37.776  31.807  32.688  1.00  0.00     0.029 A 
ATOM     43  C   UNL A   1      39.004  31.056  32.912  1.00  0.00     0.049 A 
ATOM     44  H   UNL A   1      40.109  29.976  31.510  1.00  0.00     0.167 HD
ATOM     45  C   UNL A   1      41.885  27.086  28.698  1.00  0.00     0.034 A 
ATOM     46  C   UNL A   1      39.631  30.957  34.098  1.00  0.00     0.034 A 
ATOM     47  C   UNL A   1      42.725  27.062  29.871  1.00  0.00     0.049 A 
ATOM     48  C   UNL A   1      40.877  30.134  34.188  1.00  0.00     0.074 A 
ATOM     49  C   UNL A   1      43.924  26.393  30.059  1.00  0.00     0.029 A 
ATOM     50  N   UNL A   1      42.463  27.745  31.048  1.00  0.00    -0.354 N 
ATOM     51  N   UNL A   1      41.460  29.424  33.252  1.00  0.00    -0.248 NA
ATOM     52  C   UNL A   1      41.570  30.121  35.480  1.00  0.00     0.031 C 
ATOM     53  C   UNL A   1      44.379  26.663  31.354  1.00  0.00     0.029 A 
ATOM     54  C   UNL A   1      43.470  27.509  31.970  1.00  0.00     0.049 A 
ATOM     55  H   UNL A   1      41.677  28.315  31.207  1.00  0.00     0.167 HD
ATOM     56  C   UNL A   1      42.597  28.888  33.838  1.00  0.00     0.074 A 
ATOM     57  C   UNL A   1      42.637  29.383  35.201  1.00  0.00     0.031 C 
ATOM     58  C   UNL A   1      43.512  28.043  33.306  1.00  0.00     0.034 A 
BRANCH  45  59
ATOM     59  C   UNL A   1      42.306  26.224  27.534  1.00  0.00     0.023 A 
ATOM     60  C   UNL A   1      43.173  26.743  26.553  1.00  0.00     0.012 A 
ATOM     61  C   UNL A   1      41.959  24.856  27.492  1.00  0.00     0.148 A 
ATOM     62  C   UNL A   1      43.683  25.919  25.548  1.00  0.00     0.002 A 
ATOM     63  C   UNL A   1      42.500  24.034  26.509  1.00  0.00     0.091 A 
ATOM     64  F   UNL A   1      41.119  24.381  28.424  1.00  0.00    -0.205 F 
ATOM     65  C   UNL A   1      43.359  24.565  25.534  1.00  0.00     0.022 A 
BRANCH  63  66
ATOM     66  S   UNL A   1      42.206  22.260  26.455  1.00  0.00     0.127 S 
ATOM     67  O   UNL A   1      40.774  22.207  26.169  1.00  0.00    -0.237 OA
ATOM     68  O   UNL A   1      43.064  21.836  25.348  1.00  0.00    -0.237 OA
ATOM     69  O   UNL A   1      42.603  21.748  27.760  1.00  0.00    -0.744 OA
ENDBRANCH  63  66
ENDBRANCH  45  59
BRANCH  46  70
ATOM     70  C   UNL A   1      39.059  31.672  35.270  1.00  0.00     0.023 A 
ATOM     71  C   UNL A   1      38.229  30.979  36.169  1.00  0.00     0.012 A 
ATOM     72  C   UNL A   1      39.436  32.998  35.561  1.00  0.00     0.148 A 
ATOM     73  C   UNL A   1      37.778  31.599  37.335  1.00  0.00     0.002 A 
ATOM     74  C   UNL A   1      39.041  33.584  36.757  1.00  0.00     0.091 A 
ATOM     75  F   UNL A   1      40.215  33.650  34.685  1.00  0.00    -0.205 F 
ATOM     76  C   UNL A   1      38.199  32.892  37.639  1.00  0.00     0.022 A 
BRANCH  74  77
ATOM     77  S   UNL A   1      39.707  35.169  37.279  1.00  0.00     0.127 S 
ATOM     78  O   UNL A   1      39.279  36.050  36.197  1.00  0.00    -0.237 OA
ATOM     79  O   UNL A   1      39.029  35.392  38.558  1.00  0.00    -0.237 OA
ATOM     80  O   UNL A   1      41.143  34.949  37.405  1.00  0.00    -0.744 OA
ENDBRANCH  74  77
ENDBRANCH  46  70
BRANCH  58  81
ATOM     81  C   UNL A   1      44.636  27.605  34.203  1.00  0.00     0.023 A 
ATOM     82  C   UNL A   1      45.800  28.394  34.284  1.00  0.00     0.012 A 
ATOM     83  C   UNL A   1      44.530  26.440  34.985  1.00  0.00     0.148 A 
ATOM     84  C   UNL A   1      46.857  28.012  35.107  1.00  0.00     0.002 A 
ATOM     85  C   UNL A   1      45.572  26.086  35.834  1.00  0.00     0.091 A 
ATOM     86  F   UNL A   1      43.423  25.690  34.875  1.00  0.00    -0.205 F 
ATOM     87  C   UNL A   1      46.739  26.865  35.889  1.00  0.00     0.022 A 
BRANCH  85  88
ATOM     88  S   UNL A   1      45.465  24.665  36.927  1.00  0.00     0.127 S 
ATOM     89  O   UNL A   1      46.751  24.724  37.619  1.00  0.00    -0.237 OA
ATOM     90  O   UNL A   1      44.308  24.995  37.763  1.00  0.00    -0.237 OA
ATOM     91  O   UNL A   1      45.266  23.514  36.057  1.00  0.00    -0.744 OA
ENDBRANCH  85  88
ENDBRANCH  58  81
ENDBRANCH  32  33
ENDBRANCH  25  27
ENDBRANCH  24  25
ENDBRANCH   1  24
TORSDOF 15
ENDMDL
