MODEL 1
REMARK VINA RESULT:     -13.3      0.000      0.000
REMARK SMILES Cc1cccc(OC2(C(=O)OCCOC(=O)c3ccc(-c4c5nc(c(-c6cccc(S(=O)(=O)[O-])c6F)c6ccc([nH]6)c(-c6cccc(S(=O)(=O)[O-])c6F)c6nc(c(-c7cccc(S(=O)(=O)[O-])c7F)c7ccc4[nH]7)C=C6)C=C5)cc3)CCN(C(=O)c3cnc[nH]c3=O)CC2)c1
REMARK SMILES IDX 13 1 12 2 11 3 9 4 10 5 8 6 80 7 93 8 81 9 92 10 82 11 83 12
REMARK SMILES IDX 84 13 7 14 6 15 1 16 2 17 3 18 94 19 4 20 5 21 85 22 86 23
REMARK SMILES IDX 90 24 87 25 89 26 91 27 88 28 14 30 15 31 16 32 17 33 18 34
REMARK SMILES IDX 79 35 19 36 78 37 20 38 21 39 22 40 72 41 23 42 77 43 71 44
REMARK SMILES IDX 73 45 24 46 76 47 70 48 69 49 25 51 57 52 37 53 56 54 38 55
REMARK SMILES IDX 41 56 55 57 74 58 39 59 40 60 54 62 75 63 42 64 26 65 27 66
REMARK SMILES IDX 35 67 28 68 30 69 36 70 29 71 31 72 32 73 33 74 34 75 58 76
REMARK SMILES IDX 59 77 67 78 60 79 62 80 68 81 61 82 63 83 64 84 65 85 66 86
REMARK SMILES IDX 43 87 44 88 52 89 45 90 47 91 53 92 46 93 48 94 49 95 50 96
REMARK SMILES IDX 51 97
REMARK H PARENT 89 29 73 50 41 61
REMARK Flexibility Score: inf
ROOT
ATOM      1  C   UNL A   1      33.033  30.923  27.287  1.00  0.00     0.275 C 
ENDROOT
BRANCH   1   2
ATOM      2  C   UNL A   1      31.899  30.038  26.681  1.00  0.00     0.274 C 
BRANCH   2   3
ATOM      3  O   UNL A   1      32.044  28.633  26.377  1.00  0.00    -0.459 OA
BRANCH   3   4
ATOM      4  C   UNL A   1      32.588  28.274  25.191  1.00  0.00     0.350 C 
ATOM      5  O   UNL A   1      33.359  29.005  24.586  1.00  0.00    -0.247 OA
BRANCH   4   6
ATOM      6  C   UNL A   1      32.440  26.772  24.868  1.00  0.00     0.209 C 
ATOM      7  C   UNL A   1      33.893  26.487  24.411  1.00  0.00     0.082 C 
ATOM      8  C   UNL A   1      32.128  25.783  26.017  1.00  0.00     0.082 C 
ATOM      9  C   UNL A   1      34.043  25.090  23.893  1.00  0.00     0.124 C 
ATOM     10  C   UNL A   1      32.288  24.330  25.487  1.00  0.00     0.124 C 
ATOM     11  N   UNL A   1      33.630  24.150  24.911  1.00  0.00    -0.338 N 
ATOM     12  C   UNL A   1      34.493  23.119  25.213  1.00  0.00     0.261 C 
ATOM     13  O   UNL A   1      35.715  23.242  25.247  1.00  0.00    -0.269 OA
BRANCH   6  14
ATOM     14  O   UNL A   1      31.488  26.359  23.875  1.00  0.00    -0.475 OA
BRANCH  14  15
ATOM     15  C   UNL A   1      30.323  27.020  23.688  1.00  0.00     0.121 A 
ATOM     16  C   UNL A   1      29.060  30.087  21.876  1.00  0.00     0.044 C 
ATOM     17  C   UNL A   1      29.072  28.814  22.662  1.00  0.00    -0.047 A 
ATOM     18  C   UNL A   1      27.883  28.205  23.079  1.00  0.00     0.003 A 
ATOM     19  C   UNL A   1      30.289  28.194  22.947  1.00  0.00     0.050 A 
ATOM     20  C   UNL A   1      27.918  27.010  23.802  1.00  0.00     0.004 A 
ATOM     21  C   UNL A   1      29.142  26.414  24.106  1.00  0.00     0.046 A 
ENDBRANCH  14  15
ENDBRANCH   6  14
BRANCH  12  22
ATOM     22  C   UNL A   1      33.872  21.792  25.259  1.00  0.00     0.123 A 
ATOM     23  C   UNL A   1      33.317  21.240  24.175  1.00  0.00     0.132 A 
ATOM     24  C   UNL A   1      33.777  21.054  26.533  1.00  0.00     0.263 A 
ATOM     25  N   UNL A   1      32.699  20.010  24.157  1.00  0.00    -0.246 NA
ATOM     26  N   UNL A   1      33.185  19.827  26.442  1.00  0.00    -0.312 N 
ATOM     27  O   UNL A   1      34.169  21.495  27.609  1.00  0.00    -0.269 OA
ATOM     28  C   UNL A   1      32.670  19.362  25.270  1.00  0.00     0.199 A 
ATOM     29  H   UNL A   1      33.130  19.262  27.247  1.00  0.00     0.171 HD
ENDBRANCH  12  22
ENDBRANCH   4   6
ENDBRANCH   3   4
ENDBRANCH   2   3
ENDBRANCH   1   2
BRANCH   1  30
ATOM     30  O   UNL A   1      34.345  30.505  27.812  1.00  0.00    -0.458 OA
BRANCH  30  31
ATOM     31  C   UNL A   1      35.474  31.186  28.138  1.00  0.00     0.338 C 
ATOM     32  O   UNL A   1      35.596  32.400  28.016  1.00  0.00    -0.246 OA
BRANCH  31  33
ATOM     33  C   UNL A   1      36.611  30.334  28.451  1.00  0.00     0.060 A 
ATOM     34  C   UNL A   1      36.779  29.712  29.701  1.00  0.00     0.016 A 
ATOM     35  C   UNL A   1      37.459  30.091  27.380  1.00  0.00     0.016 A 
ATOM     36  C   UNL A   1      37.777  28.753  29.846  1.00  0.00     0.010 A 
ATOM     37  C   UNL A   1      38.314  29.031  27.469  1.00  0.00     0.010 A 
ATOM     38  C   UNL A   1      38.530  28.417  28.716  1.00  0.00    -0.014 A 
BRANCH  38  39
ATOM     39  C   UNL A   1      39.871  27.862  28.775  1.00  0.00     0.031 A 
ATOM     40  C   UNL A   1      40.199  26.466  28.485  1.00  0.00     0.074 A 
ATOM     41  C   UNL A   1      40.777  28.865  28.849  1.00  0.00     0.049 A 
ATOM     42  N   UNL A   1      41.267  25.905  28.931  1.00  0.00    -0.248 NA
ATOM     43  C   UNL A   1      39.358  25.573  27.692  1.00  0.00     0.031 C 
ATOM     44  C   UNL A   1      42.169  28.934  28.466  1.00  0.00     0.029 A 
ATOM     45  N   UNL A   1      40.513  30.138  29.384  1.00  0.00    -0.354 N 
ATOM     46  C   UNL A   1      41.411  24.714  28.252  1.00  0.00     0.074 A 
ATOM     47  C   UNL A   1      40.141  24.488  27.597  1.00  0.00     0.031 C 
ATOM     48  C   UNL A   1      42.697  30.051  29.013  1.00  0.00     0.029 A 
ATOM     49  C   UNL A   1      41.695  30.608  29.924  1.00  0.00     0.049 A 
ATOM     50  H   UNL A   1      39.648  30.607  29.374  1.00  0.00     0.167 HD
ATOM     51  C   UNL A   1      42.656  24.171  28.128  1.00  0.00     0.034 A 
ATOM     52  C   UNL A   1      41.807  30.786  31.275  1.00  0.00     0.034 A 
ATOM     53  C   UNL A   1      43.654  25.091  28.688  1.00  0.00     0.049 A 
ATOM     54  C   UNL A   1      42.886  29.884  31.819  1.00  0.00     0.074 A 
ATOM     55  C   UNL A   1      44.387  26.097  28.077  1.00  0.00     0.029 A 
ATOM     56  N   UNL A   1      43.753  25.304  30.057  1.00  0.00    -0.354 N 
ATOM     57  N   UNL A   1      43.287  28.799  31.222  1.00  0.00    -0.248 NA
ATOM     58  C   UNL A   1      43.569  30.123  33.082  1.00  0.00     0.031 C 
ATOM     59  C   UNL A   1      44.873  26.962  29.084  1.00  0.00     0.029 A 
ATOM     60  C   UNL A   1      44.453  26.475  30.312  1.00  0.00     0.049 A 
ATOM     61  H   UNL A   1      43.379  24.710  30.748  1.00  0.00     0.167 HD
ATOM     62  C   UNL A   1      44.200  28.158  32.005  1.00  0.00     0.074 A 
ATOM     63  C   UNL A   1      44.377  29.050  33.140  1.00  0.00     0.031 C 
ATOM     64  C   UNL A   1      44.689  26.928  31.677  1.00  0.00     0.034 A 
BRANCH  51  65
ATOM     65  C   UNL A   1      43.035  23.065  27.159  1.00  0.00     0.023 A 
ATOM     66  C   UNL A   1      43.832  23.434  26.049  1.00  0.00     0.012 A 
ATOM     67  C   UNL A   1      42.664  21.703  27.235  1.00  0.00     0.148 A 
ATOM     68  C   UNL A   1      44.163  22.550  25.020  1.00  0.00     0.002 A 
ATOM     69  C   UNL A   1      42.969  20.819  26.188  1.00  0.00     0.091 A 
ATOM     70  F   UNL A   1      42.054  21.250  28.339  1.00  0.00    -0.205 F 
ATOM     71  C   UNL A   1      43.709  21.246  25.077  1.00  0.00     0.022 A 
BRANCH  69  72
ATOM     72  S   UNL A   1      42.399  19.111  26.135  1.00  0.00     0.127 S 
ATOM     73  O   UNL A   1      40.987  19.270  25.776  1.00  0.00    -0.237 OA
ATOM     74  O   UNL A   1      43.229  18.533  25.081  1.00  0.00    -0.237 OA
ATOM     75  O   UNL A   1      42.615  18.575  27.473  1.00  0.00    -0.744 OA
ENDBRANCH  69  72
ENDBRANCH  51  65
BRANCH  52  76
ATOM     76  C   UNL A   1      40.512  31.051  32.012  1.00  0.00     0.023 A 
ATOM     77  C   UNL A   1      39.939  30.000  32.775  1.00  0.00     0.012 A 
ATOM     78  C   UNL A   1      40.031  32.358  32.226  1.00  0.00     0.148 A 
ATOM     79  C   UNL A   1      38.995  30.257  33.778  1.00  0.00     0.002 A 
ATOM     80  C   UNL A   1      39.094  32.607  33.232  1.00  0.00     0.091 A 
ATOM     81  F   UNL A   1      40.522  33.356  31.481  1.00  0.00    -0.205 F 
ATOM     82  C   UNL A   1      38.587  31.562  34.017  1.00  0.00     0.022 A 
BRANCH  80  83
ATOM     83  S   UNL A   1      38.612  34.282  33.685  1.00  0.00     0.127 S 
ATOM     84  O   UNL A   1      37.924  34.727  32.477  1.00  0.00    -0.237 OA
ATOM     85  O   UNL A   1      37.745  34.054  34.844  1.00  0.00    -0.237 OA
ATOM     86  O   UNL A   1      39.857  34.963  34.005  1.00  0.00    -0.744 OA
ENDBRANCH  80  83
ENDBRANCH  52  76
BRANCH  64  87
ATOM     87  C   UNL A   1      45.465  26.048  32.618  1.00  0.00     0.023 A 
ATOM     88  C   UNL A   1      46.865  26.132  32.724  1.00  0.00     0.012 A 
ATOM     89  C   UNL A   1      44.793  25.223  33.552  1.00  0.00     0.148 A 
ATOM     90  C   UNL A   1      47.577  25.377  33.658  1.00  0.00     0.002 A 
ATOM     91  C   UNL A   1      45.496  24.573  34.559  1.00  0.00     0.091 A 
ATOM     92  F   UNL A   1      43.465  25.051  33.466  1.00  0.00    -0.205 F 
ATOM     93  C   UNL A   1      46.890  24.615  34.594  1.00  0.00     0.022 A 
BRANCH  91  94
ATOM     94  S   UNL A   1      44.615  23.816  35.928  1.00  0.00     0.127 S 
ATOM     95  O   UNL A   1      45.705  23.431  36.820  1.00  0.00    -0.237 OA
ATOM     96  O   UNL A   1      43.784  24.917  36.421  1.00  0.00    -0.237 OA
ATOM     97  O   UNL A   1      43.858  22.727  35.322  1.00  0.00    -0.744 OA
ENDBRANCH  91  94
ENDBRANCH  64  87
ENDBRANCH  38  39
ENDBRANCH  31  33
ENDBRANCH  30  31
ENDBRANCH   1  30
TORSDOF 17
ENDMDL
MODEL 2
REMARK VINA RESULT:     -13.2      3.688      9.909
REMARK SMILES Cc1cccc(OC2(C(=O)OCCOC(=O)c3ccc(-c4c5nc(c(-c6cccc(S(=O)(=O)[O-])c6F)c6ccc([nH]6)c(-c6cccc(S(=O)(=O)[O-])c6F)c6nc(c(-c7cccc(S(=O)(=O)[O-])c7F)c7ccc4[nH]7)C=C6)C=C5)cc3)CCN(C(=O)c3cnc[nH]c3=O)CC2)c1
REMARK SMILES IDX 13 1 12 2 11 3 9 4 10 5 8 6 80 7 93 8 81 9 92 10 82 11 83 12
REMARK SMILES IDX 84 13 7 14 6 15 1 16 2 17 3 18 94 19 4 20 5 21 85 22 86 23
REMARK SMILES IDX 90 24 87 25 89 26 91 27 88 28 14 30 15 31 16 32 17 33 18 34
REMARK SMILES IDX 79 35 19 36 78 37 20 38 21 39 22 40 72 41 23 42 77 43 71 44
REMARK SMILES IDX 73 45 24 46 76 47 70 48 69 49 25 51 57 52 37 53 56 54 38 55
REMARK SMILES IDX 41 56 55 57 74 58 39 59 40 60 54 62 75 63 42 64 26 65 27 66
REMARK SMILES IDX 35 67 28 68 30 69 36 70 29 71 31 72 32 73 33 74 34 75 58 76
REMARK SMILES IDX 59 77 67 78 60 79 62 80 68 81 61 82 63 83 64 84 65 85 66 86
REMARK SMILES IDX 43 87 44 88 52 89 45 90 47 91 53 92 46 93 48 94 49 95 50 96
REMARK SMILES IDX 51 97
REMARK H PARENT 89 29 73 50 41 61
REMARK Flexibility Score: inf
ROOT
ATOM      1  C   UNL A   1      38.525  21.443  25.565  1.00  0.00     0.275 C 
ENDROOT
BRANCH   1   2
ATOM      2  C   UNL A   1      37.234  21.169  24.731  1.00  0.00     0.274 C 
BRANCH   2   3
ATOM      3  O   UNL A   1      36.212  22.158  24.472  1.00  0.00    -0.459 OA
BRANCH   3   4
ATOM      4  C   UNL A   1      35.240  22.350  25.393  1.00  0.00     0.350 C 
ATOM      5  O   UNL A   1      35.388  22.033  26.565  1.00  0.00    -0.247 OA
BRANCH   4   6
ATOM      6  C   UNL A   1      34.119  23.301  24.924  1.00  0.00     0.209 C 
ATOM      7  C   UNL A   1      34.017  24.185  26.193  1.00  0.00     0.082 C 
ATOM      8  C   UNL A   1      34.389  24.253  23.734  1.00  0.00     0.082 C 
ATOM      9  C   UNL A   1      32.885  25.161  26.095  1.00  0.00     0.124 C 
ATOM     10  C   UNL A   1      33.220  25.273  23.631  1.00  0.00     0.124 C 
ATOM     11  N   UNL A   1      33.051  25.976  24.912  1.00  0.00    -0.338 N 
ATOM     12  C   UNL A   1      32.966  27.342  25.064  1.00  0.00     0.261 C 
ATOM     13  O   UNL A   1      33.408  27.948  26.037  1.00  0.00    -0.269 OA
BRANCH   6  14
ATOM     14  O   UNL A   1      32.841  22.755  24.563  1.00  0.00    -0.475 OA
BRANCH  14  15
ATOM     15  C   UNL A   1      32.719  21.505  24.060  1.00  0.00     0.121 A 
ATOM     16  C   UNL A   1      32.694  17.936  25.302  1.00  0.00     0.044 C 
ATOM     17  C   UNL A   1      32.574  19.116  24.392  1.00  0.00    -0.047 A 
ATOM     18  C   UNL A   1      32.183  18.968  23.056  1.00  0.00     0.003 A 
ATOM     19  C   UNL A   1      32.811  20.397  24.892  1.00  0.00     0.050 A 
ATOM     20  C   UNL A   1      32.067  20.087  22.227  1.00  0.00     0.004 A 
ATOM     21  C   UNL A   1      32.332  21.360  22.731  1.00  0.00     0.046 A 
ENDBRANCH  14  15
ENDBRANCH   6  14
BRANCH  12  22
ATOM     22  C   UNL A   1      32.097  28.016  24.095  1.00  0.00     0.123 A 
ATOM     23  C   UNL A   1      30.767  27.877  24.132  1.00  0.00     0.132 A 
ATOM     24  C   UNL A   1      32.675  28.814  22.998  1.00  0.00     0.263 A 
ATOM     25  N   UNL A   1      29.897  28.462  23.240  1.00  0.00    -0.246 NA
ATOM     26  N   UNL A   1      31.761  29.396  22.168  1.00  0.00    -0.312 N 
ATOM     27  O   UNL A   1      33.880  28.941  22.807  1.00  0.00    -0.269 OA
ATOM     28  C   UNL A   1      30.422  29.194  22.318  1.00  0.00     0.199 A 
ATOM     29  H   UNL A   1      32.078  29.980  21.441  1.00  0.00     0.171 HD
ENDBRANCH  12  22
ENDBRANCH   4   6
ENDBRANCH   3   4
ENDBRANCH   2   3
ENDBRANCH   1   2
BRANCH   1  30
ATOM     30  O   UNL A   1      39.022  22.725  26.097  1.00  0.00    -0.458 OA
BRANCH  30  31
ATOM     31  C   UNL A   1      40.219  23.117  26.603  1.00  0.00     0.338 C 
ATOM     32  O   UNL A   1      41.147  22.349  26.832  1.00  0.00    -0.246 OA
BRANCH  31  33
ATOM     33  C   UNL A   1      40.249  24.501  27.051  1.00  0.00     0.060 A 
ATOM     34  C   UNL A   1      40.821  25.538  26.294  1.00  0.00     0.016 A 
ATOM     35  C   UNL A   1      39.564  24.736  28.235  1.00  0.00     0.016 A 
ATOM     36  C   UNL A   1      40.620  26.856  26.697  1.00  0.00     0.010 A 
ATOM     37  C   UNL A   1      39.219  26.023  28.530  1.00  0.00     0.010 A 
ATOM     38  C   UNL A   1      39.809  27.081  27.813  1.00  0.00    -0.014 A 
BRANCH  38  39
ATOM     39  C   UNL A   1      39.896  28.265  28.650  1.00  0.00     0.031 A 
ATOM     40  C   UNL A   1      38.924  29.357  28.636  1.00  0.00     0.074 A 
ATOM     41  C   UNL A   1      40.821  28.071  29.619  1.00  0.00     0.049 A 
ATOM     42  N   UNL A   1      39.217  30.541  29.046  1.00  0.00    -0.248 NA
ATOM     43  C   UNL A   1      37.553  29.231  28.148  1.00  0.00     0.031 C 
ATOM     44  C   UNL A   1      40.977  28.657  30.931  1.00  0.00     0.029 A 
ATOM     45  N   UNL A   1      41.918  27.198  29.510  1.00  0.00    -0.354 N 
ATOM     46  C   UNL A   1      38.029  31.231  29.167  1.00  0.00     0.074 A 
ATOM     47  C   UNL A   1      37.045  30.429  28.475  1.00  0.00     0.031 C 
ATOM     48  C   UNL A   1      42.214  28.349  31.381  1.00  0.00     0.029 A 
ATOM     49  C   UNL A   1      42.941  27.728  30.272  1.00  0.00     0.049 A 
ATOM     50  H   UNL A   1      41.950  26.363  28.988  1.00  0.00     0.167 HD
ATOM     51  C   UNL A   1      37.962  32.282  30.034  1.00  0.00     0.034 A 
ATOM     52  C   UNL A   1      44.080  28.181  29.667  1.00  0.00     0.034 A 
ATOM     53  C   UNL A   1      39.222  32.388  30.781  1.00  0.00     0.049 A 
ATOM     54  C   UNL A   1      44.241  29.658  29.927  1.00  0.00     0.074 A 
ATOM     55  C   UNL A   1      39.592  31.830  31.995  1.00  0.00     0.029 A 
ATOM     56  N   UNL A   1      40.392  32.815  30.167  1.00  0.00    -0.354 N 
ATOM     57  N   UNL A   1      43.252  30.447  30.235  1.00  0.00    -0.248 NA
ATOM     58  C   UNL A   1      45.515  30.355  29.832  1.00  0.00     0.031 C 
ATOM     59  C   UNL A   1      41.003  31.860  32.081  1.00  0.00     0.029 A 
ATOM     60  C   UNL A   1      41.495  32.452  30.929  1.00  0.00     0.049 A 
ATOM     61  H   UNL A   1      40.434  33.305  29.313  1.00  0.00     0.167 HD
ATOM     62  C   UNL A   1      43.701  31.731  30.313  1.00  0.00     0.074 A 
ATOM     63  C   UNL A   1      45.134  31.616  30.098  1.00  0.00     0.031 C 
ATOM     64  C   UNL A   1      42.847  32.780  30.497  1.00  0.00     0.034 A 
BRANCH  51  65
ATOM     65  C   UNL A   1      36.679  32.931  30.524  1.00  0.00     0.023 A 
ATOM     66  C   UNL A   1      36.330  32.712  31.879  1.00  0.00     0.012 A 
ATOM     67  C   UNL A   1      35.782  33.719  29.768  1.00  0.00     0.148 A 
ATOM     68  C   UNL A   1      35.127  33.150  32.436  1.00  0.00     0.002 A 
ATOM     69  C   UNL A   1      34.559  34.136  30.317  1.00  0.00     0.091 A 
ATOM     70  F   UNL A   1      36.129  34.105  28.533  1.00  0.00    -0.205 F 
ATOM     71  C   UNL A   1      34.228  33.842  31.646  1.00  0.00     0.022 A 
BRANCH  69  72
ATOM     72  S   UNL A   1      33.296  35.008  29.374  1.00  0.00     0.127 S 
ATOM     73  O   UNL A   1      32.299  35.313  30.405  1.00  0.00    -0.237 OA
ATOM     74  O   UNL A   1      34.023  36.173  28.874  1.00  0.00    -0.237 OA
ATOM     75  O   UNL A   1      32.833  34.070  28.360  1.00  0.00    -0.744 OA
ENDBRANCH  69  72
ENDBRANCH  51  65
BRANCH  52  76
ATOM     76  C   UNL A   1      44.417  27.542  28.337  1.00  0.00     0.023 A 
ATOM     77  C   UNL A   1      44.078  28.236  27.146  1.00  0.00     0.012 A 
ATOM     78  C   UNL A   1      45.317  26.462  28.238  1.00  0.00     0.148 A 
ATOM     79  C   UNL A   1      44.687  27.927  25.923  1.00  0.00     0.002 A 
ATOM     80  C   UNL A   1      45.924  26.163  27.015  1.00  0.00     0.091 A 
ATOM     81  F   UNL A   1      45.610  25.763  29.341  1.00  0.00    -0.205 F 
ATOM     82  C   UNL A   1      45.622  26.902  25.862  1.00  0.00     0.022 A 
BRANCH  80  83
ATOM     83  S   UNL A   1      47.236  24.937  26.883  1.00  0.00     0.127 S 
ATOM     84  O   UNL A   1      47.628  25.074  25.483  1.00  0.00    -0.237 OA
ATOM     85  O   UNL A   1      48.219  25.427  27.852  1.00  0.00    -0.237 OA
ATOM     86  O   UNL A   1      46.617  23.675  27.258  1.00  0.00    -0.744 OA
ENDBRANCH  80  83
ENDBRANCH  52  76
BRANCH  64  87
ATOM     87  C   UNL A   1      43.228  34.222  30.308  1.00  0.00     0.023 A 
ATOM     88  C   UNL A   1      43.673  35.016  31.381  1.00  0.00     0.012 A 
ATOM     89  C   UNL A   1      43.312  34.782  29.011  1.00  0.00     0.148 A 
ATOM     90  C   UNL A   1      44.108  36.329  31.192  1.00  0.00     0.002 A 
ATOM     91  C   UNL A   1      43.863  36.042  28.816  1.00  0.00     0.091 A 
ATOM     92  F   UNL A   1      42.847  34.101  27.952  1.00  0.00    -0.205 F 
ATOM     93  C   UNL A   1      44.227  36.835  29.905  1.00  0.00     0.022 A 
BRANCH  91  94
ATOM     94  S   UNL A   1      44.277  36.599  27.159  1.00  0.00     0.127 S 
ATOM     95  O   UNL A   1      42.972  36.617  26.505  1.00  0.00    -0.237 OA
ATOM     96  O   UNL A   1      44.857  37.921  27.402  1.00  0.00    -0.237 OA
ATOM     97  O   UNL A   1      45.234  35.613  26.669  1.00  0.00    -0.744 OA
ENDBRANCH  91  94
ENDBRANCH  64  87
ENDBRANCH  38  39
ENDBRANCH  31  33
ENDBRANCH  30  31
ENDBRANCH   1  30
TORSDOF 17
ENDMDL
MODEL 3
REMARK VINA RESULT:     -13.0      1.572      2.028
REMARK SMILES Cc1cccc(OC2(C(=O)OCCOC(=O)c3ccc(-c4c5nc(c(-c6cccc(S(=O)(=O)[O-])c6F)c6ccc([nH]6)c(-c6cccc(S(=O)(=O)[O-])c6F)c6nc(c(-c7cccc(S(=O)(=O)[O-])c7F)c7ccc4[nH]7)C=C6)C=C5)cc3)CCN(C(=O)c3cnc[nH]c3=O)CC2)c1
REMARK SMILES IDX 13 1 12 2 11 3 9 4 10 5 8 6 80 7 93 8 81 9 92 10 82 11 83 12
REMARK SMILES IDX 84 13 7 14 6 15 1 16 2 17 3 18 94 19 4 20 5 21 85 22 86 23
REMARK SMILES IDX 90 24 87 25 89 26 91 27 88 28 14 30 15 31 16 32 17 33 18 34
REMARK SMILES IDX 79 35 19 36 78 37 20 38 21 39 22 40 72 41 23 42 77 43 71 44
REMARK SMILES IDX 73 45 24 46 76 47 70 48 69 49 25 51 57 52 37 53 56 54 38 55
REMARK SMILES IDX 41 56 55 57 74 58 39 59 40 60 54 62 75 63 42 64 26 65 27 66
REMARK SMILES IDX 35 67 28 68 30 69 36 70 29 71 31 72 32 73 33 74 34 75 58 76
REMARK SMILES IDX 59 77 67 78 60 79 62 80 68 81 61 82 63 83 64 84 65 85 66 86
REMARK SMILES IDX 43 87 44 88 52 89 45 90 47 91 53 92 46 93 48 94 49 95 50 96
REMARK SMILES IDX 51 97
REMARK H PARENT 89 29 73 50 41 61
REMARK Flexibility Score: inf
ROOT
ATOM      1  C   UNL A   1      33.326  31.223  27.332  1.00  0.00     0.275 C 
ENDROOT
BRANCH   1   2
ATOM      2  C   UNL A   1      32.054  30.432  26.892  1.00  0.00     0.274 C 
BRANCH   2   3
ATOM      3  O   UNL A   1      32.059  29.038  26.510  1.00  0.00    -0.459 OA
BRANCH   3   4
ATOM      4  C   UNL A   1      32.487  28.702  25.271  1.00  0.00     0.350 C 
ATOM      5  O   UNL A   1      33.141  29.472  24.582  1.00  0.00    -0.247 OA
BRANCH   4   6
ATOM      6  C   UNL A   1      32.390  27.192  24.969  1.00  0.00     0.209 C 
ATOM      7  C   UNL A   1      33.843  26.958  24.482  1.00  0.00     0.082 C 
ATOM      8  C   UNL A   1      32.143  26.205  26.136  1.00  0.00     0.082 C 
ATOM      9  C   UNL A   1      34.036  25.562  23.977  1.00  0.00     0.124 C 
ATOM     10  C   UNL A   1      32.349  24.753  25.619  1.00  0.00     0.124 C 
ATOM     11  N   UNL A   1      33.684  24.619  25.015  1.00  0.00    -0.338 N 
ATOM     12  C   UNL A   1      34.593  23.627  25.308  1.00  0.00     0.261 C 
ATOM     13  O   UNL A   1      35.810  23.797  25.313  1.00  0.00    -0.269 OA
BRANCH   6  14
ATOM     14  O   UNL A   1      31.434  26.729  24.002  1.00  0.00    -0.475 OA
BRANCH  14  15
ATOM     15  C   UNL A   1      30.591  27.580  23.374  1.00  0.00     0.121 A 
ATOM     16  C   UNL A   1      26.920  28.480  23.408  1.00  0.00     0.044 C 
ATOM     17  C   UNL A   1      28.382  28.521  23.097  1.00  0.00    -0.047 A 
ATOM     18  C   UNL A   1      28.926  29.524  22.286  1.00  0.00     0.003 A 
ATOM     19  C   UNL A   1      29.232  27.569  23.662  1.00  0.00     0.050 A 
ATOM     20  C   UNL A   1      30.297  29.549  22.018  1.00  0.00     0.004 A 
ATOM     21  C   UNL A   1      31.133  28.576  22.566  1.00  0.00     0.046 A 
ENDBRANCH  14  15
ENDBRANCH   6  14
BRANCH  12  22
ATOM     22  C   UNL A   1      34.026  22.277  25.384  1.00  0.00     0.123 A 
ATOM     23  C   UNL A   1      33.597  21.634  24.291  1.00  0.00     0.132 A 
ATOM     24  C   UNL A   1      33.843  21.614  26.688  1.00  0.00     0.263 A 
ATOM     25  N   UNL A   1      33.036  20.378  24.297  1.00  0.00    -0.246 NA
ATOM     26  N   UNL A   1      33.313  20.357  26.624  1.00  0.00    -0.312 N 
ATOM     27  O   UNL A   1      34.114  22.137  27.765  1.00  0.00    -0.269 OA
ATOM     28  C   UNL A   1      32.929  19.798  25.443  1.00  0.00     0.199 A 
ATOM     29  H   UNL A   1      33.207  19.840  27.456  1.00  0.00     0.171 HD
ENDBRANCH  12  22
ENDBRANCH   4   6
ENDBRANCH   3   4
ENDBRANCH   2   3
ENDBRANCH   1   2
BRANCH   1  30
ATOM     30  O   UNL A   1      34.715  30.743  27.445  1.00  0.00    -0.458 OA
BRANCH  30  31
ATOM     31  C   UNL A   1      35.861  31.315  27.894  1.00  0.00     0.338 C 
ATOM     32  O   UNL A   1      36.064  32.525  27.895  1.00  0.00    -0.246 OA
BRANCH  31  33
ATOM     33  C   UNL A   1      36.923  30.365  28.188  1.00  0.00     0.060 A 
ATOM     34  C   UNL A   1      37.013  29.672  29.408  1.00  0.00     0.016 A 
ATOM     35  C   UNL A   1      37.776  30.110  27.124  1.00  0.00     0.016 A 
ATOM     36  C   UNL A   1      37.933  28.634  29.526  1.00  0.00     0.010 A 
ATOM     37  C   UNL A   1      38.547  28.986  27.177  1.00  0.00     0.010 A 
ATOM     38  C   UNL A   1      38.686  28.297  28.396  1.00  0.00    -0.014 A 
BRANCH  38  39
ATOM     39  C   UNL A   1      39.980  27.639  28.455  1.00  0.00     0.031 A 
ATOM     40  C   UNL A   1      40.178  26.197  28.320  1.00  0.00     0.074 A 
ATOM     41  C   UNL A   1      40.965  28.563  28.361  1.00  0.00     0.049 A 
ATOM     42  N   UNL A   1      41.223  25.602  28.777  1.00  0.00    -0.248 NA
ATOM     43  C   UNL A   1      39.222  25.292  27.685  1.00  0.00     0.031 C 
ATOM     44  C   UNL A   1      42.333  28.467  27.903  1.00  0.00     0.029 A 
ATOM     45  N   UNL A   1      40.836  29.908  28.750  1.00  0.00    -0.354 N 
ATOM     46  C   UNL A   1      41.231  24.332  28.242  1.00  0.00     0.074 A 
ATOM     47  C   UNL A   1      39.910  24.141  27.684  1.00  0.00     0.031 C 
ATOM     48  C   UNL A   1      42.980  29.591  28.283  1.00  0.00     0.029 A 
ATOM     49  C   UNL A   1      42.081  30.335  29.168  1.00  0.00     0.049 A 
ATOM     50  H   UNL A   1      40.011  30.445  28.726  1.00  0.00     0.167 HD
ATOM     51  C   UNL A   1      42.419  23.673  28.123  1.00  0.00     0.034 A 
ATOM     52  C   UNL A   1      42.287  30.659  30.480  1.00  0.00     0.034 A 
ATOM     53  C   UNL A   1      43.519  24.563  28.516  1.00  0.00     0.049 A 
ATOM     54  C   UNL A   1      43.323  29.738  31.076  1.00  0.00     0.074 A 
ATOM     55  C   UNL A   1      44.291  25.424  27.751  1.00  0.00     0.029 A 
ATOM     56  N   UNL A   1      43.716  24.926  29.842  1.00  0.00    -0.354 N 
ATOM     57  N   UNL A   1      43.600  28.560  30.595  1.00  0.00    -0.248 NA
ATOM     58  C   UNL A   1      44.097  30.064  32.264  1.00  0.00     0.031 C 
ATOM     59  C   UNL A   1      44.904  26.356  28.620  1.00  0.00     0.029 A 
ATOM     60  C   UNL A   1      44.521  26.054  29.917  1.00  0.00     0.049 A 
ATOM     61  H   UNL A   1      43.339  24.451  30.618  1.00  0.00     0.167 HD
ATOM     62  C   UNL A   1      44.505  27.939  31.404  1.00  0.00     0.074 A 
ATOM     63  C   UNL A   1      44.820  28.940  32.411  1.00  0.00     0.031 C 
ATOM     64  C   UNL A   1      44.874  26.641  31.203  1.00  0.00     0.034 A 
BRANCH  51  65
ATOM     65  C   UNL A   1      42.651  22.433  27.278  1.00  0.00     0.023 A 
ATOM     66  C   UNL A   1      41.930  21.270  27.640  1.00  0.00     0.012 A 
ATOM     67  C   UNL A   1      43.525  22.306  26.174  1.00  0.00     0.148 A 
ATOM     68  C   UNL A   1      42.124  20.030  27.028  1.00  0.00     0.002 A 
ATOM     69  C   UNL A   1      43.744  21.055  25.575  1.00  0.00     0.091 A 
ATOM     70  F   UNL A   1      44.111  23.402  25.673  1.00  0.00    -0.205 F 
ATOM     71  C   UNL A   1      43.052  19.917  26.010  1.00  0.00     0.022 A 
BRANCH  69  72
ATOM     72  S   UNL A   1      44.955  20.781  24.269  1.00  0.00     0.127 S 
ATOM     73  O   UNL A   1      44.612  19.431  23.813  1.00  0.00    -0.237 OA
ATOM     74  O   UNL A   1      44.636  21.840  23.315  1.00  0.00    -0.237 OA
ATOM     75  O   UNL A   1      46.261  20.878  24.907  1.00  0.00    -0.744 OA
ENDBRANCH  69  72
ENDBRANCH  51  65
BRANCH  52  76
ATOM     76  C   UNL A   1      41.064  31.119  31.244  1.00  0.00     0.023 A 
ATOM     77  C   UNL A   1      40.451  32.344  30.869  1.00  0.00     0.012 A 
ATOM     78  C   UNL A   1      40.339  30.249  32.081  1.00  0.00     0.148 A 
ATOM     79  C   UNL A   1      39.133  32.642  31.235  1.00  0.00     0.002 A 
ATOM     80  C   UNL A   1      39.022  30.550  32.437  1.00  0.00     0.091 A 
ATOM     81  F   UNL A   1      40.919  29.112  32.488  1.00  0.00    -0.205 F 
ATOM     82  C   UNL A   1      38.414  31.737  32.004  1.00  0.00     0.022 A 
BRANCH  80  83
ATOM     83  S   UNL A   1      37.986  29.374  33.323  1.00  0.00     0.127 S 
ATOM     84  O   UNL A   1      38.207  29.772  34.710  1.00  0.00    -0.237 OA
ATOM     85  O   UNL A   1      36.652  29.674  32.797  1.00  0.00    -0.237 OA
ATOM     86  O   UNL A   1      38.489  28.063  32.942  1.00  0.00    -0.744 OA
ENDBRANCH  80  83
ENDBRANCH  52  76
BRANCH  64  87
ATOM     87  C   UNL A   1      45.632  25.814  32.205  1.00  0.00     0.023 A 
ATOM     88  C   UNL A   1      47.033  25.887  32.314  1.00  0.00     0.012 A 
ATOM     89  C   UNL A   1      44.945  25.061  33.186  1.00  0.00     0.148 A 
ATOM     90  C   UNL A   1      47.729  25.185  33.300  1.00  0.00     0.002 A 
ATOM     91  C   UNL A   1      45.633  24.468  34.237  1.00  0.00     0.091 A 
ATOM     92  F   UNL A   1      43.615  24.901  33.103  1.00  0.00    -0.205 F 
ATOM     93  C   UNL A   1      47.027  24.494  34.278  1.00  0.00     0.022 A 
BRANCH  91  94
ATOM     94  S   UNL A   1      44.734  23.813  35.647  1.00  0.00     0.127 S 
ATOM     95  O   UNL A   1      43.751  22.943  35.008  1.00  0.00    -0.237 OA
ATOM     96  O   UNL A   1      45.779  23.108  36.392  1.00  0.00    -0.237 OA
ATOM     97  O   UNL A   1      44.212  24.991  36.330  1.00  0.00    -0.744 OA
ENDBRANCH  91  94
ENDBRANCH  64  87
ENDBRANCH  38  39
ENDBRANCH  31  33
ENDBRANCH  30  31
ENDBRANCH   1  30
TORSDOF 17
ENDMDL
