MODEL 1
REMARK VINA RESULT:     -11.1      0.000      0.000
REMARK SMILES C[C@@H](O)[C@@H](NC(=O)CCOc1ccc(Br)cc1)C(=O)OCCOC(=O)c1ccc(-c2c3nc(c(-c4cccc(S(=O)(=O)[O-])c4F)c4ccc([nH]4)c(-c4cccc(S(=O)(=O)[O-])c4F)c4nc(c(-c5cccc(S(=O)(=O)[O-])c5F)c5ccc2[nH]5)C=C4)C=C3)cc1
REMARK SMILES IDX 21 1 20 2 18 3 19 4 4 5 2 6 1 7 3 8 5 10 6 11 7 13 8 14 9 15
REMARK SMILES IDX 10 16 11 17 12 18 17 19 13 20 16 21 14 22 15 23 22 24 23 25
REMARK SMILES IDX 24 26 25 27 26 28 27 29 88 30 28 31 87 32 29 33 30 34 31 35
REMARK SMILES IDX 81 36 32 37 86 38 80 39 82 40 33 41 85 42 79 43 78 44 34 46
REMARK SMILES IDX 66 47 46 48 65 49 47 50 50 51 64 52 83 53 48 54 49 55 63 57
REMARK SMILES IDX 84 58 51 59 35 60 36 61 44 62 37 63 39 64 45 65 38 66 40 67
REMARK SMILES IDX 41 68 42 69 43 70 67 71 68 72 76 73 69 74 71 75 77 76 70 77
REMARK SMILES IDX 72 78 73 79 74 80 75 81 52 82 53 83 61 84 54 85 56 86 62 87
REMARK SMILES IDX 55 88 57 89 58 90 59 91 60 92
REMARK H PARENT 3 9 5 12 82 45 50 56
REMARK Flexibility Score: inf
ROOT
ATOM      1  C   UNL A   1      31.319  29.130  25.084  1.00  0.00     0.274 C 
ENDROOT
BRANCH   1   2
ATOM      2  O   UNL A   1      30.559  29.650  23.975  1.00  0.00    -0.460 OA
BRANCH   2   3
ATOM      3  C   UNL A   1      30.474  28.833  22.884  1.00  0.00     0.331 C 
ATOM      4  O   UNL A   1      30.129  29.203  21.767  1.00  0.00    -0.250 OA
BRANCH   3   5
ATOM      5  C   UNL A   1      30.726  27.360  23.226  1.00  0.00     0.221 C 
BRANCH   5   6
ATOM      6  C   UNL A   1      29.465  26.524  23.550  1.00  0.00     0.145 C 
ATOM      7  C   UNL A   1      29.501  25.960  24.968  1.00  0.00     0.041 C 
BRANCH   6   8
ATOM      8  O   UNL A   1      28.281  27.332  23.528  1.00  0.00    -0.391 OA
ATOM      9  H   UNL A   1      28.066  27.564  22.611  1.00  0.00     0.211 HD
ENDBRANCH   6   8
ENDBRANCH   5   6
BRANCH   5  10
ATOM     10  N   UNL A   1      31.719  26.738  22.332  1.00  0.00    -0.341 N 
ATOM     11  C   UNL A   1      33.025  26.401  22.482  1.00  0.00     0.224 C 
ATOM     12  H   UNL A   1      31.361  26.520  21.442  1.00  0.00     0.164 HD
ATOM     13  O   UNL A   1      33.630  25.996  21.484  1.00  0.00    -0.275 OA
BRANCH  11  14
ATOM     14  C   UNL A   1      33.741  26.462  23.810  1.00  0.00     0.141 C 
BRANCH  14  15
ATOM     15  C   UNL A   1      33.499  25.256  24.707  1.00  0.00     0.239 C 
BRANCH  15  16
ATOM     16  O   UNL A   1      32.521  24.350  24.194  1.00  0.00    -0.493 OA
BRANCH  16  17
ATOM     17  C   UNL A   1      32.737  23.005  24.334  1.00  0.00     0.119 A 
ATOM     18  C   UNL A   1      32.013  21.989  23.713  1.00  0.00     0.047 A 
ATOM     19  C   UNL A   1      33.854  22.666  25.106  1.00  0.00     0.047 A 
ATOM     20  C   UNL A   1      32.449  20.663  23.781  1.00  0.00     0.019 A 
ATOM     21  C   UNL A   1      34.287  21.340  25.189  1.00  0.00     0.019 A 
ATOM     22  C   UNL A   1      33.592  20.347  24.506  1.00  0.00     0.018 A 
ATOM     23  Br  UNL A   1      34.223  18.567  24.524  1.00  0.00    -0.051 Br
ENDBRANCH  16  17
ENDBRANCH  15  16
ENDBRANCH  14  15
ENDBRANCH  11  14
ENDBRANCH   5  10
ENDBRANCH   3   5
ENDBRANCH   2   3
ENDBRANCH   1   2
BRANCH   1  24
ATOM     24  C   UNL A   1      32.665  29.840  25.199  1.00  0.00     0.275 C 
BRANCH  24  25
ATOM     25  O   UNL A   1      33.129  29.789  26.558  1.00  0.00    -0.458 OA
BRANCH  25  26
ATOM     26  C   UNL A   1      33.462  30.975  27.113  1.00  0.00     0.338 C 
ATOM     27  O   UNL A   1      32.744  31.965  27.241  1.00  0.00    -0.246 OA
BRANCH  26  28
ATOM     28  C   UNL A   1      34.795  30.858  27.713  1.00  0.00     0.060 A 
ATOM     29  C   UNL A   1      35.177  29.601  28.172  1.00  0.00     0.016 A 
ATOM     30  C   UNL A   1      35.627  31.950  27.913  1.00  0.00     0.016 A 
ATOM     31  C   UNL A   1      36.349  29.410  28.875  1.00  0.00     0.010 A 
ATOM     32  C   UNL A   1      36.864  31.747  28.536  1.00  0.00     0.010 A 
ATOM     33  C   UNL A   1      37.230  30.475  29.023  1.00  0.00    -0.014 A 
BRANCH  33  34
ATOM     34  C   UNL A   1      38.533  30.251  29.685  1.00  0.00     0.031 A 
ATOM     35  C   UNL A   1      39.523  29.323  29.055  1.00  0.00     0.074 A 
ATOM     36  C   UNL A   1      38.807  30.866  30.852  1.00  0.00     0.049 A 
ATOM     37  N   UNL A   1      40.573  28.759  29.583  1.00  0.00    -0.248 NA
ATOM     38  C   UNL A   1      39.289  28.972  27.644  1.00  0.00     0.031 C 
ATOM     39  C   UNL A   1      37.951  31.854  31.517  1.00  0.00     0.029 A 
ATOM     40  N   UNL A   1      39.872  30.728  31.707  1.00  0.00    -0.354 N 
ATOM     41  C   UNL A   1      41.074  27.913  28.604  1.00  0.00     0.074 A 
ATOM     42  C   UNL A   1      40.235  28.067  27.434  1.00  0.00     0.031 C 
ATOM     43  C   UNL A   1      38.515  32.223  32.675  1.00  0.00     0.029 A 
ATOM     44  C   UNL A   1      39.715  31.424  32.884  1.00  0.00     0.049 A 
ATOM     45  H   UNL A   1      40.668  30.187  31.498  1.00  0.00     0.167 HD
ATOM     46  C   UNL A   1      42.134  27.078  28.689  1.00  0.00     0.034 A 
ATOM     47  C   UNL A   1      40.411  31.364  34.034  1.00  0.00     0.034 A 
ATOM     48  C   UNL A   1      42.984  26.993  29.846  1.00  0.00     0.049 A 
ATOM     49  C   UNL A   1      41.561  30.402  34.117  1.00  0.00     0.074 A 
ATOM     50  C   UNL A   1      44.102  26.203  30.040  1.00  0.00     0.029 A 
ATOM     51  N   UNL A   1      42.807  27.732  31.008  1.00  0.00    -0.354 N 
ATOM     52  N   UNL A   1      42.039  29.607  33.188  1.00  0.00    -0.248 NA
ATOM     53  C   UNL A   1      42.265  30.321  35.402  1.00  0.00     0.031 C 
ATOM     54  C   UNL A   1      44.593  26.456  31.326  1.00  0.00     0.029 A 
ATOM     55  C   UNL A   1      43.789  27.414  31.927  1.00  0.00     0.049 A 
ATOM     56  H   UNL A   1      42.088  28.389  31.154  1.00  0.00     0.167 HD
ATOM     57  C   UNL A   1      43.106  28.938  33.772  1.00  0.00     0.074 A 
ATOM     58  C   UNL A   1      43.223  29.447  35.126  1.00  0.00     0.031 C 
ATOM     59  C   UNL A   1      43.900  27.970  33.252  1.00  0.00     0.034 A 
BRANCH  46  60
ATOM     60  C   UNL A   1      42.422  26.192  27.509  1.00  0.00     0.023 A 
ATOM     61  C   UNL A   1      43.138  26.695  26.405  1.00  0.00     0.012 A 
ATOM     62  C   UNL A   1      41.998  24.848  27.505  1.00  0.00     0.148 A 
ATOM     63  C   UNL A   1      43.405  25.882  25.304  1.00  0.00     0.002 A 
ATOM     64  C   UNL A   1      42.299  24.033  26.419  1.00  0.00     0.091 A 
ATOM     65  F   UNL A   1      41.291  24.397  28.551  1.00  0.00    -0.205 F 
ATOM     66  C   UNL A   1      42.994  24.551  25.315  1.00  0.00     0.022 A 
BRANCH  64  67
ATOM     67  S   UNL A   1      41.867  22.291  26.369  1.00  0.00     0.127 S 
ATOM     68  O   UNL A   1      42.382  21.821  27.655  1.00  0.00    -0.237 OA
ATOM     69  O   UNL A   1      40.407  22.338  26.279  1.00  0.00    -0.237 OA
ATOM     70  O   UNL A   1      42.529  21.746  25.193  1.00  0.00    -0.744 OA
ENDBRANCH  64  67
ENDBRANCH  46  60
BRANCH  47  71
ATOM     71  C   UNL A   1      40.012  32.212  35.194  1.00  0.00     0.023 A 
ATOM     72  C   UNL A   1      40.517  33.521  35.296  1.00  0.00     0.012 A 
ATOM     73  C   UNL A   1      39.101  31.750  36.166  1.00  0.00     0.148 A 
ATOM     74  C   UNL A   1      40.132  34.351  36.351  1.00  0.00     0.002 A 
ATOM     75  C   UNL A   1      38.676  32.602  37.179  1.00  0.00     0.091 A 
ATOM     76  F   UNL A   1      38.649  30.492  36.070  1.00  0.00    -0.205 F 
ATOM     77  C   UNL A   1      39.201  33.897  37.283  1.00  0.00     0.022 A 
BRANCH  75  78
ATOM     78  S   UNL A   1      37.374  32.144  38.332  1.00  0.00     0.127 S 
ATOM     79  O   UNL A   1      37.923  32.608  39.603  1.00  0.00    -0.237 OA
ATOM     80  O   UNL A   1      36.236  32.917  37.833  1.00  0.00    -0.237 OA
ATOM     81  O   UNL A   1      37.221  30.702  38.193  1.00  0.00    -0.744 OA
ENDBRANCH  75  78
ENDBRANCH  47  71
BRANCH  59  82
ATOM     82  C   UNL A   1      44.971  27.411  34.146  1.00  0.00     0.023 A 
ATOM     83  C   UNL A   1      46.210  28.075  34.240  1.00  0.00     0.012 A 
ATOM     84  C   UNL A   1      44.725  26.278  34.944  1.00  0.00     0.148 A 
ATOM     85  C   UNL A   1      47.200  27.603  35.099  1.00  0.00     0.002 A 
ATOM     86  C   UNL A   1      45.699  25.842  35.832  1.00  0.00     0.091 A 
ATOM     87  F   UNL A   1      43.546  25.652  34.821  1.00  0.00    -0.205 F 
ATOM     88  C   UNL A   1      46.941  26.496  35.903  1.00  0.00     0.022 A 
BRANCH  86  89
ATOM     89  S   UNL A   1      45.419  24.482  36.971  1.00  0.00     0.127 S 
ATOM     90  O   UNL A   1      46.696  24.420  37.681  1.00  0.00    -0.237 OA
ATOM     91  O   UNL A   1      44.297  24.974  37.772  1.00  0.00    -0.237 OA
ATOM     92  O   UNL A   1      45.106  23.326  36.143  1.00  0.00    -0.744 OA
ENDBRANCH  86  89
ENDBRANCH  59  82
ENDBRANCH  33  34
ENDBRANCH  26  28
ENDBRANCH  25  26
ENDBRANCH  24  25
ENDBRANCH   1  24
TORSDOF 21
ENDMDL
MODEL 2
REMARK VINA RESULT:     -11.1      5.316      9.996
REMARK SMILES C[C@@H](O)[C@@H](NC(=O)CCOc1ccc(Br)cc1)C(=O)OCCOC(=O)c1ccc(-c2c3nc(c(-c4cccc(S(=O)(=O)[O-])c4F)c4ccc([nH]4)c(-c4cccc(S(=O)(=O)[O-])c4F)c4nc(c(-c5cccc(S(=O)(=O)[O-])c5F)c5ccc2[nH]5)C=C4)C=C3)cc1
REMARK SMILES IDX 21 1 20 2 18 3 19 4 4 5 2 6 1 7 3 8 5 10 6 11 7 13 8 14 9 15
REMARK SMILES IDX 10 16 11 17 12 18 17 19 13 20 16 21 14 22 15 23 22 24 23 25
REMARK SMILES IDX 24 26 25 27 26 28 27 29 88 30 28 31 87 32 29 33 30 34 31 35
REMARK SMILES IDX 81 36 32 37 86 38 80 39 82 40 33 41 85 42 79 43 78 44 34 46
REMARK SMILES IDX 66 47 46 48 65 49 47 50 50 51 64 52 83 53 48 54 49 55 63 57
REMARK SMILES IDX 84 58 51 59 35 60 36 61 44 62 37 63 39 64 45 65 38 66 40 67
REMARK SMILES IDX 41 68 42 69 43 70 67 71 68 72 76 73 69 74 71 75 77 76 70 77
REMARK SMILES IDX 72 78 73 79 74 80 75 81 52 82 53 83 61 84 54 85 56 86 62 87
REMARK SMILES IDX 55 88 57 89 58 90 59 91 60 92
REMARK H PARENT 3 9 5 12 82 45 50 56
REMARK Flexibility Score: inf
ROOT
ATOM      1  C   UNL A   1      35.010  20.465  25.028  1.00  0.00     0.274 C 
ENDROOT
BRANCH   1   2
ATOM      2  O   UNL A   1      33.930  21.050  24.274  1.00  0.00    -0.460 OA
BRANCH   2   3
ATOM      3  C   UNL A   1      32.701  21.002  24.868  1.00  0.00     0.331 C 
ATOM      4  O   UNL A   1      32.105  19.966  25.144  1.00  0.00    -0.250 OA
BRANCH   3   5
ATOM      5  C   UNL A   1      32.071  22.389  25.037  1.00  0.00     0.221 C 
BRANCH   5   6
ATOM      6  C   UNL A   1      31.925  22.884  26.496  1.00  0.00     0.145 C 
ATOM      7  C   UNL A   1      30.466  23.127  26.874  1.00  0.00     0.041 C 
BRANCH   6   8
ATOM      8  O   UNL A   1      32.365  21.892  27.432  1.00  0.00    -0.391 OA
ATOM      9  H   UNL A   1      31.652  21.704  28.062  1.00  0.00     0.211 HD
ENDBRANCH   6   8
ENDBRANCH   5   6
BRANCH   5  10
ATOM     10  N   UNL A   1      32.586  23.363  24.058  1.00  0.00    -0.341 N 
ATOM     11  C   UNL A   1      31.986  24.238  23.212  1.00  0.00     0.224 C 
ATOM     12  H   UNL A   1      33.569  23.383  24.007  1.00  0.00     0.164 HD
ATOM     13  O   UNL A   1      32.706  24.846  22.412  1.00  0.00    -0.275 OA
BRANCH  11  14
ATOM     14  C   UNL A   1      30.504  24.525  23.242  1.00  0.00     0.141 C 
BRANCH  14  15
ATOM     15  C   UNL A   1      30.104  25.656  24.178  1.00  0.00     0.239 C 
BRANCH  15  16
ATOM     16  O   UNL A   1      30.663  26.920  23.816  1.00  0.00    -0.493 OA
BRANCH  16  17
ATOM     17  C   UNL A   1      31.538  27.522  24.681  1.00  0.00     0.119 A 
ATOM     18  C   UNL A   1      31.430  27.551  26.070  1.00  0.00     0.047 A 
ATOM     19  C   UNL A   1      32.679  28.063  24.079  1.00  0.00     0.047 A 
ATOM     20  C   UNL A   1      32.484  28.027  26.854  1.00  0.00     0.019 A 
ATOM     21  C   UNL A   1      33.732  28.553  24.857  1.00  0.00     0.019 A 
ATOM     22  C   UNL A   1      33.636  28.512  26.245  1.00  0.00     0.018 A 
ATOM     23  Br  UNL A   1      35.089  29.075  27.311  1.00  0.00    -0.051 Br
ENDBRANCH  16  17
ENDBRANCH  15  16
ENDBRANCH  14  15
ENDBRANCH  11  14
ENDBRANCH   5  10
ENDBRANCH   3   5
ENDBRANCH   2   3
ENDBRANCH   1   2
BRANCH   1  24
ATOM     24  C   UNL A   1      35.608  21.481  25.997  1.00  0.00     0.275 C 
BRANCH  24  25
ATOM     25  O   UNL A   1      36.738  22.127  25.391  1.00  0.00    -0.458 OA
BRANCH  25  26
ATOM     26  C   UNL A   1      37.946  21.590  25.671  1.00  0.00     0.338 C 
ATOM     27  O   UNL A   1      38.357  20.477  25.350  1.00  0.00    -0.246 OA
BRANCH  26  28
ATOM     28  C   UNL A   1      38.788  22.619  26.290  1.00  0.00     0.060 A 
ATOM     29  C   UNL A   1      38.452  23.947  26.045  1.00  0.00     0.016 A 
ATOM     30  C   UNL A   1      39.931  22.316  27.016  1.00  0.00     0.016 A 
ATOM     31  C   UNL A   1      39.256  24.988  26.463  1.00  0.00     0.010 A 
ATOM     32  C   UNL A   1      40.698  23.368  27.530  1.00  0.00     0.010 A 
ATOM     33  C   UNL A   1      40.366  24.711  27.253  1.00  0.00    -0.014 A 
BRANCH  33  34
ATOM     34  C   UNL A   1      41.171  25.829  27.789  1.00  0.00     0.031 A 
ATOM     35  C   UNL A   1      40.508  26.865  28.640  1.00  0.00     0.074 A 
ATOM     36  C   UNL A   1      42.482  25.914  27.491  1.00  0.00     0.049 A 
ATOM     37  N   UNL A   1      40.929  28.055  28.964  1.00  0.00    -0.248 NA
ATOM     38  C   UNL A   1      39.185  26.519  29.187  1.00  0.00     0.031 C 
ATOM     39  C   UNL A   1      43.252  24.918  26.739  1.00  0.00     0.029 A 
ATOM     40  N   UNL A   1      43.397  26.900  27.759  1.00  0.00    -0.354 N 
ATOM     41  C   UNL A   1      39.889  28.639  29.673  1.00  0.00     0.074 A 
ATOM     42  C   UNL A   1      38.829  27.657  29.765  1.00  0.00     0.031 C 
ATOM     43  C   UNL A   1      44.514  25.346  26.596  1.00  0.00     0.029 A 
ATOM     44  C   UNL A   1      44.614  26.689  27.153  1.00  0.00     0.049 A 
ATOM     45  H   UNL A   1      43.203  27.680  28.329  1.00  0.00     0.167 HD
ATOM     46  C   UNL A   1      39.830  29.889  30.186  1.00  0.00     0.034 A 
ATOM     47  C   UNL A   1      45.666  27.514  26.991  1.00  0.00     0.034 A 
ATOM     48  C   UNL A   1      40.924  30.821  30.128  1.00  0.00     0.049 A 
ATOM     49  C   UNL A   1      45.562  28.909  27.536  1.00  0.00     0.074 A 
ATOM     50  C   UNL A   1      40.991  32.105  30.634  1.00  0.00     0.029 A 
ATOM     51  N   UNL A   1      42.148  30.559  29.529  1.00  0.00    -0.354 N 
ATOM     52  N   UNL A   1      44.580  29.458  28.213  1.00  0.00    -0.248 NA
ATOM     53  C   UNL A   1      46.702  29.800  27.295  1.00  0.00     0.031 C 
ATOM     54  C   UNL A   1      42.254  32.626  30.327  1.00  0.00     0.029 A 
ATOM     55  C   UNL A   1      42.977  31.660  29.643  1.00  0.00     0.049 A 
ATOM     56  H   UNL A   1      42.391  29.713  29.088  1.00  0.00     0.167 HD
ATOM     57  C   UNL A   1      44.988  30.757  28.487  1.00  0.00     0.074 A 
ATOM     58  C   UNL A   1      46.320  30.900  27.931  1.00  0.00     0.031 C 
ATOM     59  C   UNL A   1      44.314  31.753  29.114  1.00  0.00     0.034 A 
BRANCH  46  60
ATOM     60  C   UNL A   1      38.544  30.316  30.838  1.00  0.00     0.023 A 
ATOM     61  C   UNL A   1      38.257  29.922  32.159  1.00  0.00     0.012 A 
ATOM     62  C   UNL A   1      37.627  31.130  30.144  1.00  0.00     0.148 A 
ATOM     63  C   UNL A   1      37.065  30.309  32.771  1.00  0.00     0.002 A 
ATOM     64  C   UNL A   1      36.458  31.543  30.773  1.00  0.00     0.091 A 
ATOM     65  F   UNL A   1      37.905  31.470  28.876  1.00  0.00    -0.205 F 
ATOM     66  C   UNL A   1      36.171  31.126  32.082  1.00  0.00     0.022 A 
BRANCH  64  67
ATOM     67  S   UNL A   1      35.276  32.645  29.989  1.00  0.00     0.127 S 
ATOM     68  O   UNL A   1      34.273  32.800  31.043  1.00  0.00    -0.237 OA
ATOM     69  O   UNL A   1      36.085  33.839  29.740  1.00  0.00    -0.237 OA
ATOM     70  O   UNL A   1      34.821  31.959  28.788  1.00  0.00    -0.744 OA
ENDBRANCH  64  67
ENDBRANCH  46  60
BRANCH  47  71
ATOM     71  C   UNL A   1      46.876  27.047  26.255  1.00  0.00     0.023 A 
ATOM     72  C   UNL A   1      46.971  27.278  24.870  1.00  0.00     0.012 A 
ATOM     73  C   UNL A   1      47.950  26.424  26.922  1.00  0.00     0.148 A 
ATOM     74  C   UNL A   1      48.108  26.886  24.161  1.00  0.00     0.002 A 
ATOM     75  C   UNL A   1      49.104  26.091  26.221  1.00  0.00     0.091 A 
ATOM     76  F   UNL A   1      47.833  26.187  28.236  1.00  0.00    -0.205 F 
ATOM     77  C   UNL A   1      49.179  26.307  24.838  1.00  0.00     0.022 A 
BRANCH  75  78
ATOM     78  S   UNL A   1      50.580  25.475  27.042  1.00  0.00     0.127 S 
ATOM     79  O   UNL A   1      50.084  24.257  27.677  1.00  0.00    -0.237 OA
ATOM     80  O   UNL A   1      51.489  25.256  25.916  1.00  0.00    -0.237 OA
ATOM     81  O   UNL A   1      50.995  26.540  27.945  1.00  0.00    -0.744 OA
ENDBRANCH  75  78
ENDBRANCH  47  71
BRANCH  59  82
ATOM     82  C   UNL A   1      45.015  33.076  29.241  1.00  0.00     0.023 A 
ATOM     83  C   UNL A   1      45.866  33.305  30.340  1.00  0.00     0.012 A 
ATOM     84  C   UNL A   1      44.888  34.059  28.241  1.00  0.00     0.148 A 
ATOM     85  C   UNL A   1      46.565  34.505  30.454  1.00  0.00     0.002 A 
ATOM     86  C   UNL A   1      45.623  35.233  28.338  1.00  0.00     0.091 A 
ATOM     87  F   UNL A   1      44.055  33.825  27.217  1.00  0.00    -0.205 F 
ATOM     88  C   UNL A   1      46.453  35.462  29.448  1.00  0.00     0.022 A 
BRANCH  86  89
ATOM     89  S   UNL A   1      45.612  36.480  27.046  1.00  0.00     0.127 S 
ATOM     90  O   UNL A   1      46.538  37.475  27.585  1.00  0.00    -0.237 OA
ATOM     91  O   UNL A   1      46.118  35.736  25.892  1.00  0.00    -0.237 OA
ATOM     92  O   UNL A   1      44.228  36.915  26.922  1.00  0.00    -0.744 OA
ENDBRANCH  86  89
ENDBRANCH  59  82
ENDBRANCH  33  34
ENDBRANCH  26  28
ENDBRANCH  25  26
ENDBRANCH  24  25
ENDBRANCH   1  24
TORSDOF 21
ENDMDL
MODEL 3
REMARK VINA RESULT:     -10.9      5.444     10.242
REMARK SMILES C[C@@H](O)[C@@H](NC(=O)CCOc1ccc(Br)cc1)C(=O)OCCOC(=O)c1ccc(-c2c3nc(c(-c4cccc(S(=O)(=O)[O-])c4F)c4ccc([nH]4)c(-c4cccc(S(=O)(=O)[O-])c4F)c4nc(c(-c5cccc(S(=O)(=O)[O-])c5F)c5ccc2[nH]5)C=C4)C=C3)cc1
REMARK SMILES IDX 21 1 20 2 18 3 19 4 4 5 2 6 1 7 3 8 5 10 6 11 7 13 8 14 9 15
REMARK SMILES IDX 10 16 11 17 12 18 17 19 13 20 16 21 14 22 15 23 22 24 23 25
REMARK SMILES IDX 24 26 25 27 26 28 27 29 88 30 28 31 87 32 29 33 30 34 31 35
REMARK SMILES IDX 81 36 32 37 86 38 80 39 82 40 33 41 85 42 79 43 78 44 34 46
REMARK SMILES IDX 66 47 46 48 65 49 47 50 50 51 64 52 83 53 48 54 49 55 63 57
REMARK SMILES IDX 84 58 51 59 35 60 36 61 44 62 37 63 39 64 45 65 38 66 40 67
REMARK SMILES IDX 41 68 42 69 43 70 67 71 68 72 76 73 69 74 71 75 77 76 70 77
REMARK SMILES IDX 72 78 73 79 74 80 75 81 52 82 53 83 61 84 54 85 56 86 62 87
REMARK SMILES IDX 55 88 57 89 58 90 59 91 60 92
REMARK H PARENT 3 9 5 12 82 45 50 56
REMARK Flexibility Score: inf
ROOT
ATOM      1  C   UNL A   1      35.916  22.967  23.804  1.00  0.00     0.274 C 
ENDROOT
BRANCH   1   2
ATOM      2  O   UNL A   1      35.059  23.982  24.363  1.00  0.00    -0.460 OA
BRANCH   2   3
ATOM      3  C   UNL A   1      34.217  24.595  23.480  1.00  0.00     0.331 C 
ATOM      4  O   UNL A   1      33.908  24.137  22.384  1.00  0.00    -0.250 OA
BRANCH   3   5
ATOM      5  C   UNL A   1      33.795  25.995  23.939  1.00  0.00     0.221 C 
BRANCH   5   6
ATOM      6  C   UNL A   1      33.353  26.962  22.815  1.00  0.00     0.145 C 
ATOM      7  C   UNL A   1      34.055  28.314  22.915  1.00  0.00     0.041 C 
BRANCH   6   8
ATOM      8  O   UNL A   1      33.730  26.471  21.523  1.00  0.00    -0.391 OA
ATOM      9  H   UNL A   1      33.210  26.924  20.841  1.00  0.00     0.211 HD
ENDBRANCH   6   8
ENDBRANCH   5   6
BRANCH   5  10
ATOM     10  N   UNL A   1      32.953  25.960  25.148  1.00  0.00    -0.341 N 
ATOM     11  C   UNL A   1      31.679  25.554  25.384  1.00  0.00     0.224 C 
ATOM     12  H   UNL A   1      33.407  26.302  25.951  1.00  0.00     0.164 HD
ATOM     13  O   UNL A   1      31.209  25.769  26.506  1.00  0.00    -0.275 OA
BRANCH  11  14
ATOM     14  C   UNL A   1      30.849  24.821  24.358  1.00  0.00     0.141 C 
BRANCH  14  15
ATOM     15  C   UNL A   1      30.037  25.728  23.445  1.00  0.00     0.239 C 
BRANCH  15  16
ATOM     16  O   UNL A   1      29.603  26.933  24.077  1.00  0.00    -0.493 OA
BRANCH  16  17
ATOM     17  C   UNL A   1      29.165  27.965  23.291  1.00  0.00     0.119 A 
ATOM     18  C   UNL A   1      27.860  28.447  23.220  1.00  0.00     0.047 A 
ATOM     19  C   UNL A   1      30.172  28.629  22.581  1.00  0.00     0.047 A 
ATOM     20  C   UNL A   1      27.575  29.627  22.529  1.00  0.00     0.019 A 
ATOM     21  C   UNL A   1      29.891  29.804  21.877  1.00  0.00     0.019 A 
ATOM     22  C   UNL A   1      28.594  30.308  21.873  1.00  0.00     0.018 A 
ATOM     23  Br  UNL A   1      28.219  31.946  21.012  1.00  0.00    -0.051 Br
ENDBRANCH  16  17
ENDBRANCH  15  16
ENDBRANCH  14  15
ENDBRANCH  11  14
ENDBRANCH   5  10
ENDBRANCH   3   5
ENDBRANCH   2   3
ENDBRANCH   1   2
BRANCH   1  24
ATOM     24  C   UNL A   1      36.027  21.771  24.746  1.00  0.00     0.275 C 
BRANCH  24  25
ATOM     25  O   UNL A   1      36.840  22.116  25.880  1.00  0.00    -0.458 OA
BRANCH  25  26
ATOM     26  C   UNL A   1      38.133  21.730  25.819  1.00  0.00     0.338 C 
ATOM     27  O   UNL A   1      38.589  20.748  25.236  1.00  0.00    -0.246 OA
BRANCH  26  28
ATOM     28  C   UNL A   1      38.966  22.771  26.428  1.00  0.00     0.060 A 
ATOM     29  C   UNL A   1      38.638  24.094  26.147  1.00  0.00     0.016 A 
ATOM     30  C   UNL A   1      40.095  22.484  27.182  1.00  0.00     0.016 A 
ATOM     31  C   UNL A   1      39.436  25.143  26.554  1.00  0.00     0.010 A 
ATOM     32  C   UNL A   1      40.855  23.546  27.684  1.00  0.00     0.010 A 
ATOM     33  C   UNL A   1      40.531  24.882  27.370  1.00  0.00    -0.014 A 
BRANCH  33  34
ATOM     34  C   UNL A   1      41.329  26.011  27.895  1.00  0.00     0.031 A 
ATOM     35  C   UNL A   1      40.663  27.042  28.749  1.00  0.00     0.074 A 
ATOM     36  C   UNL A   1      42.636  26.109  27.583  1.00  0.00     0.049 A 
ATOM     37  N   UNL A   1      41.074  28.239  29.065  1.00  0.00    -0.248 NA
ATOM     38  C   UNL A   1      39.349  26.683  29.310  1.00  0.00     0.031 C 
ATOM     39  C   UNL A   1      43.409  25.120  26.826  1.00  0.00     0.029 A 
ATOM     40  N   UNL A   1      43.543  27.107  27.838  1.00  0.00    -0.354 N 
ATOM     41  C   UNL A   1      40.034  28.813  29.782  1.00  0.00     0.074 A 
ATOM     42  C   UNL A   1      38.987  27.820  29.889  1.00  0.00     0.031 C 
ATOM     43  C   UNL A   1      44.664  25.562  26.669  1.00  0.00     0.029 A 
ATOM     44  C   UNL A   1      44.756  26.907  27.220  1.00  0.00     0.049 A 
ATOM     45  H   UNL A   1      43.345  27.887  28.407  1.00  0.00     0.167 HD
ATOM     46  C   UNL A   1      39.967  30.064  30.291  1.00  0.00     0.034 A 
ATOM     47  C   UNL A   1      45.796  27.744  27.045  1.00  0.00     0.034 A 
ATOM     48  C   UNL A   1      41.049  31.008  30.219  1.00  0.00     0.049 A 
ATOM     49  C   UNL A   1      45.682  29.139  27.586  1.00  0.00     0.074 A 
ATOM     50  C   UNL A   1      41.108  32.295  30.720  1.00  0.00     0.029 A 
ATOM     51  N   UNL A   1      42.271  30.758  29.608  1.00  0.00    -0.354 N 
ATOM     52  N   UNL A   1      44.701  29.680  28.271  1.00  0.00    -0.248 NA
ATOM     53  C   UNL A   1      46.810  30.043  27.331  1.00  0.00     0.031 C 
ATOM     54  C   UNL A   1      42.361  32.828  30.399  1.00  0.00     0.029 A 
ATOM     55  C   UNL A   1      43.088  31.868  29.710  1.00  0.00     0.049 A 
ATOM     56  H   UNL A   1      42.518  29.913  29.168  1.00  0.00     0.167 HD
ATOM     57  C   UNL A   1      45.097  30.984  28.536  1.00  0.00     0.074 A 
ATOM     58  C   UNL A   1      46.422  31.140  27.966  1.00  0.00     0.031 C 
ATOM     59  C   UNL A   1      44.418  31.974  29.167  1.00  0.00     0.034 A 
BRANCH  46  60
ATOM     60  C   UNL A   1      38.683  30.479  30.955  1.00  0.00     0.023 A 
ATOM     61  C   UNL A   1      38.472  30.203  32.320  1.00  0.00     0.012 A 
ATOM     62  C   UNL A   1      37.692  31.166  30.227  1.00  0.00     0.148 A 
ATOM     63  C   UNL A   1      37.282  30.578  32.943  1.00  0.00     0.002 A 
ATOM     64  C   UNL A   1      36.524  31.571  30.864  1.00  0.00     0.091 A 
ATOM     65  F   UNL A   1      37.899  31.393  28.921  1.00  0.00    -0.205 F 
ATOM     66  C   UNL A   1      36.314  31.270  32.219  1.00  0.00     0.022 A 
BRANCH  64  67
ATOM     67  S   UNL A   1      35.247  32.520  30.030  1.00  0.00     0.127 S 
ATOM     68  O   UNL A   1      34.292  32.746  31.114  1.00  0.00    -0.237 OA
ATOM     69  O   UNL A   1      35.978  33.714  29.604  1.00  0.00    -0.237 OA
ATOM     70  O   UNL A   1      34.769  31.681  28.940  1.00  0.00    -0.744 OA
ENDBRANCH  64  67
ENDBRANCH  46  60
BRANCH  47  71
ATOM     71  C   UNL A   1      47.003  27.288  26.298  1.00  0.00     0.023 A 
ATOM     72  C   UNL A   1      47.895  26.389  26.912  1.00  0.00     0.012 A 
ATOM     73  C   UNL A   1      47.248  27.697  24.970  1.00  0.00     0.148 A 
ATOM     74  C   UNL A   1      49.013  25.916  26.223  1.00  0.00     0.002 A 
ATOM     75  C   UNL A   1      48.330  27.176  24.271  1.00  0.00     0.091 A 
ATOM     76  F   UNL A   1      46.404  28.574  24.408  1.00  0.00    -0.205 F 
ATOM     77  C   UNL A   1      49.223  26.297  24.900  1.00  0.00     0.022 A 
BRANCH  75  78
ATOM     78  S   UNL A   1      48.588  27.503  22.522  1.00  0.00     0.127 S 
ATOM     79  O   UNL A   1      48.679  26.152  21.974  1.00  0.00    -0.237 OA
ATOM     80  O   UNL A   1      47.372  28.233  22.163  1.00  0.00    -0.237 OA
ATOM     81  O   UNL A   1      49.805  28.302  22.452  1.00  0.00    -0.744 OA
ENDBRANCH  75  78
ENDBRANCH  47  71
BRANCH  59  82
ATOM     82  C   UNL A   1      45.105  33.306  29.283  1.00  0.00     0.023 A 
ATOM     83  C   UNL A   1      45.963  33.549  30.373  1.00  0.00     0.012 A 
ATOM     84  C   UNL A   1      44.960  34.282  28.280  1.00  0.00     0.148 A 
ATOM     85  C   UNL A   1      46.649  34.758  30.476  1.00  0.00     0.002 A 
ATOM     86  C   UNL A   1      45.683  35.465  28.365  1.00  0.00     0.091 A 
ATOM     87  F   UNL A   1      44.121  34.035  27.264  1.00  0.00    -0.205 F 
ATOM     88  C   UNL A   1      46.519  35.709  29.467  1.00  0.00     0.022 A 
BRANCH  86  89
ATOM     89  S   UNL A   1      45.647  36.706  27.068  1.00  0.00     0.127 S 
ATOM     90  O   UNL A   1      44.215  36.970  26.947  1.00  0.00    -0.237 OA
ATOM     91  O   UNL A   1      46.423  37.797  27.661  1.00  0.00    -0.237 OA
ATOM     92  O   UNL A   1      46.270  36.087  25.906  1.00  0.00    -0.744 OA
ENDBRANCH  86  89
ENDBRANCH  59  82
ENDBRANCH  33  34
ENDBRANCH  26  28
ENDBRANCH  25  26
ENDBRANCH  24  25
ENDBRANCH   1  24
TORSDOF 21
ENDMDL
