MODEL 1
REMARK VINA RESULT:     -11.0      0.000      0.000
REMARK SMILES O=C(Cc1ccn(C(F)F)c(=O)c1)OCCOC(=O)c1ccc(-c2c3nc(c(-c4cccc(S(=O)(=O)[O-])c4F)c4ccc([nH]4)c(-c4cccc(S(=O)(=O)[O-])c4F)c4nc(c(-c5cccc(S(=O)(=O)[O-])c5F)c5ccc2[nH]5)C=C4)C=C3)cc1
REMARK SMILES IDX 16 1 15 2 14 3 2 4 1 5 3 6 4 7 5 8 13 9 6 10 11 11 7 12
REMARK SMILES IDX 12 13 8 14 9 15 10 16 17 17 18 18 19 19 20 20 21 21 82 22
REMARK SMILES IDX 22 23 81 24 23 25 24 26 25 27 75 28 26 29 80 30 74 31 76 32
REMARK SMILES IDX 27 33 79 34 73 35 72 36 28 38 60 39 40 40 59 41 41 42 44 43
REMARK SMILES IDX 58 44 77 45 42 46 43 47 57 49 78 50 45 51 29 52 30 53 38 54
REMARK SMILES IDX 31 55 33 56 39 57 32 58 34 59 35 60 36 61 37 62 61 63 62 64
REMARK SMILES IDX 70 65 63 66 65 67 71 68 64 69 66 70 67 71 68 72 69 73 46 74
REMARK SMILES IDX 47 75 55 76 48 77 50 78 56 79 49 80 51 81 52 82 53 83 54 84
REMARK H PARENT 76 37 44 48
REMARK Flexibility Score: inf
ROOT
ATOM      1  C   UNL A   1      37.685  20.971  24.873  1.00  0.00     0.275 C 
ENDROOT
BRANCH   1   2
ATOM      2  C   UNL A   1      36.202  20.623  25.004  1.00  0.00     0.274 C 
BRANCH   2   3
ATOM      3  O   UNL A   1      35.379  21.622  24.365  1.00  0.00    -0.462 OA
BRANCH   3   4
ATOM      4  C   UNL A   1      35.786  22.856  23.989  1.00  0.00     0.310 C 
ATOM      5  O   UNL A   1      36.174  23.047  22.837  1.00  0.00    -0.252 OA
BRANCH   4   6
ATOM      6  C   UNL A   1      35.756  23.988  24.999  1.00  0.00     0.158 C 
BRANCH   6   7
ATOM      7  C   UNL A   1      34.424  24.626  25.272  1.00  0.00    -0.030 A 
ATOM      8  C   UNL A   1      34.082  25.888  24.654  1.00  0.00     0.023 A 
ATOM      9  C   UNL A   1      33.564  24.069  26.144  1.00  0.00     0.076 A 
ATOM     10  C   UNL A   1      32.944  26.513  24.983  1.00  0.00     0.095 A 
ATOM     11  C   UNL A   1      32.281  24.736  26.498  1.00  0.00     0.255 A 
ATOM     12  N   UNL A   1      32.066  25.967  25.901  1.00  0.00    -0.258 N 
ATOM     13  O   UNL A   1      31.521  24.164  27.271  1.00  0.00    -0.269 OA
BRANCH  12  14
ATOM     14  C   UNL A   1      30.883  26.684  26.299  1.00  0.00     0.451 C 
ATOM     15  F   UNL A   1      30.901  27.952  25.818  1.00  0.00    -0.185 F 
ATOM     16  F   UNL A   1      29.766  26.076  25.838  1.00  0.00    -0.185 F 
ENDBRANCH  12  14
ENDBRANCH   6   7
ENDBRANCH   4   6
ENDBRANCH   3   4
ENDBRANCH   2   3
ENDBRANCH   1   2
BRANCH   1  17
ATOM     17  O   UNL A   1      38.161  21.528  26.110  1.00  0.00    -0.458 OA
BRANCH  17  18
ATOM     18  C   UNL A   1      39.462  21.303  26.422  1.00  0.00     0.338 C 
ATOM     19  O   UNL A   1      40.091  20.280  26.216  1.00  0.00    -0.246 OA
BRANCH  18  20
ATOM     20  C   UNL A   1      40.066  22.603  26.809  1.00  0.00     0.060 A 
ATOM     21  C   UNL A   1      41.008  22.693  27.841  1.00  0.00     0.016 A 
ATOM     22  C   UNL A   1      39.570  23.766  26.208  1.00  0.00     0.016 A 
ATOM     23  C   UNL A   1      41.434  23.945  28.283  1.00  0.00     0.010 A 
ATOM     24  C   UNL A   1      39.993  25.019  26.656  1.00  0.00     0.010 A 
ATOM     25  C   UNL A   1      40.926  25.116  27.698  1.00  0.00    -0.014 A 
BRANCH  25  26
ATOM     26  C   UNL A   1      41.483  26.431  28.087  1.00  0.00     0.031 A 
ATOM     27  C   UNL A   1      42.904  26.809  27.801  1.00  0.00     0.074 A 
ATOM     28  C   UNL A   1      40.664  27.299  28.707  1.00  0.00     0.049 A 
ATOM     29  N   UNL A   1      43.500  27.954  28.010  1.00  0.00    -0.248 NA
ATOM     30  C   UNL A   1      43.766  25.779  27.202  1.00  0.00     0.031 C 
ATOM     31  C   UNL A   1      39.270  27.026  29.059  1.00  0.00     0.029 A 
ATOM     32  N   UNL A   1      40.884  28.576  29.150  1.00  0.00    -0.354 N 
ATOM     33  C   UNL A   1      44.803  27.795  27.559  1.00  0.00     0.074 A 
ATOM     34  C   UNL A   1      44.919  26.429  27.087  1.00  0.00     0.031 C 
ATOM     35  C   UNL A   1      38.755  28.109  29.660  1.00  0.00     0.029 A 
ATOM     36  C   UNL A   1      39.782  29.144  29.740  1.00  0.00     0.049 A 
ATOM     37  H   UNL A   1      41.746  29.042  29.053  1.00  0.00     0.167 HD
ATOM     38  C   UNL A   1      45.799  28.714  27.517  1.00  0.00     0.034 A 
ATOM     39  C   UNL A   1      39.610  30.366  30.277  1.00  0.00     0.034 A 
ATOM     40  C   UNL A   1      45.680  30.071  27.986  1.00  0.00     0.049 A 
ATOM     41  C   UNL A   1      40.732  31.356  30.241  1.00  0.00     0.074 A 
ATOM     42  C   UNL A   1      46.631  31.077  27.952  1.00  0.00     0.029 A 
ATOM     43  N   UNL A   1      44.550  30.612  28.579  1.00  0.00    -0.354 N 
ATOM     44  N   UNL A   1      41.925  31.225  29.712  1.00  0.00    -0.248 NA
ATOM     45  C   UNL A   1      40.482  32.671  30.846  1.00  0.00     0.031 C 
ATOM     46  C   UNL A   1      46.077  32.225  28.530  1.00  0.00     0.029 A 
ATOM     47  C   UNL A   1      44.780  31.936  28.920  1.00  0.00     0.049 A 
ATOM     48  H   UNL A   1      43.707  30.128  28.734  1.00  0.00     0.167 HD
ATOM     49  C   UNL A   1      42.566  32.440  29.911  1.00  0.00     0.074 A 
ATOM     50  C   UNL A   1      41.621  33.305  30.590  1.00  0.00     0.031 C 
ATOM     51  C   UNL A   1      43.828  32.799  29.572  1.00  0.00     0.034 A 
BRANCH  38  52
ATOM     52  C   UNL A   1      47.096  28.311  26.870  1.00  0.00     0.023 A 
ATOM     53  C   UNL A   1      48.216  28.077  27.691  1.00  0.00     0.012 A 
ATOM     54  C   UNL A   1      47.188  28.067  25.486  1.00  0.00     0.148 A 
ATOM     55  C   UNL A   1      49.412  27.614  27.146  1.00  0.00     0.002 A 
ATOM     56  C   UNL A   1      48.377  27.581  24.952  1.00  0.00     0.091 A 
ATOM     57  F   UNL A   1      46.114  28.314  24.722  1.00  0.00    -0.205 F 
ATOM     58  C   UNL A   1      49.489  27.356  25.780  1.00  0.00     0.022 A 
BRANCH  56  59
ATOM     59  S   UNL A   1      48.567  27.175  23.212  1.00  0.00     0.127 S 
ATOM     60  O   UNL A   1      50.010  27.324  23.029  1.00  0.00    -0.237 OA
ATOM     61  O   UNL A   1      48.085  25.793  23.162  1.00  0.00    -0.237 OA
ATOM     62  O   UNL A   1      47.744  28.130  22.484  1.00  0.00    -0.744 OA
ENDBRANCH  56  59
ENDBRANCH  38  52
BRANCH  39  63
ATOM     63  C   UNL A   1      38.271  30.720  30.813  1.00  0.00     0.023 A 
ATOM     64  C   UNL A   1      37.990  30.467  32.169  1.00  0.00     0.012 A 
ATOM     65  C   UNL A   1      37.334  31.416  30.025  1.00  0.00     0.148 A 
ATOM     66  C   UNL A   1      36.794  30.905  32.734  1.00  0.00     0.002 A 
ATOM     67  C   UNL A   1      36.163  31.883  30.605  1.00  0.00     0.091 A 
ATOM     68  F   UNL A   1      37.639  31.650  28.740  1.00  0.00    -0.205 F 
ATOM     69  C   UNL A   1      35.887  31.623  31.957  1.00  0.00     0.022 A 
BRANCH  67  70
ATOM     70  S   UNL A   1      34.986  32.912  29.721  1.00  0.00     0.127 S 
ATOM     71  O   UNL A   1      35.853  33.950  29.167  1.00  0.00    -0.237 OA
ATOM     72  O   UNL A   1      34.448  31.969  28.740  1.00  0.00    -0.237 OA
ATOM     73  O   UNL A   1      34.030  33.371  30.717  1.00  0.00    -0.744 OA
ENDBRANCH  67  70
ENDBRANCH  39  63
BRANCH  51  74
ATOM     74  C   UNL A   1      44.283  34.182  29.948  1.00  0.00     0.023 A 
ATOM     75  C   UNL A   1      44.999  34.364  31.149  1.00  0.00     0.012 A 
ATOM     76  C   UNL A   1      44.081  35.278  29.087  1.00  0.00     0.148 A 
ATOM     77  C   UNL A   1      45.493  35.620  31.495  1.00  0.00     0.002 A 
ATOM     78  C   UNL A   1      44.602  36.523  29.426  1.00  0.00     0.091 A 
ATOM     79  F   UNL A   1      43.384  35.084  27.958  1.00  0.00    -0.205 F 
ATOM     80  C   UNL A   1      45.305  36.696  30.630  1.00  0.00     0.022 A 
BRANCH  78  81
ATOM     81  S   UNL A   1      44.465  37.956  28.351  1.00  0.00     0.127 S 
ATOM     82  O   UNL A   1      43.120  38.434  28.663  1.00  0.00    -0.237 OA
ATOM     83  O   UNL A   1      45.546  38.814  28.838  1.00  0.00    -0.237 OA
ATOM     84  O   UNL A   1      44.652  37.461  26.993  1.00  0.00    -0.744 OA
ENDBRANCH  78  81
ENDBRANCH  51  74
ENDBRANCH  25  26
ENDBRANCH  18  20
ENDBRANCH  17  18
ENDBRANCH   1  17
TORSDOF 16
ENDMDL
MODEL 2
REMARK VINA RESULT:     -11.0      5.562      9.585
REMARK SMILES O=C(Cc1ccn(C(F)F)c(=O)c1)OCCOC(=O)c1ccc(-c2c3nc(c(-c4cccc(S(=O)(=O)[O-])c4F)c4ccc([nH]4)c(-c4cccc(S(=O)(=O)[O-])c4F)c4nc(c(-c5cccc(S(=O)(=O)[O-])c5F)c5ccc2[nH]5)C=C4)C=C3)cc1
REMARK SMILES IDX 16 1 15 2 14 3 2 4 1 5 3 6 4 7 5 8 13 9 6 10 11 11 7 12
REMARK SMILES IDX 12 13 8 14 9 15 10 16 17 17 18 18 19 19 20 20 21 21 82 22
REMARK SMILES IDX 22 23 81 24 23 25 24 26 25 27 75 28 26 29 80 30 74 31 76 32
REMARK SMILES IDX 27 33 79 34 73 35 72 36 28 38 60 39 40 40 59 41 41 42 44 43
REMARK SMILES IDX 58 44 77 45 42 46 43 47 57 49 78 50 45 51 29 52 30 53 38 54
REMARK SMILES IDX 31 55 33 56 39 57 32 58 34 59 35 60 36 61 37 62 61 63 62 64
REMARK SMILES IDX 70 65 63 66 65 67 71 68 64 69 66 70 67 71 68 72 69 73 46 74
REMARK SMILES IDX 47 75 55 76 48 77 50 78 56 79 49 80 51 81 52 82 53 83 54 84
REMARK H PARENT 76 37 44 48
REMARK Flexibility Score: inf
ROOT
ATOM      1  C   UNL A   1      33.605  33.025  28.050  1.00  0.00     0.275 C 
ENDROOT
BRANCH   1   2
ATOM      2  C   UNL A   1      34.443  34.296  27.907  1.00  0.00     0.274 C 
BRANCH   2   3
ATOM      3  O   UNL A   1      34.516  35.009  29.160  1.00  0.00    -0.462 OA
BRANCH   3   4
ATOM      4  C   UNL A   1      33.459  35.459  29.874  1.00  0.00     0.310 C 
ATOM      5  O   UNL A   1      32.585  36.124  29.319  1.00  0.00    -0.252 OA
BRANCH   4   6
ATOM      6  C   UNL A   1      33.369  35.133  31.354  1.00  0.00     0.158 C 
BRANCH   6   7
ATOM      7  C   UNL A   1      34.517  34.378  31.959  1.00  0.00    -0.030 A 
ATOM      8  C   UNL A   1      34.536  32.933  31.926  1.00  0.00     0.023 A 
ATOM      9  C   UNL A   1      35.505  35.031  32.597  1.00  0.00     0.076 A 
ATOM     10  C   UNL A   1      35.500  32.256  32.563  1.00  0.00     0.095 A 
ATOM     11  C   UNL A   1      36.602  34.295  33.285  1.00  0.00     0.255 A 
ATOM     12  N   UNL A   1      36.504  32.914  33.250  1.00  0.00    -0.258 N 
ATOM     13  O   UNL A   1      37.494  34.943  33.819  1.00  0.00    -0.269 OA
BRANCH  12  14
ATOM     14  C   UNL A   1      37.493  32.174  33.990  1.00  0.00     0.451 C 
ATOM     15  F   UNL A   1      37.284  32.291  35.325  1.00  0.00    -0.185 F 
ATOM     16  F   UNL A   1      37.457  30.860  33.673  1.00  0.00    -0.185 F 
ENDBRANCH  12  14
ENDBRANCH   6   7
ENDBRANCH   4   6
ENDBRANCH   3   4
ENDBRANCH   2   3
ENDBRANCH   1   2
BRANCH   1  17
ATOM     17  O   UNL A   1      34.365  32.022  28.745  1.00  0.00    -0.458 OA
BRANCH  17  18
ATOM     18  C   UNL A   1      34.647  30.885  28.061  1.00  0.00     0.338 C 
ATOM     19  O   UNL A   1      34.026  30.434  27.115  1.00  0.00    -0.246 OA
BRANCH  18  20
ATOM     20  C   UNL A   1      35.994  30.425  28.484  1.00  0.00     0.060 A 
ATOM     21  C   UNL A   1      37.108  30.560  27.648  1.00  0.00     0.016 A 
ATOM     22  C   UNL A   1      36.103  29.726  29.693  1.00  0.00     0.016 A 
ATOM     23  C   UNL A   1      38.322  29.976  28.011  1.00  0.00     0.010 A 
ATOM     24  C   UNL A   1      37.317  29.137  30.052  1.00  0.00     0.010 A 
ATOM     25  C   UNL A   1      38.433  29.256  29.212  1.00  0.00    -0.014 A 
BRANCH  25  26
ATOM     26  C   UNL A   1      39.757  28.756  29.646  1.00  0.00     0.031 A 
ATOM     27  C   UNL A   1      40.399  27.556  29.020  1.00  0.00     0.074 A 
ATOM     28  C   UNL A   1      40.386  29.423  30.630  1.00  0.00     0.049 A 
ATOM     29  N   UNL A   1      41.587  27.059  29.244  1.00  0.00    -0.248 NA
ATOM     30  C   UNL A   1      39.616  26.823  28.014  1.00  0.00     0.031 C 
ATOM     31  C   UNL A   1      39.842  30.589  31.329  1.00  0.00     0.029 A 
ATOM     32  N   UNL A   1      41.610  29.219  31.209  1.00  0.00    -0.354 N 
ATOM     33  C   UNL A   1      41.708  25.962  28.401  1.00  0.00     0.074 A 
ATOM     34  C   UNL A   1      40.457  25.851  27.678  1.00  0.00     0.031 C 
ATOM     35  C   UNL A   1      40.733  31.002  32.242  1.00  0.00     0.029 A 
ATOM     36  C   UNL A   1      41.903  30.128  32.196  1.00  0.00     0.049 A 
ATOM     37  H   UNL A   1      42.219  28.493  30.944  1.00  0.00     0.167 HD
ATOM     38  C   UNL A   1      42.775  25.144  28.230  1.00  0.00     0.034 A 
ATOM     39  C   UNL A   1      42.995  30.255  32.971  1.00  0.00     0.034 A 
ATOM     40  C   UNL A   1      44.017  25.258  28.950  1.00  0.00     0.049 A 
ATOM     41  C   UNL A   1      44.153  29.324  32.780  1.00  0.00     0.074 A 
ATOM     42  C   UNL A   1      45.162  24.490  28.815  1.00  0.00     0.029 A 
ATOM     43  N   UNL A   1      44.279  26.190  29.942  1.00  0.00    -0.354 N 
ATOM     44  N   UNL A   1      44.292  28.360  31.903  1.00  0.00    -0.248 NA
ATOM     45  C   UNL A   1      45.313  29.513  33.659  1.00  0.00     0.031 C 
ATOM     46  C   UNL A   1      46.114  24.954  29.729  1.00  0.00     0.029 A 
ATOM     47  C   UNL A   1      45.565  26.014  30.432  1.00  0.00     0.049 A 
ATOM     48  H   UNL A   1      43.646  26.876  30.253  1.00  0.00     0.167 HD
ATOM     49  C   UNL A   1      45.558  27.831  32.116  1.00  0.00     0.074 A 
ATOM     50  C   UNL A   1      46.155  28.597  33.192  1.00  0.00     0.031 C 
ATOM     51  C   UNL A   1      46.162  26.796  31.485  1.00  0.00     0.034 A 
BRANCH  38  52
ATOM     52  C   UNL A   1      42.682  24.089  27.161  1.00  0.00     0.023 A 
ATOM     53  C   UNL A   1      43.262  24.350  25.904  1.00  0.00     0.012 A 
ATOM     54  C   UNL A   1      42.124  22.822  27.418  1.00  0.00     0.148 A 
ATOM     55  C   UNL A   1      43.282  23.370  24.913  1.00  0.00     0.002 A 
ATOM     56  C   UNL A   1      42.170  21.840  26.433  1.00  0.00     0.091 A 
ATOM     57  F   UNL A   1      41.562  22.603  28.615  1.00  0.00    -0.205 F 
ATOM     58  C   UNL A   1      42.746  22.113  25.181  1.00  0.00     0.022 A 
BRANCH  56  59
ATOM     59  S   UNL A   1      41.547  20.175  26.693  1.00  0.00     0.127 S 
ATOM     60  O   UNL A   1      40.119  20.419  26.889  1.00  0.00    -0.237 OA
ATOM     61  O   UNL A   1      41.885  19.517  25.429  1.00  0.00    -0.237 OA
ATOM     62  O   UNL A   1      42.256  19.657  27.854  1.00  0.00    -0.744 OA
ENDBRANCH  56  59
ENDBRANCH  38  52
BRANCH  39  63
ATOM     63  C   UNL A   1      43.048  31.380  33.939  1.00  0.00     0.023 A 
ATOM     64  C   UNL A   1      43.588  32.612  33.526  1.00  0.00     0.012 A 
ATOM     65  C   UNL A   1      42.454  31.270  35.212  1.00  0.00     0.148 A 
ATOM     66  C   UNL A   1      43.532  33.722  34.365  1.00  0.00     0.002 A 
ATOM     67  C   UNL A   1      42.368  32.391  36.026  1.00  0.00     0.091 A 
ATOM     68  F   UNL A   1      41.940  30.085  35.569  1.00  0.00    -0.205 F 
ATOM     69  C   UNL A   1      42.913  33.616  35.609  1.00  0.00     0.022 A 
BRANCH  67  70
ATOM     70  S   UNL A   1      41.492  32.386  37.594  1.00  0.00     0.127 S 
ATOM     71  O   UNL A   1      42.284  31.439  38.376  1.00  0.00    -0.237 OA
ATOM     72  O   UNL A   1      41.617  33.784  38.006  1.00  0.00    -0.237 OA
ATOM     73  O   UNL A   1      40.135  31.956  37.291  1.00  0.00    -0.744 OA
ENDBRANCH  67  70
ENDBRANCH  39  63
BRANCH  51  74
ATOM     74  C   UNL A   1      47.538  26.403  31.950  1.00  0.00     0.023 A 
ATOM     75  C   UNL A   1      48.658  27.057  31.398  1.00  0.00     0.012 A 
ATOM     76  C   UNL A   1      47.721  25.458  32.978  1.00  0.00     0.148 A 
ATOM     77  C   UNL A   1      49.942  26.766  31.853  1.00  0.00     0.002 A 
ATOM     78  C   UNL A   1      49.004  25.194  33.446  1.00  0.00     0.091 A 
ATOM     79  F   UNL A   1      46.642  24.838  33.475  1.00  0.00    -0.205 F 
ATOM     80  C   UNL A   1      50.115  25.844  32.883  1.00  0.00     0.022 A 
BRANCH  78  81
ATOM     81  S   UNL A   1      49.325  24.068  34.809  1.00  0.00     0.127 S 
ATOM     82  O   UNL A   1      50.781  24.139  34.917  1.00  0.00    -0.237 OA
ATOM     83  O   UNL A   1      48.600  24.700  35.912  1.00  0.00    -0.237 OA
ATOM     84  O   UNL A   1      48.793  22.776  34.398  1.00  0.00    -0.744 OA
ENDBRANCH  78  81
ENDBRANCH  51  74
ENDBRANCH  25  26
ENDBRANCH  18  20
ENDBRANCH  17  18
ENDBRANCH   1  17
TORSDOF 16
ENDMDL
MODEL 3
REMARK VINA RESULT:     -11.0      0.733      7.839
REMARK SMILES O=C(Cc1ccn(C(F)F)c(=O)c1)OCCOC(=O)c1ccc(-c2c3nc(c(-c4cccc(S(=O)(=O)[O-])c4F)c4ccc([nH]4)c(-c4cccc(S(=O)(=O)[O-])c4F)c4nc(c(-c5cccc(S(=O)(=O)[O-])c5F)c5ccc2[nH]5)C=C4)C=C3)cc1
REMARK SMILES IDX 16 1 15 2 14 3 2 4 1 5 3 6 4 7 5 8 13 9 6 10 11 11 7 12
REMARK SMILES IDX 12 13 8 14 9 15 10 16 17 17 18 18 19 19 20 20 21 21 82 22
REMARK SMILES IDX 22 23 81 24 23 25 24 26 25 27 75 28 26 29 80 30 74 31 76 32
REMARK SMILES IDX 27 33 79 34 73 35 72 36 28 38 60 39 40 40 59 41 41 42 44 43
REMARK SMILES IDX 58 44 77 45 42 46 43 47 57 49 78 50 45 51 29 52 30 53 38 54
REMARK SMILES IDX 31 55 33 56 39 57 32 58 34 59 35 60 36 61 37 62 61 63 62 64
REMARK SMILES IDX 70 65 63 66 65 67 71 68 64 69 66 70 67 71 68 72 69 73 46 74
REMARK SMILES IDX 47 75 55 76 48 77 50 78 56 79 49 80 51 81 52 82 53 83 54 84
REMARK H PARENT 76 37 44 48
REMARK Flexibility Score: inf
ROOT
ATOM      1  C   UNL A   1      37.367  20.483  25.025  1.00  0.00     0.275 C 
ENDROOT
BRANCH   1   2
ATOM      2  C   UNL A   1      35.847  20.641  25.066  1.00  0.00     0.274 C 
BRANCH   2   3
ATOM      3  O   UNL A   1      35.403  21.612  24.095  1.00  0.00    -0.462 OA
BRANCH   3   4
ATOM      4  C   UNL A   1      35.856  22.882  23.986  1.00  0.00     0.310 C 
ATOM      5  O   UNL A   1      36.386  23.253  22.939  1.00  0.00    -0.252 OA
BRANCH   4   6
ATOM      6  C   UNL A   1      35.702  23.830  25.161  1.00  0.00     0.158 C 
BRANCH   6   7
ATOM      7  C   UNL A   1      34.357  24.470  25.351  1.00  0.00    -0.030 A 
ATOM      8  C   UNL A   1      34.031  25.698  24.662  1.00  0.00     0.023 A 
ATOM      9  C   UNL A   1      33.468  23.947  26.215  1.00  0.00     0.076 A 
ATOM     10  C   UNL A   1      32.878  26.329  24.918  1.00  0.00     0.095 A 
ATOM     11  C   UNL A   1      32.168  24.620  26.488  1.00  0.00     0.255 A 
ATOM     12  N   UNL A   1      31.968  25.820  25.826  1.00  0.00    -0.258 N 
ATOM     13  O   UNL A   1      31.382  24.079  27.257  1.00  0.00    -0.269 OA
BRANCH  12  14
ATOM     14  C   UNL A   1      30.766  26.545  26.144  1.00  0.00     0.451 C 
ATOM     15  F   UNL A   1      31.043  27.622  26.922  1.00  0.00    -0.185 F 
ATOM     16  F   UNL A   1      30.150  26.985  25.023  1.00  0.00    -0.185 F 
ENDBRANCH  12  14
ENDBRANCH   6   7
ENDBRANCH   4   6
ENDBRANCH   3   4
ENDBRANCH   2   3
ENDBRANCH   1   2
BRANCH   1  17
ATOM     17  O   UNL A   1      37.968  21.325  26.024  1.00  0.00    -0.458 OA
BRANCH  17  18
ATOM     18  C   UNL A   1      39.275  21.103  26.306  1.00  0.00     0.338 C 
ATOM     19  O   UNL A   1      39.889  20.065  26.132  1.00  0.00    -0.246 OA
BRANCH  18  20
ATOM     20  C   UNL A   1      39.902  22.414  26.610  1.00  0.00     0.060 A 
ATOM     21  C   UNL A   1      40.906  22.538  27.577  1.00  0.00     0.016 A 
ATOM     22  C   UNL A   1      39.369  23.557  25.999  1.00  0.00     0.016 A 
ATOM     23  C   UNL A   1      41.359  23.805  27.948  1.00  0.00     0.010 A 
ATOM     24  C   UNL A   1      39.820  24.824  26.376  1.00  0.00     0.010 A 
ATOM     25  C   UNL A   1      40.815  24.955  27.355  1.00  0.00    -0.014 A 
BRANCH  25  26
ATOM     26  C   UNL A   1      41.396  26.282  27.661  1.00  0.00     0.031 A 
ATOM     27  C   UNL A   1      40.622  27.342  28.382  1.00  0.00     0.074 A 
ATOM     28  C   UNL A   1      42.664  26.513  27.278  1.00  0.00     0.049 A 
ATOM     29  N   UNL A   1      41.032  28.515  28.788  1.00  0.00    -0.248 NA
ATOM     30  C   UNL A   1      39.213  27.053  28.691  1.00  0.00     0.031 C 
ATOM     31  C   UNL A   1      43.502  25.562  26.546  1.00  0.00     0.029 A 
ATOM     32  N   UNL A   1      43.463  27.612  27.447  1.00  0.00    -0.354 N 
ATOM     33  C   UNL A   1      39.942  29.106  29.414  1.00  0.00     0.074 A 
ATOM     34  C   UNL A   1      38.841  28.169  29.310  1.00  0.00     0.031 C 
ATOM     35  C   UNL A   1      44.704  26.118  26.334  1.00  0.00     0.029 A 
ATOM     36  C   UNL A   1      44.717  27.461  26.906  1.00  0.00     0.049 A 
ATOM     37  H   UNL A   1      43.169  28.429  27.910  1.00  0.00     0.167 HD
ATOM     38  C   UNL A   1      39.878  30.306  30.040  1.00  0.00     0.034 A 
ATOM     39  C   UNL A   1      45.766  28.303  26.882  1.00  0.00     0.034 A 
ATOM     40  C   UNL A   1      40.975  31.235  30.143  1.00  0.00     0.049 A 
ATOM     41  C   UNL A   1      45.664  29.634  27.561  1.00  0.00     0.074 A 
ATOM     42  C   UNL A   1      41.005  32.460  30.788  1.00  0.00     0.029 A 
ATOM     43  N   UNL A   1      42.230  31.050  29.584  1.00  0.00    -0.354 N 
ATOM     44  N   UNL A   1      44.660  30.132  28.242  1.00  0.00    -0.248 NA
ATOM     45  C   UNL A   1      46.842  30.508  27.496  1.00  0.00     0.031 C 
ATOM     46  C   UNL A   1      42.276  33.018  30.614  1.00  0.00     0.029 A 
ATOM     47  C   UNL A   1      43.040  32.139  29.864  1.00  0.00     0.049 A 
ATOM     48  H   UNL A   1      42.505  30.261  29.065  1.00  0.00     0.167 HD
ATOM     49  C   UNL A   1      45.086  31.373  28.696  1.00  0.00     0.074 A 
ATOM     50  C   UNL A   1      46.449  31.543  28.231  1.00  0.00     0.031 C 
ATOM     51  C   UNL A   1      44.403  32.291  29.421  1.00  0.00     0.034 A 
BRANCH  38  52
ATOM     52  C   UNL A   1      38.595  30.662  30.741  1.00  0.00     0.023 A 
ATOM     53  C   UNL A   1      38.475  30.375  32.116  1.00  0.00     0.012 A 
ATOM     54  C   UNL A   1      37.562  31.357  30.085  1.00  0.00     0.148 A 
ATOM     55  C   UNL A   1      37.343  30.768  32.827  1.00  0.00     0.002 A 
ATOM     56  C   UNL A   1      36.446  31.768  30.807  1.00  0.00     0.091 A 
ATOM     57  F   UNL A   1      37.690  31.602  28.773  1.00  0.00    -0.205 F 
ATOM     58  C   UNL A   1      36.334  31.473  32.176  1.00  0.00     0.022 A 
BRANCH  56  59
ATOM     59  S   UNL A   1      35.110  32.721  30.072  1.00  0.00     0.127 S 
ATOM     60  O   UNL A   1      34.193  32.865  31.202  1.00  0.00    -0.237 OA
ATOM     61  O   UNL A   1      35.791  33.955  29.677  1.00  0.00    -0.237 OA
ATOM     62  O   UNL A   1      34.610  31.922  28.962  1.00  0.00    -0.744 OA
ENDBRANCH  56  59
ENDBRANCH  38  52
BRANCH  39  63
ATOM     63  C   UNL A   1      47.029  27.842  26.252  1.00  0.00     0.023 A 
ATOM     64  C   UNL A   1      47.946  27.102  27.022  1.00  0.00     0.012 A 
ATOM     65  C   UNL A   1      47.260  28.021  24.874  1.00  0.00     0.148 A 
ATOM     66  C   UNL A   1      49.075  26.544  26.427  1.00  0.00     0.002 A 
ATOM     67  C   UNL A   1      48.366  27.428  24.282  1.00  0.00     0.091 A 
ATOM     68  F   UNL A   1      46.360  28.721  24.168  1.00  0.00    -0.205 F 
ATOM     69  C   UNL A   1      49.280  26.695  25.057  1.00  0.00     0.022 A 
BRANCH  67  70
ATOM     70  S   UNL A   1      48.658  27.470  22.510  1.00  0.00     0.127 S 
ATOM     71  O   UNL A   1      49.967  28.115  22.438  1.00  0.00    -0.237 OA
ATOM     72  O   UNL A   1      48.652  26.045  22.177  1.00  0.00    -0.237 OA
ATOM     73  O   UNL A   1      47.558  28.236  21.943  1.00  0.00    -0.744 OA
ENDBRANCH  67  70
ENDBRANCH  39  63
BRANCH  51  74
ATOM     74  C   UNL A   1      45.101  33.584  29.744  1.00  0.00     0.023 A 
ATOM     75  C   UNL A   1      45.903  33.656  30.901  1.00  0.00     0.012 A 
ATOM     76  C   UNL A   1      45.034  34.689  28.875  1.00  0.00     0.148 A 
ATOM     77  C   UNL A   1      46.617  34.816  31.196  1.00  0.00     0.002 A 
ATOM     78  C   UNL A   1      45.773  35.833  29.161  1.00  0.00     0.091 A 
ATOM     79  F   UNL A   1      44.253  34.602  27.789  1.00  0.00    -0.205 F 
ATOM     80  C   UNL A   1      46.561  35.899  30.322  1.00  0.00     0.022 A 
BRANCH  78  81
ATOM     81  S   UNL A   1      45.814  37.259  28.067  1.00  0.00     0.127 S 
ATOM     82  O   UNL A   1      46.382  36.683  26.850  1.00  0.00    -0.237 OA
ATOM     83  O   UNL A   1      44.399  37.616  27.970  1.00  0.00    -0.237 OA
ATOM     84  O   UNL A   1      46.645  38.253  28.733  1.00  0.00    -0.744 OA
ENDBRANCH  78  81
ENDBRANCH  51  74
ENDBRANCH  25  26
ENDBRANCH  18  20
ENDBRANCH  17  18
ENDBRANCH   1  17
TORSDOF 16
ENDMDL
