MODEL 1
REMARK VINA RESULT:     -10.9      0.000      0.000
REMARK SMILES C[C@H](S[C@H]1[NH+]=C(Cl)[NH+]=C2N=CN=C21)C(=O)OCCOC(=O)c1ccc(-c2c3nc(c(-c4cccc(S(=O)(=O)[O-])c4F)c4ccc([nH]4)c(-c4cccc(S(=O)(=O)[O-])c4F)c4nc(c(-c5cccc(S(=O)(=O)[O-])c5F)c5ccc2[nH]5)C=C4)C=C3)cc1
REMARK SMILES IDX 18 1 17 2 16 3 14 4 15 5 2 6 1 7 3 8 4 9 5 10 13 11 6 12
REMARK SMILES IDX 9 14 12 15 7 16 8 17 10 18 11 19 19 21 20 22 21 23 22 24
REMARK SMILES IDX 23 25 84 26 24 27 83 28 25 29 26 30 27 31 77 32 28 33 82 34
REMARK SMILES IDX 76 35 78 36 29 37 81 38 75 39 74 40 30 42 62 43 42 44 61 45
REMARK SMILES IDX 43 46 46 47 60 48 79 49 44 50 45 51 59 53 80 54 47 55 31 56
REMARK SMILES IDX 32 57 40 58 33 59 35 60 41 61 34 62 36 63 37 64 38 65 39 66
REMARK SMILES IDX 63 67 64 68 72 69 65 70 67 71 73 72 66 73 68 74 69 75 70 76
REMARK SMILES IDX 71 77 48 78 49 79 57 80 50 81 52 82 58 83 51 84 53 85 54 86
REMARK SMILES IDX 55 87 56 88
REMARK H PARENT 5 13 8 20 78 41 46 52
REMARK Flexibility Score: inf
ROOT
ATOM      1  C   UNL A   1      34.261  33.091  28.250  1.00  0.00     0.275 C 
ENDROOT
BRANCH   1   2
ATOM      2  C   UNL A   1      34.198  34.430  28.976  1.00  0.00     0.274 C 
BRANCH   2   3
ATOM      3  O   UNL A   1      32.917  34.672  29.592  1.00  0.00    -0.461 OA
BRANCH   3   4
ATOM      4  C   UNL A   1      32.847  35.758  30.411  1.00  0.00     0.319 C 
ATOM      5  O   UNL A   1      32.848  36.922  30.020  1.00  0.00    -0.251 OA
BRANCH   4   6
ATOM      6  C   UNL A   1      32.921  35.413  31.894  1.00  0.00     0.160 C 
ATOM      7  C   UNL A   1      31.577  35.792  32.490  1.00  0.00     0.032 C 
BRANCH   6   8
ATOM      8  S   UNL A   1      34.481  35.987  32.681  1.00  0.00    -0.067 SA
BRANCH   8   9
ATOM      9  C   UNL A   1      35.651  34.616  32.555  1.00  0.00     0.384 C 
ATOM     10  N   UNL A   1      36.739  34.781  31.596  1.00  0.00    -0.156 N 
ATOM     11  C   UNL A   1      36.135  34.201  33.880  1.00  0.00     0.214 C 
ATOM     12  C   UNL A   1      37.946  34.466  31.879  1.00  0.00     0.514 C 
ATOM     13  H   UNL A   1      36.538  35.147  30.704  1.00  0.00     0.455 HD
ATOM     14  C   UNL A   1      37.555  33.886  34.003  1.00  0.00     0.338 C 
ATOM     15  N   UNL A   1      35.584  34.008  35.036  1.00  0.00    -0.225 NA
ATOM     16  Cl  UNL A   1      39.125  34.694  30.658  1.00  0.00     0.068 Cl
ATOM     17  N   UNL A   1      38.417  33.996  33.066  1.00  0.00    -0.118 N 
ATOM     18  N   UNL A   1      37.809  33.507  35.287  1.00  0.00    -0.173 NA
ATOM     19  C   UNL A   1      36.638  33.606  35.847  1.00  0.00     0.229 C 
ATOM     20  H   UNL A   1      39.363  33.754  33.194  1.00  0.00     0.464 HD
ENDBRANCH   8   9
ENDBRANCH   6   8
ENDBRANCH   4   6
ENDBRANCH   3   4
ENDBRANCH   2   3
ENDBRANCH   1   2
BRANCH   1  21
ATOM     21  O   UNL A   1      35.603  32.624  28.150  1.00  0.00    -0.458 OA
BRANCH  21  22
ATOM     22  C   UNL A   1      35.711  31.283  28.160  1.00  0.00     0.338 C 
ATOM     23  O   UNL A   1      34.954  30.487  27.603  1.00  0.00    -0.246 OA
BRANCH  22  24
ATOM     24  C   UNL A   1      36.729  30.845  29.102  1.00  0.00     0.060 A 
ATOM     25  C   UNL A   1      37.830  31.693  29.276  1.00  0.00     0.016 A 
ATOM     26  C   UNL A   1      36.753  29.495  29.467  1.00  0.00     0.016 A 
ATOM     27  C   UNL A   1      39.038  31.130  29.613  1.00  0.00     0.010 A 
ATOM     28  C   UNL A   1      37.964  28.931  29.772  1.00  0.00     0.010 A 
ATOM     29  C   UNL A   1      39.099  29.743  29.764  1.00  0.00    -0.014 A 
BRANCH  29  30
ATOM     30  C   UNL A   1      40.391  29.141  29.998  1.00  0.00     0.031 A 
ATOM     31  C   UNL A   1      40.756  29.112  31.427  1.00  0.00     0.074 A 
ATOM     32  C   UNL A   1      41.076  28.535  29.012  1.00  0.00     0.049 A 
ATOM     33  N   UNL A   1      41.726  29.733  32.012  1.00  0.00    -0.248 NA
ATOM     34  C   UNL A   1      39.807  28.466  32.348  1.00  0.00     0.031 C 
ATOM     35  C   UNL A   1      40.602  28.263  27.651  1.00  0.00     0.029 A 
ATOM     36  N   UNL A   1      42.264  27.875  29.073  1.00  0.00    -0.354 N 
ATOM     37  C   UNL A   1      41.648  29.326  33.342  1.00  0.00     0.074 A 
ATOM     38  C   UNL A   1      40.328  28.798  33.527  1.00  0.00     0.031 C 
ATOM     39  C   UNL A   1      41.363  27.283  27.115  1.00  0.00     0.029 A 
ATOM     40  C   UNL A   1      42.424  26.947  28.048  1.00  0.00     0.049 A 
ATOM     41  H   UNL A   1      42.941  28.037  29.769  1.00  0.00     0.167 HD
ATOM     42  C   UNL A   1      42.779  29.126  34.070  1.00  0.00     0.034 A 
ATOM     43  C   UNL A   1      43.292  25.908  28.037  1.00  0.00     0.034 A 
ATOM     44  C   UNL A   1      43.910  29.799  33.470  1.00  0.00     0.049 A 
ATOM     45  C   UNL A   1      44.332  26.182  29.056  1.00  0.00     0.074 A 
ATOM     46  C   UNL A   1      44.203  31.096  33.099  1.00  0.00     0.029 A 
ATOM     47  N   UNL A   1      44.830  29.000  32.836  1.00  0.00    -0.354 N 
ATOM     48  N   UNL A   1      45.221  27.130  28.955  1.00  0.00    -0.248 NA
ATOM     49  C   UNL A   1      44.163  25.626  30.389  1.00  0.00     0.031 C 
ATOM     50  C   UNL A   1      45.038  30.981  31.948  1.00  0.00     0.029 A 
ATOM     51  C   UNL A   1      45.243  29.623  31.692  1.00  0.00     0.049 A 
ATOM     52  H   UNL A   1      45.140  28.122  33.153  1.00  0.00     0.167 HD
ATOM     53  C   UNL A   1      45.380  27.594  30.256  1.00  0.00     0.074 A 
ATOM     54  C   UNL A   1      44.834  26.536  31.099  1.00  0.00     0.031 C 
ATOM     55  C   UNL A   1      45.650  28.912  30.499  1.00  0.00     0.034 A 
BRANCH  42  56
ATOM     56  C   UNL A   1      42.981  27.956  35.026  1.00  0.00     0.023 A 
ATOM     57  C   UNL A   1      43.410  28.285  36.332  1.00  0.00     0.012 A 
ATOM     58  C   UNL A   1      43.097  26.595  34.647  1.00  0.00     0.148 A 
ATOM     59  C   UNL A   1      44.043  27.349  37.157  1.00  0.00     0.002 A 
ATOM     60  C   UNL A   1      43.671  25.655  35.494  1.00  0.00     0.091 A 
ATOM     61  F   UNL A   1      42.758  26.191  33.424  1.00  0.00    -0.205 F 
ATOM     62  C   UNL A   1      44.184  26.034  36.733  1.00  0.00     0.022 A 
BRANCH  60  63
ATOM     63  S   UNL A   1      43.852  23.933  35.002  1.00  0.00     0.127 S 
ATOM     64  O   UNL A   1      44.673  24.063  33.802  1.00  0.00    -0.237 OA
ATOM     65  O   UNL A   1      44.533  23.363  36.165  1.00  0.00    -0.237 OA
ATOM     66  O   UNL A   1      42.499  23.430  34.797  1.00  0.00    -0.744 OA
ENDBRANCH  60  63
ENDBRANCH  42  56
BRANCH  43  67
ATOM     67  C   UNL A   1      43.171  24.586  27.378  1.00  0.00     0.023 A 
ATOM     68  C   UNL A   1      41.932  23.916  27.404  1.00  0.00     0.012 A 
ATOM     69  C   UNL A   1      44.178  24.087  26.520  1.00  0.00     0.148 A 
ATOM     70  C   UNL A   1      41.692  22.808  26.582  1.00  0.00     0.002 A 
ATOM     71  C   UNL A   1      43.942  22.972  25.721  1.00  0.00     0.091 A 
ATOM     72  F   UNL A   1      45.331  24.758  26.411  1.00  0.00    -0.205 F 
ATOM     73  C   UNL A   1      42.695  22.338  25.739  1.00  0.00     0.022 A 
BRANCH  71  74
ATOM     74  S   UNL A   1      45.198  22.308  24.618  1.00  0.00     0.127 S 
ATOM     75  O   UNL A   1      46.226  21.861  25.558  1.00  0.00    -0.237 OA
ATOM     76  O   UNL A   1      44.475  21.232  23.946  1.00  0.00    -0.237 OA
ATOM     77  O   UNL A   1      45.611  23.421  23.773  1.00  0.00    -0.744 OA
ENDBRANCH  71  74
ENDBRANCH  43  67
BRANCH  55  78
ATOM     78  C   UNL A   1      46.151  29.756  29.355  1.00  0.00     0.023 A 
ATOM     79  C   UNL A   1      47.492  29.721  28.923  1.00  0.00     0.012 A 
ATOM     80  C   UNL A   1      45.214  30.488  28.604  1.00  0.00     0.148 A 
ATOM     81  C   UNL A   1      47.897  30.429  27.789  1.00  0.00     0.002 A 
ATOM     82  C   UNL A   1      45.611  31.150  27.449  1.00  0.00     0.091 A 
ATOM     83  F   UNL A   1      43.939  30.510  29.023  1.00  0.00    -0.205 F 
ATOM     84  C   UNL A   1      46.954  31.133  27.045  1.00  0.00     0.022 A 
BRANCH  82  85
ATOM     85  S   UNL A   1      44.417  31.962  26.383  1.00  0.00     0.127 S 
ATOM     86  O   UNL A   1      43.472  30.885  26.102  1.00  0.00    -0.237 OA
ATOM     87  O   UNL A   1      43.894  33.026  27.243  1.00  0.00    -0.237 OA
ATOM     88  O   UNL A   1      45.178  32.452  25.238  1.00  0.00    -0.744 OA
ENDBRANCH  82  85
ENDBRANCH  55  78
ENDBRANCH  29  30
ENDBRANCH  22  24
ENDBRANCH  21  22
ENDBRANCH   1  21
TORSDOF 16
ENDMDL
MODEL 2
REMARK VINA RESULT:     -10.8      5.006      9.740
REMARK SMILES C[C@H](S[C@H]1[NH+]=C(Cl)[NH+]=C2N=CN=C21)C(=O)OCCOC(=O)c1ccc(-c2c3nc(c(-c4cccc(S(=O)(=O)[O-])c4F)c4ccc([nH]4)c(-c4cccc(S(=O)(=O)[O-])c4F)c4nc(c(-c5cccc(S(=O)(=O)[O-])c5F)c5ccc2[nH]5)C=C4)C=C3)cc1
REMARK SMILES IDX 18 1 17 2 16 3 14 4 15 5 2 6 1 7 3 8 4 9 5 10 13 11 6 12
REMARK SMILES IDX 9 14 12 15 7 16 8 17 10 18 11 19 19 21 20 22 21 23 22 24
REMARK SMILES IDX 23 25 84 26 24 27 83 28 25 29 26 30 27 31 77 32 28 33 82 34
REMARK SMILES IDX 76 35 78 36 29 37 81 38 75 39 74 40 30 42 62 43 42 44 61 45
REMARK SMILES IDX 43 46 46 47 60 48 79 49 44 50 45 51 59 53 80 54 47 55 31 56
REMARK SMILES IDX 32 57 40 58 33 59 35 60 41 61 34 62 36 63 37 64 38 65 39 66
REMARK SMILES IDX 63 67 64 68 72 69 65 70 67 71 73 72 66 73 68 74 69 75 70 76
REMARK SMILES IDX 71 77 48 78 49 79 57 80 50 81 52 82 58 83 51 84 53 85 54 86
REMARK SMILES IDX 55 87 56 88
REMARK H PARENT 5 13 8 20 78 41 46 52
REMARK Flexibility Score: inf
ROOT
ATOM      1  C   UNL A   1      39.254  21.065  25.779  1.00  0.00     0.275 C 
ENDROOT
BRANCH   1   2
ATOM      2  C   UNL A   1      37.993  20.600  25.058  1.00  0.00     0.274 C 
BRANCH   2   3
ATOM      3  O   UNL A   1      37.219  21.694  24.524  1.00  0.00    -0.461 OA
BRANCH   3   4
ATOM      4  C   UNL A   1      36.385  22.316  25.403  1.00  0.00     0.319 C 
ATOM      5  O   UNL A   1      36.731  23.210  26.172  1.00  0.00    -0.251 OA
BRANCH   4   6
ATOM      6  C   UNL A   1      34.993  21.701  25.468  1.00  0.00     0.160 C 
ATOM      7  C   UNL A   1      34.457  21.704  24.047  1.00  0.00     0.032 C 
BRANCH   6   8
ATOM      8  S   UNL A   1      33.978  22.377  26.845  1.00  0.00    -0.067 SA
BRANCH   8   9
ATOM      9  C   UNL A   1      32.451  22.991  26.100  1.00  0.00     0.384 C 
ATOM     10  N   UNL A   1      31.212  22.374  26.564  1.00  0.00    -0.156 N 
ATOM     11  C   UNL A   1      32.390  24.459  26.138  1.00  0.00     0.214 C 
ATOM     12  C   UNL A   1      30.172  23.065  26.840  1.00  0.00     0.514 C 
ATOM     13  H   UNL A   1      31.176  21.395  26.669  1.00  0.00     0.455 HD
ATOM     14  C   UNL A   1      31.106  25.065  26.480  1.00  0.00     0.338 C 
ATOM     15  N   UNL A   1      33.231  25.417  25.908  1.00  0.00    -0.225 NA
ATOM     16  Cl  UNL A   1      28.779  22.216  27.359  1.00  0.00     0.068 Cl
ATOM     17  N   UNL A   1      30.050  24.420  26.802  1.00  0.00    -0.118 N 
ATOM     18  N   UNL A   1      31.239  26.420  26.446  1.00  0.00    -0.173 NA
ATOM     19  C   UNL A   1      32.491  26.573  26.122  1.00  0.00     0.229 C 
ATOM     20  H   UNL A   1      29.202  24.874  27.009  1.00  0.00     0.464 HD
ENDBRANCH   8   9
ENDBRANCH   6   8
ENDBRANCH   4   6
ENDBRANCH   3   4
ENDBRANCH   2   3
ENDBRANCH   1   2
BRANCH   1  21
ATOM     21  O   UNL A   1      39.949  19.965  26.358  1.00  0.00    -0.458 OA
BRANCH  21  22
ATOM     22  C   UNL A   1      41.241  19.889  25.992  1.00  0.00     0.338 C 
ATOM     23  O   UNL A   1      41.758  18.993  25.323  1.00  0.00    -0.246 OA
BRANCH  22  24
ATOM     24  C   UNL A   1      42.039  20.901  26.667  1.00  0.00     0.060 A 
ATOM     25  C   UNL A   1      41.893  20.993  28.056  1.00  0.00     0.016 A 
ATOM     26  C   UNL A   1      42.579  21.937  25.896  1.00  0.00     0.016 A 
ATOM     27  C   UNL A   1      42.085  22.216  28.652  1.00  0.00     0.010 A 
ATOM     28  C   UNL A   1      42.739  23.163  26.487  1.00  0.00     0.010 A 
ATOM     29  C   UNL A   1      42.414  23.301  27.836  1.00  0.00    -0.014 A 
BRANCH  29  30
ATOM     30  C   UNL A   1      42.496  24.608  28.445  1.00  0.00     0.031 A 
ATOM     31  C   UNL A   1      41.328  25.455  28.138  1.00  0.00     0.074 A 
ATOM     32  C   UNL A   1      43.466  24.917  29.325  1.00  0.00     0.049 A 
ATOM     33  N   UNL A   1      41.300  26.552  27.457  1.00  0.00    -0.248 NA
ATOM     34  C   UNL A   1      40.001  24.911  28.465  1.00  0.00     0.031 C 
ATOM     35  C   UNL A   1      44.456  24.000  29.899  1.00  0.00     0.029 A 
ATOM     36  N   UNL A   1      43.653  26.067  30.028  1.00  0.00    -0.354 N 
ATOM     37  C   UNL A   1      39.969  26.961  27.509  1.00  0.00     0.074 A 
ATOM     38  C   UNL A   1      39.206  25.806  27.883  1.00  0.00     0.031 C 
ATOM     39  C   UNL A   1      44.949  24.548  31.032  1.00  0.00     0.029 A 
ATOM     40  C   UNL A   1      44.391  25.879  31.192  1.00  0.00     0.049 A 
ATOM     41  H   UNL A   1      43.303  26.942  29.742  1.00  0.00     0.167 HD
ATOM     42  C   UNL A   1      39.655  28.281  27.595  1.00  0.00     0.034 A 
ATOM     43  C   UNL A   1      44.434  26.715  32.257  1.00  0.00     0.034 A 
ATOM     44  C   UNL A   1      40.764  29.108  27.173  1.00  0.00     0.049 A 
ATOM     45  C   UNL A   1      43.948  28.040  31.806  1.00  0.00     0.074 A 
ATOM     46  C   UNL A   1      41.537  29.216  26.035  1.00  0.00     0.029 A 
ATOM     47  N   UNL A   1      41.448  29.766  28.166  1.00  0.00    -0.354 N 
ATOM     48  N   UNL A   1      44.594  28.810  30.977  1.00  0.00    -0.248 NA
ATOM     49  C   UNL A   1      42.544  28.368  31.995  1.00  0.00     0.031 C 
ATOM     50  C   UNL A   1      42.835  29.593  26.492  1.00  0.00     0.029 A 
ATOM     51  C   UNL A   1      42.784  29.731  27.881  1.00  0.00     0.049 A 
ATOM     52  H   UNL A   1      41.042  30.192  28.955  1.00  0.00     0.167 HD
ATOM     53  C   UNL A   1      43.599  29.406  30.212  1.00  0.00     0.074 A 
ATOM     54  C   UNL A   1      42.374  29.222  30.983  1.00  0.00     0.031 C 
ATOM     55  C   UNL A   1      43.816  29.709  28.896  1.00  0.00     0.034 A 
BRANCH  42  56
ATOM     56  C   UNL A   1      38.561  28.839  28.497  1.00  0.00     0.023 A 
ATOM     57  C   UNL A   1      37.666  29.755  27.898  1.00  0.00     0.012 A 
ATOM     58  C   UNL A   1      38.555  28.786  29.914  1.00  0.00     0.148 A 
ATOM     59  C   UNL A   1      36.916  30.658  28.660  1.00  0.00     0.002 A 
ATOM     60  C   UNL A   1      37.763  29.643  30.667  1.00  0.00     0.091 A 
ATOM     61  F   UNL A   1      39.390  27.986  30.573  1.00  0.00    -0.205 F 
ATOM     62  C   UNL A   1      36.974  30.610  30.047  1.00  0.00     0.022 A 
BRANCH  60  63
ATOM     63  S   UNL A   1      37.780  29.602  32.466  1.00  0.00     0.127 S 
ATOM     64  O   UNL A   1      39.143  30.044  32.749  1.00  0.00    -0.237 OA
ATOM     65  O   UNL A   1      36.731  30.567  32.794  1.00  0.00    -0.237 OA
ATOM     66  O   UNL A   1      37.465  28.229  32.839  1.00  0.00    -0.744 OA
ENDBRANCH  60  63
ENDBRANCH  42  56
BRANCH  43  67
ATOM     67  C   UNL A   1      44.641  26.404  33.692  1.00  0.00     0.023 A 
ATOM     68  C   UNL A   1      45.949  26.407  34.213  1.00  0.00     0.012 A 
ATOM     69  C   UNL A   1      43.562  26.347  34.603  1.00  0.00     0.148 A 
ATOM     70  C   UNL A   1      46.177  26.385  35.595  1.00  0.00     0.002 A 
ATOM     71  C   UNL A   1      43.793  26.303  35.975  1.00  0.00     0.091 A 
ATOM     72  F   UNL A   1      42.310  26.433  34.137  1.00  0.00    -0.205 F 
ATOM     73  C   UNL A   1      45.100  26.336  36.475  1.00  0.00     0.022 A 
BRANCH  71  74
ATOM     74  S   UNL A   1      42.448  26.228  37.166  1.00  0.00     0.127 S 
ATOM     75  O   UNL A   1      43.164  26.269  38.441  1.00  0.00    -0.237 OA
ATOM     76  O   UNL A   1      41.693  27.437  36.850  1.00  0.00    -0.237 OA
ATOM     77  O   UNL A   1      41.763  24.966  36.911  1.00  0.00    -0.744 OA
ENDBRANCH  71  74
ENDBRANCH  43  67
BRANCH  55  78
ATOM     78  C   UNL A   1      45.240  29.750  28.403  1.00  0.00     0.023 A 
ATOM     79  C   UNL A   1      46.046  30.901  28.524  1.00  0.00     0.012 A 
ATOM     80  C   UNL A   1      45.823  28.556  27.945  1.00  0.00     0.148 A 
ATOM     81  C   UNL A   1      47.394  30.870  28.162  1.00  0.00     0.002 A 
ATOM     82  C   UNL A   1      47.177  28.517  27.633  1.00  0.00     0.091 A 
ATOM     83  F   UNL A   1      45.046  27.467  27.839  1.00  0.00    -0.205 F 
ATOM     84  C   UNL A   1      47.963  29.674  27.728  1.00  0.00     0.022 A 
BRANCH  82  85
ATOM     85  S   UNL A   1      47.988  26.977  27.196  1.00  0.00     0.127 S 
ATOM     86  O   UNL A   1      47.249  26.566  26.005  1.00  0.00    -0.237 OA
ATOM     87  O   UNL A   1      49.367  27.404  26.944  1.00  0.00    -0.237 OA
ATOM     88  O   UNL A   1      47.845  26.110  28.360  1.00  0.00    -0.744 OA
ENDBRANCH  82  85
ENDBRANCH  55  78
ENDBRANCH  29  30
ENDBRANCH  22  24
ENDBRANCH  21  22
ENDBRANCH   1  21
TORSDOF 16
ENDMDL
MODEL 3
REMARK VINA RESULT:     -10.7      1.865      2.166
REMARK SMILES C[C@H](S[C@H]1[NH+]=C(Cl)[NH+]=C2N=CN=C21)C(=O)OCCOC(=O)c1ccc(-c2c3nc(c(-c4cccc(S(=O)(=O)[O-])c4F)c4ccc([nH]4)c(-c4cccc(S(=O)(=O)[O-])c4F)c4nc(c(-c5cccc(S(=O)(=O)[O-])c5F)c5ccc2[nH]5)C=C4)C=C3)cc1
REMARK SMILES IDX 18 1 17 2 16 3 14 4 15 5 2 6 1 7 3 8 4 9 5 10 13 11 6 12
REMARK SMILES IDX 9 14 12 15 7 16 8 17 10 18 11 19 19 21 20 22 21 23 22 24
REMARK SMILES IDX 23 25 84 26 24 27 83 28 25 29 26 30 27 31 77 32 28 33 82 34
REMARK SMILES IDX 76 35 78 36 29 37 81 38 75 39 74 40 30 42 62 43 42 44 61 45
REMARK SMILES IDX 43 46 46 47 60 48 79 49 44 50 45 51 59 53 80 54 47 55 31 56
REMARK SMILES IDX 32 57 40 58 33 59 35 60 41 61 34 62 36 63 37 64 38 65 39 66
REMARK SMILES IDX 63 67 64 68 72 69 65 70 67 71 73 72 66 73 68 74 69 75 70 76
REMARK SMILES IDX 71 77 48 78 49 79 57 80 50 81 52 82 58 83 51 84 53 85 54 86
REMARK SMILES IDX 55 87 56 88
REMARK H PARENT 5 13 8 20 78 41 46 52
REMARK Flexibility Score: inf
ROOT
ATOM      1  C   UNL A   1      34.161  33.627  27.994  1.00  0.00     0.275 C 
ENDROOT
BRANCH   1   2
ATOM      2  C   UNL A   1      34.022  34.074  29.446  1.00  0.00     0.274 C 
BRANCH   2   3
ATOM      3  O   UNL A   1      32.797  34.792  29.694  1.00  0.00    -0.461 OA
BRANCH   3   4
ATOM      4  C   UNL A   1      32.896  35.867  30.525  1.00  0.00     0.319 C 
ATOM      5  O   UNL A   1      33.113  37.016  30.147  1.00  0.00    -0.251 OA
BRANCH   4   6
ATOM      6  C   UNL A   1      32.869  35.504  32.004  1.00  0.00     0.160 C 
ATOM      7  C   UNL A   1      31.516  35.950  32.530  1.00  0.00     0.032 C 
BRANCH   6   8
ATOM      8  S   UNL A   1      34.412  35.983  32.884  1.00  0.00    -0.067 SA
BRANCH   8   9
ATOM      9  C   UNL A   1      35.571  34.614  32.664  1.00  0.00     0.384 C 
ATOM     10  N   UNL A   1      36.624  34.812  31.673  1.00  0.00    -0.156 N 
ATOM     11  C   UNL A   1      36.100  34.148  33.953  1.00  0.00     0.214 C 
ATOM     12  C   UNL A   1      37.839  34.484  31.900  1.00  0.00     0.514 C 
ATOM     13  H   UNL A   1      36.391  35.212  30.803  1.00  0.00     0.455 HD
ATOM     14  C   UNL A   1      37.523  33.825  34.013  1.00  0.00     0.338 C 
ATOM     15  N   UNL A   1      35.591  33.913  35.121  1.00  0.00    -0.225 NA
ATOM     16  Cl  UNL A   1      38.973  34.754  30.646  1.00  0.00     0.068 Cl
ATOM     17  N   UNL A   1      38.351  33.967  33.049  1.00  0.00    -0.118 N 
ATOM     18  N   UNL A   1      37.822  33.397  35.271  1.00  0.00    -0.173 NA
ATOM     19  C   UNL A   1      36.673  33.478  35.878  1.00  0.00     0.229 C 
ATOM     20  H   UNL A   1      39.299  33.719  33.134  1.00  0.00     0.464 HD
ENDBRANCH   8   9
ENDBRANCH   6   8
ENDBRANCH   4   6
ENDBRANCH   3   4
ENDBRANCH   2   3
ENDBRANCH   1   2
BRANCH   1  21
ATOM     21  O   UNL A   1      35.322  32.821  27.814  1.00  0.00    -0.458 OA
BRANCH  21  22
ATOM     22  C   UNL A   1      35.133  31.525  28.118  1.00  0.00     0.338 C 
ATOM     23  O   UNL A   1      34.118  30.864  27.894  1.00  0.00    -0.246 OA
BRANCH  22  24
ATOM     24  C   UNL A   1      36.210  31.019  28.954  1.00  0.00     0.060 A 
ATOM     25  C   UNL A   1      37.285  31.886  29.187  1.00  0.00     0.016 A 
ATOM     26  C   UNL A   1      36.304  29.636  29.144  1.00  0.00     0.016 A 
ATOM     27  C   UNL A   1      38.528  31.339  29.400  1.00  0.00     0.010 A 
ATOM     28  C   UNL A   1      37.549  29.092  29.325  1.00  0.00     0.010 A 
ATOM     29  C   UNL A   1      38.650  29.949  29.371  1.00  0.00    -0.014 A 
BRANCH  29  30
ATOM     30  C   UNL A   1      39.973  29.381  29.474  1.00  0.00     0.031 A 
ATOM     31  C   UNL A   1      40.452  29.296  30.867  1.00  0.00     0.074 A 
ATOM     32  C   UNL A   1      40.596  28.846  28.408  1.00  0.00     0.049 A 
ATOM     33  N   UNL A   1      41.446  29.920  31.405  1.00  0.00    -0.248 NA
ATOM     34  C   UNL A   1      39.599  28.575  31.826  1.00  0.00     0.031 C 
ATOM     35  C   UNL A   1      40.024  28.623  27.077  1.00  0.00     0.029 A 
ATOM     36  N   UNL A   1      41.804  28.223  28.343  1.00  0.00    -0.354 N 
ATOM     37  C   UNL A   1      41.487  29.449  32.715  1.00  0.00     0.074 A 
ATOM     38  C   UNL A   1      40.202  28.868  32.976  1.00  0.00     0.031 C 
ATOM     39  C   UNL A   1      40.768  27.695  26.434  1.00  0.00     0.029 A 
ATOM     40  C   UNL A   1      41.909  27.352  27.264  1.00  0.00     0.049 A 
ATOM     41  H   UNL A   1      42.529  28.375  28.992  1.00  0.00     0.167 HD
ATOM     42  C   UNL A   1      42.678  29.252  33.341  1.00  0.00     0.034 A 
ATOM     43  C   UNL A   1      42.805  26.344  27.133  1.00  0.00     0.034 A 
ATOM     44  C   UNL A   1      43.737  29.991  32.689  1.00  0.00     0.049 A 
ATOM     45  C   UNL A   1      43.914  26.604  28.080  1.00  0.00     0.074 A 
ATOM     46  C   UNL A   1      43.960  31.313  32.361  1.00  0.00     0.029 A 
ATOM     47  N   UNL A   1      44.626  29.254  31.946  1.00  0.00    -0.354 N 
ATOM     48  N   UNL A   1      44.763  27.585  27.958  1.00  0.00    -0.248 NA
ATOM     49  C   UNL A   1      43.868  25.980  29.393  1.00  0.00     0.031 C 
ATOM     50  C   UNL A   1      44.704  31.281  31.145  1.00  0.00     0.029 A 
ATOM     51  C   UNL A   1      44.929  29.945  30.806  1.00  0.00     0.049 A 
ATOM     52  H   UNL A   1      44.987  28.373  32.194  1.00  0.00     0.167 HD
ATOM     53  C   UNL A   1      45.011  27.991  29.263  1.00  0.00     0.074 A 
ATOM     54  C   UNL A   1      44.566  26.877  30.093  1.00  0.00     0.031 C 
ATOM     55  C   UNL A   1      45.261  29.305  29.550  1.00  0.00     0.034 A 
BRANCH  42  56
ATOM     56  C   UNL A   1      42.990  28.045  34.218  1.00  0.00     0.023 A 
ATOM     57  C   UNL A   1      43.386  28.326  35.546  1.00  0.00     0.012 A 
ATOM     58  C   UNL A   1      43.235  26.730  33.751  1.00  0.00     0.148 A 
ATOM     59  C   UNL A   1      44.105  27.401  36.312  1.00  0.00     0.002 A 
ATOM     60  C   UNL A   1      43.895  25.794  34.538  1.00  0.00     0.091 A 
ATOM     61  F   UNL A   1      42.936  26.378  32.502  1.00  0.00    -0.205 F 
ATOM     62  C   UNL A   1      44.370  26.137  35.802  1.00  0.00     0.022 A 
BRANCH  60  63
ATOM     63  S   UNL A   1      44.239  24.133  33.934  1.00  0.00     0.127 S 
ATOM     64  O   UNL A   1      44.454  24.385  32.511  1.00  0.00    -0.237 OA
ATOM     65  O   UNL A   1      45.440  23.786  34.693  1.00  0.00    -0.237 OA
ATOM     66  O   UNL A   1      43.067  23.334  34.270  1.00  0.00    -0.744 OA
ENDBRANCH  60  63
ENDBRANCH  42  56
BRANCH  43  67
ATOM     67  C   UNL A   1      42.671  25.051  26.420  1.00  0.00     0.023 A 
ATOM     68  C   UNL A   1      43.629  24.698  25.449  1.00  0.00     0.012 A 
ATOM     69  C   UNL A   1      41.763  24.056  26.850  1.00  0.00     0.148 A 
ATOM     70  C   UNL A   1      43.702  23.394  24.947  1.00  0.00     0.002 A 
ATOM     71  C   UNL A   1      41.825  22.766  26.331  1.00  0.00     0.091 A 
ATOM     72  F   UNL A   1      40.902  24.342  27.835  1.00  0.00    -0.205 F 
ATOM     73  C   UNL A   1      42.803  22.427  25.389  1.00  0.00     0.022 A 
BRANCH  71  74
ATOM     74  S   UNL A   1      40.687  21.474  26.851  1.00  0.00     0.127 S 
ATOM     75  O   UNL A   1      39.399  21.998  26.396  1.00  0.00    -0.237 OA
ATOM     76  O   UNL A   1      41.176  20.319  26.104  1.00  0.00    -0.237 OA
ATOM     77  O   UNL A   1      40.816  21.394  28.301  1.00  0.00    -0.744 OA
ENDBRANCH  71  74
ENDBRANCH  43  67
BRANCH  55  78
ATOM     78  C   UNL A   1      45.643  30.219  28.415  1.00  0.00     0.023 A 
ATOM     79  C   UNL A   1      44.684  30.921  27.656  1.00  0.00     0.012 A 
ATOM     80  C   UNL A   1      47.007  30.491  28.206  1.00  0.00     0.148 A 
ATOM     81  C   UNL A   1      45.077  31.846  26.687  1.00  0.00     0.002 A 
ATOM     82  C   UNL A   1      47.392  31.449  27.275  1.00  0.00     0.091 A 
ATOM     83  F   UNL A   1      47.910  29.820  28.938  1.00  0.00    -0.205 F 
ATOM     84  C   UNL A   1      46.431  32.119  26.505  1.00  0.00     0.022 A 
BRANCH  82  85
ATOM     85  S   UNL A   1      49.111  31.933  27.094  1.00  0.00     0.127 S 
ATOM     86  O   UNL A   1      49.479  32.281  28.463  1.00  0.00    -0.237 OA
ATOM     87  O   UNL A   1      49.734  30.709  26.584  1.00  0.00    -0.237 OA
ATOM     88  O   UNL A   1      49.111  33.036  26.138  1.00  0.00    -0.744 OA
ENDBRANCH  82  85
ENDBRANCH  55  78
ENDBRANCH  29  30
ENDBRANCH  22  24
ENDBRANCH  21  22
ENDBRANCH   1  21
TORSDOF 16
ENDMDL
