MODEL 1
REMARK VINA RESULT:     -11.4      0.000      0.000
REMARK SMILES CC(C)(C[S@@](=O)c1ccc(F)c(F)c1)C(=O)OCCOC(=O)c1ccc(-c2c3nc(c(-c4cccc(S(=O)(=O)[O-])c4F)c4ccc([nH]4)c(-c4cccc(S(=O)(=O)[O-])c4F)c4nc(c(-c5cccc(S(=O)(=O)[O-])c5F)c5ccc2[nH]5)C=C4)C=C3)cc1
REMARK SMILES IDX 18 1 17 2 15 3 16 4 2 5 1 6 3 7 4 8 5 9 6 10 7 11 8 12 14 13
REMARK SMILES IDX 9 14 12 15 10 16 13 17 11 18 19 19 20 20 21 21 22 22 23 23
REMARK SMILES IDX 24 24 85 25 25 26 84 27 26 28 27 29 28 30 78 31 29 32 83 33
REMARK SMILES IDX 77 34 79 35 30 36 82 37 76 38 75 39 31 41 63 42 43 43 62 44
REMARK SMILES IDX 44 45 47 46 61 47 80 48 45 49 46 50 60 52 81 53 48 54 32 55
REMARK SMILES IDX 33 56 41 57 34 58 36 59 42 60 35 61 37 62 38 63 39 64 40 65
REMARK SMILES IDX 64 66 65 67 73 68 66 69 68 70 74 71 67 72 69 73 70 74 71 75
REMARK SMILES IDX 72 76 49 77 50 78 58 79 51 80 53 81 59 82 52 83 54 84 55 85
REMARK SMILES IDX 56 86 57 87
REMARK H PARENT 79 40 47 51
REMARK Flexibility Score: inf
ROOT
ATOM      1  C   UNL A   1      35.850  20.088  24.986  1.00  0.00     0.274 C 
ENDROOT
BRANCH   1   2
ATOM      2  O   UNL A   1      35.134  21.308  24.688  1.00  0.00    -0.462 OA
BRANCH   2   3
ATOM      3  C   UNL A   1      34.621  21.954  25.766  1.00  0.00     0.312 C 
ATOM      4  O   UNL A   1      34.718  21.548  26.918  1.00  0.00    -0.252 OA
BRANCH   3   5
ATOM      5  C   UNL A   1      33.786  23.180  25.398  1.00  0.00     0.074 C 
ATOM      6  C   UNL A   1      33.121  22.948  24.031  1.00  0.00     0.024 C 
ATOM      7  C   UNL A   1      34.818  24.316  25.207  1.00  0.00     0.024 C 
BRANCH   5   8
ATOM      8  C   UNL A   1      32.773  23.654  26.454  1.00  0.00     0.128 C 
BRANCH   8   9
ATOM      9  S   UNL A   1      31.103  24.125  25.926  1.00  0.00     0.054 S 
ATOM     10  O   UNL A   1      30.235  24.009  27.146  1.00  0.00    -0.254 OA
BRANCH   9  11
ATOM     11  C   UNL A   1      31.199  25.899  25.631  1.00  0.00     0.042 A 
ATOM     12  C   UNL A   1      31.771  26.684  26.645  1.00  0.00     0.021 A 
ATOM     13  C   UNL A   1      30.784  26.520  24.451  1.00  0.00     0.060 A 
ATOM     14  C   UNL A   1      31.862  28.070  26.511  1.00  0.00     0.043 A 
ATOM     15  C   UNL A   1      30.849  27.909  24.339  1.00  0.00     0.160 A 
ATOM     16  C   UNL A   1      31.376  28.681  25.366  1.00  0.00     0.158 A 
ATOM     17  F   UNL A   1      30.391  28.492  23.222  1.00  0.00    -0.204 F 
ATOM     18  F   UNL A   1      31.432  30.013  25.252  1.00  0.00    -0.204 F 
ENDBRANCH   9  11
ENDBRANCH   8   9
ENDBRANCH   5   8
ENDBRANCH   3   5
ENDBRANCH   2   3
ENDBRANCH   1   2
BRANCH   1  19
ATOM     19  C   UNL A   1      37.359  20.244  24.810  1.00  0.00     0.275 C 
BRANCH  19  20
ATOM     20  O   UNL A   1      37.855  21.317  25.627  1.00  0.00    -0.458 OA
BRANCH  20  21
ATOM     21  C   UNL A   1      39.114  21.161  26.094  1.00  0.00     0.338 C 
ATOM     22  O   UNL A   1      39.789  20.146  26.072  1.00  0.00    -0.246 OA
BRANCH  21  23
ATOM     23  C   UNL A   1      39.619  22.429  26.645  1.00  0.00     0.060 A 
ATOM     24  C   UNL A   1      39.141  23.644  26.158  1.00  0.00     0.016 A 
ATOM     25  C   UNL A   1      40.681  22.403  27.549  1.00  0.00     0.016 A 
ATOM     26  C   UNL A   1      39.778  24.835  26.508  1.00  0.00     0.010 A 
ATOM     27  C   UNL A   1      41.258  23.604  27.969  1.00  0.00     0.010 A 
ATOM     28  C   UNL A   1      40.840  24.831  27.425  1.00  0.00    -0.014 A 
BRANCH  28  29
ATOM     29  C   UNL A   1      41.502  26.099  27.830  1.00  0.00     0.031 A 
ATOM     30  C   UNL A   1      40.732  27.183  28.540  1.00  0.00     0.074 A 
ATOM     31  C   UNL A   1      42.803  26.295  27.536  1.00  0.00     0.049 A 
ATOM     32  N   UNL A   1      41.140  28.361  28.939  1.00  0.00    -0.248 NA
ATOM     33  C   UNL A   1      39.323  26.904  28.855  1.00  0.00     0.031 C 
ATOM     34  C   UNL A   1      43.669  25.330  26.855  1.00  0.00     0.029 A 
ATOM     35  N   UNL A   1      43.615  27.382  27.744  1.00  0.00    -0.354 N 
ATOM     36  C   UNL A   1      40.045  28.955  29.558  1.00  0.00     0.074 A 
ATOM     37  C   UNL A   1      38.948  28.017  29.468  1.00  0.00     0.031 C 
ATOM     38  C   UNL A   1      44.883  25.874  26.686  1.00  0.00     0.029 A 
ATOM     39  C   UNL A   1      44.867  27.243  27.191  1.00  0.00     0.049 A 
ATOM     40  H   UNL A   1      43.330  28.183  28.240  1.00  0.00     0.167 HD
ATOM     41  C   UNL A   1      39.959  30.165  30.157  1.00  0.00     0.034 A 
ATOM     42  C   UNL A   1      45.874  28.128  27.060  1.00  0.00     0.034 A 
ATOM     43  C   UNL A   1      41.030  31.119  30.216  1.00  0.00     0.049 A 
ATOM     44  C   UNL A   1      45.709  29.515  27.613  1.00  0.00     0.074 A 
ATOM     45  C   UNL A   1      41.040  32.368  30.812  1.00  0.00     0.029 A 
ATOM     46  N   UNL A   1      42.273  30.944  29.630  1.00  0.00    -0.354 N 
ATOM     47  N   UNL A   1      44.713  30.012  28.306  1.00  0.00    -0.248 NA
ATOM     48  C   UNL A   1      46.808  30.461  27.374  1.00  0.00     0.031 C 
ATOM     49  C   UNL A   1      42.282  32.962  30.557  1.00  0.00     0.029 A 
ATOM     50  C   UNL A   1      43.047  32.077  29.813  1.00  0.00     0.049 A 
ATOM     51  H   UNL A   1      42.564  30.134  29.152  1.00  0.00     0.167 HD
ATOM     52  C   UNL A   1      45.073  31.320  28.605  1.00  0.00     0.074 A 
ATOM     53  C   UNL A   1      46.387  31.533  28.033  1.00  0.00     0.031 C 
ATOM     54  C   UNL A   1      44.369  32.265  29.276  1.00  0.00     0.034 A 
BRANCH  41  55
ATOM     55  C   UNL A   1      38.657  30.515  30.821  1.00  0.00     0.023 A 
ATOM     56  C   UNL A   1      38.445  30.122  32.158  1.00  0.00     0.012 A 
ATOM     57  C   UNL A   1      37.667  31.255  30.149  1.00  0.00     0.148 A 
ATOM     58  C   UNL A   1      37.259  30.452  32.813  1.00  0.00     0.002 A 
ATOM     59  C   UNL A   1      36.494  31.595  30.815  1.00  0.00     0.091 A 
ATOM     60  F   UNL A   1      37.877  31.587  28.867  1.00  0.00    -0.205 F 
ATOM     61  C   UNL A   1      36.289  31.194  32.146  1.00  0.00     0.022 A 
BRANCH  59  62
ATOM     62  S   UNL A   1      35.197  32.572  30.045  1.00  0.00     0.127 S 
ATOM     63  O   UNL A   1      34.256  32.736  31.152  1.00  0.00    -0.237 OA
ATOM     64  O   UNL A   1      35.910  33.793  29.665  1.00  0.00    -0.237 OA
ATOM     65  O   UNL A   1      34.715  31.779  28.923  1.00  0.00    -0.744 OA
ENDBRANCH  59  62
ENDBRANCH  41  55
BRANCH  42  66
ATOM     66  C   UNL A   1      47.126  27.711  26.371  1.00  0.00     0.023 A 
ATOM     67  C   UNL A   1      48.108  26.998  27.084  1.00  0.00     0.012 A 
ATOM     68  C   UNL A   1      47.319  27.956  24.996  1.00  0.00     0.148 A 
ATOM     69  C   UNL A   1      49.259  26.539  26.441  1.00  0.00     0.002 A 
ATOM     70  C   UNL A   1      48.437  27.444  24.349  1.00  0.00     0.091 A 
ATOM     71  F   UNL A   1      46.392  28.668  24.339  1.00  0.00    -0.205 F 
ATOM     72  C   UNL A   1      49.416  26.747  25.072  1.00  0.00     0.022 A 
BRANCH  70  73
ATOM     73  S   UNL A   1      48.613  27.541  22.564  1.00  0.00     0.127 S 
ATOM     74  O   UNL A   1      49.885  28.241  22.423  1.00  0.00    -0.237 OA
ATOM     75  O   UNL A   1      48.639  26.130  22.174  1.00  0.00    -0.237 OA
ATOM     76  O   UNL A   1      47.429  28.256  22.107  1.00  0.00    -0.744 OA
ENDBRANCH  70  73
ENDBRANCH  42  66
BRANCH  54  77
ATOM     77  C   UNL A   1      44.996  33.622  29.433  1.00  0.00     0.023 A 
ATOM     78  C   UNL A   1      45.747  33.905  30.591  1.00  0.00     0.012 A 
ATOM     79  C   UNL A   1      44.920  34.582  28.405  1.00  0.00     0.148 A 
ATOM     80  C   UNL A   1      46.398  35.130  30.731  1.00  0.00     0.002 A 
ATOM     81  C   UNL A   1      45.604  35.785  28.534  1.00  0.00     0.091 A 
ATOM     82  F   UNL A   1      44.179  34.304  27.321  1.00  0.00    -0.205 F 
ATOM     83  C   UNL A   1      46.338  36.063  29.699  1.00  0.00     0.022 A 
BRANCH  81  84
ATOM     84  S   UNL A   1      45.651  36.999  27.210  1.00  0.00     0.127 S 
ATOM     85  O   UNL A   1      44.237  37.345  27.072  1.00  0.00    -0.237 OA
ATOM     86  O   UNL A   1      46.485  38.058  27.779  1.00  0.00    -0.237 OA
ATOM     87  O   UNL A   1      46.247  36.314  26.071  1.00  0.00    -0.744 OA
ENDBRANCH  81  84
ENDBRANCH  54  77
ENDBRANCH  28  29
ENDBRANCH  21  23
ENDBRANCH  20  21
ENDBRANCH  19  20
ENDBRANCH   1  19
TORSDOF 17
ENDMDL
MODEL 2
REMARK VINA RESULT:     -11.3      5.456     10.350
REMARK SMILES CC(C)(C[S@@](=O)c1ccc(F)c(F)c1)C(=O)OCCOC(=O)c1ccc(-c2c3nc(c(-c4cccc(S(=O)(=O)[O-])c4F)c4ccc([nH]4)c(-c4cccc(S(=O)(=O)[O-])c4F)c4nc(c(-c5cccc(S(=O)(=O)[O-])c5F)c5ccc2[nH]5)C=C4)C=C3)cc1
REMARK SMILES IDX 18 1 17 2 15 3 16 4 2 5 1 6 3 7 4 8 5 9 6 10 7 11 8 12 14 13
REMARK SMILES IDX 9 14 12 15 10 16 13 17 11 18 19 19 20 20 21 21 22 22 23 23
REMARK SMILES IDX 24 24 85 25 25 26 84 27 26 28 27 29 28 30 78 31 29 32 83 33
REMARK SMILES IDX 77 34 79 35 30 36 82 37 76 38 75 39 31 41 63 42 43 43 62 44
REMARK SMILES IDX 44 45 47 46 61 47 80 48 45 49 46 50 60 52 81 53 48 54 32 55
REMARK SMILES IDX 33 56 41 57 34 58 36 59 42 60 35 61 37 62 38 63 39 64 40 65
REMARK SMILES IDX 64 66 65 67 73 68 66 69 68 70 74 71 67 72 69 73 70 74 71 75
REMARK SMILES IDX 72 76 49 77 50 78 58 79 51 80 53 81 59 82 52 83 54 84 55 85
REMARK SMILES IDX 56 86 57 87
REMARK H PARENT 79 40 47 51
REMARK Flexibility Score: inf
ROOT
ATOM      1  C   UNL A   1      31.757  28.902  26.799  1.00  0.00     0.274 C 
ENDROOT
BRANCH   1   2
ATOM      2  O   UNL A   1      31.612  28.414  25.447  1.00  0.00    -0.462 OA
BRANCH   2   3
ATOM      3  C   UNL A   1      31.001  27.207  25.331  1.00  0.00     0.312 C 
ATOM      4  O   UNL A   1      30.734  26.480  26.282  1.00  0.00    -0.252 OA
BRANCH   3   5
ATOM      5  C   UNL A   1      30.792  26.768  23.882  1.00  0.00     0.074 C 
ATOM      6  C   UNL A   1      29.699  27.640  23.242  1.00  0.00     0.024 C 
ATOM      7  C   UNL A   1      30.218  25.335  23.984  1.00  0.00     0.024 C 
BRANCH   5   8
ATOM      8  C   UNL A   1      32.053  26.695  23.006  1.00  0.00     0.128 C 
BRANCH   8   9
ATOM      9  S   UNL A   1      32.485  25.122  22.212  1.00  0.00     0.054 S 
ATOM     10  O   UNL A   1      33.443  25.465  21.107  1.00  0.00    -0.254 OA
BRANCH   9  11
ATOM     11  C   UNL A   1      33.510  24.266  23.421  1.00  0.00     0.042 A 
ATOM     12  C   UNL A   1      34.250  25.064  24.309  1.00  0.00     0.021 A 
ATOM     13  C   UNL A   1      33.574  22.877  23.549  1.00  0.00     0.060 A 
ATOM     14  C   UNL A   1      35.090  24.484  25.261  1.00  0.00     0.043 A 
ATOM     15  C   UNL A   1      34.441  22.306  24.481  1.00  0.00     0.160 A 
ATOM     16  C   UNL A   1      35.201  23.104  25.326  1.00  0.00     0.158 A 
ATOM     17  F   UNL A   1      34.532  20.970  24.550  1.00  0.00    -0.204 F 
ATOM     18  F   UNL A   1      36.033  22.549  26.216  1.00  0.00    -0.204 F 
ENDBRANCH   9  11
ENDBRANCH   8   9
ENDBRANCH   5   8
ENDBRANCH   3   5
ENDBRANCH   2   3
ENDBRANCH   1   2
BRANCH   1  19
ATOM     19  C   UNL A   1      31.979  30.412  26.849  1.00  0.00     0.275 C 
BRANCH  19  20
ATOM     20  O   UNL A   1      33.355  30.731  26.585  1.00  0.00    -0.458 OA
BRANCH  20  21
ATOM     21  C   UNL A   1      33.919  31.628  27.424  1.00  0.00     0.338 C 
ATOM     22  O   UNL A   1      33.453  32.697  27.782  1.00  0.00    -0.246 OA
BRANCH  21  23
ATOM     23  C   UNL A   1      35.220  31.138  27.903  1.00  0.00     0.060 A 
ATOM     24  C   UNL A   1      35.369  29.806  28.287  1.00  0.00     0.016 A 
ATOM     25  C   UNL A   1      36.257  32.048  28.107  1.00  0.00     0.016 A 
ATOM     26  C   UNL A   1      36.524  29.397  28.954  1.00  0.00     0.010 A 
ATOM     27  C   UNL A   1      37.450  31.614  28.692  1.00  0.00     0.010 A 
ATOM     28  C   UNL A   1      37.583  30.295  29.158  1.00  0.00    -0.014 A 
BRANCH  28  29
ATOM     29  C   UNL A   1      38.833  29.859  29.837  1.00  0.00     0.031 A 
ATOM     30  C   UNL A   1      39.696  28.773  29.248  1.00  0.00     0.074 A 
ATOM     31  C   UNL A   1      39.185  30.423  31.009  1.00  0.00     0.049 A 
ATOM     32  N   UNL A   1      40.799  28.247  29.718  1.00  0.00    -0.248 NA
ATOM     33  C   UNL A   1      39.273  28.210  27.958  1.00  0.00     0.031 C 
ATOM     34  C   UNL A   1      38.445  31.487  31.691  1.00  0.00     0.029 A 
ATOM     35  N   UNL A   1      40.239  30.161  31.849  1.00  0.00    -0.354 N 
ATOM     36  C   UNL A   1      41.204  27.306  28.779  1.00  0.00     0.074 A 
ATOM     37  C   UNL A   1      40.221  27.316  27.719  1.00  0.00     0.031 C 
ATOM     38  C   UNL A   1      39.055  31.773  32.850  1.00  0.00     0.029 A 
ATOM     39  C   UNL A   1      40.193  30.876  33.023  1.00  0.00     0.049 A 
ATOM     40  H   UNL A   1      40.957  29.523  31.633  1.00  0.00     0.167 HD
ATOM     41  C   UNL A   1      42.299  26.510  28.789  1.00  0.00     0.034 A 
ATOM     42  C   UNL A   1      40.949  30.792  34.135  1.00  0.00     0.034 A 
ATOM     43  C   UNL A   1      43.259  26.464  29.855  1.00  0.00     0.049 A 
ATOM     44  C   UNL A   1      42.080  29.804  34.179  1.00  0.00     0.074 A 
ATOM     45  C   UNL A   1      44.407  25.698  29.949  1.00  0.00     0.029 A 
ATOM     46  N   UNL A   1      43.165  27.192  31.030  1.00  0.00    -0.354 N 
ATOM     47  N   UNL A   1      42.523  29.014  33.231  1.00  0.00    -0.248 NA
ATOM     48  C   UNL A   1      42.823  29.700  35.444  1.00  0.00     0.031 C 
ATOM     49  C   UNL A   1      44.991  25.939  31.198  1.00  0.00     0.029 A 
ATOM     50  C   UNL A   1      44.212  26.865  31.875  1.00  0.00     0.049 A 
ATOM     51  H   UNL A   1      42.458  27.845  31.236  1.00  0.00     0.167 HD
ATOM     52  C   UNL A   1      43.606  28.336  33.774  1.00  0.00     0.074 A 
ATOM     53  C   UNL A   1      43.766  28.821  35.130  1.00  0.00     0.031 C 
ATOM     54  C   UNL A   1      44.386  27.383  33.207  1.00  0.00     0.034 A 
BRANCH  41  55
ATOM     55  C   UNL A   1      42.528  25.636  27.587  1.00  0.00     0.023 A 
ATOM     56  C   UNL A   1      43.193  26.176  26.467  1.00  0.00     0.012 A 
ATOM     57  C   UNL A   1      42.125  24.289  27.574  1.00  0.00     0.148 A 
ATOM     58  C   UNL A   1      43.444  25.387  25.346  1.00  0.00     0.002 A 
ATOM     59  C   UNL A   1      42.396  23.503  26.458  1.00  0.00     0.091 A 
ATOM     60  F   UNL A   1      41.465  23.808  28.637  1.00  0.00    -0.205 F 
ATOM     61  C   UNL A   1      43.054  24.050  25.344  1.00  0.00     0.022 A 
BRANCH  59  62
ATOM     62  S   UNL A   1      41.954  21.764  26.375  1.00  0.00     0.127 S 
ATOM     63  O   UNL A   1      40.533  21.837  26.042  1.00  0.00    -0.237 OA
ATOM     64  O   UNL A   1      42.809  21.275  25.292  1.00  0.00    -0.237 OA
ATOM     65  O   UNL A   1      42.264  21.211  27.686  1.00  0.00    -0.744 OA
ENDBRANCH  59  62
ENDBRANCH  41  55
BRANCH  42  66
ATOM     66  C   UNL A   1      40.647  31.678  35.292  1.00  0.00     0.023 A 
ATOM     67  C   UNL A   1      41.469  32.791  35.548  1.00  0.00     0.012 A 
ATOM     68  C   UNL A   1      39.509  31.465  36.096  1.00  0.00     0.148 A 
ATOM     69  C   UNL A   1      41.164  33.673  36.587  1.00  0.00     0.002 A 
ATOM     70  C   UNL A   1      39.179  32.379  37.089  1.00  0.00     0.091 A 
ATOM     71  F   UNL A   1      38.756  30.380  35.863  1.00  0.00    -0.205 F 
ATOM     72  C   UNL A   1      40.012  33.478  37.345  1.00  0.00     0.022 A 
BRANCH  70  73
ATOM     73  S   UNL A   1      37.627  32.267  37.987  1.00  0.00     0.127 S 
ATOM     74  O   UNL A   1      37.936  32.989  39.217  1.00  0.00    -0.237 OA
ATOM     75  O   UNL A   1      36.694  32.952  37.089  1.00  0.00    -0.237 OA
ATOM     76  O   UNL A   1      37.371  30.839  38.123  1.00  0.00    -0.744 OA
ENDBRANCH  70  73
ENDBRANCH  42  66
BRANCH  54  77
ATOM     77  C   UNL A   1      45.487  26.792  34.043  1.00  0.00     0.023 A 
ATOM     78  C   UNL A   1      46.762  27.388  34.024  1.00  0.00     0.012 A 
ATOM     79  C   UNL A   1      45.240  25.710  34.910  1.00  0.00     0.148 A 
ATOM     80  C   UNL A   1      47.782  26.905  34.843  1.00  0.00     0.002 A 
ATOM     81  C   UNL A   1      46.250  25.259  35.753  1.00  0.00     0.091 A 
ATOM     82  F   UNL A   1      44.026  25.140  34.895  1.00  0.00    -0.205 F 
ATOM     83  C   UNL A   1      47.523  25.851  35.716  1.00  0.00     0.022 A 
BRANCH  81  84
ATOM     84  S   UNL A   1      45.966  23.968  36.969  1.00  0.00     0.127 S 
ATOM     85  O   UNL A   1      47.300  23.799  37.543  1.00  0.00    -0.237 OA
ATOM     86  O   UNL A   1      44.989  24.585  37.866  1.00  0.00    -0.237 OA
ATOM     87  O   UNL A   1      45.453  22.828  36.219  1.00  0.00    -0.744 OA
ENDBRANCH  81  84
ENDBRANCH  54  77
ENDBRANCH  28  29
ENDBRANCH  21  23
ENDBRANCH  20  21
ENDBRANCH  19  20
ENDBRANCH   1  19
TORSDOF 17
ENDMDL
MODEL 3
REMARK VINA RESULT:     -11.1      1.545      1.918
REMARK SMILES CC(C)(C[S@@](=O)c1ccc(F)c(F)c1)C(=O)OCCOC(=O)c1ccc(-c2c3nc(c(-c4cccc(S(=O)(=O)[O-])c4F)c4ccc([nH]4)c(-c4cccc(S(=O)(=O)[O-])c4F)c4nc(c(-c5cccc(S(=O)(=O)[O-])c5F)c5ccc2[nH]5)C=C4)C=C3)cc1
REMARK SMILES IDX 18 1 17 2 15 3 16 4 2 5 1 6 3 7 4 8 5 9 6 10 7 11 8 12 14 13
REMARK SMILES IDX 9 14 12 15 10 16 13 17 11 18 19 19 20 20 21 21 22 22 23 23
REMARK SMILES IDX 24 24 85 25 25 26 84 27 26 28 27 29 28 30 78 31 29 32 83 33
REMARK SMILES IDX 77 34 79 35 30 36 82 37 76 38 75 39 31 41 63 42 43 43 62 44
REMARK SMILES IDX 44 45 47 46 61 47 80 48 45 49 46 50 60 52 81 53 48 54 32 55
REMARK SMILES IDX 33 56 41 57 34 58 36 59 42 60 35 61 37 62 38 63 39 64 40 65
REMARK SMILES IDX 64 66 65 67 73 68 66 69 68 70 74 71 67 72 69 73 70 74 71 75
REMARK SMILES IDX 72 76 49 77 50 78 58 79 51 80 53 81 59 82 52 83 54 84 55 85
REMARK SMILES IDX 56 86 57 87
REMARK H PARENT 79 40 47 51
REMARK Flexibility Score: inf
ROOT
ATOM      1  C   UNL A   1      35.056  20.548  25.001  1.00  0.00     0.274 C 
ENDROOT
BRANCH   1   2
ATOM      2  O   UNL A   1      34.693  21.943  25.103  1.00  0.00    -0.462 OA
BRANCH   2   3
ATOM      3  C   UNL A   1      34.545  22.588  23.918  1.00  0.00     0.312 C 
ATOM      4  O   UNL A   1      35.422  22.665  23.065  1.00  0.00    -0.252 OA
BRANCH   3   5
ATOM      5  C   UNL A   1      33.217  23.334  23.794  1.00  0.00     0.074 C 
ATOM      6  C   UNL A   1      32.067  22.314  23.744  1.00  0.00     0.024 C 
ATOM      7  C   UNL A   1      33.275  24.012  22.404  1.00  0.00     0.024 C 
BRANCH   5   8
ATOM      8  C   UNL A   1      32.959  24.439  24.831  1.00  0.00     0.128 C 
BRANCH   8   9
ATOM      9  S   UNL A   1      31.269  24.704  25.435  1.00  0.00     0.054 S 
ATOM     10  O   UNL A   1      31.408  25.303  26.805  1.00  0.00    -0.254 OA
BRANCH   9  11
ATOM     11  C   UNL A   1      30.633  26.060  24.435  1.00  0.00     0.042 A 
ATOM     12  C   UNL A   1      31.577  26.858  23.768  1.00  0.00     0.021 A 
ATOM     13  C   UNL A   1      29.275  26.328  24.253  1.00  0.00     0.060 A 
ATOM     14  C   UNL A   1      31.173  27.946  22.992  1.00  0.00     0.043 A 
ATOM     15  C   UNL A   1      28.881  27.436  23.502  1.00  0.00     0.160 A 
ATOM     16  C   UNL A   1      29.824  28.246  22.882  1.00  0.00     0.158 A 
ATOM     17  F   UNL A   1      27.574  27.712  23.387  1.00  0.00    -0.204 F 
ATOM     18  F   UNL A   1      29.439  29.309  22.166  1.00  0.00    -0.204 F 
ENDBRANCH   9  11
ENDBRANCH   8   9
ENDBRANCH   5   8
ENDBRANCH   3   5
ENDBRANCH   2   3
ENDBRANCH   1   2
BRANCH   1  19
ATOM     19  C   UNL A   1      36.569  20.343  24.988  1.00  0.00     0.275 C 
BRANCH  19  20
ATOM     20  O   UNL A   1      37.226  21.368  25.751  1.00  0.00    -0.458 OA
BRANCH  20  21
ATOM     21  C   UNL A   1      38.551  21.191  25.949  1.00  0.00     0.338 C 
ATOM     22  O   UNL A   1      39.206  20.190  25.709  1.00  0.00    -0.246 OA
BRANCH  21  23
ATOM     23  C   UNL A   1      39.158  22.415  26.495  1.00  0.00     0.060 A 
ATOM     24  C   UNL A   1      38.663  23.666  26.129  1.00  0.00     0.016 A 
ATOM     25  C   UNL A   1      40.320  22.316  27.260  1.00  0.00     0.016 A 
ATOM     26  C   UNL A   1      39.374  24.821  26.456  1.00  0.00     0.010 A 
ATOM     27  C   UNL A   1      40.979  23.479  27.666  1.00  0.00     0.010 A 
ATOM     28  C   UNL A   1      40.538  24.742  27.236  1.00  0.00    -0.014 A 
BRANCH  28  29
ATOM     29  C   UNL A   1      41.283  25.971  27.619  1.00  0.00     0.031 A 
ATOM     30  C   UNL A   1      40.599  27.094  28.356  1.00  0.00     0.074 A 
ATOM     31  C   UNL A   1      42.582  26.095  27.280  1.00  0.00     0.049 A 
ATOM     32  N   UNL A   1      41.085  28.247  28.741  1.00  0.00    -0.248 NA
ATOM     33  C   UNL A   1      39.189  26.893  28.719  1.00  0.00     0.031 C 
ATOM     34  C   UNL A   1      43.369  25.085  26.569  1.00  0.00     0.029 A 
ATOM     35  N   UNL A   1      43.460  27.135  27.461  1.00  0.00    -0.354 N 
ATOM     36  C   UNL A   1      40.047  28.899  29.398  1.00  0.00     0.074 A 
ATOM     37  C   UNL A   1      38.898  28.023  29.345  1.00  0.00     0.031 C 
ATOM     38  C   UNL A   1      44.605  25.561  26.359  1.00  0.00     0.029 A 
ATOM     39  C   UNL A   1      44.682  26.927  26.865  1.00  0.00     0.049 A 
ATOM     40  H   UNL A   1      43.236  27.949  27.967  1.00  0.00     0.167 HD
ATOM     41  C   UNL A   1      40.049  30.111  30.000  1.00  0.00     0.034 A 
ATOM     42  C   UNL A   1      45.732  27.755  26.699  1.00  0.00     0.034 A 
ATOM     43  C   UNL A   1      41.173  31.004  30.023  1.00  0.00     0.049 A 
ATOM     44  C   UNL A   1      45.663  29.148  27.258  1.00  0.00     0.074 A 
ATOM     45  C   UNL A   1      41.273  32.248  30.619  1.00  0.00     0.029 A 
ATOM     46  N   UNL A   1      42.383  30.761  29.393  1.00  0.00    -0.354 N 
ATOM     47  N   UNL A   1      44.721  29.698  27.986  1.00  0.00    -0.248 NA
ATOM     48  C   UNL A   1      46.805  30.033  26.982  1.00  0.00     0.031 C 
ATOM     49  C   UNL A   1      42.536  32.773  30.321  1.00  0.00     0.029 A 
ATOM     50  C   UNL A   1      43.225  31.849  29.551  1.00  0.00     0.049 A 
ATOM     51  H   UNL A   1      42.612  29.937  28.906  1.00  0.00     0.167 HD
ATOM     52  C   UNL A   1      45.163  30.984  28.273  1.00  0.00     0.074 A 
ATOM     53  C   UNL A   1      46.466  31.125  27.656  1.00  0.00     0.031 C 
ATOM     54  C   UNL A   1      44.536  31.964  28.968  1.00  0.00     0.034 A 
BRANCH  41  55
ATOM     55  C   UNL A   1      38.792  30.531  30.709  1.00  0.00     0.023 A 
ATOM     56  C   UNL A   1      38.648  30.230  32.079  1.00  0.00     0.012 A 
ATOM     57  C   UNL A   1      37.780  31.246  30.044  1.00  0.00     0.148 A 
ATOM     58  C   UNL A   1      37.506  30.627  32.774  1.00  0.00     0.002 A 
ATOM     59  C   UNL A   1      36.652  31.654  30.749  1.00  0.00     0.091 A 
ATOM     60  F   UNL A   1      37.924  31.489  28.734  1.00  0.00    -0.205 F 
ATOM     61  C   UNL A   1      36.514  31.345  32.112  1.00  0.00     0.022 A 
BRANCH  59  62
ATOM     62  S   UNL A   1      35.332  32.606  29.987  1.00  0.00     0.127 S 
ATOM     63  O   UNL A   1      34.408  32.775  31.107  1.00  0.00    -0.237 OA
ATOM     64  O   UNL A   1      36.025  33.828  29.577  1.00  0.00    -0.237 OA
ATOM     65  O   UNL A   1      34.840  31.791  28.885  1.00  0.00    -0.744 OA
ENDBRANCH  59  62
ENDBRANCH  41  55
BRANCH  42  66
ATOM     66  C   UNL A   1      46.934  27.271  25.967  1.00  0.00     0.023 A 
ATOM     67  C   UNL A   1      47.055  27.519  24.588  1.00  0.00     0.012 A 
ATOM     68  C   UNL A   1      47.991  26.629  26.645  1.00  0.00     0.148 A 
ATOM     69  C   UNL A   1      48.205  27.132  23.896  1.00  0.00     0.002 A 
ATOM     70  C   UNL A   1      49.157  26.302  25.963  1.00  0.00     0.091 A 
ATOM     71  F   UNL A   1      47.846  26.368  27.952  1.00  0.00    -0.205 F 
ATOM     72  C   UNL A   1      49.261  26.541  24.585  1.00  0.00     0.022 A 
BRANCH  70  73
ATOM     73  S   UNL A   1      50.607  25.688  26.827  1.00  0.00     0.127 S 
ATOM     74  O   UNL A   1      50.105  24.453  27.420  1.00  0.00    -0.237 OA
ATOM     75  O   UNL A   1      51.567  25.503  25.737  1.00  0.00    -0.237 OA
ATOM     76  O   UNL A   1      50.970  26.749  27.758  1.00  0.00    -0.744 OA
ENDBRANCH  70  73
ENDBRANCH  42  66
BRANCH  54  77
ATOM     77  C   UNL A   1      45.243  33.285  29.104  1.00  0.00     0.023 A 
ATOM     78  C   UNL A   1      46.108  33.494  30.195  1.00  0.00     0.012 A 
ATOM     79  C   UNL A   1      45.123  34.279  28.114  1.00  0.00     0.148 A 
ATOM     80  C   UNL A   1      46.830  34.681  30.309  1.00  0.00     0.002 A 
ATOM     81  C   UNL A   1      45.877  35.443  28.212  1.00  0.00     0.091 A 
ATOM     82  F   UNL A   1      44.275  34.072  27.095  1.00  0.00    -0.205 F 
ATOM     83  C   UNL A   1      46.726  35.648  29.312  1.00  0.00     0.022 A 
BRANCH  81  84
ATOM     84  S   UNL A   1      45.865  36.694  26.924  1.00  0.00     0.127 S 
ATOM     85  O   UNL A   1      46.326  35.933  25.764  1.00  0.00    -0.237 OA
ATOM     86  O   UNL A   1      44.456  37.087  26.875  1.00  0.00    -0.237 OA
ATOM     87  O   UNL A   1      46.763  37.744  27.388  1.00  0.00    -0.744 OA
ENDBRANCH  81  84
ENDBRANCH  54  77
ENDBRANCH  28  29
ENDBRANCH  21  23
ENDBRANCH  20  21
ENDBRANCH  19  20
ENDBRANCH   1  19
TORSDOF 17
ENDMDL
