MODEL 1
REMARK VINA RESULT:     -12.0      0.000      0.000
REMARK SMILES C[NH+]1CCN(C(=O)c2ccc3c(c2)N(CC(=O)OCCOC(=O)c2ccc(-c4c5nc(c(-c6cccc(S(=O)(=O)[O-])c6F)c6ccc([nH]6)c(-c6cccc(S(=O)(=O)[O-])c6F)c6nc(c(-c7cccc(S(=O)(=O)[O-])c7F)c7ccc4[nH]7)C=C6)C=C5)cc2)C(=O)CO3)CC1
REMARK SMILES IDX 20 1 19 2 18 3 16 4 17 5 15 6 14 7 8 8 9 9 13 10 10 11 12 12
REMARK SMILES IDX 11 13 90 14 87 15 89 16 88 17 6 18 1 19 2 20 3 21 92 22 4 24
REMARK SMILES IDX 91 25 5 26 7 27 21 28 22 29 23 30 24 31 25 32 86 33 26 34
REMARK SMILES IDX 85 35 27 36 28 37 29 38 79 39 30 40 84 41 78 42 80 43 31 44
REMARK SMILES IDX 83 45 77 46 76 47 32 49 64 50 44 51 63 52 45 53 48 54 62 55
REMARK SMILES IDX 81 56 46 57 47 58 61 60 82 61 49 62 33 63 34 64 42 65 35 66
REMARK SMILES IDX 37 67 43 68 36 69 38 70 39 71 40 72 41 73 65 74 66 75 74 76
REMARK SMILES IDX 67 77 69 78 75 79 68 80 70 81 71 82 72 83 73 84 50 85 51 86
REMARK SMILES IDX 59 87 52 88 54 89 60 90 53 91 55 92 56 93 57 94 58 95
REMARK H PARENT 2 23 80 48 48 59
REMARK Flexibility Score: inf
ROOT
ATOM      1  C   UNL A   1      39.304  19.355  25.806  1.00  0.00     0.275 C 
ENDROOT
BRANCH   1   2
ATOM      2  C   UNL A   1      38.542  20.482  25.088  1.00  0.00     0.274 C 
BRANCH   2   3
ATOM      3  O   UNL A   1      38.206  21.594  25.945  1.00  0.00    -0.461 OA
BRANCH   3   4
ATOM      4  C   UNL A   1      37.095  22.287  25.569  1.00  0.00     0.326 C 
ATOM      5  O   UNL A   1      36.735  23.337  26.097  1.00  0.00    -0.250 OA
BRANCH   4   6
ATOM      6  C   UNL A   1      36.411  21.755  24.310  1.00  0.00     0.248 C 
BRANCH   6   7
ATOM      7  N   UNL A   1      34.986  21.470  24.346  1.00  0.00    -0.295 N 
ATOM      8  C   UNL A   1      33.215  24.570  23.122  1.00  0.00     0.042 A 
ATOM      9  C   UNL A   1      31.908  24.095  23.015  1.00  0.00     0.018 A 
ATOM     10  C   UNL A   1      34.225  23.750  23.659  1.00  0.00     0.044 A 
ATOM     11  C   UNL A   1      31.624  22.789  23.408  1.00  0.00     0.049 A 
ATOM     12  C   UNL A   1      33.972  22.406  23.976  1.00  0.00     0.087 A 
ATOM     13  C   UNL A   1      32.643  21.956  23.881  1.00  0.00     0.143 A 
ATOM     14  O   UNL A   1      32.250  20.681  24.198  1.00  0.00    -0.482 OA
ATOM     15  C   UNL A   1      34.629  20.189  24.746  1.00  0.00     0.265 C 
ATOM     16  C   UNL A   1      33.156  20.036  25.075  1.00  0.00     0.330 C 
ATOM     17  O   UNL A   1      35.436  19.279  24.934  1.00  0.00    -0.270 OA
BRANCH   8  18
ATOM     18  C   UNL A   1      33.483  25.991  22.799  1.00  0.00     0.254 C 
ATOM     19  C   UNL A   1      31.715  30.149  25.766  1.00  0.00     0.332 C 
ATOM     20  N   UNL A   1      32.830  29.228  25.493  1.00  0.00    -0.334 N 
ATOM     21  C   UNL A   1      33.283  29.403  24.093  1.00  0.00     0.283 C 
ATOM     22  C   UNL A   1      32.420  27.841  25.801  1.00  0.00     0.283 C 
ATOM     23  H   UNL A   1      33.627  29.437  26.094  1.00  0.00     0.347 HD
ATOM     24  C   UNL A   1      34.148  28.264  23.517  1.00  0.00     0.181 C 
ATOM     25  C   UNL A   1      33.334  26.727  25.236  1.00  0.00     0.181 C 
ATOM     26  N   UNL A   1      33.621  26.931  23.818  1.00  0.00    -0.327 N 
ATOM     27  O   UNL A   1      33.629  26.251  21.607  1.00  0.00    -0.269 OA
ENDBRANCH   8  18
ENDBRANCH   6   7
ENDBRANCH   4   6
ENDBRANCH   3   4
ENDBRANCH   2   3
ENDBRANCH   1   2
BRANCH   1  28
ATOM     28  O   UNL A   1      40.695  19.280  25.432  1.00  0.00    -0.458 OA
BRANCH  28  29
ATOM     29  C   UNL A   1      41.504  19.605  26.464  1.00  0.00     0.338 C 
ATOM     30  O   UNL A   1      42.068  18.797  27.186  1.00  0.00    -0.246 OA
BRANCH  29  31
ATOM     31  C   UNL A   1      41.689  21.044  26.700  1.00  0.00     0.060 A 
ATOM     32  C   UNL A   1      41.750  21.976  25.668  1.00  0.00     0.016 A 
ATOM     33  C   UNL A   1      42.112  21.398  27.978  1.00  0.00     0.016 A 
ATOM     34  C   UNL A   1      42.306  23.239  25.919  1.00  0.00     0.010 A 
ATOM     35  C   UNL A   1      42.613  22.665  28.247  1.00  0.00     0.010 A 
ATOM     36  C   UNL A   1      42.727  23.599  27.217  1.00  0.00    -0.014 A 
BRANCH  36  37
ATOM     37  C   UNL A   1      43.031  25.002  27.589  1.00  0.00     0.031 A 
ATOM     38  C   UNL A   1      42.005  25.944  28.160  1.00  0.00     0.074 A 
ATOM     39  C   UNL A   1      44.221  25.472  27.169  1.00  0.00     0.049 A 
ATOM     40  N   UNL A   1      42.123  27.221  28.429  1.00  0.00    -0.248 NA
ATOM     41  C   UNL A   1      40.667  25.402  28.432  1.00  0.00     0.031 C 
ATOM     42  C   UNL A   1      45.216  24.682  26.436  1.00  0.00     0.029 A 
ATOM     43  N   UNL A   1      44.774  26.721  27.239  1.00  0.00    -0.354 N 
ATOM     44  C   UNL A   1      40.870  27.644  28.864  1.00  0.00     0.074 A 
ATOM     45  C   UNL A   1      40.001  26.488  28.812  1.00  0.00     0.031 C 
ATOM     46  C   UNL A   1      46.256  25.463  26.122  1.00  0.00     0.029 A 
ATOM     47  C   UNL A   1      45.994  26.809  26.614  1.00  0.00     0.049 A 
ATOM     48  H   UNL A   1      44.341  27.480  27.691  1.00  0.00     0.167 HD
ATOM     49  C   UNL A   1      40.495  28.879  29.286  1.00  0.00     0.034 A 
ATOM     50  C   UNL A   1      46.825  27.854  26.457  1.00  0.00     0.034 A 
ATOM     51  C   UNL A   1      41.399  30.001  29.376  1.00  0.00     0.049 A 
ATOM     52  C   UNL A   1      46.449  29.161  27.078  1.00  0.00     0.074 A 
ATOM     53  C   UNL A   1      41.172  31.253  29.925  1.00  0.00     0.029 A 
ATOM     54  N   UNL A   1      42.701  30.007  28.902  1.00  0.00    -0.354 N 
ATOM     55  N   UNL A   1      45.336  29.487  27.690  1.00  0.00    -0.248 NA
ATOM     56  C   UNL A   1      47.455  30.228  27.038  1.00  0.00     0.031 C 
ATOM     57  C   UNL A   1      42.338  32.014  29.778  1.00  0.00     0.029 A 
ATOM     58  C   UNL A   1      43.292  31.236  29.144  1.00  0.00     0.049 A 
ATOM     59  H   UNL A   1      43.143  29.248  28.457  1.00  0.00     0.167 HD
ATOM     60  C   UNL A   1      45.514  30.790  28.128  1.00  0.00     0.074 A 
ATOM     61  C   UNL A   1      46.853  31.182  27.734  1.00  0.00     0.031 C 
ATOM     62  C   UNL A   1      44.639  31.595  28.779  1.00  0.00     0.034 A 
BRANCH  49  63
ATOM     63  C   UNL A   1      39.079  29.082  29.779  1.00  0.00     0.023 A 
ATOM     64  C   UNL A   1      38.765  28.750  31.113  1.00  0.00     0.012 A 
ATOM     65  C   UNL A   1      38.099  29.713  28.982  1.00  0.00     0.148 A 
ATOM     66  C   UNL A   1      37.502  29.021  31.641  1.00  0.00     0.002 A 
ATOM     67  C   UNL A   1      36.853  30.014  29.527  1.00  0.00     0.091 A 
ATOM     68  F   UNL A   1      38.402  30.013  27.712  1.00  0.00    -0.205 F 
ATOM     69  C   UNL A   1      36.551  29.663  30.852  1.00  0.00     0.022 A 
BRANCH  67  70
ATOM     70  S   UNL A   1      35.587  30.917  28.621  1.00  0.00     0.127 S 
ATOM     71  O   UNL A   1      34.854  29.832  27.970  1.00  0.00    -0.237 OA
ATOM     72  O   UNL A   1      34.851  31.587  29.695  1.00  0.00    -0.237 OA
ATOM     73  O   UNL A   1      36.302  31.817  27.727  1.00  0.00    -0.744 OA
ENDBRANCH  67  70
ENDBRANCH  49  63
BRANCH  50  74
ATOM     74  C   UNL A   1      48.141  27.619  25.810  1.00  0.00     0.023 A 
ATOM     75  C   UNL A   1      49.192  27.102  26.590  1.00  0.00     0.012 A 
ATOM     76  C   UNL A   1      48.311  27.744  24.418  1.00  0.00     0.148 A 
ATOM     77  C   UNL A   1      50.394  26.720  25.997  1.00  0.00     0.002 A 
ATOM     78  C   UNL A   1      49.490  27.307  23.826  1.00  0.00     0.091 A 
ATOM     79  F   UNL A   1      47.297  28.237  23.692  1.00  0.00    -0.205 F 
ATOM     80  C   UNL A   1      50.537  26.806  24.614  1.00  0.00     0.022 A 
BRANCH  78  81
ATOM     81  S   UNL A   1      49.669  27.227  22.039  1.00  0.00     0.127 S 
ATOM     82  O   UNL A   1      48.655  26.242  21.678  1.00  0.00    -0.237 OA
ATOM     83  O   UNL A   1      49.367  28.600  21.630  1.00  0.00    -0.237 OA
ATOM     84  O   UNL A   1      51.057  26.838  21.818  1.00  0.00    -0.744 OA
ENDBRANCH  78  81
ENDBRANCH  50  74
BRANCH  62  85
ATOM     85  C   UNL A   1      45.110  32.985  29.101  1.00  0.00     0.023 A 
ATOM     86  C   UNL A   1      45.709  33.236  30.352  1.00  0.00     0.012 A 
ATOM     87  C   UNL A   1      44.989  34.030  28.166  1.00  0.00     0.148 A 
ATOM     88  C   UNL A   1      46.153  34.514  30.679  1.00  0.00     0.002 A 
ATOM     89  C   UNL A   1      45.467  35.295  28.487  1.00  0.00     0.091 A 
ATOM     90  F   UNL A   1      44.390  33.777  26.993  1.00  0.00    -0.205 F 
ATOM     91  C   UNL A   1      46.041  35.541  29.744  1.00  0.00     0.022 A 
BRANCH  89  92
ATOM     92  S   UNL A   1      45.421  36.652  27.311  1.00  0.00     0.127 S 
ATOM     93  O   UNL A   1      43.985  36.816  27.100  1.00  0.00    -0.237 OA
ATOM     94  O   UNL A   1      46.055  37.740  28.058  1.00  0.00    -0.237 OA
ATOM     95  O   UNL A   1      46.184  36.197  26.156  1.00  0.00    -0.744 OA
ENDBRANCH  89  92
ENDBRANCH  62  85
ENDBRANCH  36  37
ENDBRANCH  29  31
ENDBRANCH  28  29
ENDBRANCH   1  28
TORSDOF 16
ENDMDL
MODEL 2
REMARK VINA RESULT:     -11.8      5.508     11.010
REMARK SMILES C[NH+]1CCN(C(=O)c2ccc3c(c2)N(CC(=O)OCCOC(=O)c2ccc(-c4c5nc(c(-c6cccc(S(=O)(=O)[O-])c6F)c6ccc([nH]6)c(-c6cccc(S(=O)(=O)[O-])c6F)c6nc(c(-c7cccc(S(=O)(=O)[O-])c7F)c7ccc4[nH]7)C=C6)C=C5)cc2)C(=O)CO3)CC1
REMARK SMILES IDX 20 1 19 2 18 3 16 4 17 5 15 6 14 7 8 8 9 9 13 10 10 11 12 12
REMARK SMILES IDX 11 13 90 14 87 15 89 16 88 17 6 18 1 19 2 20 3 21 92 22 4 24
REMARK SMILES IDX 91 25 5 26 7 27 21 28 22 29 23 30 24 31 25 32 86 33 26 34
REMARK SMILES IDX 85 35 27 36 28 37 29 38 79 39 30 40 84 41 78 42 80 43 31 44
REMARK SMILES IDX 83 45 77 46 76 47 32 49 64 50 44 51 63 52 45 53 48 54 62 55
REMARK SMILES IDX 81 56 46 57 47 58 61 60 82 61 49 62 33 63 34 64 42 65 35 66
REMARK SMILES IDX 37 67 43 68 36 69 38 70 39 71 40 72 41 73 65 74 66 75 74 76
REMARK SMILES IDX 67 77 69 78 75 79 68 80 70 81 71 82 72 83 73 84 50 85 51 86
REMARK SMILES IDX 59 87 52 88 54 89 60 90 53 91 55 92 56 93 57 94 58 95
REMARK H PARENT 2 23 80 48 48 59
REMARK Flexibility Score: inf
ROOT
ATOM      1  C   UNL A   1      31.841  33.145  27.034  1.00  0.00     0.275 C 
ENDROOT
BRANCH   1   2
ATOM      2  C   UNL A   1      31.783  31.609  26.964  1.00  0.00     0.274 C 
BRANCH   2   3
ATOM      3  O   UNL A   1      33.064  30.990  26.719  1.00  0.00    -0.461 OA
BRANCH   3   4
ATOM      4  C   UNL A   1      32.999  29.733  26.198  1.00  0.00     0.326 C 
ATOM      5  O   UNL A   1      33.987  29.070  25.890  1.00  0.00    -0.250 OA
BRANCH   4   6
ATOM      6  C   UNL A   1      31.598  29.124  26.186  1.00  0.00     0.248 C 
BRANCH   6   7
ATOM      7  N   UNL A   1      31.119  28.474  24.978  1.00  0.00    -0.295 N 
ATOM      8  C   UNL A   1      31.602  24.762  25.460  1.00  0.00     0.042 A 
ATOM      9  C   UNL A   1      30.929  24.267  24.344  1.00  0.00     0.018 A 
ATOM     10  C   UNL A   1      31.766  26.149  25.631  1.00  0.00     0.044 A 
ATOM     11  C   UNL A   1      30.389  25.161  23.423  1.00  0.00     0.049 A 
ATOM     12  C   UNL A   1      31.152  27.062  24.760  1.00  0.00     0.087 A 
ATOM     13  C   UNL A   1      30.497  26.540  23.629  1.00  0.00     0.143 A 
ATOM     14  O   UNL A   1      29.891  27.320  22.677  1.00  0.00    -0.482 OA
ATOM     15  C   UNL A   1      30.581  29.309  24.006  1.00  0.00     0.265 C 
ATOM     16  C   UNL A   1      30.395  28.642  22.656  1.00  0.00     0.330 C 
ATOM     17  O   UNL A   1      30.375  30.511  24.172  1.00  0.00    -0.270 OA
BRANCH   8  18
ATOM     18  C   UNL A   1      32.262  23.802  26.376  1.00  0.00     0.254 C 
ATOM     19  C   UNL A   1      36.470  20.706  24.988  1.00  0.00     0.332 C 
ATOM     20  N   UNL A   1      36.030  21.962  25.615  1.00  0.00    -0.334 N 
ATOM     21  C   UNL A   1      35.190  21.656  26.797  1.00  0.00     0.283 C 
ATOM     22  C   UNL A   1      35.340  22.806  24.616  1.00  0.00     0.283 C 
ATOM     23  H   UNL A   1      36.831  22.499  25.948  1.00  0.00     0.347 HD
ATOM     24  C   UNL A   1      34.323  22.816  27.327  1.00  0.00     0.181 C 
ATOM     25  C   UNL A   1      34.509  23.982  25.185  1.00  0.00     0.181 C 
ATOM     26  N   UNL A   1      33.626  23.546  26.265  1.00  0.00    -0.327 N 
ATOM     27  O   UNL A   1      31.546  23.314  27.247  1.00  0.00    -0.269 OA
ENDBRANCH   8  18
ENDBRANCH   6   7
ENDBRANCH   4   6
ENDBRANCH   3   4
ENDBRANCH   2   3
ENDBRANCH   1   2
BRANCH   1  28
ATOM     28  O   UNL A   1      33.183  33.659  27.168  1.00  0.00    -0.458 OA
BRANCH  28  29
ATOM     29  C   UNL A   1      33.432  34.071  28.431  1.00  0.00     0.338 C 
ATOM     30  O   UNL A   1      32.699  34.800  29.080  1.00  0.00    -0.246 OA
BRANCH  29  31
ATOM     31  C   UNL A   1      34.686  33.586  29.024  1.00  0.00     0.060 A 
ATOM     32  C   UNL A   1      35.924  34.157  28.743  1.00  0.00     0.016 A 
ATOM     33  C   UNL A   1      34.623  32.336  29.634  1.00  0.00     0.016 A 
ATOM     34  C   UNL A   1      37.091  33.428  29.016  1.00  0.00     0.010 A 
ATOM     35  C   UNL A   1      35.775  31.632  29.958  1.00  0.00     0.010 A 
ATOM     36  C   UNL A   1      37.025  32.166  29.642  1.00  0.00    -0.014 A 
BRANCH  36  37
ATOM     37  C   UNL A   1      38.222  31.506  30.218  1.00  0.00     0.031 A 
ATOM     38  C   UNL A   1      38.935  30.362  29.547  1.00  0.00     0.074 A 
ATOM     39  C   UNL A   1      38.506  31.824  31.495  1.00  0.00     0.049 A 
ATOM     40  N   UNL A   1      39.929  29.637  29.999  1.00  0.00    -0.248 NA
ATOM     41  C   UNL A   1      38.457  29.951  28.221  1.00  0.00     0.031 C 
ATOM     42  C   UNL A   1      37.752  32.793  32.299  1.00  0.00     0.029 A 
ATOM     43  N   UNL A   1      39.450  31.340  32.358  1.00  0.00    -0.354 N 
ATOM     44  C   UNL A   1      40.170  28.663  29.034  1.00  0.00     0.074 A 
ATOM     45  C   UNL A   1      39.208  28.883  27.974  1.00  0.00     0.031 C 
ATOM     46  C   UNL A   1      38.260  32.830  33.536  1.00  0.00     0.029 A 
ATOM     47  C   UNL A   1      39.360  31.880  33.618  1.00  0.00     0.049 A 
ATOM     48  H   UNL A   1      40.125  30.672  32.101  1.00  0.00     0.167 HD
ATOM     49  C   UNL A   1      41.120  27.693  29.031  1.00  0.00     0.034 A 
ATOM     50  C   UNL A   1      40.087  31.647  34.725  1.00  0.00     0.034 A 
ATOM     51  C   UNL A   1      42.100  27.532  30.079  1.00  0.00     0.049 A 
ATOM     52  C   UNL A   1      41.231  30.688  34.636  1.00  0.00     0.074 A 
ATOM     53  C   UNL A   1      43.197  26.687  30.114  1.00  0.00     0.029 A 
ATOM     54  N   UNL A   1      42.098  28.228  31.277  1.00  0.00    -0.354 N 
ATOM     55  N   UNL A   1      41.585  29.928  33.629  1.00  0.00    -0.248 NA
ATOM     56  C   UNL A   1      42.107  30.592  35.809  1.00  0.00     0.031 C 
ATOM     57  C   UNL A   1      43.854  26.872  31.337  1.00  0.00     0.029 A 
ATOM     58  C   UNL A   1      43.171  27.836  32.060  1.00  0.00     0.049 A 
ATOM     59  H   UNL A   1      41.430  28.905  31.536  1.00  0.00     0.167 HD
ATOM     60  C   UNL A   1      42.740  29.276  34.036  1.00  0.00     0.074 A 
ATOM     61  C   UNL A   1      43.038  29.754  35.373  1.00  0.00     0.031 C 
ATOM     62  C   UNL A   1      43.473  28.351  33.371  1.00  0.00     0.034 A 
BRANCH  49  63
ATOM     63  C   UNL A   1      41.229  26.784  27.826  1.00  0.00     0.023 A 
ATOM     64  C   UNL A   1      42.005  27.199  26.724  1.00  0.00     0.012 A 
ATOM     65  C   UNL A   1      40.685  25.482  27.828  1.00  0.00     0.148 A 
ATOM     66  C   UNL A   1      42.222  26.348  25.639  1.00  0.00     0.002 A 
ATOM     67  C   UNL A   1      40.936  24.625  26.759  1.00  0.00     0.091 A 
ATOM     68  F   UNL A   1      39.938  25.101  28.873  1.00  0.00    -0.205 F 
ATOM     69  C   UNL A   1      41.698  25.058  25.662  1.00  0.00     0.022 A 
BRANCH  67  70
ATOM     70  S   UNL A   1      40.378  22.914  26.730  1.00  0.00     0.127 S 
ATOM     71  O   UNL A   1      38.961  23.067  26.405  1.00  0.00    -0.237 OA
ATOM     72  O   UNL A   1      41.188  22.338  25.655  1.00  0.00    -0.237 OA
ATOM     73  O   UNL A   1      40.665  22.379  28.054  1.00  0.00    -0.744 OA
ENDBRANCH  67  70
ENDBRANCH  49  63
BRANCH  50  74
ATOM     74  C   UNL A   1      39.815  32.466  35.934  1.00  0.00     0.023 A 
ATOM     75  C   UNL A   1      40.380  33.752  36.017  1.00  0.00     0.012 A 
ATOM     76  C   UNL A   1      38.884  32.056  36.907  1.00  0.00     0.148 A 
ATOM     77  C   UNL A   1      40.029  34.615  37.053  1.00  0.00     0.002 A 
ATOM     78  C   UNL A   1      38.496  32.942  37.905  1.00  0.00     0.091 A 
ATOM     79  F   UNL A   1      38.356  30.827  36.810  1.00  0.00    -0.205 F 
ATOM     80  C   UNL A   1      39.075  34.217  37.988  1.00  0.00     0.022 A 
BRANCH  78  81
ATOM     81  S   UNL A   1      37.147  32.556  39.029  1.00  0.00     0.127 S 
ATOM     82  O   UNL A   1      37.419  31.161  39.360  1.00  0.00    -0.237 OA
ATOM     83  O   UNL A   1      37.367  33.503  40.124  1.00  0.00    -0.237 OA
ATOM     84  O   UNL A   1      35.934  32.814  38.262  1.00  0.00    -0.744 OA
ENDBRANCH  78  81
ENDBRANCH  50  74
BRANCH  62  85
ATOM     85  C   UNL A   1      44.670  27.792  34.089  1.00  0.00     0.023 A 
ATOM     86  C   UNL A   1      45.896  28.484  34.021  1.00  0.00     0.012 A 
ATOM     87  C   UNL A   1      44.578  26.612  34.848  1.00  0.00     0.148 A 
ATOM     88  C   UNL A   1      47.023  27.991  34.673  1.00  0.00     0.002 A 
ATOM     89  C   UNL A   1      45.699  26.145  35.526  1.00  0.00     0.091 A 
ATOM     90  F   UNL A   1      43.410  25.954  34.876  1.00  0.00    -0.205 F 
ATOM     91  C   UNL A   1      46.922  26.827  35.434  1.00  0.00     0.022 A 
BRANCH  89  92
ATOM     92  S   UNL A   1      45.632  24.692  36.579  1.00  0.00     0.127 S 
ATOM     93  O   UNL A   1      44.500  25.003  37.449  1.00  0.00    -0.237 OA
ATOM     94  O   UNL A   1      45.384  23.615  35.619  1.00  0.00    -0.237 OA
ATOM     95  O   UNL A   1      46.932  24.621  37.233  1.00  0.00    -0.744 OA
ENDBRANCH  89  92
ENDBRANCH  62  85
ENDBRANCH  36  37
ENDBRANCH  29  31
ENDBRANCH  28  29
ENDBRANCH   1  28
TORSDOF 16
ENDMDL
MODEL 3
REMARK VINA RESULT:     -11.6      5.008      8.703
REMARK SMILES C[NH+]1CCN(C(=O)c2ccc3c(c2)N(CC(=O)OCCOC(=O)c2ccc(-c4c5nc(c(-c6cccc(S(=O)(=O)[O-])c6F)c6ccc([nH]6)c(-c6cccc(S(=O)(=O)[O-])c6F)c6nc(c(-c7cccc(S(=O)(=O)[O-])c7F)c7ccc4[nH]7)C=C6)C=C5)cc2)C(=O)CO3)CC1
REMARK SMILES IDX 20 1 19 2 18 3 16 4 17 5 15 6 14 7 8 8 9 9 13 10 10 11 12 12
REMARK SMILES IDX 11 13 90 14 87 15 89 16 88 17 6 18 1 19 2 20 3 21 92 22 4 24
REMARK SMILES IDX 91 25 5 26 7 27 21 28 22 29 23 30 24 31 25 32 86 33 26 34
REMARK SMILES IDX 85 35 27 36 28 37 29 38 79 39 30 40 84 41 78 42 80 43 31 44
REMARK SMILES IDX 83 45 77 46 76 47 32 49 64 50 44 51 63 52 45 53 48 54 62 55
REMARK SMILES IDX 81 56 46 57 47 58 61 60 82 61 49 62 33 63 34 64 42 65 35 66
REMARK SMILES IDX 37 67 43 68 36 69 38 70 39 71 40 72 41 73 65 74 66 75 74 76
REMARK SMILES IDX 67 77 69 78 75 79 68 80 70 81 71 82 72 83 73 84 50 85 51 86
REMARK SMILES IDX 59 87 52 88 54 89 60 90 53 91 55 92 56 93 57 94 58 95
REMARK H PARENT 2 23 80 48 48 59
REMARK Flexibility Score: inf
ROOT
ATOM      1  C   UNL A   1      33.139  29.860  25.905  1.00  0.00     0.275 C 
ENDROOT
BRANCH   1   2
ATOM      2  C   UNL A   1      33.552  28.854  24.818  1.00  0.00     0.274 C 
BRANCH   2   3
ATOM      3  O   UNL A   1      32.916  29.082  23.543  1.00  0.00    -0.461 OA
BRANCH   3   4
ATOM      4  C   UNL A   1      33.335  28.259  22.541  1.00  0.00     0.326 C 
ATOM      5  O   UNL A   1      34.493  28.222  22.129  1.00  0.00    -0.250 OA
BRANCH   4   6
ATOM      6  C   UNL A   1      32.293  27.244  22.075  1.00  0.00     0.248 C 
BRANCH   6   7
ATOM      7  N   UNL A   1      31.221  26.864  22.981  1.00  0.00    -0.295 N 
ATOM      8  C   UNL A   1      32.604  24.197  25.264  1.00  0.00     0.042 A 
ATOM      9  C   UNL A   1      31.564  24.079  26.184  1.00  0.00     0.018 A 
ATOM     10  C   UNL A   1      32.466  25.034  24.141  1.00  0.00     0.044 A 
ATOM     11  C   UNL A   1      30.404  24.829  25.999  1.00  0.00     0.049 A 
ATOM     12  C   UNL A   1      31.342  25.860  23.989  1.00  0.00     0.087 A 
ATOM     13  C   UNL A   1      30.295  25.709  24.917  1.00  0.00     0.143 A 
ATOM     14  O   UNL A   1      29.125  26.422  24.863  1.00  0.00    -0.482 OA
ATOM     15  C   UNL A   1      30.027  27.561  22.841  1.00  0.00     0.265 C 
ATOM     16  C   UNL A   1      28.856  26.927  23.569  1.00  0.00     0.330 C 
ATOM     17  O   UNL A   1      29.885  28.539  22.107  1.00  0.00    -0.270 OA
BRANCH   8  18
ATOM     18  C   UNL A   1      33.788  23.317  25.414  1.00  0.00     0.254 C 
ATOM     19  C   UNL A   1      33.614  17.928  25.038  1.00  0.00     0.332 C 
ATOM     20  N   UNL A   1      33.866  19.195  24.335  1.00  0.00    -0.334 N 
ATOM     21  C   UNL A   1      35.002  19.898  24.976  1.00  0.00     0.283 C 
ATOM     22  C   UNL A   1      32.628  20.004  24.301  1.00  0.00     0.283 C 
ATOM     23  H   UNL A   1      34.129  19.023  23.365  1.00  0.00     0.347 HD
ATOM     24  C   UNL A   1      35.144  21.398  24.640  1.00  0.00     0.181 C 
ATOM     25  C   UNL A   1      32.807  21.494  23.925  1.00  0.00     0.181 C 
ATOM     26  N   UNL A   1      33.873  22.124  24.702  1.00  0.00    -0.327 N 
ATOM     27  O   UNL A   1      34.680  23.741  26.143  1.00  0.00    -0.269 OA
ENDBRANCH   8  18
ENDBRANCH   6   7
ENDBRANCH   4   6
ENDBRANCH   3   4
ENDBRANCH   2   3
ENDBRANCH   1   2
BRANCH   1  28
ATOM     28  O   UNL A   1      33.721  29.577  27.195  1.00  0.00    -0.458 OA
BRANCH  28  29
ATOM     29  C   UNL A   1      34.432  30.627  27.660  1.00  0.00     0.338 C 
ATOM     30  O   UNL A   1      34.031  31.780  27.686  1.00  0.00    -0.246 OA
BRANCH  29  31
ATOM     31  C   UNL A   1      35.780  30.314  28.155  1.00  0.00     0.060 A 
ATOM     32  C   UNL A   1      36.915  30.392  27.354  1.00  0.00     0.016 A 
ATOM     33  C   UNL A   1      35.836  29.637  29.371  1.00  0.00     0.016 A 
ATOM     34  C   UNL A   1      38.081  29.723  27.754  1.00  0.00     0.010 A 
ATOM     35  C   UNL A   1      37.002  29.019  29.799  1.00  0.00     0.010 A 
ATOM     36  C   UNL A   1      38.138  29.045  28.990  1.00  0.00    -0.014 A 
BRANCH  36  37
ATOM     37  C   UNL A   1      39.419  28.591  29.584  1.00  0.00     0.031 A 
ATOM     38  C   UNL A   1      40.132  29.344  30.676  1.00  0.00     0.074 A 
ATOM     39  C   UNL A   1      40.042  27.591  28.934  1.00  0.00     0.049 A 
ATOM     40  N   UNL A   1      41.307  29.104  31.206  1.00  0.00    -0.248 NA
ATOM     41  C   UNL A   1      39.469  30.536  31.222  1.00  0.00     0.031 C 
ATOM     42  C   UNL A   1      39.514  26.915  27.744  1.00  0.00     0.029 A 
ATOM     43  N   UNL A   1      41.262  27.006  29.134  1.00  0.00    -0.354 N 
ATOM     44  C   UNL A   1      41.541  30.132  32.116  1.00  0.00     0.074 A 
ATOM     45  C   UNL A   1      40.388  31.006  32.058  1.00  0.00     0.031 C 
ATOM     46  C   UNL A   1      40.404  26.012  27.318  1.00  0.00     0.029 A 
ATOM     47  C   UNL A   1      41.569  26.055  28.192  1.00  0.00     0.049 A 
ATOM     48  H   UNL A   1      41.860  27.243  29.879  1.00  0.00     0.167 HD
ATOM     49  C   UNL A   1      42.610  30.309  32.934  1.00  0.00     0.034 A 
ATOM     50  C   UNL A   1      42.663  25.289  28.042  1.00  0.00     0.034 A 
ATOM     51  C   UNL A   1      43.721  29.390  33.006  1.00  0.00     0.049 A 
ATOM     52  C   UNL A   1      43.753  25.400  29.061  1.00  0.00     0.074 A 
ATOM     53  C   UNL A   1      44.782  29.385  33.896  1.00  0.00     0.029 A 
ATOM     54  N   UNL A   1      43.915  28.315  32.153  1.00  0.00    -0.354 N 
ATOM     55  N   UNL A   1      43.855  26.240  30.061  1.00  0.00    -0.248 NA
ATOM     56  C   UNL A   1      44.848  24.429  28.967  1.00  0.00     0.031 C 
ATOM     57  C   UNL A   1      45.618  28.308  33.577  1.00  0.00     0.029 A 
ATOM     58  C   UNL A   1      45.075  27.639  32.493  1.00  0.00     0.049 A 
ATOM     59  H   UNL A   1      43.315  28.067  31.412  1.00  0.00     0.167 HD
ATOM     60  C   UNL A   1      45.016  25.888  30.733  1.00  0.00     0.074 A 
ATOM     61  C   UNL A   1      45.566  24.739  30.039  1.00  0.00     0.031 C 
ATOM     62  C   UNL A   1      45.585  26.475  31.813  1.00  0.00     0.034 A 
BRANCH  49  63
ATOM     63  C   UNL A   1      42.606  31.478  33.894  1.00  0.00     0.023 A 
ATOM     64  C   UNL A   1      43.081  32.729  33.450  1.00  0.00     0.012 A 
ATOM     65  C   UNL A   1      42.022  31.384  35.175  1.00  0.00     0.148 A 
ATOM     66  C   UNL A   1      42.996  33.859  34.265  1.00  0.00     0.002 A 
ATOM     67  C   UNL A   1      41.906  32.524  35.969  1.00  0.00     0.091 A 
ATOM     68  F   UNL A   1      41.584  30.189  35.594  1.00  0.00    -0.205 F 
ATOM     69  C   UNL A   1      42.398  33.759  35.517  1.00  0.00     0.022 A 
BRANCH  67  70
ATOM     70  S   UNL A   1      41.073  32.519  37.565  1.00  0.00     0.127 S 
ATOM     71  O   UNL A   1      41.937  31.638  38.349  1.00  0.00    -0.237 OA
ATOM     72  O   UNL A   1      41.132  33.929  37.953  1.00  0.00    -0.237 OA
ATOM     73  O   UNL A   1      39.729  32.018  37.312  1.00  0.00    -0.744 OA
ENDBRANCH  67  70
ENDBRANCH  49  63
BRANCH  50  74
ATOM     74  C   UNL A   1      42.668  24.265  26.967  1.00  0.00     0.023 A 
ATOM     75  C   UNL A   1      43.483  24.476  25.839  1.00  0.00     0.012 A 
ATOM     76  C   UNL A   1      42.014  23.028  27.124  1.00  0.00     0.148 A 
ATOM     77  C   UNL A   1      43.642  23.476  24.881  1.00  0.00     0.002 A 
ATOM     78  C   UNL A   1      42.221  22.016  26.195  1.00  0.00     0.091 A 
ATOM     79  F   UNL A   1      41.243  22.846  28.207  1.00  0.00    -0.205 F 
ATOM     80  C   UNL A   1      43.025  22.241  25.067  1.00  0.00     0.022 A 
BRANCH  78  81
ATOM     81  S   UNL A   1      41.600  20.351  26.468  1.00  0.00     0.127 S 
ATOM     82  O   UNL A   1      40.157  20.550  26.392  1.00  0.00    -0.237 OA
ATOM     83  O   UNL A   1      42.180  19.610  25.346  1.00  0.00    -0.237 OA
ATOM     84  O   UNL A   1      42.132  19.961  27.769  1.00  0.00    -0.744 OA
ENDBRANCH  78  81
ENDBRANCH  50  74
BRANCH  62  85
ATOM     85  C   UNL A   1      46.875  25.882  32.305  1.00  0.00     0.023 A 
ATOM     86  C   UNL A   1      48.086  26.267  31.695  1.00  0.00     0.012 A 
ATOM     87  C   UNL A   1      46.896  24.975  33.381  1.00  0.00     0.148 A 
ATOM     88  C   UNL A   1      49.297  25.732  32.128  1.00  0.00     0.002 A 
ATOM     89  C   UNL A   1      48.112  24.473  33.830  1.00  0.00     0.091 A 
ATOM     90  F   UNL A   1      45.731  24.600  33.928  1.00  0.00    -0.205 F 
ATOM     91  C   UNL A   1      49.312  24.844  33.201  1.00  0.00     0.022 A 
BRANCH  89  92
ATOM     92  S   UNL A   1      48.220  23.378  35.249  1.00  0.00     0.127 S 
ATOM     93  O   UNL A   1      49.636  23.470  35.593  1.00  0.00    -0.237 OA
ATOM     94  O   UNL A   1      47.317  24.014  36.210  1.00  0.00    -0.237 OA
ATOM     95  O   UNL A   1      47.766  22.076  34.775  1.00  0.00    -0.744 OA
ENDBRANCH  89  92
ENDBRANCH  62  85
ENDBRANCH  36  37
ENDBRANCH  29  31
ENDBRANCH  28  29
ENDBRANCH   1  28
TORSDOF 16
ENDMDL
