MODEL 1
REMARK VINA RESULT:     -12.3      0.000      0.000
REMARK SMILES CC1=C(C(=O)Nc2ccccc2)[C@@H](c2ccc(C(=O)OCCOC(=O)c3ccc(-c4c5nc(c(-c6cccc(S(=O)(=O)[O-])c6F)c6ccc([nH]6)c(-c6cccc(S(=O)(=O)[O-])c6F)c6nc(c(-c7cccc(S(=O)(=O)[O-])c7F)c7ccc4[nH]7)C=C6)C=C5)cc3)cc2)n2ncnc2N1
REMARK SMILES IDX 21 1 20 2 18 3 19 4 17 5 14 6 15 7 90 8 16 9 89 10 13 11
REMARK SMILES IDX 1 12 2 13 3 14 96 15 95 16 91 18 94 19 92 20 93 21 4 22 5 23
REMARK SMILES IDX 6 24 7 26 8 27 12 28 9 29 11 30 10 31 22 32 23 33 24 34
REMARK SMILES IDX 25 35 26 36 27 37 88 38 28 39 87 40 29 41 30 42 31 43 81 44
REMARK SMILES IDX 32 45 86 46 80 47 82 48 33 49 85 50 79 51 78 52 34 54 66 55
REMARK SMILES IDX 46 56 65 57 47 58 50 59 64 60 83 61 48 62 49 63 63 65 84 66
REMARK SMILES IDX 51 67 35 68 36 69 44 70 37 71 39 72 45 73 38 74 40 75 41 76
REMARK SMILES IDX 42 77 43 78 67 79 68 80 76 81 69 82 71 83 77 84 70 85 72 86
REMARK SMILES IDX 73 87 74 88 75 89 52 90 53 91 61 92 54 93 56 94 62 95 55 96
REMARK SMILES IDX 57 97 58 98 59 99 60 100
REMARK H PARENT 96 17 6 25 82 53 50 64
REMARK Flexibility Score: inf
ROOT
ATOM      1  C   UNL A   1      37.543  20.048  25.022  1.00  0.00     0.275 C 
ENDROOT
BRANCH   1   2
ATOM      2  O   UNL A   1      37.721  21.348  24.437  1.00  0.00    -0.458 OA
BRANCH   2   3
ATOM      3  C   UNL A   1      37.506  22.406  25.263  1.00  0.00     0.338 C 
ATOM      4  O   UNL A   1      38.303  22.863  26.070  1.00  0.00    -0.246 OA
BRANCH   3   5
ATOM      5  C   UNL A   1      36.178  23.014  24.999  1.00  0.00     0.060 A 
ATOM      6  C   UNL A   1      33.609  24.107  24.648  1.00  0.00    -0.019 A 
ATOM      7  C   UNL A   1      34.427  24.564  25.689  1.00  0.00     0.007 A 
ATOM      8  C   UNL A   1      34.129  23.160  23.741  1.00  0.00     0.007 A 
ATOM      9  C   UNL A   1      35.702  24.012  25.865  1.00  0.00     0.016 A 
ATOM     10  C   UNL A   1      35.400  22.618  23.911  1.00  0.00     0.016 A 
BRANCH   6  11
ATOM     11  C   UNL A   1      32.133  24.465  24.539  1.00  0.00     0.179 C 
ATOM     12  C   UNL A   1      29.673  27.471  24.332  1.00  0.00     0.065 C 
ATOM     13  C   UNL A   1      30.508  26.323  24.840  1.00  0.00     0.026 C 
ATOM     14  C   UNL A   1      31.719  25.936  24.349  1.00  0.00     0.065 C 
ATOM     15  N   UNL A   1      29.855  25.556  25.800  1.00  0.00    -0.328 N 
ATOM     16  C   UNL A   1      30.273  24.349  26.205  1.00  0.00     0.226 A 
ATOM     17  H   UNL A   1      29.035  25.923  26.206  1.00  0.00     0.169 HD
ATOM     18  N   UNL A   1      31.378  23.804  25.617  1.00  0.00    -0.219 N 
ATOM     19  N   UNL A   1      29.767  23.506  27.069  1.00  0.00    -0.200 NA
ATOM     20  N   UNL A   1      31.553  22.524  26.019  1.00  0.00    -0.157 NA
ATOM     21  C   UNL A   1      30.584  22.416  26.934  1.00  0.00     0.248 A 
BRANCH  14  22
ATOM     22  C   UNL A   1      32.544  26.658  23.338  1.00  0.00     0.255 C 
ATOM     23  O   UNL A   1      32.478  26.284  22.163  1.00  0.00    -0.269 OA
ATOM     24  N   UNL A   1      33.340  27.735  23.614  1.00  0.00    -0.322 N 
ATOM     25  H   UNL A   1      33.937  27.993  22.875  1.00  0.00     0.170 HD
BRANCH  24  26
ATOM     26  C   UNL A   1      33.460  28.537  24.756  1.00  0.00     0.041 A 
ATOM     27  C   UNL A   1      32.553  29.602  24.849  1.00  0.00     0.026 A 
ATOM     28  C   UNL A   1      34.328  28.276  25.814  1.00  0.00     0.026 A 
ATOM     29  C   UNL A   1      32.404  30.299  26.046  1.00  0.00     0.002 A 
ATOM     30  C   UNL A   1      34.212  29.015  26.999  1.00  0.00     0.002 A 
ATOM     31  C   UNL A   1      33.225  29.995  27.128  1.00  0.00     0.000 A 
ENDBRANCH  24  26
ENDBRANCH  14  22
ENDBRANCH   6  11
ENDBRANCH   3   5
ENDBRANCH   2   3
ENDBRANCH   1   2
BRANCH   1  32
ATOM     32  C   UNL A   1      38.864  19.296  25.091  1.00  0.00     0.275 C 
BRANCH  32  33
ATOM     33  O   UNL A   1      39.627  19.698  26.226  1.00  0.00    -0.458 OA
BRANCH  33  34
ATOM     34  C   UNL A   1      40.966  19.616  26.063  1.00  0.00     0.338 C 
ATOM     35  O   UNL A   1      41.601  18.679  25.610  1.00  0.00    -0.246 OA
BRANCH  34  36
ATOM     36  C   UNL A   1      41.597  20.735  26.762  1.00  0.00     0.060 A 
ATOM     37  C   UNL A   1      41.275  20.919  28.110  1.00  0.00     0.016 A 
ATOM     38  C   UNL A   1      42.230  21.728  26.003  1.00  0.00     0.016 A 
ATOM     39  C   UNL A   1      41.457  22.169  28.662  1.00  0.00     0.010 A 
ATOM     40  C   UNL A   1      42.386  22.977  26.545  1.00  0.00     0.010 A 
ATOM     41  C   UNL A   1      41.941  23.198  27.846  1.00  0.00    -0.014 A 
BRANCH  41  42
ATOM     42  C   UNL A   1      42.135  24.511  28.422  1.00  0.00     0.031 A 
ATOM     43  C   UNL A   1      40.986  25.405  28.156  1.00  0.00     0.074 A 
ATOM     44  C   UNL A   1      43.166  24.780  29.245  1.00  0.00     0.049 A 
ATOM     45  N   UNL A   1      40.964  26.463  27.417  1.00  0.00    -0.248 NA
ATOM     46  C   UNL A   1      39.652  24.949  28.586  1.00  0.00     0.031 C 
ATOM     47  C   UNL A   1      44.151  23.821  29.761  1.00  0.00     0.029 A 
ATOM     48  N   UNL A   1      43.465  25.925  29.921  1.00  0.00    -0.354 N 
ATOM     49  C   UNL A   1      39.664  26.952  27.537  1.00  0.00     0.074 A 
ATOM     50  C   UNL A   1      38.867  25.861  28.015  1.00  0.00     0.031 C 
ATOM     51  C   UNL A   1      44.765  24.353  30.842  1.00  0.00     0.029 A 
ATOM     52  C   UNL A   1      44.316  25.724  31.005  1.00  0.00     0.049 A 
ATOM     53  H   UNL A   1      43.113  26.808  29.668  1.00  0.00     0.167 HD
ATOM     54  C   UNL A   1      39.444  28.294  27.592  1.00  0.00     0.034 A 
ATOM     55  C   UNL A   1      44.577  26.604  32.001  1.00  0.00     0.034 A 
ATOM     56  C   UNL A   1      40.611  29.013  27.145  1.00  0.00     0.049 A 
ATOM     57  C   UNL A   1      44.207  27.950  31.515  1.00  0.00     0.074 A 
ATOM     58  C   UNL A   1      41.255  29.245  25.952  1.00  0.00     0.029 A 
ATOM     59  N   UNL A   1      41.489  29.308  28.156  1.00  0.00    -0.354 N 
ATOM     60  N   UNL A   1      44.851  28.567  30.567  1.00  0.00    -0.248 NA
ATOM     61  C   UNL A   1      42.899  28.504  31.848  1.00  0.00     0.031 C 
ATOM     62  C   UNL A   1      42.612  29.523  26.285  1.00  0.00     0.029 A 
ATOM     63  C   UNL A   1      42.754  29.484  27.672  1.00  0.00     0.049 A 
ATOM     64  H   UNL A   1      41.240  29.382  29.106  1.00  0.00     0.167 HD
ATOM     65  C   UNL A   1      43.862  29.255  29.889  1.00  0.00     0.074 A 
ATOM     66  C   UNL A   1      42.748  29.347  30.823  1.00  0.00     0.031 C 
ATOM     67  C   UNL A   1      43.912  29.380  28.533  1.00  0.00     0.034 A 
BRANCH  54  68
ATOM     68  C   UNL A   1      38.449  28.983  28.521  1.00  0.00     0.023 A 
ATOM     69  C   UNL A   1      37.683  30.025  27.945  1.00  0.00     0.012 A 
ATOM     70  C   UNL A   1      38.446  28.908  29.934  1.00  0.00     0.148 A 
ATOM     71  C   UNL A   1      37.041  30.993  28.726  1.00  0.00     0.002 A 
ATOM     72  C   UNL A   1      37.766  29.844  30.707  1.00  0.00     0.091 A 
ATOM     73  F   UNL A   1      39.188  28.004  30.569  1.00  0.00    -0.205 F 
ATOM     74  C   UNL A   1      37.091  30.907  30.110  1.00  0.00     0.022 A 
BRANCH  72  75
ATOM     75  S   UNL A   1      37.786  29.777  32.507  1.00  0.00     0.127 S 
ATOM     76  O   UNL A   1      39.199  30.010  32.789  1.00  0.00    -0.237 OA
ATOM     77  O   UNL A   1      36.890  30.880  32.854  1.00  0.00    -0.237 OA
ATOM     78  O   UNL A   1      37.276  28.458  32.863  1.00  0.00    -0.744 OA
ENDBRANCH  72  75
ENDBRANCH  54  68
BRANCH  55  79
ATOM     79  C   UNL A   1      44.975  26.386  33.408  1.00  0.00     0.023 A 
ATOM     80  C   UNL A   1      46.315  26.597  33.790  1.00  0.00     0.012 A 
ATOM     81  C   UNL A   1      44.000  26.257  34.421  1.00  0.00     0.148 A 
ATOM     82  C   UNL A   1      46.668  26.730  35.136  1.00  0.00     0.002 A 
ATOM     83  C   UNL A   1      44.356  26.391  35.760  1.00  0.00     0.091 A 
ATOM     84  F   UNL A   1      42.719  26.096  34.064  1.00  0.00    -0.205 F 
ATOM     85  C   UNL A   1      45.687  26.642  36.121  1.00  0.00     0.022 A 
BRANCH  83  86
ATOM     86  S   UNL A   1      43.147  26.336  37.090  1.00  0.00     0.127 S 
ATOM     87  O   UNL A   1      43.991  26.516  38.272  1.00  0.00    -0.237 OA
ATOM     88  O   UNL A   1      42.294  27.477  36.768  1.00  0.00    -0.237 OA
ATOM     89  O   UNL A   1      42.512  25.028  36.996  1.00  0.00    -0.744 OA
ENDBRANCH  83  86
ENDBRANCH  55  79
BRANCH  67  90
ATOM     90  C   UNL A   1      45.248  29.204  27.876  1.00  0.00     0.023 A 
ATOM     91  C   UNL A   1      46.256  30.187  27.915  1.00  0.00     0.012 A 
ATOM     92  C   UNL A   1      45.525  27.959  27.292  1.00  0.00     0.148 A 
ATOM     93  C   UNL A   1      47.513  29.936  27.358  1.00  0.00     0.002 A 
ATOM     94  C   UNL A   1      46.789  27.695  26.788  1.00  0.00     0.091 A 
ATOM     95  F   UNL A   1      44.545  27.042  27.259  1.00  0.00    -0.205 F 
ATOM     96  C   UNL A   1      47.784  28.683  26.807  1.00  0.00     0.022 A 
BRANCH  94  97
ATOM     97  S   UNL A   1      47.225  26.063  26.187  1.00  0.00     0.127 S 
ATOM     98  O   UNL A   1      46.775  25.203  27.279  1.00  0.00    -0.237 OA
ATOM     99  O   UNL A   1      46.434  25.959  24.959  1.00  0.00    -0.237 OA
ATOM    100  O   UNL A   1      48.665  26.092  25.960  1.00  0.00    -0.744 OA
ENDBRANCH  94  97
ENDBRANCH  67  90
ENDBRANCH  41  42
ENDBRANCH  34  36
ENDBRANCH  33  34
ENDBRANCH  32  33
ENDBRANCH   1  32
TORSDOF 17
ENDMDL
MODEL 2
REMARK VINA RESULT:     -11.9      2.882      7.334
REMARK SMILES CC1=C(C(=O)Nc2ccccc2)[C@@H](c2ccc(C(=O)OCCOC(=O)c3ccc(-c4c5nc(c(-c6cccc(S(=O)(=O)[O-])c6F)c6ccc([nH]6)c(-c6cccc(S(=O)(=O)[O-])c6F)c6nc(c(-c7cccc(S(=O)(=O)[O-])c7F)c7ccc4[nH]7)C=C6)C=C5)cc3)cc2)n2ncnc2N1
REMARK SMILES IDX 21 1 20 2 18 3 19 4 17 5 14 6 15 7 90 8 16 9 89 10 13 11
REMARK SMILES IDX 1 12 2 13 3 14 96 15 95 16 91 18 94 19 92 20 93 21 4 22 5 23
REMARK SMILES IDX 6 24 7 26 8 27 12 28 9 29 11 30 10 31 22 32 23 33 24 34
REMARK SMILES IDX 25 35 26 36 27 37 88 38 28 39 87 40 29 41 30 42 31 43 81 44
REMARK SMILES IDX 32 45 86 46 80 47 82 48 33 49 85 50 79 51 78 52 34 54 66 55
REMARK SMILES IDX 46 56 65 57 47 58 50 59 64 60 83 61 48 62 49 63 63 65 84 66
REMARK SMILES IDX 51 67 35 68 36 69 44 70 37 71 39 72 45 73 38 74 40 75 41 76
REMARK SMILES IDX 42 77 43 78 67 79 68 80 76 81 69 82 71 83 77 84 70 85 72 86
REMARK SMILES IDX 73 87 74 88 75 89 52 90 53 91 61 92 54 93 56 94 62 95 55 96
REMARK SMILES IDX 57 97 58 98 59 99 60 100
REMARK H PARENT 96 17 6 25 82 53 50 64
REMARK Flexibility Score: inf
ROOT
ATOM      1  C   UNL A   1      31.684  29.814  25.466  1.00  0.00     0.275 C 
ENDROOT
BRANCH   1   2
ATOM      2  O   UNL A   1      32.729  28.892  25.118  1.00  0.00    -0.458 OA
BRANCH   2   3
ATOM      3  C   UNL A   1      32.690  28.400  23.852  1.00  0.00     0.338 C 
ATOM      4  O   UNL A   1      32.296  28.997  22.859  1.00  0.00    -0.246 OA
BRANCH   3   5
ATOM      5  C   UNL A   1      33.284  27.040  23.800  1.00  0.00     0.060 A 
ATOM      6  C   UNL A   1      34.264  24.409  23.634  1.00  0.00    -0.019 A 
ATOM      7  C   UNL A   1      33.957  25.116  22.465  1.00  0.00     0.007 A 
ATOM      8  C   UNL A   1      34.151  25.068  24.876  1.00  0.00     0.007 A 
ATOM      9  C   UNL A   1      33.462  26.423  22.552  1.00  0.00     0.016 A 
ATOM     10  C   UNL A   1      33.668  26.371  24.962  1.00  0.00     0.016 A 
BRANCH   6  11
ATOM     11  C   UNL A   1      34.562  22.915  23.644  1.00  0.00     0.179 C 
ATOM     12  C   UNL A   1      32.908  19.421  24.082  1.00  0.00     0.065 C 
ATOM     13  C   UNL A   1      33.650  20.709  24.339  1.00  0.00     0.026 C 
ATOM     14  C   UNL A   1      33.400  21.909  23.744  1.00  0.00     0.065 C 
ATOM     15  N   UNL A   1      34.761  20.543  25.161  1.00  0.00    -0.328 N 
ATOM     16  C   UNL A   1      35.718  21.467  25.321  1.00  0.00     0.226 A 
ATOM     17  H   UNL A   1      34.848  19.695  25.656  1.00  0.00     0.169 HD
ATOM     18  N   UNL A   1      35.639  22.627  24.605  1.00  0.00    -0.219 N 
ATOM     19  N   UNL A   1      36.818  21.455  26.030  1.00  0.00    -0.200 NA
ATOM     20  N   UNL A   1      36.766  23.361  24.756  1.00  0.00    -0.157 NA
ATOM     21  C   UNL A   1      37.418  22.632  25.667  1.00  0.00     0.248 A 
BRANCH  14  22
ATOM     22  C   UNL A   1      32.248  22.243  22.858  1.00  0.00     0.255 C 
ATOM     23  O   UNL A   1      32.173  21.670  21.767  1.00  0.00    -0.269 OA
ATOM     24  N   UNL A   1      31.243  23.110  23.186  1.00  0.00    -0.322 N 
ATOM     25  H   UNL A   1      30.650  23.340  22.435  1.00  0.00     0.170 HD
BRANCH  24  26
ATOM     26  C   UNL A   1      30.905  23.729  24.397  1.00  0.00     0.041 A 
ATOM     27  C   UNL A   1      30.450  25.051  24.296  1.00  0.00     0.026 A 
ATOM     28  C   UNL A   1      30.896  23.087  25.634  1.00  0.00     0.026 A 
ATOM     29  C   UNL A   1      29.845  25.673  25.387  1.00  0.00     0.002 A 
ATOM     30  C   UNL A   1      30.334  23.735  26.741  1.00  0.00     0.002 A 
ATOM     31  C   UNL A   1      29.773  25.008  26.607  1.00  0.00     0.000 A 
ENDBRANCH  24  26
ENDBRANCH  14  22
ENDBRANCH   6  11
ENDBRANCH   3   5
ENDBRANCH   2   3
ENDBRANCH   1   2
BRANCH   1  32
ATOM     32  C   UNL A   1      32.144  30.775  26.552  1.00  0.00     0.275 C 
BRANCH  32  33
ATOM     33  O   UNL A   1      33.312  30.290  27.208  1.00  0.00    -0.458 OA
BRANCH  33  34
ATOM     34  C   UNL A   1      34.042  31.239  27.836  1.00  0.00     0.338 C 
ATOM     35  O   UNL A   1      33.674  32.349  28.182  1.00  0.00    -0.246 OA
BRANCH  34  36
ATOM     36  C   UNL A   1      35.449  30.842  27.819  1.00  0.00     0.060 A 
ATOM     37  C   UNL A   1      35.736  29.475  27.890  1.00  0.00     0.016 A 
ATOM     38  C   UNL A   1      36.425  31.822  28.040  1.00  0.00     0.016 A 
ATOM     39  C   UNL A   1      36.982  29.089  28.335  1.00  0.00     0.010 A 
ATOM     40  C   UNL A   1      37.655  31.437  28.507  1.00  0.00     0.010 A 
ATOM     41  C   UNL A   1      37.896  30.080  28.707  1.00  0.00    -0.014 A 
BRANCH  41  42
ATOM     42  C   UNL A   1      39.207  29.680  29.173  1.00  0.00     0.031 A 
ATOM     43  C   UNL A   1      39.428  30.060  30.586  1.00  0.00     0.074 A 
ATOM     44  C   UNL A   1      40.016  28.899  28.433  1.00  0.00     0.049 A 
ATOM     45  N   UNL A   1      40.264  30.930  31.047  1.00  0.00    -0.248 NA
ATOM     46  C   UNL A   1      38.459  29.574  31.584  1.00  0.00     0.031 C 
ATOM     47  C   UNL A   1      39.688  28.262  27.150  1.00  0.00     0.029 A 
ATOM     48  N   UNL A   1      41.238  28.377  28.735  1.00  0.00    -0.354 N 
ATOM     49  C   UNL A   1      40.104  30.875  32.431  1.00  0.00     0.074 A 
ATOM     50  C   UNL A   1      38.831  30.259  32.665  1.00  0.00     0.031 C 
ATOM     51  C   UNL A   1      40.564  27.260  26.917  1.00  0.00     0.029 A 
ATOM     52  C   UNL A   1      41.580  27.276  27.954  1.00  0.00     0.049 A 
ATOM     53  H   UNL A   1      41.821  28.743  29.438  1.00  0.00     0.167 HD
ATOM     54  C   UNL A   1      41.188  30.995  33.246  1.00  0.00     0.034 A 
ATOM     55  C   UNL A   1      42.589  26.403  28.187  1.00  0.00     0.034 A 
ATOM     56  C   UNL A   1      42.308  31.531  32.515  1.00  0.00     0.049 A 
ATOM     57  C   UNL A   1      43.543  27.059  29.104  1.00  0.00     0.074 A 
ATOM     58  C   UNL A   1      42.674  32.745  31.979  1.00  0.00     0.029 A 
ATOM     59  N   UNL A   1      43.091  30.567  31.934  1.00  0.00    -0.354 N 
ATOM     60  N   UNL A   1      44.275  28.080  28.759  1.00  0.00    -0.248 NA
ATOM     61  C   UNL A   1      43.463  26.801  30.538  1.00  0.00     0.031 C 
ATOM     62  C   UNL A   1      43.585  32.450  30.925  1.00  0.00     0.029 A 
ATOM     63  C   UNL A   1      43.776  31.069  30.864  1.00  0.00     0.049 A 
ATOM     64  H   UNL A   1      43.150  29.635  32.246  1.00  0.00     0.167 HD
ATOM     65  C   UNL A   1      44.344  28.841  29.911  1.00  0.00     0.074 A 
ATOM     66  C   UNL A   1      44.016  27.928  30.997  1.00  0.00     0.031 C 
ATOM     67  C   UNL A   1      44.320  30.202  29.843  1.00  0.00     0.034 A 
BRANCH  54  68
ATOM     68  C   UNL A   1      41.439  30.163  34.501  1.00  0.00     0.023 A 
ATOM     69  C   UNL A   1      41.986  30.859  35.605  1.00  0.00     0.012 A 
ATOM     70  C   UNL A   1      41.484  28.751  34.562  1.00  0.00     0.148 A 
ATOM     71  C   UNL A   1      42.630  30.195  36.655  1.00  0.00     0.002 A 
ATOM     72  C   UNL A   1      42.082  28.091  35.633  1.00  0.00     0.091 A 
ATOM     73  F   UNL A   1      41.052  28.011  33.543  1.00  0.00    -0.205 F 
ATOM     74  C   UNL A   1      42.686  28.808  36.664  1.00  0.00     0.022 A 
BRANCH  72  75
ATOM     75  S   UNL A   1      42.174  26.294  35.702  1.00  0.00     0.127 S 
ATOM     76  O   UNL A   1      43.039  26.005  34.563  1.00  0.00    -0.237 OA
ATOM     77  O   UNL A   1      42.780  26.080  37.017  1.00  0.00    -0.237 OA
ATOM     78  O   UNL A   1      40.800  25.819  35.594  1.00  0.00    -0.744 OA
ENDBRANCH  72  75
ENDBRANCH  54  68
BRANCH  55  79
ATOM     79  C   UNL A   1      42.743  24.979  27.819  1.00  0.00     0.023 A 
ATOM     80  C   UNL A   1      41.701  24.073  28.106  1.00  0.00     0.012 A 
ATOM     81  C   UNL A   1      43.767  24.569  26.939  1.00  0.00     0.148 A 
ATOM     82  C   UNL A   1      41.652  22.817  27.494  1.00  0.00     0.002 A 
ATOM     83  C   UNL A   1      43.713  23.318  26.332  1.00  0.00     0.091 A 
ATOM     84  F   UNL A   1      44.738  25.440  26.633  1.00  0.00    -0.205 F 
ATOM     85  C   UNL A   1      42.649  22.445  26.596  1.00  0.00     0.022 A 
BRANCH  83  86
ATOM     86  S   UNL A   1      44.934  22.776  25.128  1.00  0.00     0.127 S 
ATOM     87  O   UNL A   1      44.241  21.664  24.476  1.00  0.00    -0.237 OA
ATOM     88  O   UNL A   1      45.089  23.970  24.300  1.00  0.00    -0.237 OA
ATOM     89  O   UNL A   1      46.107  22.386  25.898  1.00  0.00    -0.744 OA
ENDBRANCH  83  86
ENDBRANCH  55  79
BRANCH  67  90
ATOM     90  C   UNL A   1      44.709  30.830  28.538  1.00  0.00     0.023 A 
ATOM     91  C   UNL A   1      43.773  31.179  27.546  1.00  0.00     0.012 A 
ATOM     92  C   UNL A   1      46.058  31.172  28.360  1.00  0.00     0.148 A 
ATOM     93  C   UNL A   1      44.183  31.840  26.385  1.00  0.00     0.002 A 
ATOM     94  C   UNL A   1      46.453  31.873  27.231  1.00  0.00     0.091 A 
ATOM     95  F   UNL A   1      46.933  30.820  29.315  1.00  0.00    -0.205 F 
ATOM     96  C   UNL A   1      45.522  32.200  26.235  1.00  0.00     0.022 A 
BRANCH  94  97
ATOM     97  S   UNL A   1      48.135  32.470  27.052  1.00  0.00     0.127 S 
ATOM     98  O   UNL A   1      48.878  31.232  26.831  1.00  0.00    -0.237 OA
ATOM     99  O   UNL A   1      48.034  33.342  25.880  1.00  0.00    -0.237 OA
ATOM    100  O   UNL A   1      48.441  33.177  28.289  1.00  0.00    -0.744 OA
ENDBRANCH  94  97
ENDBRANCH  67  90
ENDBRANCH  41  42
ENDBRANCH  34  36
ENDBRANCH  33  34
ENDBRANCH  32  33
ENDBRANCH   1  32
TORSDOF 17
ENDMDL
MODEL 3
REMARK VINA RESULT:     -11.8      2.793      7.975
REMARK SMILES CC1=C(C(=O)Nc2ccccc2)[C@@H](c2ccc(C(=O)OCCOC(=O)c3ccc(-c4c5nc(c(-c6cccc(S(=O)(=O)[O-])c6F)c6ccc([nH]6)c(-c6cccc(S(=O)(=O)[O-])c6F)c6nc(c(-c7cccc(S(=O)(=O)[O-])c7F)c7ccc4[nH]7)C=C6)C=C5)cc3)cc2)n2ncnc2N1
REMARK SMILES IDX 21 1 20 2 18 3 19 4 17 5 14 6 15 7 90 8 16 9 89 10 13 11
REMARK SMILES IDX 1 12 2 13 3 14 96 15 95 16 91 18 94 19 92 20 93 21 4 22 5 23
REMARK SMILES IDX 6 24 7 26 8 27 12 28 9 29 11 30 10 31 22 32 23 33 24 34
REMARK SMILES IDX 25 35 26 36 27 37 88 38 28 39 87 40 29 41 30 42 31 43 81 44
REMARK SMILES IDX 32 45 86 46 80 47 82 48 33 49 85 50 79 51 78 52 34 54 66 55
REMARK SMILES IDX 46 56 65 57 47 58 50 59 64 60 83 61 48 62 49 63 63 65 84 66
REMARK SMILES IDX 51 67 35 68 36 69 44 70 37 71 39 72 45 73 38 74 40 75 41 76
REMARK SMILES IDX 42 77 43 78 67 79 68 80 76 81 69 82 71 83 77 84 70 85 72 86
REMARK SMILES IDX 73 87 74 88 75 89 52 90 53 91 61 92 54 93 56 94 62 95 55 96
REMARK SMILES IDX 57 97 58 98 59 99 60 100
REMARK H PARENT 96 17 6 25 82 53 50 64
REMARK Flexibility Score: inf
ROOT
ATOM      1  C   UNL A   1      34.338  32.496  28.241  1.00  0.00     0.275 C 
ENDROOT
BRANCH   1   2
ATOM      2  O   UNL A   1      33.824  31.170  28.038  1.00  0.00    -0.458 OA
BRANCH   2   3
ATOM      3  C   UNL A   1      34.696  30.268  27.515  1.00  0.00     0.338 C 
ATOM      4  O   UNL A   1      35.916  30.365  27.511  1.00  0.00    -0.246 OA
BRANCH   3   5
ATOM      5  C   UNL A   1      33.974  29.072  27.013  1.00  0.00     0.060 A 
ATOM      6  C   UNL A   1      32.630  26.864  25.904  1.00  0.00    -0.019 A 
ATOM      7  C   UNL A   1      33.991  27.059  25.639  1.00  0.00     0.007 A 
ATOM      8  C   UNL A   1      31.978  27.742  26.796  1.00  0.00     0.007 A 
ATOM      9  C   UNL A   1      34.655  28.163  26.187  1.00  0.00     0.016 A 
ATOM     10  C   UNL A   1      32.641  28.835  27.348  1.00  0.00     0.016 A 
BRANCH   6  11
ATOM     11  C   UNL A   1      31.779  25.847  25.155  1.00  0.00     0.179 C 
ATOM     12  C   UNL A   1      31.602  22.097  24.136  1.00  0.00     0.065 C 
ATOM     13  C   UNL A   1      31.832  23.587  24.119  1.00  0.00     0.026 C 
ATOM     14  C   UNL A   1      32.167  24.357  25.191  1.00  0.00     0.065 C 
ATOM     15  N   UNL A   1      31.518  24.173  22.896  1.00  0.00    -0.328 N 
ATOM     16  C   UNL A   1      31.385  25.494  22.712  1.00  0.00     0.226 A 
ATOM     17  H   UNL A   1      31.385  23.581  22.120  1.00  0.00     0.169 HD
ATOM     18  N   UNL A   1      31.517  26.325  23.787  1.00  0.00    -0.219 N 
ATOM     19  N   UNL A   1      31.078  26.190  21.647  1.00  0.00    -0.200 NA
ATOM     20  N   UNL A   1      31.184  27.594  23.456  1.00  0.00    -0.157 NA
ATOM     21  C   UNL A   1      30.979  27.463  22.142  1.00  0.00     0.248 A 
BRANCH  14  22
ATOM     22  C   UNL A   1      32.545  23.876  26.552  1.00  0.00     0.255 C 
ATOM     23  O   UNL A   1      31.679  23.893  27.433  1.00  0.00    -0.269 OA
ATOM     24  N   UNL A   1      33.773  23.377  26.885  1.00  0.00    -0.322 N 
ATOM     25  H   UNL A   1      33.908  23.254  27.852  1.00  0.00     0.170 HD
BRANCH  24  26
ATOM     26  C   UNL A   1      34.873  23.009  26.100  1.00  0.00     0.041 A 
ATOM     27  C   UNL A   1      35.056  21.631  25.918  1.00  0.00     0.026 A 
ATOM     28  C   UNL A   1      35.698  23.909  25.428  1.00  0.00     0.026 A 
ATOM     29  C   UNL A   1      35.947  21.159  24.956  1.00  0.00     0.002 A 
ATOM     30  C   UNL A   1      36.630  23.429  24.499  1.00  0.00     0.002 A 
ATOM     31  C   UNL A   1      36.725  22.060  24.235  1.00  0.00     0.000 A 
ENDBRANCH  24  26
ENDBRANCH  14  22
ENDBRANCH   6  11
ENDBRANCH   3   5
ENDBRANCH   2   3
ENDBRANCH   1   2
BRANCH   1  32
ATOM     32  C   UNL A   1      34.661  32.737  29.708  1.00  0.00     0.275 C 
BRANCH  32  33
ATOM     33  O   UNL A   1      36.039  32.494  29.979  1.00  0.00    -0.458 OA
BRANCH  33  34
ATOM     34  C   UNL A   1      36.273  31.514  30.880  1.00  0.00     0.338 C 
ATOM     35  O   UNL A   1      35.742  31.365  31.968  1.00  0.00    -0.246 OA
BRANCH  34  36
ATOM     36  C   UNL A   1      37.468  30.775  30.476  1.00  0.00     0.060 A 
ATOM     37  C   UNL A   1      37.430  29.380  30.575  1.00  0.00     0.016 A 
ATOM     38  C   UNL A   1      38.667  31.479  30.308  1.00  0.00     0.016 A 
ATOM     39  C   UNL A   1      38.624  28.697  30.657  1.00  0.00     0.010 A 
ATOM     40  C   UNL A   1      39.854  30.801  30.417  1.00  0.00     0.010 A 
ATOM     41  C   UNL A   1      39.816  29.429  30.652  1.00  0.00    -0.014 A 
BRANCH  41  42
ATOM     42  C   UNL A   1      41.073  28.715  30.736  1.00  0.00     0.031 A 
ATOM     43  C   UNL A   1      41.575  28.647  32.126  1.00  0.00     0.074 A 
ATOM     44  C   UNL A   1      41.586  28.054  29.681  1.00  0.00     0.049 A 
ATOM     45  N   UNL A   1      42.629  29.213  32.612  1.00  0.00    -0.248 NA
ATOM     46  C   UNL A   1      40.687  28.061  33.146  1.00  0.00     0.031 C 
ATOM     47  C   UNL A   1      40.949  27.859  28.372  1.00  0.00     0.029 A 
ATOM     48  N   UNL A   1      42.707  27.285  29.597  1.00  0.00    -0.354 N 
ATOM     49  C   UNL A   1      42.670  28.801  33.943  1.00  0.00     0.074 A 
ATOM     50  C   UNL A   1      41.348  28.351  34.266  1.00  0.00     0.031 C 
ATOM     51  C   UNL A   1      41.558  26.837  27.731  1.00  0.00     0.029 A 
ATOM     52  C   UNL A   1      42.699  26.405  28.518  1.00  0.00     0.049 A 
ATOM     53  H   UNL A   1      43.452  27.345  30.238  1.00  0.00     0.167 HD
ATOM     54  C   UNL A   1      43.865  28.518  34.532  1.00  0.00     0.034 A 
ATOM     55  C   UNL A   1      43.532  25.355  28.325  1.00  0.00     0.034 A 
ATOM     56  C   UNL A   1      44.949  29.055  33.748  1.00  0.00     0.049 A 
ATOM     57  C   UNL A   1      44.726  25.573  29.167  1.00  0.00     0.074 A 
ATOM     58  C   UNL A   1      45.469  30.297  33.465  1.00  0.00     0.029 A 
ATOM     59  N   UNL A   1      45.424  28.181  32.804  1.00  0.00    -0.354 N 
ATOM     60  N   UNL A   1      45.590  26.522  28.946  1.00  0.00    -0.248 NA
ATOM     61  C   UNL A   1      44.809  24.942  30.480  1.00  0.00     0.031 C 
ATOM     62  C   UNL A   1      46.134  30.168  32.211  1.00  0.00     0.029 A 
ATOM     63  C   UNL A   1      46.029  28.847  31.777  1.00  0.00     0.049 A 
ATOM     64  H   UNL A   1      45.338  27.201  32.860  1.00  0.00     0.167 HD
ATOM     65  C   UNL A   1      45.983  26.912  30.212  1.00  0.00     0.074 A 
ATOM     66  C   UNL A   1      45.642  25.796  31.083  1.00  0.00     0.031 C 
ATOM     67  C   UNL A   1      46.227  28.224  30.487  1.00  0.00     0.034 A 
BRANCH  54  68
ATOM     68  C   UNL A   1      44.126  27.342  35.467  1.00  0.00     0.023 A 
ATOM     69  C   UNL A   1      44.727  27.660  36.709  1.00  0.00     0.012 A 
ATOM     70  C   UNL A   1      44.128  25.976  35.100  1.00  0.00     0.148 A 
ATOM     71  C   UNL A   1      45.381  26.696  37.485  1.00  0.00     0.002 A 
ATOM     72  C   UNL A   1      44.735  25.012  35.899  1.00  0.00     0.091 A 
ATOM     73  F   UNL A   1      43.644  25.587  33.922  1.00  0.00    -0.205 F 
ATOM     74  C   UNL A   1      45.393  25.371  37.075  1.00  0.00     0.022 A 
BRANCH  72  75
ATOM     75  S   UNL A   1      44.772  23.276  35.422  1.00  0.00     0.127 S 
ATOM     76  O   UNL A   1      45.328  22.658  36.622  1.00  0.00    -0.237 OA
ATOM     77  O   UNL A   1      43.355  23.005  35.180  1.00  0.00    -0.237 OA
ATOM     78  O   UNL A   1      45.605  23.207  34.228  1.00  0.00    -0.744 OA
ENDBRANCH  72  75
ENDBRANCH  54  68
BRANCH  55  79
ATOM     79  C   UNL A   1      43.337  24.084  27.595  1.00  0.00     0.023 A 
ATOM     80  C   UNL A   1      42.064  23.478  27.587  1.00  0.00     0.012 A 
ATOM     81  C   UNL A   1      44.306  23.623  26.678  1.00  0.00     0.148 A 
ATOM     82  C   UNL A   1      41.747  22.481  26.660  1.00  0.00     0.002 A 
ATOM     83  C   UNL A   1      43.985  22.632  25.756  1.00  0.00     0.091 A 
ATOM     84  F   UNL A   1      45.504  24.222  26.654  1.00  0.00    -0.205 F 
ATOM     85  C   UNL A   1      42.702  22.068  25.734  1.00  0.00     0.022 A 
BRANCH  83  86
ATOM     86  S   UNL A   1      45.143  22.072  24.499  1.00  0.00     0.127 S 
ATOM     87  O   UNL A   1      45.477  23.324  23.818  1.00  0.00    -0.237 OA
ATOM     88  O   UNL A   1      46.219  21.512  25.311  1.00  0.00    -0.237 OA
ATOM     89  O   UNL A   1      44.409  21.117  23.678  1.00  0.00    -0.744 OA
ENDBRANCH  83  86
ENDBRANCH  55  79
BRANCH  67  90
ATOM     90  C   UNL A   1      46.537  29.122  29.326  1.00  0.00     0.023 A 
ATOM     91  C   UNL A   1      47.796  29.152  28.696  1.00  0.00     0.012 A 
ATOM     92  C   UNL A   1      45.484  29.881  28.795  1.00  0.00     0.148 A 
ATOM     93  C   UNL A   1      48.003  29.946  27.564  1.00  0.00     0.002 A 
ATOM     94  C   UNL A   1      45.679  30.627  27.643  1.00  0.00     0.091 A 
ATOM     95  F   UNL A   1      44.296  29.844  29.419  1.00  0.00    -0.205 F 
ATOM     96  C   UNL A   1      46.939  30.673  27.029  1.00  0.00     0.022 A 
BRANCH  94  97
ATOM     97  S   UNL A   1      44.315  31.474  26.844  1.00  0.00     0.127 S 
ATOM     98  O   UNL A   1      44.970  32.097  25.696  1.00  0.00    -0.237 OA
ATOM     99  O   UNL A   1      43.412  30.371  26.512  1.00  0.00    -0.237 OA
ATOM    100  O   UNL A   1      43.780  32.395  27.840  1.00  0.00    -0.744 OA
ENDBRANCH  94  97
ENDBRANCH  67  90
ENDBRANCH  41  42
ENDBRANCH  34  36
ENDBRANCH  33  34
ENDBRANCH  32  33
ENDBRANCH   1  32
TORSDOF 17
ENDMDL
