MODEL 1
REMARK VINA RESULT:     -12.2      0.000      0.000
REMARK SMILES Cc1cc(C(=O)OCCOC(=O)c2ccc(-c3c4nc(c(-c5cccc(S(=O)(=O)[O-])c5F)c5ccc([nH]5)c(-c5cccc(S(=O)(=O)[O-])c5F)c5nc(c(-c6cccc(S(=O)(=O)[O-])c6F)c6ccc3[nH]6)C=C5)C=C4)cc2)cc(S(=O)(=O)NNC(=O)c2c[nH]c3ccccc23)c1C
REMARK SMILES IDX 8 1 7 2 5 3 6 4 4 5 1 6 2 7 3 8 94 9 77 10 95 11 76 12 78 13
REMARK SMILES IDX 79 14 80 15 81 16 82 18 83 19 84 21 85 22 86 23 93 24 87 25
REMARK SMILES IDX 88 26 92 27 89 29 91 30 90 31 9 32 10 33 11 34 12 35 13 36
REMARK SMILES IDX 14 37 75 38 15 39 74 40 16 41 17 42 18 43 68 44 19 45 73 46
REMARK SMILES IDX 67 47 69 48 20 49 72 50 66 51 65 52 21 54 53 55 33 56 52 57
REMARK SMILES IDX 34 58 37 59 51 60 70 61 35 62 36 63 50 65 71 66 38 67 22 68
REMARK SMILES IDX 23 69 31 70 24 71 26 72 32 73 25 74 27 75 28 76 29 77 30 78
REMARK SMILES IDX 54 79 55 80 63 81 56 82 58 83 64 84 57 85 59 86 60 87 61 88
REMARK SMILES IDX 62 89 39 90 40 91 48 92 41 93 43 94 49 95 42 96 44 97 45 98
REMARK SMILES IDX 46 99 47 100
REMARK H PARENT 81 17 82 20 87 28 69 53 37 64
REMARK Flexibility Score: inf
ROOT
ATOM      1  C   UNL A   1      33.578  34.699  29.165  1.00  0.00     0.275 C 
ENDROOT
BRANCH   1   2
ATOM      2  O   UNL A   1      33.522  33.315  28.729  1.00  0.00    -0.458 OA
BRANCH   2   3
ATOM      3  C   UNL A   1      32.693  33.001  27.691  1.00  0.00     0.338 C 
ATOM      4  O   UNL A   1      31.767  33.681  27.283  1.00  0.00    -0.246 OA
BRANCH   3   5
ATOM      5  C   UNL A   1      33.059  31.685  27.075  1.00  0.00     0.061 A 
ATOM      6  C   UNL A   1      35.780  29.233  27.958  1.00  0.00     0.044 C 
ATOM      7  C   UNL A   1      34.576  29.807  27.239  1.00  0.00    -0.046 A 
ATOM      8  C   UNL A   1      34.221  31.107  27.586  1.00  0.00     0.019 A 
ATOM      9  C   UNL A   1      33.767  29.085  26.304  1.00  0.00    -0.028 A 
ATOM     10  C   UNL A   1      32.599  29.697  25.694  1.00  0.00     0.088 A 
ATOM     11  C   UNL A   1      34.134  27.644  26.023  1.00  0.00     0.046 C 
ATOM     12  C   UNL A   1      32.238  30.978  26.133  1.00  0.00     0.037 A 
BRANCH  10  13
ATOM     13  S   UNL A   1      31.674  28.736  24.377  1.00  0.00     0.257 S 
ATOM     14  O   UNL A   1      30.384  29.403  24.331  1.00  0.00    -0.205 OA
ATOM     15  O   UNL A   1      32.558  28.744  23.229  1.00  0.00    -0.205 OA
BRANCH  13  16
ATOM     16  N   UNL A   1      31.263  26.943  24.645  1.00  0.00    -0.123 NA
ATOM     17  H   UNL A   1      30.257  26.845  24.784  1.00  0.00     0.167 HD
BRANCH  16  18
ATOM     18  N   UNL A   1      31.676  26.143  23.466  1.00  0.00    -0.273 N 
ATOM     19  C   UNL A   1      32.256  25.190  22.647  1.00  0.00     0.268 C 
ATOM     20  H   UNL A   1      31.195  26.651  22.774  1.00  0.00     0.186 HD
ATOM     21  O   UNL A   1      31.776  25.749  21.598  1.00  0.00    -0.268 OA
BRANCH  19  22
ATOM     22  C   UNL A   1      33.295  23.732  22.311  1.00  0.00     0.066 A 
ATOM     23  C   UNL A   1      31.889  22.872  23.193  1.00  0.00     0.097 A 
ATOM     24  C   UNL A   1      35.022  23.026  23.338  1.00  0.00     0.012 A 
ATOM     25  N   UNL A   1      32.511  22.050  24.752  1.00  0.00    -0.360 N 
ATOM     26  C   UNL A   1      34.397  22.070  24.837  1.00  0.00     0.046 A 
ATOM     27  C   UNL A   1      36.438  22.863  23.276  1.00  0.00     0.011 A 
ATOM     28  H   UNL A   1      31.928  21.657  25.442  1.00  0.00     0.166 HD
ATOM     29  C   UNL A   1      35.192  21.507  25.817  1.00  0.00     0.027 A 
ATOM     30  C   UNL A   1      37.092  22.066  24.299  1.00  0.00     0.001 A 
ATOM     31  C   UNL A   1      36.531  21.468  25.478  1.00  0.00     0.002 A 
ENDBRANCH  19  22
ENDBRANCH  16  18
ENDBRANCH  13  16
ENDBRANCH  10  13
ENDBRANCH   3   5
ENDBRANCH   2   3
ENDBRANCH   1   2
BRANCH   1  32
ATOM     32  C   UNL A   1      34.041  34.816  30.622  1.00  0.00     0.275 C 
BRANCH  32  33
ATOM     33  O   UNL A   1      35.226  34.043  30.821  1.00  0.00    -0.458 OA
BRANCH  33  34
ATOM     34  C   UNL A   1      35.007  32.872  31.450  1.00  0.00     0.338 C 
ATOM     35  O   UNL A   1      34.068  32.555  32.159  1.00  0.00    -0.246 OA
BRANCH  34  36
ATOM     36  C   UNL A   1      36.001  31.924  30.968  1.00  0.00     0.060 A 
ATOM     37  C   UNL A   1      35.997  30.677  31.568  1.00  0.00     0.016 A 
ATOM     38  C   UNL A   1      37.012  32.303  30.100  1.00  0.00     0.016 A 
ATOM     39  C   UNL A   1      37.114  29.887  31.512  1.00  0.00     0.010 A 
ATOM     40  C   UNL A   1      38.068  31.421  29.898  1.00  0.00     0.010 A 
ATOM     41  C   UNL A   1      38.165  30.266  30.686  1.00  0.00    -0.014 A 
BRANCH  41  42
ATOM     42  C   UNL A   1      39.452  29.593  30.879  1.00  0.00     0.031 A 
ATOM     43  C   UNL A   1      39.752  28.527  29.857  1.00  0.00     0.074 A 
ATOM     44  C   UNL A   1      40.409  30.114  31.714  1.00  0.00     0.049 A 
ATOM     45  N   UNL A   1      40.952  28.122  29.744  1.00  0.00    -0.248 NA
ATOM     46  C   UNL A   1      38.884  27.997  28.808  1.00  0.00     0.031 C 
ATOM     47  C   UNL A   1      40.226  31.363  32.472  1.00  0.00     0.029 A 
ATOM     48  N   UNL A   1      41.723  29.761  32.037  1.00  0.00    -0.354 N 
ATOM     49  C   UNL A   1      41.208  27.154  28.460  1.00  0.00     0.074 A 
ATOM     50  C   UNL A   1      39.662  27.246  28.006  1.00  0.00     0.031 C 
ATOM     51  C   UNL A   1      41.363  31.700  33.092  1.00  0.00     0.029 A 
ATOM     52  C   UNL A   1      42.329  30.618  32.955  1.00  0.00     0.049 A 
ATOM     53  H   UNL A   1      42.179  28.978  31.653  1.00  0.00     0.167 HD
ATOM     54  C   UNL A   1      42.856  26.146  28.188  1.00  0.00     0.034 A 
ATOM     55  C   UNL A   1      43.467  30.579  33.695  1.00  0.00     0.034 A 
ATOM     56  C   UNL A   1      44.350  26.139  29.084  1.00  0.00     0.049 A 
ATOM     57  C   UNL A   1      44.447  29.442  33.563  1.00  0.00     0.074 A 
ATOM     58  C   UNL A   1      45.403  25.224  28.988  1.00  0.00     0.029 A 
ATOM     59  N   UNL A   1      44.701  26.890  30.247  1.00  0.00    -0.354 N 
ATOM     60  N   UNL A   1      44.567  28.552  32.610  1.00  0.00    -0.248 NA
ATOM     61  C   UNL A   1      45.462  29.319  34.627  1.00  0.00     0.031 C 
ATOM     62  C   UNL A   1      46.112  25.197  30.208  1.00  0.00     0.029 A 
ATOM     63  C   UNL A   1      45.707  26.264  30.982  1.00  0.00     0.049 A 
ATOM     64  H   UNL A   1      44.283  27.745  30.499  1.00  0.00     0.167 HD
ATOM     65  C   UNL A   1      45.670  27.769  32.949  1.00  0.00     0.074 A 
ATOM     66  C   UNL A   1      46.201  28.312  34.184  1.00  0.00     0.031 C 
ATOM     67  C   UNL A   1      46.200  26.713  32.276  1.00  0.00     0.034 A 
BRANCH  54  68
ATOM     68  C   UNL A   1      43.248  24.713  27.165  1.00  0.00     0.023 A 
ATOM     69  C   UNL A   1      43.780  24.845  25.858  1.00  0.00     0.012 A 
ATOM     70  C   UNL A   1      42.728  23.439  27.542  1.00  0.00     0.148 A 
ATOM     71  C   UNL A   1      43.485  23.882  24.885  1.00  0.00     0.002 A 
ATOM     72  C   UNL A   1      42.433  22.495  26.567  1.00  0.00     0.091 A 
ATOM     73  F   UNL A   1      42.462  23.192  28.829  1.00  0.00    -0.205 F 
ATOM     74  C   UNL A   1      42.762  22.741  25.228  1.00  0.00     0.022 A 
BRANCH  72  75
ATOM     75  S   UNL A   1      41.446  21.026  26.899  1.00  0.00     0.127 S 
ATOM     76  O   UNL A   1      41.481  20.354  25.598  1.00  0.00    -0.237 OA
ATOM     77  O   UNL A   1      42.226  20.367  27.944  1.00  0.00    -0.237 OA
ATOM     78  O   UNL A   1      40.125  21.483  27.307  1.00  0.00    -0.744 OA
ENDBRANCH  72  75
ENDBRANCH  54  68
BRANCH  55  79
ATOM     79  C   UNL A   1      43.716  31.627  34.761  1.00  0.00     0.023 A 
ATOM     80  C   UNL A   1      44.489  32.776  34.490  1.00  0.00     0.012 A 
ATOM     81  C   UNL A   1      43.207  31.457  36.069  1.00  0.00     0.148 A 
ATOM     82  C   UNL A   1      44.747  33.720  35.493  1.00  0.00     0.002 A 
ATOM     83  C   UNL A   1      43.403  32.436  37.039  1.00  0.00     0.091 A 
ATOM     84  F   UNL A   1      42.529  30.334  36.342  1.00  0.00    -0.205 F 
ATOM     85  C   UNL A   1      44.189  33.561  36.760  1.00  0.00     0.022 A 
BRANCH  83  86
ATOM     86  S   UNL A   1      42.609  32.367  38.651  1.00  0.00     0.127 S 
ATOM     87  O   UNL A   1      43.307  31.251  39.283  1.00  0.00    -0.237 OA
ATOM     88  O   UNL A   1      42.931  33.686  39.198  1.00  0.00    -0.237 OA
ATOM     89  O   UNL A   1      41.193  32.155  38.386  1.00  0.00    -0.744 OA
ENDBRANCH  83  86
ENDBRANCH  55  79
BRANCH  67  90
ATOM     90  C   UNL A   1      47.414  26.024  32.889  1.00  0.00     0.023 A 
ATOM     91  C   UNL A   1      48.734  26.489  32.668  1.00  0.00     0.012 A 
ATOM     92  C   UNL A   1      47.238  24.894  33.712  1.00  0.00     0.148 A 
ATOM     93  C   UNL A   1      49.837  25.819  33.211  1.00  0.00     0.002 A 
ATOM     94  C   UNL A   1      48.334  24.277  34.311  1.00  0.00     0.091 A 
ATOM     95  F   UNL A   1      45.997  24.417  33.880  1.00  0.00    -0.205 F 
ATOM     96  C   UNL A   1      49.636  24.724  34.046  1.00  0.00     0.022 A 
BRANCH  94  97
ATOM     97  S   UNL A   1      48.152  22.926  35.480  1.00  0.00     0.127 S 
ATOM     98  O   UNL A   1      49.512  22.795  35.999  1.00  0.00    -0.237 OA
ATOM     99  O   UNL A   1      47.185  23.471  36.433  1.00  0.00    -0.237 OA
ATOM    100  O   UNL A   1      47.667  21.788  34.710  1.00  0.00    -0.744 OA
ENDBRANCH  94  97
ENDBRANCH  67  90
ENDBRANCH  41  42
ENDBRANCH  34  36
ENDBRANCH  33  34
ENDBRANCH  32  33
ENDBRANCH   1  32
TORSDOF 18
ENDMDL
MODEL 2
REMARK VINA RESULT:     -11.7      2.363      3.260
REMARK SMILES Cc1cc(C(=O)OCCOC(=O)c2ccc(-c3c4nc(c(-c5cccc(S(=O)(=O)[O-])c5F)c5ccc([nH]5)c(-c5cccc(S(=O)(=O)[O-])c5F)c5nc(c(-c6cccc(S(=O)(=O)[O-])c6F)c6ccc3[nH]6)C=C5)C=C4)cc2)cc(S(=O)(=O)NNC(=O)c2c[nH]c3ccccc23)c1C
REMARK SMILES IDX 8 1 7 2 5 3 6 4 4 5 1 6 2 7 3 8 94 9 77 10 95 11 76 12 78 13
REMARK SMILES IDX 79 14 80 15 81 16 82 18 83 19 84 21 85 22 86 23 93 24 87 25
REMARK SMILES IDX 88 26 92 27 89 29 91 30 90 31 9 32 10 33 11 34 12 35 13 36
REMARK SMILES IDX 14 37 75 38 15 39 74 40 16 41 17 42 18 43 68 44 19 45 73 46
REMARK SMILES IDX 67 47 69 48 20 49 72 50 66 51 65 52 21 54 53 55 33 56 52 57
REMARK SMILES IDX 34 58 37 59 51 60 70 61 35 62 36 63 50 65 71 66 38 67 22 68
REMARK SMILES IDX 23 69 31 70 24 71 26 72 32 73 25 74 27 75 28 76 29 77 30 78
REMARK SMILES IDX 54 79 55 80 63 81 56 82 58 83 64 84 57 85 59 86 60 87 61 88
REMARK SMILES IDX 62 89 39 90 40 91 48 92 41 93 43 94 49 95 42 96 44 97 45 98
REMARK SMILES IDX 46 99 47 100
REMARK H PARENT 81 17 82 20 87 28 69 53 37 64
REMARK Flexibility Score: inf
ROOT
ATOM      1  C   UNL A   1      31.635  31.621  26.502  1.00  0.00     0.275 C 
ENDROOT
BRANCH   1   2
ATOM      2  O   UNL A   1      32.167  30.483  27.230  1.00  0.00    -0.458 OA
BRANCH   2   3
ATOM      3  C   UNL A   1      33.179  29.769  26.656  1.00  0.00     0.338 C 
ATOM      4  O   UNL A   1      34.341  29.750  27.024  1.00  0.00    -0.246 OA
BRANCH   3   5
ATOM      5  C   UNL A   1      32.692  28.972  25.483  1.00  0.00     0.061 A 
ATOM      6  C   UNL A   1      34.158  28.523  22.042  1.00  0.00     0.044 C 
ATOM      7  C   UNL A   1      33.207  28.337  23.206  1.00  0.00    -0.046 A 
ATOM      8  C   UNL A   1      33.432  29.147  24.315  1.00  0.00     0.019 A 
ATOM      9  C   UNL A   1      32.166  27.355  23.256  1.00  0.00    -0.028 A 
ATOM     10  C   UNL A   1      31.326  27.211  24.433  1.00  0.00     0.088 A 
ATOM     11  C   UNL A   1      32.013  26.432  22.067  1.00  0.00     0.046 C 
ATOM     12  C   UNL A   1      31.641  27.996  25.550  1.00  0.00     0.037 A 
BRANCH  10  13
ATOM     13  S   UNL A   1      29.898  26.000  24.367  1.00  0.00     0.257 S 
ATOM     14  O   UNL A   1      28.746  26.862  24.170  1.00  0.00    -0.205 OA
ATOM     15  O   UNL A   1      30.285  25.032  23.359  1.00  0.00    -0.205 OA
BRANCH  13  16
ATOM     16  N   UNL A   1      29.467  24.980  25.861  1.00  0.00    -0.123 NA
ATOM     17  H   UNL A   1      28.456  24.854  25.903  1.00  0.00     0.167 HD
BRANCH  16  18
ATOM     18  N   UNL A   1      30.125  23.653  25.780  1.00  0.00    -0.273 N 
ATOM     19  C   UNL A   1      31.023  22.630  25.528  1.00  0.00     0.268 C 
ATOM     20  H   UNL A   1      29.422  23.119  26.217  1.00  0.00     0.186 HD
ATOM     21  O   UNL A   1      30.211  21.755  25.997  1.00  0.00    -0.268 OA
BRANCH  19  22
ATOM     22  C   UNL A   1      32.581  21.939  24.885  1.00  0.00     0.066 A 
ATOM     23  C   UNL A   1      31.829  22.482  23.262  1.00  0.00     0.097 A 
ATOM     24  C   UNL A   1      33.123  19.912  24.521  1.00  0.00     0.012 A 
ATOM     25  N   UNL A   1      31.562  21.005  22.148  1.00  0.00    -0.360 N 
ATOM     26  C   UNL A   1      32.386  19.456  22.847  1.00  0.00     0.046 A 
ATOM     27  C   UNL A   1      33.928  18.817  24.955  1.00  0.00     0.011 A 
ATOM     28  H   UNL A   1      31.056  21.032  21.304  1.00  0.00     0.166 HD
ATOM     29  C   UNL A   1      32.436  18.205  22.264  1.00  0.00     0.027 A 
ATOM     30  C   UNL A   1      34.019  17.641  24.108  1.00  0.00     0.001 A 
ATOM     31  C   UNL A   1      33.316  17.345  22.892  1.00  0.00     0.002 A 
ENDBRANCH  19  22
ENDBRANCH  16  18
ENDBRANCH  13  16
ENDBRANCH  10  13
ENDBRANCH   3   5
ENDBRANCH   2   3
ENDBRANCH   1   2
BRANCH   1  32
ATOM     32  C   UNL A   1      32.120  32.949  27.095  1.00  0.00     0.275 C 
BRANCH  32  33
ATOM     33  O   UNL A   1      33.287  32.732  27.891  1.00  0.00    -0.458 OA
BRANCH  33  34
ATOM     34  C   UNL A   1      33.596  33.770  28.690  1.00  0.00     0.338 C 
ATOM     35  O   UNL A   1      32.958  34.790  28.891  1.00  0.00    -0.246 OA
BRANCH  34  36
ATOM     36  C   UNL A   1      34.759  33.388  29.476  1.00  0.00     0.060 A 
ATOM     37  C   UNL A   1      35.994  33.699  28.932  1.00  0.00     0.016 A 
ATOM     38  C   UNL A   1      34.649  32.593  30.605  1.00  0.00     0.016 A 
ATOM     39  C   UNL A   1      37.113  33.029  29.348  1.00  0.00     0.010 A 
ATOM     40  C   UNL A   1      35.812  32.052  31.144  1.00  0.00     0.010 A 
ATOM     41  C   UNL A   1      37.023  32.187  30.450  1.00  0.00    -0.014 A 
BRANCH  41  42
ATOM     42  C   UNL A   1      38.129  31.254  30.679  1.00  0.00     0.031 A 
ATOM     43  C   UNL A   1      38.211  30.134  29.674  1.00  0.00     0.074 A 
ATOM     44  C   UNL A   1      39.159  31.567  31.531  1.00  0.00     0.049 A 
ATOM     45  N   UNL A   1      39.297  29.476  29.593  1.00  0.00    -0.248 NA
ATOM     46  C   UNL A   1      37.270  29.790  28.610  1.00  0.00     0.031 C 
ATOM     47  C   UNL A   1      39.236  32.837  32.272  1.00  0.00     0.029 A 
ATOM     48  N   UNL A   1      40.358  30.942  31.887  1.00  0.00    -0.354 N 
ATOM     49  C   UNL A   1      39.362  28.457  28.325  1.00  0.00     0.074 A 
ATOM     50  C   UNL A   1      37.882  28.876  27.834  1.00  0.00     0.031 C 
ATOM     51  C   UNL A   1      40.406  32.929  32.914  1.00  0.00     0.029 A 
ATOM     52  C   UNL A   1      41.117  31.660  32.810  1.00  0.00     0.049 A 
ATOM     53  H   UNL A   1      40.641  30.073  31.521  1.00  0.00     0.167 HD
ATOM     54  C   UNL A   1      40.757  27.113  28.101  1.00  0.00     0.034 A 
ATOM     55  C   UNL A   1      42.204  31.387  33.576  1.00  0.00     0.034 A 
ATOM     56  C   UNL A   1      42.195  26.794  29.030  1.00  0.00     0.049 A 
ATOM     57  C   UNL A   1      42.917  30.062  33.478  1.00  0.00     0.074 A 
ATOM     58  C   UNL A   1      43.026  25.671  28.968  1.00  0.00     0.029 A 
ATOM     59  N   UNL A   1      42.677  27.467  30.194  1.00  0.00    -0.354 N 
ATOM     60  N   UNL A   1      42.859  29.154  32.537  1.00  0.00    -0.248 NA
ATOM     61  C   UNL A   1      43.858  29.738  34.567  1.00  0.00     0.031 C 
ATOM     62  C   UNL A   1      43.687  25.509  30.204  1.00  0.00     0.029 A 
ATOM     63  C   UNL A   1      43.508  26.649  30.958  1.00  0.00     0.049 A 
ATOM     64  H   UNL A   1      42.450  28.397  30.428  1.00  0.00     0.167 HD
ATOM     65  C   UNL A   1      43.758  28.154  32.908  1.00  0.00     0.074 A 
ATOM     66  C   UNL A   1      44.370  28.588  34.150  1.00  0.00     0.031 C 
ATOM     67  C   UNL A   1      44.061  26.999  32.259  1.00  0.00     0.034 A 
BRANCH  54  68
ATOM     68  C   UNL A   1      40.849  25.613  27.100  1.00  0.00     0.023 A 
ATOM     69  C   UNL A   1      40.054  24.473  27.379  1.00  0.00     0.012 A 
ATOM     70  C   UNL A   1      41.953  25.449  26.213  1.00  0.00     0.148 A 
ATOM     71  C   UNL A   1      40.541  23.195  27.081  1.00  0.00     0.002 A 
ATOM     72  C   UNL A   1      42.430  24.176  25.929  1.00  0.00     0.091 A 
ATOM     73  F   UNL A   1      42.564  26.530  25.716  1.00  0.00    -0.205 F 
ATOM     74  C   UNL A   1      41.754  23.048  26.411  1.00  0.00     0.022 A 
BRANCH  72  75
ATOM     75  S   UNL A   1      44.019  23.886  25.133  1.00  0.00     0.127 S 
ATOM     76  O   UNL A   1      44.832  23.437  26.265  1.00  0.00    -0.237 OA
ATOM     77  O   UNL A   1      43.688  22.837  24.171  1.00  0.00    -0.237 OA
ATOM     78  O   UNL A   1      44.441  25.151  24.549  1.00  0.00    -0.744 OA
ENDBRANCH  72  75
ENDBRANCH  54  68
BRANCH  55  79
ATOM     79  C   UNL A   1      42.653  32.371  34.637  1.00  0.00     0.023 A 
ATOM     80  C   UNL A   1      43.610  33.367  34.352  1.00  0.00     0.012 A 
ATOM     81  C   UNL A   1      42.147  32.288  35.955  1.00  0.00     0.148 A 
ATOM     82  C   UNL A   1      44.049  34.248  35.351  1.00  0.00     0.002 A 
ATOM     83  C   UNL A   1      42.529  33.214  36.921  1.00  0.00     0.091 A 
ATOM     84  F   UNL A   1      41.287  31.300  36.241  1.00  0.00    -0.205 F 
ATOM     85  C   UNL A   1      43.495  34.184  36.628  1.00  0.00     0.022 A 
BRANCH  83  86
ATOM     86  S   UNL A   1      41.766  33.280  38.548  1.00  0.00     0.127 S 
ATOM     87  O   UNL A   1      42.547  34.325  39.204  1.00  0.00    -0.237 OA
ATOM     88  O   UNL A   1      40.390  33.653  38.217  1.00  0.00    -0.237 OA
ATOM     89  O   UNL A   1      41.908  31.942  39.107  1.00  0.00    -0.744 OA
ENDBRANCH  83  86
ENDBRANCH  55  79
BRANCH  67  90
ATOM     90  C   UNL A   1      45.083  26.073  32.906  1.00  0.00     0.023 A 
ATOM     91  C   UNL A   1      46.467  26.162  32.619  1.00  0.00     0.012 A 
ATOM     92  C   UNL A   1      44.659  25.094  33.828  1.00  0.00     0.148 A 
ATOM     93  C   UNL A   1      47.385  25.277  33.198  1.00  0.00     0.002 A 
ATOM     94  C   UNL A   1      45.585  24.267  34.457  1.00  0.00     0.091 A 
ATOM     95  F   UNL A   1      43.345  24.968  34.061  1.00  0.00    -0.205 F 
ATOM     96  C   UNL A   1      46.947  24.341  34.129  1.00  0.00     0.022 A 
BRANCH  94  97
ATOM     97  S   UNL A   1      45.113  23.105  35.744  1.00  0.00     0.127 S 
ATOM     98  O   UNL A   1      44.187  23.905  36.544  1.00  0.00    -0.237 OA
ATOM     99  O   UNL A   1      44.484  22.033  34.974  1.00  0.00    -0.237 OA
ATOM    100  O   UNL A   1      46.348  22.724  36.416  1.00  0.00    -0.744 OA
ENDBRANCH  94  97
ENDBRANCH  67  90
ENDBRANCH  41  42
ENDBRANCH  34  36
ENDBRANCH  33  34
ENDBRANCH  32  33
ENDBRANCH   1  32
TORSDOF 18
ENDMDL
MODEL 3
REMARK VINA RESULT:     -11.6      2.726      3.745
REMARK SMILES Cc1cc(C(=O)OCCOC(=O)c2ccc(-c3c4nc(c(-c5cccc(S(=O)(=O)[O-])c5F)c5ccc([nH]5)c(-c5cccc(S(=O)(=O)[O-])c5F)c5nc(c(-c6cccc(S(=O)(=O)[O-])c6F)c6ccc3[nH]6)C=C5)C=C4)cc2)cc(S(=O)(=O)NNC(=O)c2c[nH]c3ccccc23)c1C
REMARK SMILES IDX 8 1 7 2 5 3 6 4 4 5 1 6 2 7 3 8 94 9 77 10 95 11 76 12 78 13
REMARK SMILES IDX 79 14 80 15 81 16 82 18 83 19 84 21 85 22 86 23 93 24 87 25
REMARK SMILES IDX 88 26 92 27 89 29 91 30 90 31 9 32 10 33 11 34 12 35 13 36
REMARK SMILES IDX 14 37 75 38 15 39 74 40 16 41 17 42 18 43 68 44 19 45 73 46
REMARK SMILES IDX 67 47 69 48 20 49 72 50 66 51 65 52 21 54 53 55 33 56 52 57
REMARK SMILES IDX 34 58 37 59 51 60 70 61 35 62 36 63 50 65 71 66 38 67 22 68
REMARK SMILES IDX 23 69 31 70 24 71 26 72 32 73 25 74 27 75 28 76 29 77 30 78
REMARK SMILES IDX 54 79 55 80 63 81 56 82 58 83 64 84 57 85 59 86 60 87 61 88
REMARK SMILES IDX 62 89 39 90 40 91 48 92 41 93 43 94 49 95 42 96 44 97 45 98
REMARK SMILES IDX 46 99 47 100
REMARK H PARENT 81 17 82 20 87 28 69 53 37 64
REMARK Flexibility Score: inf
ROOT
ATOM      1  C   UNL A   1      32.479  30.928  26.862  1.00  0.00     0.275 C 
ENDROOT
BRANCH   1   2
ATOM      2  O   UNL A   1      32.687  29.608  27.431  1.00  0.00    -0.458 OA
BRANCH   2   3
ATOM      3  C   UNL A   1      33.280  28.658  26.651  1.00  0.00     0.338 C 
ATOM      4  O   UNL A   1      34.477  28.538  26.453  1.00  0.00    -0.246 OA
BRANCH   3   5
ATOM      5  C   UNL A   1      32.267  27.735  26.043  1.00  0.00     0.061 A 
ATOM      6  C   UNL A   1      30.341  27.988  22.816  1.00  0.00     0.044 C 
ATOM      7  C   UNL A   1      30.838  27.400  24.120  1.00  0.00    -0.046 A 
ATOM      8  C   UNL A   1      31.659  28.222  24.887  1.00  0.00     0.019 A 
ATOM      9  C   UNL A   1      30.577  26.063  24.561  1.00  0.00    -0.028 A 
ATOM     10  C   UNL A   1      31.133  25.561  25.806  1.00  0.00     0.088 A 
ATOM     11  C   UNL A   1      29.757  25.171  23.653  1.00  0.00     0.046 C 
ATOM     12  C   UNL A   1      32.014  26.399  26.503  1.00  0.00     0.037 A 
BRANCH  10  13
ATOM     13  S   UNL A   1      30.632  23.849  26.380  1.00  0.00     0.257 S 
ATOM     14  O   UNL A   1      29.343  24.079  27.010  1.00  0.00    -0.205 OA
ATOM     15  O   UNL A   1      30.746  23.018  25.198  1.00  0.00    -0.205 OA
BRANCH  13  16
ATOM     16  N   UNL A   1      31.632  22.968  27.676  1.00  0.00    -0.123 NA
ATOM     17  H   UNL A   1      31.191  22.074  27.893  1.00  0.00     0.167 HD
BRANCH  16  18
ATOM     18  N   UNL A   1      33.010  22.729  27.182  1.00  0.00    -0.273 N 
ATOM     19  C   UNL A   1      34.103  22.269  26.467  1.00  0.00     0.268 C 
ATOM     20  H   UNL A   1      33.490  23.316  27.810  1.00  0.00     0.186 HD
ATOM     21  O   UNL A   1      34.913  22.910  27.225  1.00  0.00    -0.268 OA
BRANCH  19  22
ATOM     22  C   UNL A   1      34.912  21.274  25.172  1.00  0.00     0.066 A 
ATOM     23  C   UNL A   1      33.704  22.205  24.091  1.00  0.00     0.097 A 
ATOM     24  C   UNL A   1      34.596  19.241  24.622  1.00  0.00     0.012 A 
ATOM     25  N   UNL A   1      32.533  21.012  23.255  1.00  0.00    -0.360 N 
ATOM     26  C   UNL A   1      33.080  19.221  23.503  1.00  0.00     0.046 A 
ATOM     27  C   UNL A   1      35.143  17.923  24.639  1.00  0.00     0.011 A 
ATOM     28  H   UNL A   1      31.733  21.283  22.750  1.00  0.00     0.166 HD
ATOM     29  C   UNL A   1      32.484  18.090  22.982  1.00  0.00     0.027 A 
ATOM     30  C   UNL A   1      34.483  16.886  23.866  1.00  0.00     0.001 A 
ATOM     31  C   UNL A   1      33.252  16.950  23.130  1.00  0.00     0.002 A 
ENDBRANCH  19  22
ENDBRANCH  16  18
ENDBRANCH  13  16
ENDBRANCH  10  13
ENDBRANCH   3   5
ENDBRANCH   2   3
ENDBRANCH   1   2
BRANCH   1  32
ATOM     32  C   UNL A   1      33.314  31.993  27.582  1.00  0.00     0.275 C 
BRANCH  32  33
ATOM     33  O   UNL A   1      34.687  31.597  27.616  1.00  0.00    -0.458 OA
BRANCH  33  34
ATOM     34  C   UNL A   1      35.523  32.583  27.993  1.00  0.00     0.338 C 
ATOM     35  O   UNL A   1      35.462  33.772  27.731  1.00  0.00    -0.246 OA
BRANCH  34  36
ATOM     36  C   UNL A   1      36.440  32.027  28.977  1.00  0.00     0.060 A 
ATOM     37  C   UNL A   1      37.782  32.303  28.786  1.00  0.00     0.016 A 
ATOM     38  C   UNL A   1      36.020  31.121  29.937  1.00  0.00     0.016 A 
ATOM     39  C   UNL A   1      38.733  31.508  29.367  1.00  0.00     0.010 A 
ATOM     40  C   UNL A   1      36.989  30.437  30.663  1.00  0.00     0.010 A 
ATOM     41  C   UNL A   1      38.338  30.557  30.299  1.00  0.00    -0.014 A 
BRANCH  41  42
ATOM     42  C   UNL A   1      39.310  29.523  30.664  1.00  0.00     0.031 A 
ATOM     43  C   UNL A   1      39.452  28.422  29.645  1.00  0.00     0.074 A 
ATOM     44  C   UNL A   1      40.216  29.723  31.676  1.00  0.00     0.049 A 
ATOM     45  N   UNL A   1      40.477  27.671  29.710  1.00  0.00    -0.248 NA
ATOM     46  C   UNL A   1      38.665  28.188  28.436  1.00  0.00     0.031 C 
ATOM     47  C   UNL A   1      40.284  30.964  32.464  1.00  0.00     0.029 A 
ATOM     48  N   UNL A   1      41.285  28.985  32.191  1.00  0.00    -0.354 N 
ATOM     49  C   UNL A   1      40.653  26.678  28.431  1.00  0.00     0.074 A 
ATOM     50  C   UNL A   1      39.311  27.239  27.732  1.00  0.00     0.031 C 
ATOM     51  C   UNL A   1      41.342  30.936  33.284  1.00  0.00     0.029 A 
ATOM     52  C   UNL A   1      41.949  29.611  33.245  1.00  0.00     0.049 A 
ATOM     53  H   UNL A   1      41.546  28.101  31.842  1.00  0.00     0.167 HD
ATOM     54  C   UNL A   1      41.945  25.218  28.378  1.00  0.00     0.034 A 
ATOM     55  C   UNL A   1      42.874  29.223  34.161  1.00  0.00     0.034 A 
ATOM     56  C   UNL A   1      43.187  24.751  29.507  1.00  0.00     0.049 A 
ATOM     57  C   UNL A   1      43.476  27.842  34.127  1.00  0.00     0.074 A 
ATOM     58  C   UNL A   1      43.918  23.559  29.534  1.00  0.00     0.029 A 
ATOM     59  N   UNL A   1      43.535  25.352  30.754  1.00  0.00    -0.354 N 
ATOM     60  N   UNL A   1      43.490  26.964  33.157  1.00  0.00    -0.248 NA
ATOM     61  C   UNL A   1      44.203  27.410  35.336  1.00  0.00     0.031 C 
ATOM     62  C   UNL A   1      44.359  23.310  30.852  1.00  0.00     0.029 A 
ATOM     63  C   UNL A   1      44.162  24.446  31.609  1.00  0.00     0.049 A 
ATOM     64  H   UNL A   1      43.355  26.293  30.984  1.00  0.00     0.167 HD
ATOM     65  C   UNL A   1      44.230  25.879  33.627  1.00  0.00     0.074 A 
ATOM     66  C   UNL A   1      44.673  26.228  34.963  1.00  0.00     0.031 C 
ATOM     67  C   UNL A   1      44.531  24.716  32.991  1.00  0.00     0.034 A 
BRANCH  54  68
ATOM     68  C   UNL A   1      42.065  23.738  27.351  1.00  0.00     0.023 A 
ATOM     69  C   UNL A   1      41.332  22.561  27.641  1.00  0.00     0.012 A 
ATOM     70  C   UNL A   1      43.141  23.635  26.421  1.00  0.00     0.148 A 
ATOM     71  C   UNL A   1      41.862  21.310  27.304  1.00  0.00     0.002 A 
ATOM     72  C   UNL A   1      43.662  22.389  26.100  1.00  0.00     0.091 A 
ATOM     73  F   UNL A   1      43.685  24.750  25.919  1.00  0.00    -0.205 F 
ATOM     74  C   UNL A   1      43.054  21.226  26.588  1.00  0.00     0.022 A 
BRANCH  72  75
ATOM     75  S   UNL A   1      45.231  22.181  25.240  1.00  0.00     0.127 S 
ATOM     76  O   UNL A   1      44.963  22.877  23.979  1.00  0.00    -0.237 OA
ATOM     77  O   UNL A   1      46.159  22.875  26.130  1.00  0.00    -0.237 OA
ATOM     78  O   UNL A   1      45.456  20.749  25.104  1.00  0.00    -0.744 OA
ENDBRANCH  72  75
ENDBRANCH  54  68
BRANCH  55  79
ATOM     79  C   UNL A   1      43.232  30.139  35.313  1.00  0.00     0.023 A 
ATOM     80  C   UNL A   1      42.409  30.233  36.455  1.00  0.00     0.012 A 
ATOM     81  C   UNL A   1      44.387  30.953  35.253  1.00  0.00     0.148 A 
ATOM     82  C   UNL A   1      42.728  31.112  37.500  1.00  0.00     0.002 A 
ATOM     83  C   UNL A   1      44.738  31.767  36.326  1.00  0.00     0.091 A 
ATOM     84  F   UNL A   1      45.132  30.912  34.140  1.00  0.00    -0.205 F 
ATOM     85  C   UNL A   1      43.900  31.864  37.444  1.00  0.00     0.022 A 
BRANCH  83  86
ATOM     86  S   UNL A   1      46.295  32.664  36.386  1.00  0.00     0.127 S 
ATOM     87  O   UNL A   1      46.443  32.915  37.817  1.00  0.00    -0.237 OA
ATOM     88  O   UNL A   1      47.227  31.680  35.833  1.00  0.00    -0.237 OA
ATOM     89  O   UNL A   1      46.105  33.845  35.556  1.00  0.00    -0.744 OA
ENDBRANCH  83  86
ENDBRANCH  55  79
BRANCH  67  90
ATOM     90  C   UNL A   1      45.355  23.687  33.756  1.00  0.00     0.023 A 
ATOM     91  C   UNL A   1      44.772  22.531  34.329  1.00  0.00     0.012 A 
ATOM     92  C   UNL A   1      46.746  23.868  33.899  1.00  0.00     0.148 A 
ATOM     93  C   UNL A   1      45.542  21.617  35.058  1.00  0.00     0.002 A 
ATOM     94  C   UNL A   1      47.519  22.918  34.561  1.00  0.00     0.091 A 
ATOM     95  F   UNL A   1      47.295  24.988  33.407  1.00  0.00    -0.205 F 
ATOM     96  C   UNL A   1      46.918  21.801  35.160  1.00  0.00     0.022 A 
BRANCH  94  97
ATOM     97  S   UNL A   1      49.310  23.029  34.646  1.00  0.00     0.127 S 
ATOM     98  O   UNL A   1      49.500  23.887  35.814  1.00  0.00    -0.237 OA
ATOM     99  O   UNL A   1      49.695  21.633  34.846  1.00  0.00    -0.237 OA
ATOM    100  O   UNL A   1      49.739  23.600  33.377  1.00  0.00    -0.744 OA
ENDBRANCH  94  97
ENDBRANCH  67  90
ENDBRANCH  41  42
ENDBRANCH  34  36
ENDBRANCH  33  34
ENDBRANCH  32  33
ENDBRANCH   1  32
TORSDOF 18
ENDMDL
