MODEL 1
REMARK VINA RESULT:     -13.9      0.000      0.000
REMARK SMILES C[C@]12c3ccccc3[C@](C)(c3ccccc31)[C@@H]1C(=O)N(c3ccc(C(=O)OCCOC(=O)c4ccc(-c5c6nc(c(-c7cccc(S(=O)(=O)[O-])c7F)c7ccc([nH]7)c(-c7cccc(S(=O)(=O)[O-])c7F)c7nc(c(-c8cccc(S(=O)(=O)[O-])c8F)c8ccc5[nH]8)C=C7)C=C6)cc4)cc3)C(=O)[C@H]12
REMARK SMILES IDX 29 1 28 2 27 3 25 4 26 5 24 6 21 7 22 8 97 9 23 10 96 11
REMARK SMILES IDX 20 12 1 13 2 14 16 15 3 16 100 17 15 18 11 19 8 20 4 21
REMARK SMILES IDX 17 22 98 23 14 24 12 25 9 26 7 27 5 28 18 29 99 30 13 31
REMARK SMILES IDX 10 32 6 33 19 34 30 35 31 36 32 37 33 38 34 39 95 40 35 41
REMARK SMILES IDX 94 42 36 43 37 44 38 45 88 46 39 47 93 48 87 49 89 50 40 51
REMARK SMILES IDX 92 52 86 53 85 54 41 56 73 57 53 58 72 59 54 60 57 61 71 62
REMARK SMILES IDX 90 63 55 64 56 65 70 67 91 68 58 69 42 70 43 71 51 72 44 73
REMARK SMILES IDX 46 74 52 75 45 76 47 77 48 78 49 79 50 80 74 81 75 82 83 83
REMARK SMILES IDX 76 84 78 85 84 86 77 87 79 88 80 89 81 90 82 91 59 92 60 93
REMARK SMILES IDX 68 94 61 95 63 96 69 97 62 98 64 99 65 100 66 101 67 102
REMARK H PARENT 89 55 57 66
REMARK Flexibility Score: inf
ROOT
ATOM      1  C   UNL A   1      44.164  21.349  25.209  1.00  0.00     0.275 C 
ENDROOT
BRANCH   1   2
ATOM      2  C   UNL A   1      43.651  19.961  25.600  1.00  0.00     0.275 C 
BRANCH   2   3
ATOM      3  O   UNL A   1      42.230  19.845  25.383  1.00  0.00    -0.458 OA
BRANCH   3   4
ATOM      4  C   UNL A   1      41.448  19.912  26.491  1.00  0.00     0.338 C 
ATOM      5  O   UNL A   1      41.790  19.672  27.633  1.00  0.00    -0.246 OA
BRANCH   4   6
ATOM      6  C   UNL A   1      40.110  20.454  26.140  1.00  0.00     0.060 A 
ATOM      7  C   UNL A   1      37.684  21.634  25.418  1.00  0.00     0.052 A 
ATOM      8  C   UNL A   1      38.600  22.354  26.178  1.00  0.00     0.028 A 
ATOM      9  C   UNL A   1      37.959  20.310  25.049  1.00  0.00     0.028 A 
ATOM     10  C   UNL A   1      39.772  21.734  26.597  1.00  0.00     0.018 A 
ATOM     11  C   UNL A   1      39.193  19.735  25.370  1.00  0.00     0.018 A 
BRANCH   7  12
ATOM     12  N   UNL A   1      36.461  22.226  25.094  1.00  0.00    -0.250 N 
ATOM     13  C   UNL A   1      32.610  21.369  22.872  1.00  0.00     0.022 C 
ATOM     14  C   UNL A   1      32.999  22.632  23.637  1.00  0.00     0.030 C 
ATOM     15  C   UNL A   1      32.113  22.957  24.872  1.00  0.00    -0.033 A 
ATOM     16  C   UNL A   1      32.952  23.944  22.789  1.00  0.00    -0.033 A 
ATOM     17  C   UNL A   1      34.502  22.653  24.013  1.00  0.00     0.108 C 
ATOM     18  C   UNL A   1      31.040  22.204  25.334  1.00  0.00     0.005 A 
ATOM     19  C   UNL A   1      32.454  24.187  25.541  1.00  0.00    -0.033 A 
ATOM     20  C   UNL A   1      33.442  25.097  23.494  1.00  0.00    -0.033 A 
ATOM     21  C   UNL A   1      32.541  24.047  21.463  1.00  0.00     0.005 A 
ATOM     22  C   UNL A   1      34.695  23.633  25.175  1.00  0.00     0.108 C 
ATOM     23  C   UNL A   1      35.406  21.551  24.470  1.00  0.00     0.238 C 
ATOM     24  C   UNL A   1      30.312  22.658  26.439  1.00  0.00     0.000 A 
ATOM     25  C   UNL A   1      31.714  24.633  26.632  1.00  0.00     0.005 A 
ATOM     26  C   UNL A   1      33.759  24.845  24.989  1.00  0.00     0.030 C 
ATOM     27  C   UNL A   1      33.523  26.320  22.835  1.00  0.00     0.005 A 
ATOM     28  C   UNL A   1      32.625  25.284  20.824  1.00  0.00     0.000 A 
ATOM     29  C   UNL A   1      36.171  23.564  25.361  1.00  0.00     0.238 C 
ATOM     30  O   UNL A   1      35.271  20.361  24.255  1.00  0.00    -0.274 OA
ATOM     31  C   UNL A   1      30.642  23.862  27.076  1.00  0.00     0.000 A 
ATOM     32  C   UNL A   1      34.250  26.064  25.766  1.00  0.00     0.022 C 
ATOM     33  C   UNL A   1      33.116  26.406  21.501  1.00  0.00     0.000 A 
ATOM     34  O   UNL A   1      36.892  24.443  25.797  1.00  0.00    -0.274 OA
ENDBRANCH   7  12
ENDBRANCH   4   6
ENDBRANCH   3   4
ENDBRANCH   2   3
ENDBRANCH   1   2
BRANCH   1  35
ATOM     35  O   UNL A   1      43.167  22.356  25.456  1.00  0.00    -0.458 OA
BRANCH  35  36
ATOM     36  C   UNL A   1      43.556  23.633  25.232  1.00  0.00     0.338 C 
ATOM     37  O   UNL A   1      44.139  24.071  24.256  1.00  0.00    -0.246 OA
BRANCH  36  38
ATOM     38  C   UNL A   1      43.054  24.471  26.329  1.00  0.00     0.060 A 
ATOM     39  C   UNL A   1      42.359  23.945  27.410  1.00  0.00     0.016 A 
ATOM     40  C   UNL A   1      43.350  25.829  26.286  1.00  0.00     0.016 A 
ATOM     41  C   UNL A   1      41.927  24.809  28.427  1.00  0.00     0.010 A 
ATOM     42  C   UNL A   1      43.006  26.673  27.336  1.00  0.00     0.010 A 
ATOM     43  C   UNL A   1      42.249  26.184  28.403  1.00  0.00    -0.014 A 
BRANCH  43  44
ATOM     44  C   UNL A   1      41.789  27.112  29.473  1.00  0.00     0.031 A 
ATOM     45  C   UNL A   1      40.491  27.878  29.331  1.00  0.00     0.074 A 
ATOM     46  C   UNL A   1      42.561  27.313  30.560  1.00  0.00     0.049 A 
ATOM     47  N   UNL A   1      39.936  28.715  30.172  1.00  0.00    -0.248 NA
ATOM     48  C   UNL A   1      39.732  27.710  28.079  1.00  0.00     0.031 C 
ATOM     49  C   UNL A   1      43.890  26.734  30.771  1.00  0.00     0.029 A 
ATOM     50  N   UNL A   1      42.345  28.062  31.690  1.00  0.00    -0.354 N 
ATOM     51  C   UNL A   1      38.798  29.200  29.536  1.00  0.00     0.074 A 
ATOM     52  C   UNL A   1      38.754  28.593  28.226  1.00  0.00     0.031 C 
ATOM     53  C   UNL A   1      44.348  27.112  31.976  1.00  0.00     0.029 A 
ATOM     54  C   UNL A   1      43.362  27.980  32.611  1.00  0.00     0.049 A 
ATOM     55  H   UNL A   1      41.536  28.607  31.828  1.00  0.00     0.167 HD
ATOM     56  C   UNL A   1      37.850  30.040  30.013  1.00  0.00     0.034 A 
ATOM     57  C   UNL A   1      43.487  28.528  33.836  1.00  0.00     0.034 A 
ATOM     58  C   UNL A   1      37.839  30.568  31.348  1.00  0.00     0.049 A 
ATOM     59  C   UNL A   1      42.375  29.376  34.382  1.00  0.00     0.074 A 
ATOM     60  C   UNL A   1      36.854  31.322  31.962  1.00  0.00     0.029 A 
ATOM     61  N   UNL A   1      38.851  30.392  32.276  1.00  0.00    -0.354 N 
ATOM     62  N   UNL A   1      41.233  29.693  33.821  1.00  0.00    -0.248 NA
ATOM     63  C   UNL A   1      42.549  29.921  35.737  1.00  0.00     0.031 C 
ATOM     64  C   UNL A   1      37.273  31.608  33.263  1.00  0.00     0.029 A 
ATOM     65  C   UNL A   1      38.516  31.026  33.459  1.00  0.00     0.049 A 
ATOM     66  H   UNL A   1      39.682  29.892  32.119  1.00  0.00     0.167 HD
ATOM     67  C   UNL A   1      40.552  30.464  34.753  1.00  0.00     0.074 A 
ATOM     68  C   UNL A   1      41.394  30.546  35.928  1.00  0.00     0.031 C 
ATOM     69  C   UNL A   1      39.344  31.065  34.636  1.00  0.00     0.034 A 
BRANCH  56  70
ATOM     70  C   UNL A   1      36.680  30.375  29.127  1.00  0.00     0.023 A 
ATOM     71  C   UNL A   1      35.967  29.327  28.510  1.00  0.00     0.012 A 
ATOM     72  C   UNL A   1      36.213  31.698  29.006  1.00  0.00     0.148 A 
ATOM     73  C   UNL A   1      34.814  29.591  27.774  1.00  0.00     0.002 A 
ATOM     74  C   UNL A   1      35.042  31.950  28.299  1.00  0.00     0.091 A 
ATOM     75  F   UNL A   1      36.909  32.677  29.599  1.00  0.00    -0.205 F 
ATOM     76  C   UNL A   1      34.346  30.898  27.679  1.00  0.00     0.022 A 
BRANCH  74  77
ATOM     77  S   UNL A   1      34.314  33.586  28.161  1.00  0.00     0.127 S 
ATOM     78  O   UNL A   1      34.357  34.047  29.549  1.00  0.00    -0.237 OA
ATOM     79  O   UNL A   1      35.251  34.262  27.264  1.00  0.00    -0.237 OA
ATOM     80  O   UNL A   1      32.976  33.391  27.620  1.00  0.00    -0.744 OA
ENDBRANCH  74  77
ENDBRANCH  56  70
BRANCH  57  81
ATOM     81  C   UNL A   1      44.690  28.213  34.654  1.00  0.00     0.023 A 
ATOM     82  C   UNL A   1      45.799  29.079  34.605  1.00  0.00     0.012 A 
ATOM     83  C   UNL A   1      44.707  27.115  35.533  1.00  0.00     0.148 A 
ATOM     84  C   UNL A   1      46.913  28.849  35.414  1.00  0.00     0.002 A 
ATOM     85  C   UNL A   1      45.803  26.915  36.365  1.00  0.00     0.091 A 
ATOM     86  F   UNL A   1      43.638  26.306  35.557  1.00  0.00    -0.205 F 
ATOM     87  C   UNL A   1      46.911  27.776  36.300  1.00  0.00     0.022 A 
BRANCH  85  88
ATOM     88  S   UNL A   1      45.851  25.623  37.612  1.00  0.00     0.127 S 
ATOM     89  O   UNL A   1      45.639  24.422  36.806  1.00  0.00    -0.237 OA
ATOM     90  O   UNL A   1      47.205  25.774  38.145  1.00  0.00    -0.237 OA
ATOM     91  O   UNL A   1      44.789  25.940  38.555  1.00  0.00    -0.744 OA
ENDBRANCH  85  88
ENDBRANCH  57  81
BRANCH  69  92
ATOM     92  C   UNL A   1      38.840  31.879  35.795  1.00  0.00     0.023 A 
ATOM     93  C   UNL A   1      38.930  33.282  35.735  1.00  0.00     0.012 A 
ATOM     94  C   UNL A   1      38.159  31.267  36.865  1.00  0.00     0.148 A 
ATOM     95  C   UNL A   1      38.355  34.068  36.732  1.00  0.00     0.002 A 
ATOM     96  C   UNL A   1      37.560  32.058  37.836  1.00  0.00     0.091 A 
ATOM     97  F   UNL A   1      38.093  29.928  36.896  1.00  0.00    -0.205 F 
ATOM     98  C   UNL A   1      37.660  33.458  37.774  1.00  0.00     0.022 A 
BRANCH  96  99
ATOM     99  S   UNL A   1      36.579  31.370  39.176  1.00  0.00     0.127 S 
ATOM    100  O   UNL A   1      35.513  32.363  39.302  1.00  0.00    -0.237 OA
ATOM    101  O   UNL A   1      36.153  30.086  38.619  1.00  0.00    -0.237 OA
ATOM    102  O   UNL A   1      37.471  31.270  40.322  1.00  0.00    -0.744 OA
ENDBRANCH  96  99
ENDBRANCH  69  92
ENDBRANCH  43  44
ENDBRANCH  36  38
ENDBRANCH  35  36
ENDBRANCH   1  35
TORSDOF 15
ENDMDL
MODEL 2
REMARK VINA RESULT:     -13.6      1.341      2.693
REMARK SMILES C[C@]12c3ccccc3[C@](C)(c3ccccc31)[C@@H]1C(=O)N(c3ccc(C(=O)OCCOC(=O)c4ccc(-c5c6nc(c(-c7cccc(S(=O)(=O)[O-])c7F)c7ccc([nH]7)c(-c7cccc(S(=O)(=O)[O-])c7F)c7nc(c(-c8cccc(S(=O)(=O)[O-])c8F)c8ccc5[nH]8)C=C7)C=C6)cc4)cc3)C(=O)[C@H]12
REMARK SMILES IDX 29 1 28 2 27 3 25 4 26 5 24 6 21 7 22 8 97 9 23 10 96 11
REMARK SMILES IDX 20 12 1 13 2 14 16 15 3 16 100 17 15 18 11 19 8 20 4 21
REMARK SMILES IDX 17 22 98 23 14 24 12 25 9 26 7 27 5 28 18 29 99 30 13 31
REMARK SMILES IDX 10 32 6 33 19 34 30 35 31 36 32 37 33 38 34 39 95 40 35 41
REMARK SMILES IDX 94 42 36 43 37 44 38 45 88 46 39 47 93 48 87 49 89 50 40 51
REMARK SMILES IDX 92 52 86 53 85 54 41 56 73 57 53 58 72 59 54 60 57 61 71 62
REMARK SMILES IDX 90 63 55 64 56 65 70 67 91 68 58 69 42 70 43 71 51 72 44 73
REMARK SMILES IDX 46 74 52 75 45 76 47 77 48 78 49 79 50 80 74 81 75 82 83 83
REMARK SMILES IDX 76 84 78 85 84 86 77 87 79 88 80 89 81 90 82 91 59 92 60 93
REMARK SMILES IDX 68 94 61 95 63 96 69 97 62 98 64 99 65 100 66 101 67 102
REMARK H PARENT 89 55 57 66
REMARK Flexibility Score: inf
ROOT
ATOM      1  C   UNL A   1      44.158  21.451  25.364  1.00  0.00     0.275 C 
ENDROOT
BRANCH   1   2
ATOM      2  C   UNL A   1      43.672  20.031  25.664  1.00  0.00     0.275 C 
BRANCH   2   3
ATOM      3  O   UNL A   1      42.267  19.885  25.376  1.00  0.00    -0.458 OA
BRANCH   3   4
ATOM      4  C   UNL A   1      41.447  19.747  26.450  1.00  0.00     0.338 C 
ATOM      5  O   UNL A   1      41.760  19.332  27.550  1.00  0.00    -0.246 OA
BRANCH   4   6
ATOM      6  C   UNL A   1      40.104  20.304  26.143  1.00  0.00     0.060 A 
ATOM      7  C   UNL A   1      37.669  21.508  25.498  1.00  0.00     0.052 A 
ATOM      8  C   UNL A   1      38.623  22.226  26.213  1.00  0.00     0.028 A 
ATOM      9  C   UNL A   1      37.911  20.177  25.137  1.00  0.00     0.028 A 
ATOM     10  C   UNL A   1      39.802  21.595  26.596  1.00  0.00     0.018 A 
ATOM     11  C   UNL A   1      39.149  19.588  25.418  1.00  0.00     0.018 A 
BRANCH   7  12
ATOM     12  N   UNL A   1      36.443  22.114  25.213  1.00  0.00    -0.250 N 
ATOM     13  C   UNL A   1      34.218  26.013  25.808  1.00  0.00     0.022 C 
ATOM     14  C   UNL A   1      33.743  24.754  25.084  1.00  0.00     0.030 C 
ATOM     15  C   UNL A   1      33.467  24.927  23.565  1.00  0.00    -0.033 A 
ATOM     16  C   UNL A   1      32.412  24.151  25.639  1.00  0.00    -0.033 A 
ATOM     17  C   UNL A   1      34.672  23.541  25.344  1.00  0.00     0.108 C 
ATOM     18  C   UNL A   1      33.630  26.095  22.829  1.00  0.00     0.005 A 
ATOM     19  C   UNL A   1      32.957  23.747  22.914  1.00  0.00    -0.033 A 
ATOM     20  C   UNL A   1      32.054  22.900  25.027  1.00  0.00    -0.033 A 
ATOM     21  C   UNL A   1      31.632  24.689  26.659  1.00  0.00     0.005 A 
ATOM     22  C   UNL A   1      34.451  22.517  24.225  1.00  0.00     0.108 C 
ATOM     23  C   UNL A   1      36.163  23.463  25.456  1.00  0.00     0.238 C 
ATOM     24  C   UNL A   1      33.294  26.099  21.471  1.00  0.00     0.000 A 
ATOM     25  C   UNL A   1      32.615  23.768  21.566  1.00  0.00     0.005 A 
ATOM     26  C   UNL A   1      32.958  22.488  23.840  1.00  0.00     0.030 C 
ATOM     27  C   UNL A   1      30.927  22.216  25.475  1.00  0.00     0.005 A 
ATOM     28  C   UNL A   1      30.504  23.990  27.087  1.00  0.00     0.000 A 
ATOM     29  C   UNL A   1      35.365  21.423  24.658  1.00  0.00     0.238 C 
ATOM     30  O   UNL A   1      36.917  24.364  25.771  1.00  0.00    -0.274 OA
ATOM     31  C   UNL A   1      32.786  24.951  20.849  1.00  0.00     0.000 A 
ATOM     32  C   UNL A   1      32.576  21.178  23.154  1.00  0.00     0.022 C 
ATOM     33  C   UNL A   1      30.159  22.765  26.506  1.00  0.00     0.000 A 
ATOM     34  O   UNL A   1      35.242  20.235  24.423  1.00  0.00    -0.274 OA
ENDBRANCH   7  12
ENDBRANCH   4   6
ENDBRANCH   3   4
ENDBRANCH   2   3
ENDBRANCH   1   2
BRANCH   1  35
ATOM     35  O   UNL A   1      43.106  22.411  25.573  1.00  0.00    -0.458 OA
BRANCH  35  36
ATOM     36  C   UNL A   1      43.411  23.691  25.257  1.00  0.00     0.338 C 
ATOM     37  O   UNL A   1      43.910  24.103  24.224  1.00  0.00    -0.246 OA
BRANCH  36  38
ATOM     38  C   UNL A   1      42.931  24.564  26.338  1.00  0.00     0.060 A 
ATOM     39  C   UNL A   1      42.122  24.098  27.366  1.00  0.00     0.016 A 
ATOM     40  C   UNL A   1      43.364  25.885  26.336  1.00  0.00     0.016 A 
ATOM     41  C   UNL A   1      41.719  24.990  28.370  1.00  0.00     0.010 A 
ATOM     42  C   UNL A   1      43.044  26.747  27.378  1.00  0.00     0.010 A 
ATOM     43  C   UNL A   1      42.178  26.325  28.390  1.00  0.00    -0.014 A 
BRANCH  43  44
ATOM     44  C   UNL A   1      41.750  27.283  29.447  1.00  0.00     0.031 A 
ATOM     45  C   UNL A   1      40.462  28.064  29.311  1.00  0.00     0.074 A 
ATOM     46  C   UNL A   1      42.543  27.496  30.516  1.00  0.00     0.049 A 
ATOM     47  N   UNL A   1      39.933  28.927  30.142  1.00  0.00    -0.248 NA
ATOM     48  C   UNL A   1      39.678  27.881  28.076  1.00  0.00     0.031 C 
ATOM     49  C   UNL A   1      43.867  26.901  30.718  1.00  0.00     0.029 A 
ATOM     50  N   UNL A   1      42.358  28.272  31.633  1.00  0.00    -0.354 N 
ATOM     51  C   UNL A   1      38.791  29.415  29.516  1.00  0.00     0.074 A 
ATOM     52  C   UNL A   1      38.716  28.781  28.220  1.00  0.00     0.031 C 
ATOM     53  C   UNL A   1      44.352  27.298  31.906  1.00  0.00     0.029 A 
ATOM     54  C   UNL A   1      43.390  28.195  32.538  1.00  0.00     0.049 A 
ATOM     55  H   UNL A   1      41.560  28.832  31.773  1.00  0.00     0.167 HD
ATOM     56  C   UNL A   1      37.864  30.279  29.990  1.00  0.00     0.034 A 
ATOM     57  C   UNL A   1      43.544  28.767  33.749  1.00  0.00     0.034 A 
ATOM     58  C   UNL A   1      37.883  30.836  31.313  1.00  0.00     0.049 A 
ATOM     59  C   UNL A   1      42.453  29.643  34.295  1.00  0.00     0.074 A 
ATOM     60  C   UNL A   1      36.920  31.617  31.927  1.00  0.00     0.029 A 
ATOM     61  N   UNL A   1      38.908  30.665  32.228  1.00  0.00    -0.354 N 
ATOM     62  N   UNL A   1      41.307  29.964  33.746  1.00  0.00    -0.248 NA
ATOM     63  C   UNL A   1      42.659  30.214  35.635  1.00  0.00     0.031 C 
ATOM     64  C   UNL A   1      37.365  31.925  33.215  1.00  0.00     0.029 A 
ATOM     65  C   UNL A   1      38.603  31.329  33.402  1.00  0.00     0.049 A 
ATOM     66  H   UNL A   1      39.730  30.149  32.067  1.00  0.00     0.167 HD
ATOM     67  C   UNL A   1      40.653  30.765  34.673  1.00  0.00     0.074 A 
ATOM     68  C   UNL A   1      41.517  30.860  35.831  1.00  0.00     0.031 C 
ATOM     69  C   UNL A   1      39.452  31.382  34.563  1.00  0.00     0.034 A 
BRANCH  56  70
ATOM     70  C   UNL A   1      36.684  30.612  29.117  1.00  0.00     0.023 A 
ATOM     71  C   UNL A   1      35.981  29.564  28.487  1.00  0.00     0.012 A 
ATOM     72  C   UNL A   1      36.198  31.931  29.021  1.00  0.00     0.148 A 
ATOM     73  C   UNL A   1      34.819  29.824  27.763  1.00  0.00     0.002 A 
ATOM     74  C   UNL A   1      35.019  32.178  28.324  1.00  0.00     0.091 A 
ATOM     75  F   UNL A   1      36.885  32.909  29.624  1.00  0.00    -0.205 F 
ATOM     76  C   UNL A   1      34.333  31.127  27.692  1.00  0.00     0.022 A 
BRANCH  74  77
ATOM     77  S   UNL A   1      34.268  33.806  28.218  1.00  0.00     0.127 S 
ATOM     78  O   UNL A   1      35.125  34.464  27.233  1.00  0.00    -0.237 OA
ATOM     79  O   UNL A   1      32.921  33.490  27.741  1.00  0.00    -0.237 OA
ATOM     80  O   UNL A   1      34.329  34.369  29.559  1.00  0.00    -0.744 OA
ENDBRANCH  74  77
ENDBRANCH  56  70
BRANCH  57  81
ATOM     81  C   UNL A   1      44.756  28.452  34.553  1.00  0.00     0.023 A 
ATOM     82  C   UNL A   1      45.940  29.178  34.323  1.00  0.00     0.012 A 
ATOM     83  C   UNL A   1      44.717  27.501  35.589  1.00  0.00     0.148 A 
ATOM     84  C   UNL A   1      47.071  28.955  35.109  1.00  0.00     0.002 A 
ATOM     85  C   UNL A   1      45.834  27.312  36.394  1.00  0.00     0.091 A 
ATOM     86  F   UNL A   1      43.577  26.822  35.784  1.00  0.00    -0.205 F 
ATOM     87  C   UNL A   1      47.016  28.032  36.150  1.00  0.00     0.022 A 
BRANCH  85  88
ATOM     88  S   UNL A   1      45.829  26.222  37.822  1.00  0.00     0.127 S 
ATOM     89  O   UNL A   1      47.150  26.476  38.395  1.00  0.00    -0.237 OA
ATOM     90  O   UNL A   1      44.709  26.753  38.599  1.00  0.00    -0.237 OA
ATOM     91  O   UNL A   1      45.622  24.880  37.297  1.00  0.00    -0.744 OA
ENDBRANCH  85  88
ENDBRANCH  57  81
BRANCH  69  92
ATOM     92  C   UNL A   1      38.979  32.227  35.713  1.00  0.00     0.023 A 
ATOM     93  C   UNL A   1      38.110  31.662  36.664  1.00  0.00     0.012 A 
ATOM     94  C   UNL A   1      39.500  33.519  35.921  1.00  0.00     0.148 A 
ATOM     95  C   UNL A   1      37.758  32.375  37.808  1.00  0.00     0.002 A 
ATOM     96  C   UNL A   1      39.172  34.210  37.080  1.00  0.00     0.091 A 
ATOM     97  F   UNL A   1      40.322  34.032  34.994  1.00  0.00    -0.205 F 
ATOM     98  C   UNL A   1      38.298  33.642  38.023  1.00  0.00     0.022 A 
BRANCH  96  99
ATOM     99  S   UNL A   1      39.874  35.814  37.483  1.00  0.00     0.127 S 
ATOM    100  O   UNL A   1      39.574  36.581  36.274  1.00  0.00    -0.237 OA
ATOM    101  O   UNL A   1      39.100  36.204  38.661  1.00  0.00    -0.237 OA
ATOM    102  O   UNL A   1      41.290  35.585  37.734  1.00  0.00    -0.744 OA
ENDBRANCH  96  99
ENDBRANCH  69  92
ENDBRANCH  43  44
ENDBRANCH  36  38
ENDBRANCH  35  36
ENDBRANCH   1  35
TORSDOF 15
ENDMDL
MODEL 3
REMARK VINA RESULT:     -13.4     11.642     16.937
REMARK SMILES C[C@]12c3ccccc3[C@](C)(c3ccccc31)[C@@H]1C(=O)N(c3ccc(C(=O)OCCOC(=O)c4ccc(-c5c6nc(c(-c7cccc(S(=O)(=O)[O-])c7F)c7ccc([nH]7)c(-c7cccc(S(=O)(=O)[O-])c7F)c7nc(c(-c8cccc(S(=O)(=O)[O-])c8F)c8ccc5[nH]8)C=C7)C=C6)cc4)cc3)C(=O)[C@H]12
REMARK SMILES IDX 29 1 28 2 27 3 25 4 26 5 24 6 21 7 22 8 97 9 23 10 96 11
REMARK SMILES IDX 20 12 1 13 2 14 16 15 3 16 100 17 15 18 11 19 8 20 4 21
REMARK SMILES IDX 17 22 98 23 14 24 12 25 9 26 7 27 5 28 18 29 99 30 13 31
REMARK SMILES IDX 10 32 6 33 19 34 30 35 31 36 32 37 33 38 34 39 95 40 35 41
REMARK SMILES IDX 94 42 36 43 37 44 38 45 88 46 39 47 93 48 87 49 89 50 40 51
REMARK SMILES IDX 92 52 86 53 85 54 41 56 73 57 53 58 72 59 54 60 57 61 71 62
REMARK SMILES IDX 90 63 55 64 56 65 70 67 91 68 58 69 42 70 43 71 51 72 44 73
REMARK SMILES IDX 46 74 52 75 45 76 47 77 48 78 49 79 50 80 74 81 75 82 83 83
REMARK SMILES IDX 76 84 78 85 84 86 77 87 79 88 80 89 81 90 82 91 59 92 60 93
REMARK SMILES IDX 68 94 61 95 63 96 69 97 62 98 64 99 65 100 66 101 67 102
REMARK H PARENT 89 55 57 66
REMARK Flexibility Score: inf
ROOT
ATOM      1  C   UNL A   1      46.739  39.021  27.929  1.00  0.00     0.275 C 
ENDROOT
BRANCH   1   2
ATOM      2  C   UNL A   1      45.659  39.206  26.861  1.00  0.00     0.275 C 
BRANCH   2   3
ATOM      3  O   UNL A   1      45.448  40.601  26.563  1.00  0.00    -0.458 OA
BRANCH   3   4
ATOM      4  C   UNL A   1      44.248  40.922  26.015  1.00  0.00     0.338 C 
ATOM      5  O   UNL A   1      43.157  40.534  26.385  1.00  0.00    -0.246 OA
BRANCH   4   6
ATOM      6  C   UNL A   1      44.429  41.941  24.948  1.00  0.00     0.060 A 
ATOM      7  C   UNL A   1      44.811  43.713  22.824  1.00  0.00     0.052 A 
ATOM      8  C   UNL A   1      45.767  42.737  23.086  1.00  0.00     0.028 A 
ATOM      9  C   UNL A   1      43.681  43.832  23.644  1.00  0.00     0.028 A 
ATOM     10  C   UNL A   1      45.607  41.908  24.192  1.00  0.00     0.018 A 
ATOM     11  C   UNL A   1      43.465  42.915  24.679  1.00  0.00     0.018 A 
BRANCH   7  12
ATOM     12  N   UNL A   1      45.033  44.613  21.779  1.00  0.00    -0.250 N 
ATOM     13  C   UNL A   1      47.203  48.480  20.863  1.00  0.00     0.022 C 
ATOM     14  C   UNL A   1      46.357  47.625  19.922  1.00  0.00     0.030 C 
ATOM     15  C   UNL A   1      47.123  47.010  18.717  1.00  0.00    -0.033 A 
ATOM     16  C   UNL A   1      45.162  48.381  19.257  1.00  0.00    -0.033 A 
ATOM     17  C   UNL A   1      45.551  46.539  20.679  1.00  0.00     0.108 C 
ATOM     18  C   UNL A   1      48.479  47.156  18.446  1.00  0.00     0.005 A 
ATOM     19  C   UNL A   1      46.296  46.262  17.806  1.00  0.00    -0.033 A 
ATOM     20  C   UNL A   1      44.309  47.526  18.477  1.00  0.00    -0.033 A 
ATOM     21  C   UNL A   1      44.863  49.732  19.407  1.00  0.00     0.005 A 
ATOM     22  C   UNL A   1      45.168  45.440  19.681  1.00  0.00     0.108 C 
ATOM     23  C   UNL A   1      45.930  45.685  21.849  1.00  0.00     0.238 C 
ATOM     24  C   UNL A   1      49.010  46.573  17.291  1.00  0.00     0.000 A 
ATOM     25  C   UNL A   1      46.835  45.697  16.654  1.00  0.00     0.005 A 
ATOM     26  C   UNL A   1      44.831  46.077  18.317  1.00  0.00     0.030 C 
ATOM     27  C   UNL A   1      43.165  48.055  17.885  1.00  0.00     0.005 A 
ATOM     28  C   UNL A   1      43.716  50.242  18.800  1.00  0.00     0.000 A 
ATOM     29  C   UNL A   1      44.373  44.531  20.553  1.00  0.00     0.238 C 
ATOM     30  O   UNL A   1      46.767  45.937  22.694  1.00  0.00    -0.274 OA
ATOM     31  C   UNL A   1      48.196  45.858  16.402  1.00  0.00     0.000 A 
ATOM     32  C   UNL A   1      43.957  45.159  17.465  1.00  0.00     0.022 C 
ATOM     33  C   UNL A   1      42.873  49.411  18.053  1.00  0.00     0.000 A 
ATOM     34  O   UNL A   1      43.472  43.791  20.204  1.00  0.00    -0.274 OA
ENDBRANCH   7  12
ENDBRANCH   4   6
ENDBRANCH   3   4
ENDBRANCH   2   3
ENDBRANCH   1   2
BRANCH   1  35
ATOM     35  O   UNL A   1      46.865  37.636  28.300  1.00  0.00    -0.458 OA
BRANCH  35  36
ATOM     36  C   UNL A   1      46.176  37.261  29.403  1.00  0.00     0.338 C 
ATOM     37  O   UNL A   1      45.946  37.927  30.398  1.00  0.00    -0.246 OA
BRANCH  36  38
ATOM     38  C   UNL A   1      45.625  35.918  29.174  1.00  0.00     0.060 A 
ATOM     39  C   UNL A   1      45.004  35.562  27.984  1.00  0.00     0.016 A 
ATOM     40  C   UNL A   1      45.798  34.974  30.180  1.00  0.00     0.016 A 
ATOM     41  C   UNL A   1      44.519  34.255  27.836  1.00  0.00     0.010 A 
ATOM     42  C   UNL A   1      45.403  33.654  30.000  1.00  0.00     0.010 A 
ATOM     43  C   UNL A   1      44.716  33.283  28.842  1.00  0.00    -0.014 A 
BRANCH  43  44
ATOM     44  C   UNL A   1      44.199  31.894  28.698  1.00  0.00     0.031 A 
ATOM     45  C   UNL A   1      42.845  31.509  29.254  1.00  0.00     0.074 A 
ATOM     46  C   UNL A   1      44.965  30.953  28.111  1.00  0.00     0.049 A 
ATOM     47  N   UNL A   1      42.237  30.350  29.205  1.00  0.00    -0.248 NA
ATOM     48  C   UNL A   1      42.086  32.541  29.984  1.00  0.00     0.031 C 
ATOM     49  C   UNL A   1      46.337  31.156  27.637  1.00  0.00     0.029 A 
ATOM     50  N   UNL A   1      44.705  29.638  27.814  1.00  0.00    -0.354 N 
ATOM     51  C   UNL A   1      41.058  30.503  29.926  1.00  0.00     0.074 A 
ATOM     52  C   UNL A   1      41.046  31.855  30.435  1.00  0.00     0.031 C 
ATOM     53  C   UNL A   1      46.779  30.022  27.070  1.00  0.00     0.029 A 
ATOM     54  C   UNL A   1      45.736  29.004  27.163  1.00  0.00     0.049 A 
ATOM     55  H   UNL A   1      43.859  29.191  28.046  1.00  0.00     0.167 HD
ATOM     56  C   UNL A   1      40.054  29.615  30.115  1.00  0.00     0.034 A 
ATOM     57  C   UNL A   1      45.833  27.750  26.679  1.00  0.00     0.034 A 
ATOM     58  C   UNL A   1      40.018  28.305  29.530  1.00  0.00     0.049 A 
ATOM     59  C   UNL A   1      44.665  26.815  26.813  1.00  0.00     0.074 A 
ATOM     60  C   UNL A   1      38.985  27.383  29.558  1.00  0.00     0.029 A 
ATOM     61  N   UNL A   1      41.050  27.732  28.808  1.00  0.00    -0.354 N 
ATOM     62  N   UNL A   1      43.497  27.036  27.364  1.00  0.00    -0.248 NA
ATOM     63  C   UNL A   1      44.813  25.470  26.237  1.00  0.00     0.031 C 
ATOM     64  C   UNL A   1      39.396  26.248  28.855  1.00  0.00     0.029 A 
ATOM     65  C   UNL A   1      40.682  26.468  28.385  1.00  0.00     0.049 A 
ATOM     66  H   UNL A   1      41.916  28.160  28.622  1.00  0.00     0.167 HD
ATOM     67  C   UNL A   1      42.769  25.866  27.195  1.00  0.00     0.074 A 
ATOM     68  C   UNL A   1      43.616  24.945  26.467  1.00  0.00     0.031 C 
ATOM     69  C   UNL A   1      41.517  25.576  27.625  1.00  0.00     0.034 A 
BRANCH  56  70
ATOM     70  C   UNL A   1      38.852  30.052  30.908  1.00  0.00     0.023 A 
ATOM     71  C   UNL A   1      38.824  29.809  32.297  1.00  0.00     0.012 A 
ATOM     72  C   UNL A   1      37.821  30.805  30.314  1.00  0.00     0.148 A 
ATOM     73  C   UNL A   1      37.781  30.297  33.081  1.00  0.00     0.002 A 
ATOM     74  C   UNL A   1      36.800  31.317  31.108  1.00  0.00     0.091 A 
ATOM     75  F   UNL A   1      37.868  31.019  28.992  1.00  0.00    -0.205 F 
ATOM     76  C   UNL A   1      36.777  31.059  32.490  1.00  0.00     0.022 A 
BRANCH  74  77
ATOM     77  S   UNL A   1      35.489  32.363  30.464  1.00  0.00     0.127 S 
ATOM     78  O   UNL A   1      36.228  33.569  30.092  1.00  0.00    -0.237 OA
ATOM     79  O   UNL A   1      34.998  31.575  29.334  1.00  0.00    -0.237 OA
ATOM     80  O   UNL A   1      34.537  32.536  31.553  1.00  0.00    -0.744 OA
ENDBRANCH  74  77
ENDBRANCH  56  70
BRANCH  57  81
ATOM     81  C   UNL A   1      47.065  27.344  25.949  1.00  0.00     0.023 A 
ATOM     82  C   UNL A   1      48.008  26.524  26.598  1.00  0.00     0.012 A 
ATOM     83  C   UNL A   1      47.267  27.699  24.603  1.00  0.00     0.148 A 
ATOM     84  C   UNL A   1      49.138  26.068  25.917  1.00  0.00     0.002 A 
ATOM     85  C   UNL A   1      48.373  27.210  23.919  1.00  0.00     0.091 A 
ATOM     86  F   UNL A   1      46.354  28.484  24.012  1.00  0.00    -0.205 F 
ATOM     87  C   UNL A   1      49.315  26.402  24.577  1.00  0.00     0.022 A 
BRANCH  85  88
ATOM     88  S   UNL A   1      48.636  27.498  22.165  1.00  0.00     0.127 S 
ATOM     89  O   UNL A   1      47.486  28.334  21.825  1.00  0.00    -0.237 OA
ATOM     90  O   UNL A   1      49.922  28.193  22.166  1.00  0.00    -0.237 OA
ATOM     91  O   UNL A   1      48.658  26.181  21.545  1.00  0.00    -0.744 OA
ENDBRANCH  85  88
ENDBRANCH  57  81
BRANCH  69  92
ATOM     92  C   UNL A   1      40.965  24.209  27.335  1.00  0.00     0.023 A 
ATOM     93  C   UNL A   1      41.544  23.091  27.964  1.00  0.00     0.012 A 
ATOM     94  C   UNL A   1      39.802  24.049  26.558  1.00  0.00     0.148 A 
ATOM     95  C   UNL A   1      40.975  21.827  27.820  1.00  0.00     0.002 A 
ATOM     96  C   UNL A   1      39.221  22.792  26.446  1.00  0.00     0.091 A 
ATOM     97  F   UNL A   1      39.276  25.132  25.967  1.00  0.00    -0.205 F 
ATOM     98  C   UNL A   1      39.808  21.680  27.072  1.00  0.00     0.022 A 
BRANCH  96  99
ATOM     99  S   UNL A   1      37.678  22.514  25.569  1.00  0.00     0.127 S 
ATOM    100  O   UNL A   1      37.682  21.059  25.415  1.00  0.00    -0.237 OA
ATOM    101  O   UNL A   1      36.687  23.024  26.517  1.00  0.00    -0.237 OA
ATOM    102  O   UNL A   1      37.775  23.268  24.327  1.00  0.00    -0.744 OA
ENDBRANCH  96  99
ENDBRANCH  69  92
ENDBRANCH  43  44
ENDBRANCH  36  38
ENDBRANCH  35  36
ENDBRANCH   1  35
TORSDOF 15
ENDMDL
