MODEL 1
REMARK VINA RESULT:     -12.7      0.000      0.000
REMARK SMILES Cc1cc(Cl)cc2c1O[C@H](C(F)(F)F)C(C(=O)OCCOC(=O)c1ccc(-c3c4nc(c(-c5cccc(S(=O)(=O)[O-])c5F)c5ccc([nH]5)c(-c5cccc(S(=O)(=O)[O-])c5F)c5nc(c(-c6cccc(S(=O)(=O)[O-])c6F)c6ccc3[nH]6)C=C5)C=C4)cc1)=C2
REMARK SMILES IDX 20 1 19 2 18 3 16 4 17 5 15 6 1 7 2 8 3 9 8 10 4 11 7 12
REMARK SMILES IDX 9 13 5 14 6 15 87 16 10 17 11 18 12 19 13 20 14 21 21 22
REMARK SMILES IDX 22 23 23 24 24 25 25 26 86 27 26 28 85 29 27 30 28 31 29 32
REMARK SMILES IDX 79 33 30 34 84 35 78 36 80 37 31 38 83 39 77 40 76 41 32 43
REMARK SMILES IDX 64 44 44 45 63 46 45 47 48 48 62 49 81 50 46 51 47 52 61 54
REMARK SMILES IDX 82 55 49 56 33 57 34 58 42 59 35 60 37 61 43 62 36 63 38 64
REMARK SMILES IDX 39 65 40 66 41 67 65 68 66 69 74 70 67 71 69 72 75 73 68 74
REMARK SMILES IDX 70 75 71 76 72 77 73 78 50 79 51 80 59 81 52 82 54 83 60 84
REMARK SMILES IDX 53 85 55 86 56 87 57 88 58 89
REMARK H PARENT 80 42 48 53
REMARK Flexibility Score: inf
ROOT
ATOM      1  C   UNL A   1      36.527  20.685  25.393  1.00  0.00     0.275 C 
ENDROOT
BRANCH   1   2
ATOM      2  C   UNL A   1      35.265  21.340  24.831  1.00  0.00     0.275 C 
BRANCH   2   3
ATOM      3  O   UNL A   1      35.374  22.780  24.836  1.00  0.00    -0.459 OA
BRANCH   3   4
ATOM      4  C   UNL A   1      35.184  23.379  23.638  1.00  0.00     0.338 C 
ATOM      5  O   UNL A   1      35.741  23.101  22.587  1.00  0.00    -0.246 OA
BRANCH   4   6
ATOM      6  C   UNL A   1      34.187  24.460  23.745  1.00  0.00     0.087 C 
ATOM      7  C   UNL A   1      29.785  27.147  23.787  1.00  0.00     0.048 C 
ATOM      8  C   UNL A   1      31.104  27.187  24.503  1.00  0.00    -0.007 A 
ATOM      9  C   UNL A   1      31.288  28.147  25.514  1.00  0.00     0.027 A 
ATOM     10  C   UNL A   1      32.155  26.312  24.188  1.00  0.00     0.131 A 
ATOM     11  C   UNL A   1      32.497  28.229  26.202  1.00  0.00     0.042 A 
ATOM     12  C   UNL A   1      33.357  26.391  24.898  1.00  0.00     0.019 A 
ATOM     13  O   UNL A   1      31.958  25.417  23.172  1.00  0.00    -0.475 OA
ATOM     14  Cl  UNL A   1      32.699  29.403  27.440  1.00  0.00    -0.084 Cl
ATOM     15  C   UNL A   1      33.534  27.355  25.898  1.00  0.00     0.032 A 
ATOM     16  C   UNL A   1      34.411  25.433  24.634  1.00  0.00     0.027 C 
ATOM     17  C   UNL A   1      32.906  24.329  22.982  1.00  0.00     0.316 C 
BRANCH  17  18
ATOM     18  C   UNL A   1      32.199  22.998  23.286  1.00  0.00     0.430 C 
ATOM     19  F   UNL A   1      30.886  23.053  22.950  1.00  0.00    -0.167 F 
ATOM     20  F   UNL A   1      32.732  21.977  22.573  1.00  0.00    -0.167 F 
ATOM     21  F   UNL A   1      32.267  22.663  24.593  1.00  0.00    -0.167 F 
ENDBRANCH  17  18
ENDBRANCH   4   6
ENDBRANCH   3   4
ENDBRANCH   2   3
ENDBRANCH   1   2
BRANCH   1  22
ATOM     22  O   UNL A   1      37.687  21.466  25.060  1.00  0.00    -0.458 OA
BRANCH  22  23
ATOM     23  C   UNL A   1      38.803  21.158  25.758  1.00  0.00     0.338 C 
ATOM     24  O   UNL A   1      39.420  20.106  25.740  1.00  0.00    -0.246 OA
BRANCH  23  25
ATOM     25  C   UNL A   1      39.277  22.332  26.506  1.00  0.00     0.060 A 
ATOM     26  C   UNL A   1      38.743  23.573  26.186  1.00  0.00     0.016 A 
ATOM     27  C   UNL A   1      40.386  22.245  27.341  1.00  0.00     0.016 A 
ATOM     28  C   UNL A   1      39.430  24.732  26.529  1.00  0.00     0.010 A 
ATOM     29  C   UNL A   1      40.971  23.421  27.830  1.00  0.00     0.010 A 
ATOM     30  C   UNL A   1      40.544  24.682  27.377  1.00  0.00    -0.014 A 
BRANCH  30  31
ATOM     31  C   UNL A   1      41.259  25.938  27.758  1.00  0.00     0.031 A 
ATOM     32  C   UNL A   1      40.572  26.989  28.599  1.00  0.00     0.074 A 
ATOM     33  C   UNL A   1      42.536  26.138  27.366  1.00  0.00     0.049 A 
ATOM     34  N   UNL A   1      40.965  28.204  28.885  1.00  0.00    -0.248 NA
ATOM     35  C   UNL A   1      39.264  26.639  29.180  1.00  0.00     0.031 C 
ATOM     36  C   UNL A   1      43.338  25.201  26.577  1.00  0.00     0.029 A 
ATOM     37  N   UNL A   1      43.391  27.194  27.579  1.00  0.00    -0.354 N 
ATOM     38  C   UNL A   1      39.928  28.785  29.607  1.00  0.00     0.074 A 
ATOM     39  C   UNL A   1      38.883  27.792  29.716  1.00  0.00     0.031 C 
ATOM     40  C   UNL A   1      44.574  25.692  26.418  1.00  0.00     0.029 A 
ATOM     41  C   UNL A   1      44.624  27.031  26.988  1.00  0.00     0.049 A 
ATOM     42  H   UNL A   1      43.145  27.991  28.103  1.00  0.00     0.167 HD
ATOM     43  C   UNL A   1      39.857  30.028  30.145  1.00  0.00     0.034 A 
ATOM     44  C   UNL A   1      45.668  27.874  26.866  1.00  0.00     0.034 A 
ATOM     45  C   UNL A   1      40.933  30.982  30.105  1.00  0.00     0.049 A 
ATOM     46  C   UNL A   1      45.555  29.255  27.448  1.00  0.00     0.074 A 
ATOM     47  C   UNL A   1      40.973  32.252  30.653  1.00  0.00     0.029 A 
ATOM     48  N   UNL A   1      42.161  30.771  29.498  1.00  0.00    -0.354 N 
ATOM     49  N   UNL A   1      44.577  29.775  28.148  1.00  0.00    -0.248 NA
ATOM     50  C   UNL A   1      46.686  30.164  27.224  1.00  0.00     0.031 C 
ATOM     51  C   UNL A   1      42.214  32.819  30.353  1.00  0.00     0.029 A 
ATOM     52  C   UNL A   1      42.961  31.892  29.645  1.00  0.00     0.049 A 
ATOM     53  H   UNL A   1      42.427  29.945  29.031  1.00  0.00     0.167 HD
ATOM     54  C   UNL A   1      44.977  31.068  28.460  1.00  0.00     0.074 A 
ATOM     55  C   UNL A   1      46.304  31.239  27.903  1.00  0.00     0.031 C 
ATOM     56  C   UNL A   1      44.297  32.034  29.122  1.00  0.00     0.034 A 
BRANCH  43  57
ATOM     57  C   UNL A   1      38.586  30.429  30.854  1.00  0.00     0.023 A 
ATOM     58  C   UNL A   1      38.438  30.173  32.232  1.00  0.00     0.012 A 
ATOM     59  C   UNL A   1      37.578  31.145  30.175  1.00  0.00     0.148 A 
ATOM     60  C   UNL A   1      37.298  30.595  32.916  1.00  0.00     0.002 A 
ATOM     61  C   UNL A   1      36.467  31.605  30.873  1.00  0.00     0.091 A 
ATOM     62  F   UNL A   1      37.728  31.368  28.861  1.00  0.00    -0.205 F 
ATOM     63  C   UNL A   1      36.320  31.320  32.240  1.00  0.00     0.022 A 
BRANCH  61  64
ATOM     64  S   UNL A   1      35.194  32.625  30.118  1.00  0.00     0.127 S 
ATOM     65  O   UNL A   1      34.688  31.738  29.072  1.00  0.00    -0.237 OA
ATOM     66  O   UNL A   1      34.271  32.838  31.234  1.00  0.00    -0.237 OA
ATOM     67  O   UNL A   1      35.866  33.825  29.643  1.00  0.00    -0.744 OA
ENDBRANCH  61  64
ENDBRANCH  43  57
BRANCH  44  68
ATOM     68  C   UNL A   1      46.907  27.425  26.165  1.00  0.00     0.023 A 
ATOM     69  C   UNL A   1      47.791  26.547  26.823  1.00  0.00     0.012 A 
ATOM     70  C   UNL A   1      47.182  27.803  24.834  1.00  0.00     0.148 A 
ATOM     71  C   UNL A   1      48.929  26.065  26.173  1.00  0.00     0.002 A 
ATOM     72  C   UNL A   1      48.278  27.264  24.171  1.00  0.00     0.091 A 
ATOM     73  F   UNL A   1      46.341  28.654  24.231  1.00  0.00    -0.205 F 
ATOM     74  C   UNL A   1      49.163  26.409  24.844  1.00  0.00     0.022 A 
BRANCH  72  75
ATOM     75  S   UNL A   1      48.569  27.526  22.417  1.00  0.00     0.127 S 
ATOM     76  O   UNL A   1      49.844  28.238  22.429  1.00  0.00    -0.237 OA
ATOM     77  O   UNL A   1      48.635  26.152  21.917  1.00  0.00    -0.237 OA
ATOM     78  O   UNL A   1      47.426  28.287  21.935  1.00  0.00    -0.744 OA
ENDBRANCH  72  75
ENDBRANCH  44  68
BRANCH  56  79
ATOM     79  C   UNL A   1      44.965  33.373  29.291  1.00  0.00     0.023 A 
ATOM     80  C   UNL A   1      45.783  33.602  30.416  1.00  0.00     0.012 A 
ATOM     81  C   UNL A   1      44.874  34.359  28.288  1.00  0.00     0.148 A 
ATOM     82  C   UNL A   1      46.483  34.800  30.550  1.00  0.00     0.002 A 
ATOM     83  C   UNL A   1      45.616  35.528  28.403  1.00  0.00     0.091 A 
ATOM     84  F   UNL A   1      44.078  34.127  27.234  1.00  0.00    -0.205 F 
ATOM     85  C   UNL A   1      46.412  35.754  29.539  1.00  0.00     0.022 A 
BRANCH  83  86
ATOM     86  S   UNL A   1      45.676  36.769  27.107  1.00  0.00     0.127 S 
ATOM     87  O   UNL A   1      46.659  37.711  27.641  1.00  0.00    -0.237 OA
ATOM     88  O   UNL A   1      46.139  35.992  25.957  1.00  0.00    -0.237 OA
ATOM     89  O   UNL A   1      44.322  37.291  26.984  1.00  0.00    -0.744 OA
ENDBRANCH  83  86
ENDBRANCH  56  79
ENDBRANCH  30  31
ENDBRANCH  23  25
ENDBRANCH  22  23
ENDBRANCH   1  22
TORSDOF 15
ENDMDL
MODEL 2
REMARK VINA RESULT:     -12.6      5.270     10.063
REMARK SMILES Cc1cc(Cl)cc2c1O[C@H](C(F)(F)F)C(C(=O)OCCOC(=O)c1ccc(-c3c4nc(c(-c5cccc(S(=O)(=O)[O-])c5F)c5ccc([nH]5)c(-c5cccc(S(=O)(=O)[O-])c5F)c5nc(c(-c6cccc(S(=O)(=O)[O-])c6F)c6ccc3[nH]6)C=C5)C=C4)cc1)=C2
REMARK SMILES IDX 20 1 19 2 18 3 16 4 17 5 15 6 1 7 2 8 3 9 8 10 4 11 7 12
REMARK SMILES IDX 9 13 5 14 6 15 87 16 10 17 11 18 12 19 13 20 14 21 21 22
REMARK SMILES IDX 22 23 23 24 24 25 25 26 86 27 26 28 85 29 27 30 28 31 29 32
REMARK SMILES IDX 79 33 30 34 84 35 78 36 80 37 31 38 83 39 77 40 76 41 32 43
REMARK SMILES IDX 64 44 44 45 63 46 45 47 48 48 62 49 81 50 46 51 47 52 61 54
REMARK SMILES IDX 82 55 49 56 33 57 34 58 42 59 35 60 37 61 43 62 36 63 38 64
REMARK SMILES IDX 39 65 40 66 41 67 65 68 66 69 74 70 67 71 69 72 75 73 68 74
REMARK SMILES IDX 70 75 71 76 72 77 73 78 50 79 51 80 59 81 52 82 54 83 60 84
REMARK SMILES IDX 53 85 55 86 56 87 57 88 58 89
REMARK H PARENT 80 42 48 53
REMARK Flexibility Score: inf
ROOT
ATOM      1  C   UNL A   1      31.592  30.275  25.648  1.00  0.00     0.275 C 
ENDROOT
BRANCH   1   2
ATOM      2  C   UNL A   1      31.535  28.894  24.995  1.00  0.00     0.275 C 
BRANCH   2   3
ATOM      3  O   UNL A   1      32.370  27.946  25.696  1.00  0.00    -0.459 OA
BRANCH   3   4
ATOM      4  C   UNL A   1      31.707  27.007  26.409  1.00  0.00     0.338 C 
ATOM      5  O   UNL A   1      30.863  27.206  27.270  1.00  0.00    -0.246 OA
BRANCH   4   6
ATOM      6  C   UNL A   1      32.138  25.653  26.020  1.00  0.00     0.087 C 
ATOM      7  C   UNL A   1      32.537  21.058  23.711  1.00  0.00     0.048 C 
ATOM      8  C   UNL A   1      33.463  22.049  24.353  1.00  0.00    -0.007 A 
ATOM      9  C   UNL A   1      34.844  21.782  24.340  1.00  0.00     0.027 A 
ATOM     10  C   UNL A   1      32.997  23.220  24.972  1.00  0.00     0.131 A 
ATOM     11  C   UNL A   1      35.743  22.668  24.928  1.00  0.00     0.042 A 
ATOM     12  C   UNL A   1      33.911  24.110  25.543  1.00  0.00     0.019 A 
ATOM     13  O   UNL A   1      31.645  23.430  25.003  1.00  0.00    -0.475 OA
ATOM     14  Cl  UNL A   1      37.428  22.328  24.893  1.00  0.00    -0.084 Cl
ATOM     15  C   UNL A   1      35.283  23.832  25.531  1.00  0.00     0.032 A 
ATOM     16  C   UNL A   1      33.439  25.359  26.105  1.00  0.00     0.027 C 
ATOM     17  C   UNL A   1      31.133  24.734  25.396  1.00  0.00     0.316 C 
BRANCH  17  18
ATOM     18  C   UNL A   1      30.449  25.383  24.182  1.00  0.00     0.430 C 
ATOM     19  F   UNL A   1      29.907  24.446  23.366  1.00  0.00    -0.167 F 
ATOM     20  F   UNL A   1      29.431  26.195  24.558  1.00  0.00    -0.167 F 
ATOM     21  F   UNL A   1      31.305  26.119  23.439  1.00  0.00    -0.167 F 
ENDBRANCH  17  18
ENDBRANCH   4   6
ENDBRANCH   3   4
ENDBRANCH   2   3
ENDBRANCH   1   2
BRANCH   1  22
ATOM     22  O   UNL A   1      32.375  30.227  26.853  1.00  0.00    -0.458 OA
BRANCH  22  23
ATOM     23  C   UNL A   1      33.024  31.372  27.160  1.00  0.00     0.338 C 
ATOM     24  O   UNL A   1      32.553  32.495  27.218  1.00  0.00    -0.246 OA
BRANCH  23  25
ATOM     25  C   UNL A   1      34.416  31.084  27.537  1.00  0.00     0.060 A 
ATOM     26  C   UNL A   1      34.784  29.759  27.727  1.00  0.00     0.016 A 
ATOM     27  C   UNL A   1      35.277  32.108  27.919  1.00  0.00     0.016 A 
ATOM     28  C   UNL A   1      35.913  29.455  28.478  1.00  0.00     0.010 A 
ATOM     29  C   UNL A   1      36.501  31.787  28.520  1.00  0.00     0.010 A 
ATOM     30  C   UNL A   1      36.807  30.460  28.870  1.00  0.00    -0.014 A 
BRANCH  30  31
ATOM     31  C   UNL A   1      38.031  30.116  29.656  1.00  0.00     0.031 A 
ATOM     32  C   UNL A   1      39.101  29.228  29.065  1.00  0.00     0.074 A 
ATOM     33  C   UNL A   1      38.199  30.611  30.902  1.00  0.00     0.049 A 
ATOM     34  N   UNL A   1      40.141  28.686  29.648  1.00  0.00    -0.248 NA
ATOM     35  C   UNL A   1      38.980  28.885  27.637  1.00  0.00     0.031 C 
ATOM     36  C   UNL A   1      37.266  31.505  31.592  1.00  0.00     0.029 A 
ATOM     37  N   UNL A   1      39.215  30.439  31.812  1.00  0.00    -0.354 N 
ATOM     38  C   UNL A   1      40.748  27.885  28.687  1.00  0.00     0.074 A 
ATOM     39  C   UNL A   1      39.961  28.006  27.480  1.00  0.00     0.031 C 
ATOM     40  C   UNL A   1      37.773  31.845  32.785  1.00  0.00     0.029 A 
ATOM     41  C   UNL A   1      39.007  31.103  33.001  1.00  0.00     0.049 A 
ATOM     42  H   UNL A   1      40.015  29.894  31.632  1.00  0.00     0.167 HD
ATOM     43  C   UNL A   1      41.867  27.129  28.795  1.00  0.00     0.034 A 
ATOM     44  C   UNL A   1      39.695  31.085  34.159  1.00  0.00     0.034 A 
ATOM     45  C   UNL A   1      42.692  27.078  29.973  1.00  0.00     0.049 A 
ATOM     46  C   UNL A   1      40.918  30.219  34.261  1.00  0.00     0.074 A 
ATOM     47  C   UNL A   1      43.867  26.372  30.167  1.00  0.00     0.029 A 
ATOM     48  N   UNL A   1      42.442  27.767  31.149  1.00  0.00    -0.354 N 
ATOM     49  N   UNL A   1      41.489  29.490  33.335  1.00  0.00    -0.248 NA
ATOM     50  C   UNL A   1      41.591  30.172  35.566  1.00  0.00     0.031 C 
ATOM     51  C   UNL A   1      44.311  26.613  31.470  1.00  0.00     0.029 A 
ATOM     52  C   UNL A   1      43.431  27.493  32.079  1.00  0.00     0.049 A 
ATOM     53  H   UNL A   1      41.674  28.366  31.302  1.00  0.00     0.167 HD
ATOM     54  C   UNL A   1      42.595  28.906  33.938  1.00  0.00     0.074 A 
ATOM     55  C   UNL A   1      42.634  29.396  35.301  1.00  0.00     0.031 C 
ATOM     56  C   UNL A   1      43.481  28.022  33.418  1.00  0.00     0.034 A 
BRANCH  43  57
ATOM     57  C   UNL A   1      42.296  26.311  27.601  1.00  0.00     0.023 A 
ATOM     58  C   UNL A   1      43.186  26.858  26.655  1.00  0.00     0.012 A 
ATOM     59  C   UNL A   1      41.891  24.966  27.466  1.00  0.00     0.148 A 
ATOM     60  C   UNL A   1      43.642  26.095  25.581  1.00  0.00     0.002 A 
ATOM     61  C   UNL A   1      42.388  24.196  26.420  1.00  0.00     0.091 A 
ATOM     62  F   UNL A   1      41.033  24.464  28.366  1.00  0.00    -0.205 F 
ATOM     63  C   UNL A   1      43.253  24.762  25.470  1.00  0.00     0.022 A 
BRANCH  61  64
ATOM     64  S   UNL A   1      42.021  22.446  26.238  1.00  0.00     0.127 S 
ATOM     65  O   UNL A   1      42.770  22.112  25.027  1.00  0.00    -0.237 OA
ATOM     66  O   UNL A   1      42.576  21.887  27.470  1.00  0.00    -0.237 OA
ATOM     67  O   UNL A   1      40.574  22.346  26.118  1.00  0.00    -0.744 OA
ENDBRANCH  61  64
ENDBRANCH  43  57
BRANCH  44  68
ATOM     68  C   UNL A   1      39.236  31.921  35.308  1.00  0.00     0.023 A 
ATOM     69  C   UNL A   1      38.372  31.360  36.267  1.00  0.00     0.012 A 
ATOM     70  C   UNL A   1      39.702  33.240  35.494  1.00  0.00     0.148 A 
ATOM     71  C   UNL A   1      37.970  32.098  37.382  1.00  0.00     0.002 A 
ATOM     72  C   UNL A   1      39.354  33.944  36.641  1.00  0.00     0.091 A 
ATOM     73  F   UNL A   1      40.508  33.766  34.561  1.00  0.00    -0.205 F 
ATOM     74  C   UNL A   1      38.474  33.382  37.578  1.00  0.00     0.022 A 
BRANCH  72  75
ATOM     75  S   UNL A   1      40.077  35.537  37.053  1.00  0.00     0.127 S 
ATOM     76  O   UNL A   1      39.494  35.799  38.366  1.00  0.00    -0.237 OA
ATOM     77  O   UNL A   1      41.507  35.222  37.065  1.00  0.00    -0.237 OA
ATOM     78  O   UNL A   1      39.670  36.443  35.989  1.00  0.00    -0.744 OA
ENDBRANCH  72  75
ENDBRANCH  44  68
BRANCH  56  79
ATOM     79  C   UNL A   1      44.580  27.518  34.318  1.00  0.00     0.023 A 
ATOM     80  C   UNL A   1      45.761  28.273  34.458  1.00  0.00     0.012 A 
ATOM     81  C   UNL A   1      44.398  26.363  35.105  1.00  0.00     0.148 A 
ATOM     82  C   UNL A   1      46.754  27.875  35.351  1.00  0.00     0.002 A 
ATOM     83  C   UNL A   1      45.368  26.002  36.031  1.00  0.00     0.091 A 
ATOM     84  F   UNL A   1      43.273  25.651  34.944  1.00  0.00    -0.205 F 
ATOM     85  C   UNL A   1      46.552  26.751  36.147  1.00  0.00     0.022 A 
BRANCH  83  86
ATOM     86  S   UNL A   1      45.155  24.634  37.175  1.00  0.00     0.127 S 
ATOM     87  O   UNL A   1      44.894  23.521  36.264  1.00  0.00    -0.237 OA
ATOM     88  O   UNL A   1      46.457  24.584  37.842  1.00  0.00    -0.237 OA
ATOM     89  O   UNL A   1      44.042  25.001  38.040  1.00  0.00    -0.744 OA
ENDBRANCH  83  86
ENDBRANCH  56  79
ENDBRANCH  30  31
ENDBRANCH  23  25
ENDBRANCH  22  23
ENDBRANCH   1  22
TORSDOF 15
ENDMDL
MODEL 3
REMARK VINA RESULT:     -12.5      1.559      1.902
REMARK SMILES Cc1cc(Cl)cc2c1O[C@H](C(F)(F)F)C(C(=O)OCCOC(=O)c1ccc(-c3c4nc(c(-c5cccc(S(=O)(=O)[O-])c5F)c5ccc([nH]5)c(-c5cccc(S(=O)(=O)[O-])c5F)c5nc(c(-c6cccc(S(=O)(=O)[O-])c6F)c6ccc3[nH]6)C=C5)C=C4)cc1)=C2
REMARK SMILES IDX 20 1 19 2 18 3 16 4 17 5 15 6 1 7 2 8 3 9 8 10 4 11 7 12
REMARK SMILES IDX 9 13 5 14 6 15 87 16 10 17 11 18 12 19 13 20 14 21 21 22
REMARK SMILES IDX 22 23 23 24 24 25 25 26 86 27 26 28 85 29 27 30 28 31 29 32
REMARK SMILES IDX 79 33 30 34 84 35 78 36 80 37 31 38 83 39 77 40 76 41 32 43
REMARK SMILES IDX 64 44 44 45 63 46 45 47 48 48 62 49 81 50 46 51 47 52 61 54
REMARK SMILES IDX 82 55 49 56 33 57 34 58 42 59 35 60 37 61 43 62 36 63 38 64
REMARK SMILES IDX 39 65 40 66 41 67 65 68 66 69 74 70 67 71 69 72 75 73 68 74
REMARK SMILES IDX 70 75 71 76 72 77 73 78 50 79 51 80 59 81 52 82 54 83 60 84
REMARK SMILES IDX 53 85 55 86 56 87 57 88 58 89
REMARK H PARENT 80 42 48 53
REMARK Flexibility Score: inf
ROOT
ATOM      1  C   UNL A   1      36.545  20.284  24.989  1.00  0.00     0.275 C 
ENDROOT
BRANCH   1   2
ATOM      2  C   UNL A   1      35.132  20.853  24.853  1.00  0.00     0.275 C 
BRANCH   2   3
ATOM      3  O   UNL A   1      34.975  22.062  25.627  1.00  0.00    -0.459 OA
BRANCH   3   4
ATOM      4  C   UNL A   1      33.758  22.646  25.546  1.00  0.00     0.338 C 
ATOM      5  O   UNL A   1      32.680  22.123  25.788  1.00  0.00    -0.246 OA
BRANCH   4   6
ATOM      6  C   UNL A   1      33.877  24.048  25.108  1.00  0.00     0.087 C 
ATOM      7  C   UNL A   1      33.850  28.376  22.303  1.00  0.00     0.048 C 
ATOM      8  C   UNL A   1      33.609  27.993  23.734  1.00  0.00    -0.007 A 
ATOM      9  C   UNL A   1      33.218  28.995  24.640  1.00  0.00     0.027 A 
ATOM     10  C   UNL A   1      33.773  26.678  24.196  1.00  0.00     0.131 A 
ATOM     11  C   UNL A   1      32.990  28.691  25.980  1.00  0.00     0.042 A 
ATOM     12  C   UNL A   1      33.523  26.380  25.539  1.00  0.00     0.019 A 
ATOM     13  O   UNL A   1      34.193  25.734  23.299  1.00  0.00    -0.475 OA
ATOM     14  Cl  UNL A   1      32.504  29.928  27.069  1.00  0.00    -0.084 Cl
ATOM     15  C   UNL A   1      33.141  27.386  26.435  1.00  0.00     0.032 A 
ATOM     16  C   UNL A   1      33.607  25.009  25.998  1.00  0.00     0.027 C 
ATOM     17  C   UNL A   1      34.128  24.325  23.658  1.00  0.00     0.316 C 
BRANCH  17  18
ATOM     18  C   UNL A   1      33.090  23.633  22.761  1.00  0.00     0.430 C 
ATOM     19  F   UNL A   1      33.075  24.178  21.519  1.00  0.00    -0.167 F 
ATOM     20  F   UNL A   1      33.372  22.318  22.595  1.00  0.00    -0.167 F 
ATOM     21  F   UNL A   1      31.837  23.722  23.257  1.00  0.00    -0.167 F 
ENDBRANCH  17  18
ENDBRANCH   4   6
ENDBRANCH   3   4
ENDBRANCH   2   3
ENDBRANCH   1   2
BRANCH   1  22
ATOM     22  O   UNL A   1      37.506  21.349  25.085  1.00  0.00    -0.458 OA
BRANCH  22  23
ATOM     23  C   UNL A   1      38.652  21.030  25.727  1.00  0.00     0.338 C 
ATOM     24  O   UNL A   1      39.269  19.981  25.659  1.00  0.00    -0.246 OA
BRANCH  23  25
ATOM     25  C   UNL A   1      39.156  22.190  26.478  1.00  0.00     0.060 A 
ATOM     26  C   UNL A   1      38.631  23.441  26.184  1.00  0.00     0.016 A 
ATOM     27  C   UNL A   1      40.282  22.079  27.287  1.00  0.00     0.016 A 
ATOM     28  C   UNL A   1      39.339  24.587  26.526  1.00  0.00     0.010 A 
ATOM     29  C   UNL A   1      40.891  23.241  27.778  1.00  0.00     0.010 A 
ATOM     30  C   UNL A   1      40.470  24.513  27.349  1.00  0.00    -0.014 A 
BRANCH  30  31
ATOM     31  C   UNL A   1      41.208  25.756  27.730  1.00  0.00     0.031 A 
ATOM     32  C   UNL A   1      40.536  26.826  28.559  1.00  0.00     0.074 A 
ATOM     33  C   UNL A   1      42.492  25.927  27.348  1.00  0.00     0.049 A 
ATOM     34  N   UNL A   1      40.953  28.034  28.842  1.00  0.00    -0.248 NA
ATOM     35  C   UNL A   1      39.216  26.507  29.130  1.00  0.00     0.031 C 
ATOM     36  C   UNL A   1      43.281  24.968  26.571  1.00  0.00     0.029 A 
ATOM     37  N   UNL A   1      43.368  26.966  27.562  1.00  0.00    -0.354 N 
ATOM     38  C   UNL A   1      39.921  28.641  29.551  1.00  0.00     0.074 A 
ATOM     39  C   UNL A   1      38.855  27.671  29.656  1.00  0.00     0.031 C 
ATOM     40  C   UNL A   1      44.528  25.432  26.421  1.00  0.00     0.029 A 
ATOM     41  C   UNL A   1      44.602  26.773  26.984  1.00  0.00     0.049 A 
ATOM     42  H   UNL A   1      43.134  27.770  28.080  1.00  0.00     0.167 HD
ATOM     43  C   UNL A   1      39.873  29.888  30.081  1.00  0.00     0.034 A 
ATOM     44  C   UNL A   1      45.665  27.593  26.866  1.00  0.00     0.034 A 
ATOM     45  C   UNL A   1      40.969  30.819  30.045  1.00  0.00     0.049 A 
ATOM     46  C   UNL A   1      45.576  28.979  27.439  1.00  0.00     0.074 A 
ATOM     47  C   UNL A   1      41.031  32.091  30.587  1.00  0.00     0.029 A 
ATOM     48  N   UNL A   1      42.198  30.579  29.451  1.00  0.00    -0.354 N 
ATOM     49  N   UNL A   1      44.603  29.523  28.128  1.00  0.00    -0.248 NA
ATOM     50  C   UNL A   1      46.729  29.863  27.220  1.00  0.00     0.031 C 
ATOM     51  C   UNL A   1      42.287  32.630  30.295  1.00  0.00     0.029 A 
ATOM     52  C   UNL A   1      43.020  31.683  29.599  1.00  0.00     0.049 A 
ATOM     53  H   UNL A   1      42.450  29.744  28.991  1.00  0.00     0.167 HD
ATOM     54  C   UNL A   1      45.028  30.809  28.436  1.00  0.00     0.074 A 
ATOM     55  C   UNL A   1      46.363  30.949  27.890  1.00  0.00     0.031 C 
ATOM     56  C   UNL A   1      44.363  31.793  29.087  1.00  0.00     0.034 A 
BRANCH  43  57
ATOM     57  C   UNL A   1      38.605  30.320  30.777  1.00  0.00     0.023 A 
ATOM     58  C   UNL A   1      38.436  30.069  32.153  1.00  0.00     0.012 A 
ATOM     59  C   UNL A   1      37.621  31.060  30.087  1.00  0.00     0.148 A 
ATOM     60  C   UNL A   1      37.299  30.518  32.825  1.00  0.00     0.002 A 
ATOM     61  C   UNL A   1      36.514  31.547  30.774  1.00  0.00     0.091 A 
ATOM     62  F   UNL A   1      37.790  31.279  28.775  1.00  0.00    -0.205 F 
ATOM     63  C   UNL A   1      36.346  31.266  32.139  1.00  0.00     0.022 A 
BRANCH  61  64
ATOM     64  S   UNL A   1      35.274  32.597  30.005  1.00  0.00     0.127 S 
ATOM     65  O   UNL A   1      34.800  31.744  28.917  1.00  0.00    -0.237 OA
ATOM     66  O   UNL A   1      34.315  32.785  31.094  1.00  0.00    -0.237 OA
ATOM     67  O   UNL A   1      35.969  33.806  29.588  1.00  0.00    -0.744 OA
ENDBRANCH  61  64
ENDBRANCH  43  57
BRANCH  44  68
ATOM     68  C   UNL A   1      46.900  27.113  26.179  1.00  0.00     0.023 A 
ATOM     69  C   UNL A   1      47.088  27.407  24.814  1.00  0.00     0.012 A 
ATOM     70  C   UNL A   1      47.918  26.432  26.879  1.00  0.00     0.148 A 
ATOM     71  C   UNL A   1      48.258  27.021  24.158  1.00  0.00     0.002 A 
ATOM     72  C   UNL A   1      49.109  26.113  26.237  1.00  0.00     0.091 A 
ATOM     73  F   UNL A   1      47.715  26.144  28.172  1.00  0.00    -0.205 F 
ATOM     74  C   UNL A   1      49.274  26.391  24.872  1.00  0.00     0.022 A 
BRANCH  72  75
ATOM     75  S   UNL A   1      50.529  25.445  27.113  1.00  0.00     0.127 S 
ATOM     76  O   UNL A   1      51.474  25.220  26.022  1.00  0.00    -0.237 OA
ATOM     77  O   UNL A   1      50.874  26.548  28.010  1.00  0.00    -0.237 OA
ATOM     78  O   UNL A   1      50.049  24.248  27.788  1.00  0.00    -0.744 OA
ENDBRANCH  72  75
ENDBRANCH  44  68
BRANCH  56  79
ATOM     79  C   UNL A   1      45.058  33.119  29.255  1.00  0.00     0.023 A 
ATOM     80  C   UNL A   1      45.860  33.341  30.392  1.00  0.00     0.012 A 
ATOM     81  C   UNL A   1      45.008  34.096  28.240  1.00  0.00     0.148 A 
ATOM     82  C   UNL A   1      46.584  34.525  30.527  1.00  0.00     0.002 A 
ATOM     83  C   UNL A   1      45.774  35.248  28.356  1.00  0.00     0.091 A 
ATOM     84  F   UNL A   1      44.227  33.870  27.173  1.00  0.00    -0.205 F 
ATOM     85  C   UNL A   1      46.554  35.470  29.505  1.00  0.00     0.022 A 
BRANCH  83  86
ATOM     86  S   UNL A   1      45.887  36.474  27.048  1.00  0.00     0.127 S 
ATOM     87  O   UNL A   1      46.276  35.653  25.903  1.00  0.00    -0.237 OA
ATOM     88  O   UNL A   1      44.518  36.989  26.990  1.00  0.00    -0.237 OA
ATOM     89  O   UNL A   1      46.883  37.442  27.485  1.00  0.00    -0.744 OA
ENDBRANCH  83  86
ENDBRANCH  56  79
ENDBRANCH  30  31
ENDBRANCH  23  25
ENDBRANCH  22  23
ENDBRANCH   1  22
TORSDOF 15
ENDMDL
