MODEL 1
REMARK VINA RESULT:     -11.6      0.000      0.000
REMARK SMILES O=C(Cc1ccc(F)c(F)c1)NC1(C(=O)OCCOC(=O)c2ccc(-c3c4nc(c(-c5cccc(S(=O)(=O)[O-])c5F)c5ccc([nH]5)c(-c5cccc(S(=O)(=O)[O-])c5F)c5nc(c(-c6cccc(S(=O)(=O)[O-])c6F)c6ccc3[nH]6)C=C5)C=C4)cc2)CCCC1
REMARK SMILES IDX 17 1 16 2 14 3 15 4 13 5 85 6 88 7 86 8 87 9 12 10 1 11 2 12
REMARK SMILES IDX 3 14 4 15 5 16 11 17 6 18 9 19 7 20 10 21 8 22 18 23 19 24
REMARK SMILES IDX 20 25 21 26 22 27 23 28 84 29 24 30 83 31 25 32 26 33 27 34
REMARK SMILES IDX 77 35 28 36 82 37 76 38 78 39 29 40 81 41 75 42 74 43 30 45
REMARK SMILES IDX 62 46 42 47 61 48 43 49 46 50 60 51 79 52 44 53 45 54 59 56
REMARK SMILES IDX 80 57 47 58 31 59 32 60 40 61 33 62 35 63 41 64 34 65 36 66
REMARK SMILES IDX 37 67 38 68 39 69 63 70 64 71 72 72 65 73 67 74 73 75 66 76
REMARK SMILES IDX 68 77 69 78 70 79 71 80 48 81 49 82 57 83 50 84 52 85 58 86
REMARK SMILES IDX 51 87 53 88 54 89 55 90 56 91
REMARK H PARENT 12 13 78 44 46 55
REMARK Flexibility Score: inf
ROOT
ATOM      1  C   UNL A   1      30.996  31.163  25.489  1.00  0.00     0.274 C 
ENDROOT
BRANCH   1   2
ATOM      2  O   UNL A   1      31.979  30.206  25.038  1.00  0.00    -0.460 OA
BRANCH   2   3
ATOM      3  C   UNL A   1      31.527  28.975  24.638  1.00  0.00     0.331 C 
ATOM      4  O   UNL A   1      30.473  28.796  24.037  1.00  0.00    -0.249 OA
BRANCH   3   5
ATOM      5  C   UNL A   1      32.417  27.816  25.221  1.00  0.00     0.138 C 
ATOM      6  C   UNL A   1      31.485  27.011  26.160  1.00  0.00     0.040 C 
ATOM      7  C   UNL A   1      33.507  28.297  26.205  1.00  0.00     0.040 C 
ATOM      8  C   UNL A   1      31.458  27.781  27.463  1.00  0.00     0.003 C 
ATOM      9  C   UNL A   1      32.842  28.403  27.584  1.00  0.00     0.003 C 
BRANCH   5  10
ATOM     10  N   UNL A   1      32.972  26.804  24.293  1.00  0.00    -0.340 N 
ATOM     11  O   UNL A   1      34.049  25.393  25.723  1.00  0.00    -0.275 OA
ATOM     12  C   UNL A   1      33.655  25.653  24.594  1.00  0.00     0.225 C 
ATOM     13  H   UNL A   1      32.833  26.982  23.334  1.00  0.00     0.164 HD
BRANCH  12  14
ATOM     14  C   UNL A   1      33.935  24.756  23.374  1.00  0.00     0.135 C 
BRANCH  14  15
ATOM     15  C   UNL A   1      34.070  23.278  23.704  1.00  0.00    -0.036 A 
ATOM     16  C   UNL A   1      35.304  22.754  24.130  1.00  0.00     0.007 A 
ATOM     17  C   UNL A   1      32.978  22.401  23.630  1.00  0.00     0.046 A 
ATOM     18  C   UNL A   1      35.406  21.444  24.618  1.00  0.00     0.043 A 
ATOM     19  C   UNL A   1      33.086  21.095  24.104  1.00  0.00     0.159 A 
ATOM     20  C   UNL A   1      34.284  20.628  24.626  1.00  0.00     0.158 A 
ATOM     21  F   UNL A   1      32.004  20.302  24.072  1.00  0.00    -0.204 F 
ATOM     22  F   UNL A   1      34.357  19.394  25.141  1.00  0.00    -0.204 F 
ENDBRANCH  14  15
ENDBRANCH  12  14
ENDBRANCH   5  10
ENDBRANCH   3   5
ENDBRANCH   2   3
ENDBRANCH   1   2
BRANCH   1  23
ATOM     23  C   UNL A   1      31.409  31.789  26.825  1.00  0.00     0.275 C 
BRANCH  23  24
ATOM     24  O   UNL A   1      32.840  31.744  26.963  1.00  0.00    -0.458 OA
BRANCH  24  25
ATOM     25  C   UNL A   1      33.368  32.826  27.592  1.00  0.00     0.338 C 
ATOM     26  O   UNL A   1      32.795  33.864  27.850  1.00  0.00    -0.246 OA
BRANCH  25  27
ATOM     27  C   UNL A   1      34.704  32.491  28.131  1.00  0.00     0.060 A 
ATOM     28  C   UNL A   1      34.789  31.270  28.789  1.00  0.00     0.016 A 
ATOM     29  C   UNL A   1      35.839  33.303  28.017  1.00  0.00     0.016 A 
ATOM     30  C   UNL A   1      36.009  30.851  29.303  1.00  0.00     0.010 A 
ATOM     31  C   UNL A   1      37.074  32.864  28.541  1.00  0.00     0.010 A 
ATOM     32  C   UNL A   1      37.172  31.617  29.173  1.00  0.00    -0.014 A 
BRANCH  32  33
ATOM     33  C   UNL A   1      38.424  31.059  29.761  1.00  0.00     0.031 A 
ATOM     34  C   UNL A   1      38.810  31.431  31.166  1.00  0.00     0.074 A 
ATOM     35  C   UNL A   1      39.108  30.063  29.161  1.00  0.00     0.049 A 
ATOM     36  N   UNL A   1      39.694  30.871  31.953  1.00  0.00    -0.248 NA
ATOM     37  C   UNL A   1      38.066  32.541  31.778  1.00  0.00     0.031 C 
ATOM     38  C   UNL A   1      38.802  29.483  27.858  1.00  0.00     0.029 A 
ATOM     39  N   UNL A   1      40.189  29.331  29.610  1.00  0.00    -0.354 N 
ATOM     40  C   UNL A   1      39.587  31.530  33.169  1.00  0.00     0.074 A 
ATOM     41  C   UNL A   1      38.562  32.544  33.009  1.00  0.00     0.031 C 
ATOM     42  C   UNL A   1      39.682  28.498  27.602  1.00  0.00     0.029 A 
ATOM     43  C   UNL A   1      40.628  28.383  28.714  1.00  0.00     0.049 A 
ATOM     44  H   UNL A   1      40.607  29.474  30.489  1.00  0.00     0.167 HD
ATOM     45  C   UNL A   1      40.256  31.307  34.324  1.00  0.00     0.034 A 
ATOM     46  C   UNL A   1      41.674  27.529  28.772  1.00  0.00     0.034 A 
ATOM     47  C   UNL A   1      41.333  30.372  34.507  1.00  0.00     0.049 A 
ATOM     48  C   UNL A   1      42.550  27.466  30.001  1.00  0.00     0.074 A 
ATOM     49  C   UNL A   1      42.087  30.150  35.648  1.00  0.00     0.029 A 
ATOM     50  N   UNL A   1      41.846  29.540  33.529  1.00  0.00    -0.354 N 
ATOM     51  N   UNL A   1      42.367  28.010  31.179  1.00  0.00    -0.248 NA
ATOM     52  C   UNL A   1      43.771  26.644  29.912  1.00  0.00     0.031 C 
ATOM     53  C   UNL A   1      43.081  29.211  35.350  1.00  0.00     0.029 A 
ATOM     54  C   UNL A   1      42.929  28.830  34.028  1.00  0.00     0.049 A 
ATOM     55  H   UNL A   1      41.494  29.463  32.612  1.00  0.00     0.167 HD
ATOM     56  C   UNL A   1      43.433  27.583  31.970  1.00  0.00     0.074 A 
ATOM     57  C   UNL A   1      44.236  26.700  31.152  1.00  0.00     0.031 C 
ATOM     58  C   UNL A   1      43.727  27.916  33.252  1.00  0.00     0.034 A 
BRANCH  45  59
ATOM     59  C   UNL A   1      39.824  32.102  35.520  1.00  0.00     0.023 A 
ATOM     60  C   UNL A   1      40.307  33.417  35.674  1.00  0.00     0.012 A 
ATOM     61  C   UNL A   1      38.900  31.581  36.441  1.00  0.00     0.148 A 
ATOM     62  C   UNL A   1      39.873  34.204  36.738  1.00  0.00     0.002 A 
ATOM     63  C   UNL A   1      38.455  32.380  37.484  1.00  0.00     0.091 A 
ATOM     64  F   UNL A   1      38.484  30.317  36.282  1.00  0.00    -0.205 F 
ATOM     65  C   UNL A   1      38.942  33.690  37.636  1.00  0.00     0.022 A 
BRANCH  63  66
ATOM     66  S   UNL A   1      37.222  31.822  38.664  1.00  0.00     0.127 S 
ATOM     67  O   UNL A   1      36.980  30.453  38.209  1.00  0.00    -0.237 OA
ATOM     68  O   UNL A   1      37.941  31.927  39.934  1.00  0.00    -0.237 OA
ATOM     69  O   UNL A   1      36.095  32.734  38.526  1.00  0.00    -0.744 OA
ENDBRANCH  63  66
ENDBRANCH  45  59
BRANCH  46  70
ATOM     70  C   UNL A   1      41.997  26.655  27.605  1.00  0.00     0.023 A 
ATOM     71  C   UNL A   1      42.622  27.196  26.465  1.00  0.00     0.012 A 
ATOM     72  C   UNL A   1      41.619  25.297  27.601  1.00  0.00     0.148 A 
ATOM     73  C   UNL A   1      42.834  26.408  25.331  1.00  0.00     0.002 A 
ATOM     74  C   UNL A   1      41.890  24.505  26.493  1.00  0.00     0.091 A 
ATOM     75  F   UNL A   1      40.976  24.812  28.672  1.00  0.00    -0.205 F 
ATOM     76  C   UNL A   1      42.480  25.062  25.349  1.00  0.00     0.022 A 
BRANCH  74  77
ATOM     77  S   UNL A   1      41.570  22.740  26.492  1.00  0.00     0.127 S 
ATOM     78  O   UNL A   1      40.113  22.699  26.407  1.00  0.00    -0.237 OA
ATOM     79  O   UNL A   1      42.271  22.303  25.284  1.00  0.00    -0.237 OA
ATOM     80  O   UNL A   1      42.151  22.241  27.732  1.00  0.00    -0.744 OA
ENDBRANCH  74  77
ENDBRANCH  46  70
BRANCH  58  81
ATOM     81  C   UNL A   1      44.979  27.341  33.876  1.00  0.00     0.023 A 
ATOM     82  C   UNL A   1      46.179  28.082  33.829  1.00  0.00     0.012 A 
ATOM     83  C   UNL A   1      44.964  26.111  34.565  1.00  0.00     0.148 A 
ATOM     84  C   UNL A   1      47.345  27.594  34.423  1.00  0.00     0.002 A 
ATOM     85  C   UNL A   1      46.120  25.652  35.195  1.00  0.00     0.091 A 
ATOM     86  F   UNL A   1      43.825  25.403  34.590  1.00  0.00    -0.205 F 
ATOM     87  C   UNL A   1      47.314  26.387  35.114  1.00  0.00     0.022 A 
BRANCH  85  88
ATOM     88  S   UNL A   1      46.151  24.152  36.186  1.00  0.00     0.127 S 
ATOM     89  O   UNL A   1      45.772  23.137  35.205  1.00  0.00    -0.237 OA
ATOM     90  O   UNL A   1      47.548  24.089  36.618  1.00  0.00    -0.237 OA
ATOM     91  O   UNL A   1      45.198  24.370  37.265  1.00  0.00    -0.744 OA
ENDBRANCH  85  88
ENDBRANCH  58  81
ENDBRANCH  32  33
ENDBRANCH  25  27
ENDBRANCH  24  25
ENDBRANCH  23  24
ENDBRANCH   1  23
TORSDOF 17
ENDMDL
MODEL 2
REMARK VINA RESULT:     -11.4      1.716      2.229
REMARK SMILES O=C(Cc1ccc(F)c(F)c1)NC1(C(=O)OCCOC(=O)c2ccc(-c3c4nc(c(-c5cccc(S(=O)(=O)[O-])c5F)c5ccc([nH]5)c(-c5cccc(S(=O)(=O)[O-])c5F)c5nc(c(-c6cccc(S(=O)(=O)[O-])c6F)c6ccc3[nH]6)C=C5)C=C4)cc2)CCCC1
REMARK SMILES IDX 17 1 16 2 14 3 15 4 13 5 85 6 88 7 86 8 87 9 12 10 1 11 2 12
REMARK SMILES IDX 3 14 4 15 5 16 11 17 6 18 9 19 7 20 10 21 8 22 18 23 19 24
REMARK SMILES IDX 20 25 21 26 22 27 23 28 84 29 24 30 83 31 25 32 26 33 27 34
REMARK SMILES IDX 77 35 28 36 82 37 76 38 78 39 29 40 81 41 75 42 74 43 30 45
REMARK SMILES IDX 62 46 42 47 61 48 43 49 46 50 60 51 79 52 44 53 45 54 59 56
REMARK SMILES IDX 80 57 47 58 31 59 32 60 40 61 33 62 35 63 41 64 34 65 36 66
REMARK SMILES IDX 37 67 38 68 39 69 63 70 64 71 72 72 65 73 67 74 73 75 66 76
REMARK SMILES IDX 68 77 69 78 70 79 71 80 48 81 49 82 57 83 50 84 52 85 58 86
REMARK SMILES IDX 51 87 53 88 54 89 55 90 56 91
REMARK H PARENT 12 13 78 44 46 55
REMARK Flexibility Score: inf
ROOT
ATOM      1  C   UNL A   1      33.305  29.412  24.994  1.00  0.00     0.274 C 
ENDROOT
BRANCH   1   2
ATOM      2  O   UNL A   1      33.096  27.993  24.823  1.00  0.00    -0.460 OA
BRANCH   2   3
ATOM      3  C   UNL A   1      33.040  27.512  23.540  1.00  0.00     0.331 C 
ATOM      4  O   UNL A   1      33.775  27.892  22.635  1.00  0.00    -0.249 OA
BRANCH   3   5
ATOM      5  C   UNL A   1      31.794  26.574  23.329  1.00  0.00     0.138 C 
ATOM      6  C   UNL A   1      31.140  27.047  22.007  1.00  0.00     0.040 C 
ATOM      7  C   UNL A   1      30.652  26.813  24.342  1.00  0.00     0.040 C 
ATOM      8  C   UNL A   1      30.299  28.250  22.378  1.00  0.00     0.003 C 
ATOM      9  C   UNL A   1      29.805  27.968  23.790  1.00  0.00     0.003 C 
BRANCH   5  10
ATOM     10  N   UNL A   1      32.015  25.124  23.136  1.00  0.00    -0.340 N 
ATOM     11  O   UNL A   1      33.295  25.090  21.249  1.00  0.00    -0.275 OA
ATOM     12  C   UNL A   1      32.793  24.497  22.194  1.00  0.00     0.225 C 
ATOM     13  H   UNL A   1      31.542  24.531  23.765  1.00  0.00     0.164 HD
BRANCH  12  14
ATOM     14  C   UNL A   1      32.917  22.976  22.400  1.00  0.00     0.135 C 
BRANCH  14  15
ATOM     15  C   UNL A   1      33.984  22.568  23.405  1.00  0.00    -0.036 A 
ATOM     16  C   UNL A   1      33.785  21.456  24.243  1.00  0.00     0.007 A 
ATOM     17  C   UNL A   1      35.202  23.256  23.510  1.00  0.00     0.046 A 
ATOM     18  C   UNL A   1      34.823  20.952  25.037  1.00  0.00     0.043 A 
ATOM     19  C   UNL A   1      36.228  22.759  24.311  1.00  0.00     0.159 A 
ATOM     20  C   UNL A   1      36.052  21.595  25.045  1.00  0.00     0.158 A 
ATOM     21  F   UNL A   1      37.400  23.411  24.341  1.00  0.00    -0.204 F 
ATOM     22  F   UNL A   1      37.067  21.090  25.759  1.00  0.00    -0.204 F 
ENDBRANCH  14  15
ENDBRANCH  12  14
ENDBRANCH   5  10
ENDBRANCH   3   5
ENDBRANCH   2   3
ENDBRANCH   1   2
BRANCH   1  23
ATOM     23  C   UNL A   1      32.099  30.068  25.674  1.00  0.00     0.275 C 
BRANCH  23  24
ATOM     24  O   UNL A   1      32.410  30.357  27.048  1.00  0.00    -0.458 OA
BRANCH  24  25
ATOM     25  C   UNL A   1      32.976  31.577  27.240  1.00  0.00     0.338 C 
ATOM     26  O   UNL A   1      32.436  32.655  27.105  1.00  0.00    -0.246 OA
BRANCH  25  27
ATOM     27  C   UNL A   1      34.309  31.418  27.861  1.00  0.00     0.060 A 
ATOM     28  C   UNL A   1      34.594  30.145  28.339  1.00  0.00     0.016 A 
ATOM     29  C   UNL A   1      35.260  32.438  27.986  1.00  0.00     0.016 A 
ATOM     30  C   UNL A   1      35.832  29.887  28.911  1.00  0.00     0.010 A 
ATOM     31  C   UNL A   1      36.516  32.163  28.567  1.00  0.00     0.010 A 
ATOM     32  C   UNL A   1      36.821  30.871  29.016  1.00  0.00    -0.014 A 
BRANCH  32  33
ATOM     33  C   UNL A   1      38.113  30.472  29.644  1.00  0.00     0.031 A 
ATOM     34  C   UNL A   1      38.408  30.892  31.058  1.00  0.00     0.074 A 
ATOM     35  C   UNL A   1      38.933  29.568  29.071  1.00  0.00     0.049 A 
ATOM     36  N   UNL A   1      39.330  30.446  31.875  1.00  0.00    -0.248 NA
ATOM     37  C   UNL A   1      37.515  31.902  31.643  1.00  0.00     0.031 C 
ATOM     38  C   UNL A   1      38.740  28.953  27.762  1.00  0.00     0.029 A 
ATOM     39  N   UNL A   1      40.081  28.975  29.555  1.00  0.00    -0.354 N 
ATOM     40  C   UNL A   1      39.105  31.088  33.084  1.00  0.00     0.074 A 
ATOM     41  C   UNL A   1      37.969  31.968  32.888  1.00  0.00     0.031 C 
ATOM     42  C   UNL A   1      39.743  28.084  27.537  1.00  0.00     0.029 A 
ATOM     43  C   UNL A   1      40.661  28.088  28.678  1.00  0.00     0.049 A 
ATOM     44  H   UNL A   1      40.452  29.170  30.446  1.00  0.00     0.167 HD
ATOM     45  C   UNL A   1      39.761  30.951  34.259  1.00  0.00     0.034 A 
ATOM     46  C   UNL A   1      41.802  27.370  28.771  1.00  0.00     0.034 A 
ATOM     47  C   UNL A   1      40.940  30.157  34.479  1.00  0.00     0.049 A 
ATOM     48  C   UNL A   1      42.641  27.417  30.027  1.00  0.00     0.074 A 
ATOM     49  C   UNL A   1      41.680  30.031  35.644  1.00  0.00     0.029 A 
ATOM     50  N   UNL A   1      41.581  29.393  33.521  1.00  0.00    -0.354 N 
ATOM     51  N   UNL A   1      42.357  27.936  31.195  1.00  0.00    -0.248 NA
ATOM     52  C   UNL A   1      43.957  26.752  29.978  1.00  0.00     0.031 C 
ATOM     53  C   UNL A   1      42.791  29.222  35.380  1.00  0.00     0.029 A 
ATOM     54  C   UNL A   1      42.727  28.822  34.056  1.00  0.00     0.049 A 
ATOM     55  H   UNL A   1      41.269  29.272  32.595  1.00  0.00     0.167 HD
ATOM     56  C   UNL A   1      43.444  27.644  32.020  1.00  0.00     0.074 A 
ATOM     57  C   UNL A   1      44.374  26.867  31.231  1.00  0.00     0.031 C 
ATOM     58  C   UNL A   1      43.655  28.013  33.309  1.00  0.00     0.034 A 
BRANCH  45  59
ATOM     59  C   UNL A   1      39.199  31.688  35.438  1.00  0.00     0.023 A 
ATOM     60  C   UNL A   1      38.268  31.033  36.269  1.00  0.00     0.012 A 
ATOM     61  C   UNL A   1      39.637  32.984  35.759  1.00  0.00     0.148 A 
ATOM     62  C   UNL A   1      37.778  31.666  37.409  1.00  0.00     0.002 A 
ATOM     63  C   UNL A   1      39.162  33.597  36.909  1.00  0.00     0.091 A 
ATOM     64  F   UNL A   1      40.500  33.589  34.931  1.00  0.00    -0.205 F 
ATOM     65  C   UNL A   1      38.231  32.942  37.733  1.00  0.00     0.022 A 
BRANCH  63  66
ATOM     66  S   UNL A   1      39.722  35.220  37.434  1.00  0.00     0.127 S 
ATOM     67  O   UNL A   1      39.276  36.058  36.321  1.00  0.00    -0.237 OA
ATOM     68  O   UNL A   1      38.981  35.414  38.681  1.00  0.00    -0.237 OA
ATOM     69  O   UNL A   1      41.165  35.113  37.595  1.00  0.00    -0.744 OA
ENDBRANCH  63  66
ENDBRANCH  45  59
BRANCH  46  70
ATOM     70  C   UNL A   1      42.266  26.540  27.620  1.00  0.00     0.023 A 
ATOM     71  C   UNL A   1      42.984  27.133  26.563  1.00  0.00     0.012 A 
ATOM     72  C   UNL A   1      41.932  25.174  27.540  1.00  0.00     0.148 A 
ATOM     73  C   UNL A   1      43.332  26.386  25.435  1.00  0.00     0.002 A 
ATOM     74  C   UNL A   1      42.335  24.423  26.443  1.00  0.00     0.091 A 
ATOM     75  F   UNL A   1      41.200  24.639  28.527  1.00  0.00    -0.205 F 
ATOM     76  C   UNL A   1      43.019  25.031  25.380  1.00  0.00     0.022 A 
BRANCH  74  77
ATOM     77  S   UNL A   1      42.071  22.650  26.362  1.00  0.00     0.127 S 
ATOM     78  O   UNL A   1      42.803  22.184  27.537  1.00  0.00    -0.237 OA
ATOM     79  O   UNL A   1      40.614  22.554  26.465  1.00  0.00    -0.237 OA
ATOM     80  O   UNL A   1      42.607  22.239  25.072  1.00  0.00    -0.744 OA
ENDBRANCH  74  77
ENDBRANCH  46  70
BRANCH  58  81
ATOM     81  C   UNL A   1      44.949  27.598  33.973  1.00  0.00     0.023 A 
ATOM     82  C   UNL A   1      46.056  28.472  33.939  1.00  0.00     0.012 A 
ATOM     83  C   UNL A   1      45.059  26.386  34.685  1.00  0.00     0.148 A 
ATOM     84  C   UNL A   1      47.255  28.133  34.569  1.00  0.00     0.002 A 
ATOM     85  C   UNL A   1      46.244  26.076  35.351  1.00  0.00     0.091 A 
ATOM     86  F   UNL A   1      44.009  25.551  34.698  1.00  0.00    -0.205 F 
ATOM     87  C   UNL A   1      47.346  26.943  35.283  1.00  0.00     0.022 A 
BRANCH  85  88
ATOM     88  S   UNL A   1      46.423  24.606  36.371  1.00  0.00     0.127 S 
ATOM     89  O   UNL A   1      46.319  23.538  35.380  1.00  0.00    -0.237 OA
ATOM     90  O   UNL A   1      47.760  24.780  36.942  1.00  0.00    -0.237 OA
ATOM     91  O   UNL A   1      45.342  24.666  37.346  1.00  0.00    -0.744 OA
ENDBRANCH  85  88
ENDBRANCH  58  81
ENDBRANCH  32  33
ENDBRANCH  25  27
ENDBRANCH  24  25
ENDBRANCH  23  24
ENDBRANCH   1  23
TORSDOF 17
ENDMDL
MODEL 3
REMARK VINA RESULT:     -11.3      5.324     10.411
REMARK SMILES O=C(Cc1ccc(F)c(F)c1)NC1(C(=O)OCCOC(=O)c2ccc(-c3c4nc(c(-c5cccc(S(=O)(=O)[O-])c5F)c5ccc([nH]5)c(-c5cccc(S(=O)(=O)[O-])c5F)c5nc(c(-c6cccc(S(=O)(=O)[O-])c6F)c6ccc3[nH]6)C=C5)C=C4)cc2)CCCC1
REMARK SMILES IDX 17 1 16 2 14 3 15 4 13 5 85 6 88 7 86 8 87 9 12 10 1 11 2 12
REMARK SMILES IDX 3 14 4 15 5 16 11 17 6 18 9 19 7 20 10 21 8 22 18 23 19 24
REMARK SMILES IDX 20 25 21 26 22 27 23 28 84 29 24 30 83 31 25 32 26 33 27 34
REMARK SMILES IDX 77 35 28 36 82 37 76 38 78 39 29 40 81 41 75 42 74 43 30 45
REMARK SMILES IDX 62 46 42 47 61 48 43 49 46 50 60 51 79 52 44 53 45 54 59 56
REMARK SMILES IDX 80 57 47 58 31 59 32 60 40 61 33 62 35 63 41 64 34 65 36 66
REMARK SMILES IDX 37 67 38 68 39 69 63 70 64 71 72 72 65 73 67 74 73 75 66 76
REMARK SMILES IDX 68 77 69 78 70 79 71 80 48 81 49 82 57 83 50 84 52 85 58 86
REMARK SMILES IDX 51 87 53 88 54 89 55 90 56 91
REMARK H PARENT 12 13 78 44 46 55
REMARK Flexibility Score: inf
ROOT
ATOM      1  C   UNL A   1      36.229  20.644  25.016  1.00  0.00     0.274 C 
ENDROOT
BRANCH   1   2
ATOM      2  O   UNL A   1      35.776  21.979  24.704  1.00  0.00    -0.460 OA
BRANCH   2   3
ATOM      3  C   UNL A   1      34.870  22.556  25.556  1.00  0.00     0.331 C 
ATOM      4  O   UNL A   1      34.918  22.451  26.776  1.00  0.00    -0.249 OA
BRANCH   3   5
ATOM      5  C   UNL A   1      33.661  23.188  24.772  1.00  0.00     0.138 C 
ATOM      6  C   UNL A   1      32.391  22.728  25.529  1.00  0.00     0.040 C 
ATOM      7  C   UNL A   1      33.429  22.571  23.374  1.00  0.00     0.040 C 
ATOM      8  C   UNL A   1      32.110  21.325  25.033  1.00  0.00     0.003 C 
ATOM      9  C   UNL A   1      32.567  21.319  23.581  1.00  0.00     0.003 C 
BRANCH   5  10
ATOM     10  N   UNL A   1      33.542  24.663  24.709  1.00  0.00    -0.340 N 
ATOM     11  O   UNL A   1      34.060  25.085  22.530  1.00  0.00    -0.275 OA
ATOM     12  C   UNL A   1      33.660  25.483  23.616  1.00  0.00     0.225 C 
ATOM     13  H   UNL A   1      33.354  25.113  25.565  1.00  0.00     0.164 HD
BRANCH  12  14
ATOM     14  C   UNL A   1      33.307  26.955  23.899  1.00  0.00     0.135 C 
BRANCH  14  15
ATOM     15  C   UNL A   1      31.911  27.359  23.452  1.00  0.00    -0.036 A 
ATOM     16  C   UNL A   1      30.788  26.623  23.872  1.00  0.00     0.007 A 
ATOM     17  C   UNL A   1      31.691  28.482  22.642  1.00  0.00     0.046 A 
ATOM     18  C   UNL A   1      29.487  27.085  23.630  1.00  0.00     0.043 A 
ATOM     19  C   UNL A   1      30.395  28.931  22.390  1.00  0.00     0.159 A 
ATOM     20  C   UNL A   1      29.300  28.255  22.909  1.00  0.00     0.158 A 
ATOM     21  F   UNL A   1      30.224  30.043  21.660  1.00  0.00    -0.204 F 
ATOM     22  F   UNL A   1      28.063  28.733  22.719  1.00  0.00    -0.204 F 
ENDBRANCH  14  15
ENDBRANCH  12  14
ENDBRANCH   5  10
ENDBRANCH   3   5
ENDBRANCH   2   3
ENDBRANCH   1   2
BRANCH   1  23
ATOM     23  C   UNL A   1      37.755  20.544  24.923  1.00  0.00     0.275 C 
BRANCH  23  24
ATOM     24  O   UNL A   1      38.361  21.597  25.692  1.00  0.00    -0.458 OA
BRANCH  24  25
ATOM     25  C   UNL A   1      39.552  21.257  26.250  1.00  0.00     0.338 C 
ATOM     26  O   UNL A   1      40.133  20.199  26.128  1.00  0.00    -0.246 OA
BRANCH  25  27
ATOM     27  C   UNL A   1      40.175  22.449  26.866  1.00  0.00     0.060 A 
ATOM     28  C   UNL A   1      39.809  23.667  26.306  1.00  0.00     0.016 A 
ATOM     29  C   UNL A   1      41.074  22.417  27.939  1.00  0.00     0.016 A 
ATOM     30  C   UNL A   1      40.316  24.846  26.835  1.00  0.00     0.010 A 
ATOM     31  C   UNL A   1      41.581  23.623  28.469  1.00  0.00     0.010 A 
ATOM     32  C   UNL A   1      41.185  24.855  27.931  1.00  0.00    -0.014 A 
BRANCH  32  33
ATOM     33  C   UNL A   1      41.658  26.184  28.414  1.00  0.00     0.031 A 
ATOM     34  C   UNL A   1      43.073  26.610  28.135  1.00  0.00     0.074 A 
ATOM     35  C   UNL A   1      40.805  27.109  28.900  1.00  0.00     0.049 A 
ATOM     36  N   UNL A   1      43.608  27.802  28.227  1.00  0.00    -0.248 NA
ATOM     37  C   UNL A   1      43.986  25.571  27.637  1.00  0.00     0.031 C 
ATOM     38  C   UNL A   1      39.374  26.918  29.115  1.00  0.00     0.029 A 
ATOM     39  N   UNL A   1      41.026  28.423  29.257  1.00  0.00    -0.354 N 
ATOM     40  C   UNL A   1      44.907  27.669  27.761  1.00  0.00     0.074 A 
ATOM     41  C   UNL A   1      45.085  26.275  27.401  1.00  0.00     0.031 C 
ATOM     42  C   UNL A   1      38.848  28.064  29.584  1.00  0.00     0.029 A 
ATOM     43  C   UNL A   1      39.903  29.071  29.718  1.00  0.00     0.049 A 
ATOM     44  H   UNL A   1      41.907  28.857  29.189  1.00  0.00     0.167 HD
ATOM     45  C   UNL A   1      45.865  28.615  27.618  1.00  0.00     0.034 A 
ATOM     46  C   UNL A   1      39.740  30.321  30.203  1.00  0.00     0.034 A 
ATOM     47  C   UNL A   1      45.763  29.987  28.036  1.00  0.00     0.049 A 
ATOM     48  C   UNL A   1      40.899  31.290  30.242  1.00  0.00     0.074 A 
ATOM     49  C   UNL A   1      46.733  30.975  27.966  1.00  0.00     0.029 A 
ATOM     50  N   UNL A   1      44.659  30.561  28.638  1.00  0.00    -0.354 N 
ATOM     51  N   UNL A   1      42.085  31.187  29.694  1.00  0.00    -0.248 NA
ATOM     52  C   UNL A   1      40.683  32.565  30.951  1.00  0.00     0.031 C 
ATOM     53  C   UNL A   1      46.228  32.136  28.562  1.00  0.00     0.029 A 
ATOM     54  C   UNL A   1      44.934  31.878  28.979  1.00  0.00     0.049 A 
ATOM     55  H   UNL A   1      43.803  30.103  28.800  1.00  0.00     0.167 HD
ATOM     56  C   UNL A   1      42.743  32.384  29.975  1.00  0.00     0.074 A 
ATOM     57  C   UNL A   1      41.812  33.215  30.705  1.00  0.00     0.031 C 
ATOM     58  C   UNL A   1      44.016  32.744  29.672  1.00  0.00     0.034 A 
BRANCH  45  59
ATOM     59  C   UNL A   1      47.141  28.190  26.955  1.00  0.00     0.023 A 
ATOM     60  C   UNL A   1      48.275  27.944  27.756  1.00  0.00     0.012 A 
ATOM     61  C   UNL A   1      47.200  27.969  25.569  1.00  0.00     0.148 A 
ATOM     62  C   UNL A   1      49.456  27.485  27.178  1.00  0.00     0.002 A 
ATOM     63  C   UNL A   1      48.373  27.488  25.005  1.00  0.00     0.091 A 
ATOM     64  F   UNL A   1      46.113  28.241  24.833  1.00  0.00    -0.205 F 
ATOM     65  C   UNL A   1      49.502  27.248  25.807  1.00  0.00     0.022 A 
BRANCH  63  66
ATOM     66  S   UNL A   1      48.514  27.110  23.257  1.00  0.00     0.127 S 
ATOM     67  O   UNL A   1      47.998  25.742  23.210  1.00  0.00    -0.237 OA
ATOM     68  O   UNL A   1      47.639  28.114  22.651  1.00  0.00    -0.237 OA
ATOM     69  O   UNL A   1      49.925  27.256  22.928  1.00  0.00    -0.744 OA
ENDBRANCH  63  66
ENDBRANCH  45  59
BRANCH  46  70
ATOM     70  C   UNL A   1      38.415  30.754  30.737  1.00  0.00     0.023 A 
ATOM     71  C   UNL A   1      38.015  30.377  32.034  1.00  0.00     0.012 A 
ATOM     72  C   UNL A   1      37.520  31.485  29.930  1.00  0.00     0.148 A 
ATOM     73  C   UNL A   1      36.737  30.691  32.502  1.00  0.00     0.002 A 
ATOM     74  C   UNL A   1      36.275  31.847  30.425  1.00  0.00     0.091 A 
ATOM     75  F   UNL A   1      37.895  31.788  28.679  1.00  0.00    -0.205 F 
ATOM     76  C   UNL A   1      35.873  31.434  31.704  1.00  0.00     0.022 A 
BRANCH  74  77
ATOM     77  S   UNL A   1      35.160  32.904  29.499  1.00  0.00     0.127 S 
ATOM     78  O   UNL A   1      36.036  34.012  29.129  1.00  0.00    -0.237 OA
ATOM     79  O   UNL A   1      34.764  32.034  28.390  1.00  0.00    -0.237 OA
ATOM     80  O   UNL A   1      34.078  33.226  30.420  1.00  0.00    -0.744 OA
ENDBRANCH  74  77
ENDBRANCH  46  70
BRANCH  58  81
ATOM     81  C   UNL A   1      44.508  34.099  30.131  1.00  0.00     0.023 A 
ATOM     82  C   UNL A   1      45.227  34.202  31.341  1.00  0.00     0.012 A 
ATOM     83  C   UNL A   1      44.327  35.257  29.346  1.00  0.00     0.148 A 
ATOM     84  C   UNL A   1      45.723  35.432  31.778  1.00  0.00     0.002 A 
ATOM     85  C   UNL A   1      44.865  36.473  29.765  1.00  0.00     0.091 A 
ATOM     86  F   UNL A   1      43.627  35.156  28.206  1.00  0.00    -0.205 F 
ATOM     87  C   UNL A   1      45.552  36.564  30.987  1.00  0.00     0.022 A 
BRANCH  85  88
ATOM     88  S   UNL A   1      44.772  37.966  28.767  1.00  0.00     0.127 S 
ATOM     89  O   UNL A   1      45.409  37.536  27.525  1.00  0.00    -0.237 OA
ATOM     90  O   UNL A   1      43.329  38.188  28.667  1.00  0.00    -0.237 OA
ATOM     91  O   UNL A   1      45.486  38.989  29.519  1.00  0.00    -0.744 OA
ENDBRANCH  85  88
ENDBRANCH  58  81
ENDBRANCH  32  33
ENDBRANCH  25  27
ENDBRANCH  24  25
ENDBRANCH  23  24
ENDBRANCH   1  23
TORSDOF 17
ENDMDL
