MODEL 1
REMARK VINA RESULT:     -12.1      0.000      0.000
REMARK SMILES CCN(C(=O)Cc1c(C(=O)OCCOC(=O)c2ccc(-c3c4nc(c(-c5cccc(S(=O)(=O)[O-])c5F)c5ccc([nH]5)c(-c5cccc(S(=O)(=O)[O-])c5F)c5nc(c(-c6cccc(S(=O)(=O)[O-])c6F)c6ccc3[nH]6)C=C5)C=C4)cc2)[nH]c2ccccc12)c1cccc(C)c1
REMARK SMILES IDX 12 1 11 2 9 3 10 4 8 5 7 6 86 7 80 8 81 9 85 10 82 12 84 13
REMARK SMILES IDX 83 14 6 15 4 16 5 17 3 18 2 19 1 20 87 21 88 22 93 23 89 24
REMARK SMILES IDX 91 25 90 26 92 27 13 28 14 29 15 30 16 31 17 32 18 33 79 34
REMARK SMILES IDX 19 35 78 36 20 37 21 38 22 39 72 40 23 41 77 42 71 43 73 44
REMARK SMILES IDX 24 45 76 46 70 47 69 48 25 50 57 51 37 52 56 53 38 54 41 55
REMARK SMILES IDX 55 56 74 57 39 58 40 59 54 61 75 62 42 63 26 64 27 65 35 66
REMARK SMILES IDX 28 67 30 68 36 69 29 70 31 71 32 72 33 73 34 74 58 75 59 76
REMARK SMILES IDX 67 77 60 78 62 79 68 80 61 81 63 82 64 83 65 84 66 85 43 86
REMARK SMILES IDX 44 87 52 88 45 89 47 90 53 91 46 92 48 93 49 94 50 95 51 96
REMARK H PARENT 80 11 73 49 41 60
REMARK Flexibility Score: inf
ROOT
ATOM      1  C   UNL A   1      31.659  28.713  27.287  1.00  0.00     0.275 C 
ENDROOT
BRANCH   1   2
ATOM      2  O   UNL A   1      32.453  27.570  26.903  1.00  0.00    -0.457 OA
BRANCH   2   3
ATOM      3  C   UNL A   1      31.738  26.546  26.347  1.00  0.00     0.355 C 
ATOM      4  O   UNL A   1      30.539  26.391  26.521  1.00  0.00    -0.244 OA
BRANCH   3   5
ATOM      5  C   UNL A   1      32.607  25.667  25.588  1.00  0.00     0.129 A 
ATOM      6  C   UNL A   1      32.487  25.113  24.307  1.00  0.00     0.002 A 
ATOM      7  C   UNL A   1      33.690  24.365  24.060  1.00  0.00     0.004 A 
ATOM      8  N   UNL A   1      33.782  25.168  26.119  1.00  0.00    -0.349 N 
ATOM      9  C   UNL A   1      34.429  24.345  25.235  1.00  0.00     0.046 A 
ATOM     10  C   UNL A   1      34.198  23.688  22.931  1.00  0.00     0.010 A 
ATOM     11  H   UNL A   1      34.113  25.380  27.022  1.00  0.00     0.167 HD
ATOM     12  C   UNL A   1      35.610  23.606  25.370  1.00  0.00     0.027 A 
ATOM     13  C   UNL A   1      35.395  22.976  23.034  1.00  0.00     0.001 A 
ATOM     14  C   UNL A   1      36.077  22.916  24.246  1.00  0.00     0.002 A 
BRANCH   6  15
ATOM     15  C   UNL A   1      31.414  25.239  23.251  1.00  0.00     0.139 C 
BRANCH  15  16
ATOM     16  C   UNL A   1      31.596  26.317  22.203  1.00  0.00     0.231 C 
ATOM     17  O   UNL A   1      31.809  25.948  21.045  1.00  0.00    -0.274 OA
BRANCH  16  18
ATOM     18  N   UNL A   1      31.556  27.655  22.632  1.00  0.00    -0.312 N 
BRANCH  18  19
ATOM     19  C   UNL A   1      32.718  28.343  23.216  1.00  0.00     0.122 C 
ATOM     20  C   UNL A   1      33.983  28.339  22.366  1.00  0.00     0.028 C 
ENDBRANCH  18  19
BRANCH  18  21
ATOM     21  C   UNL A   1      30.329  28.401  22.546  1.00  0.00     0.044 A 
ATOM     22  C   UNL A   1      30.270  29.674  21.968  1.00  0.00     0.026 A 
ATOM     23  C   UNL A   1      29.144  27.871  23.082  1.00  0.00     0.029 A 
ATOM     24  C   UNL A   1      29.070  30.388  21.919  1.00  0.00     0.002 A 
ATOM     25  C   UNL A   1      27.941  28.593  23.073  1.00  0.00    -0.049 A 
ATOM     26  C   UNL A   1      27.910  29.852  22.473  1.00  0.00     0.003 A 
ATOM     27  C   UNL A   1      26.709  28.021  23.706  1.00  0.00     0.044 C 
ENDBRANCH  18  21
ENDBRANCH  16  18
ENDBRANCH  15  16
ENDBRANCH   6  15
ENDBRANCH   3   5
ENDBRANCH   2   3
ENDBRANCH   1   2
BRANCH   1  28
ATOM     28  C   UNL A   1      31.860  29.901  26.342  1.00  0.00     0.275 C 
BRANCH  28  29
ATOM     29  O   UNL A   1      33.239  30.307  26.269  1.00  0.00    -0.458 OA
BRANCH  29  30
ATOM     30  C   UNL A   1      33.579  31.342  27.075  1.00  0.00     0.338 C 
ATOM     31  O   UNL A   1      32.892  32.317  27.337  1.00  0.00    -0.246 OA
BRANCH  30  32
ATOM     32  C   UNL A   1      34.855  31.060  27.756  1.00  0.00     0.060 A 
ATOM     33  C   UNL A   1      35.012  29.778  28.279  1.00  0.00     0.016 A 
ATOM     34  C   UNL A   1      35.850  32.023  27.948  1.00  0.00     0.016 A 
ATOM     35  C   UNL A   1      36.182  29.436  28.951  1.00  0.00     0.010 A 
ATOM     36  C   UNL A   1      37.028  31.677  28.636  1.00  0.00     0.010 A 
ATOM     37  C   UNL A   1      37.208  30.372  29.123  1.00  0.00    -0.014 A 
BRANCH  37  38
ATOM     38  C   UNL A   1      38.405  29.945  29.890  1.00  0.00     0.031 A 
ATOM     39  C   UNL A   1      39.386  29.004  29.257  1.00  0.00     0.074 A 
ATOM     40  C   UNL A   1      38.692  30.500  31.084  1.00  0.00     0.049 A 
ATOM     41  N   UNL A   1      40.522  28.556  29.724  1.00  0.00    -0.248 NA
ATOM     42  C   UNL A   1      39.055  28.528  27.905  1.00  0.00     0.031 C 
ATOM     43  C   UNL A   1      37.877  31.501  31.766  1.00  0.00     0.029 A 
ATOM     44  N   UNL A   1      39.763  30.311  31.926  1.00  0.00    -0.354 N 
ATOM     45  C   UNL A   1      41.031  27.722  28.739  1.00  0.00     0.074 A 
ATOM     46  C   UNL A   1      40.088  27.742  27.640  1.00  0.00     0.031 C 
ATOM     47  C   UNL A   1      38.470  31.835  32.925  1.00  0.00     0.029 A 
ATOM     48  C   UNL A   1      39.686  31.041  33.089  1.00  0.00     0.049 A 
ATOM     49  H   UNL A   1      40.514  29.710  31.716  1.00  0.00     0.167 HD
ATOM     50  C   UNL A   1      42.178  27.002  28.748  1.00  0.00     0.034 A 
ATOM     51  C   UNL A   1      40.487  31.045  34.176  1.00  0.00     0.034 A 
ATOM     52  C   UNL A   1      43.117  26.975  29.837  1.00  0.00     0.049 A 
ATOM     53  C   UNL A   1      41.712  30.164  34.192  1.00  0.00     0.074 A 
ATOM     54  C   UNL A   1      44.291  26.250  29.939  1.00  0.00     0.029 A 
ATOM     55  N   UNL A   1      42.985  27.689  31.016  1.00  0.00    -0.354 N 
ATOM     56  N   UNL A   1      42.208  29.414  33.237  1.00  0.00    -0.248 NA
ATOM     57  C   UNL A   1      42.501  30.144  35.434  1.00  0.00     0.031 C 
ATOM     58  C   UNL A   1      44.854  26.503  31.195  1.00  0.00     0.029 A 
ATOM     59  C   UNL A   1      44.050  27.413  31.860  1.00  0.00     0.049 A 
ATOM     60  H   UNL A   1      42.245  28.304  31.225  1.00  0.00     0.167 HD
ATOM     61  C   UNL A   1      43.374  28.857  33.752  1.00  0.00     0.074 A 
ATOM     62  C   UNL A   1      43.530  29.381  35.093  1.00  0.00     0.031 C 
ATOM     63  C   UNL A   1      44.229  27.976  33.174  1.00  0.00     0.034 A 
BRANCH  50  64
ATOM     64  C   UNL A   1      42.460  26.152  27.540  1.00  0.00     0.023 A 
ATOM     65  C   UNL A   1      43.147  26.698  26.438  1.00  0.00     0.012 A 
ATOM     66  C   UNL A   1      42.063  24.802  27.514  1.00  0.00     0.148 A 
ATOM     67  C   UNL A   1      43.407  25.918  25.311  1.00  0.00     0.002 A 
ATOM     68  C   UNL A   1      42.364  24.019  26.407  1.00  0.00     0.091 A 
ATOM     69  F   UNL A   1      41.388  24.313  28.564  1.00  0.00    -0.205 F 
ATOM     70  C   UNL A   1      43.023  24.578  25.300  1.00  0.00     0.022 A 
BRANCH  68  71
ATOM     71  S   UNL A   1      41.975  22.268  26.330  1.00  0.00     0.127 S 
ATOM     72  O   UNL A   1      42.756  21.843  25.169  1.00  0.00    -0.237 OA
ATOM     73  O   UNL A   1      42.481  21.785  27.615  1.00  0.00    -0.237 OA
ATOM     74  O   UNL A   1      40.530  22.183  26.175  1.00  0.00    -0.744 OA
ENDBRANCH  68  71
ENDBRANCH  50  64
BRANCH  51  75
ATOM     75  C   UNL A   1      40.158  31.896  35.358  1.00  0.00     0.023 A 
ATOM     76  C   UNL A   1      40.873  33.088  35.585  1.00  0.00     0.012 A 
ATOM     77  C   UNL A   1      39.164  31.509  36.278  1.00  0.00     0.148 A 
ATOM     78  C   UNL A   1      40.628  33.858  36.725  1.00  0.00     0.002 A 
ATOM     79  C   UNL A   1      38.884  32.310  37.378  1.00  0.00     0.091 A 
ATOM     80  F   UNL A   1      38.516  30.354  36.065  1.00  0.00    -0.205 F 
ATOM     81  C   UNL A   1      39.629  33.475  37.615  1.00  0.00     0.022 A 
BRANCH  79  82
ATOM     82  S   UNL A   1      37.543  31.950  38.517  1.00  0.00     0.127 S 
ATOM     83  O   UNL A   1      38.183  32.165  39.812  1.00  0.00    -0.237 OA
ATOM     84  O   UNL A   1      36.552  32.961  38.145  1.00  0.00    -0.237 OA
ATOM     85  O   UNL A   1      37.139  30.580  38.233  1.00  0.00    -0.744 OA
ENDBRANCH  79  82
ENDBRANCH  51  75
BRANCH  63  86
ATOM     86  C   UNL A   1      45.434  27.540  33.969  1.00  0.00     0.023 A 
ATOM     87  C   UNL A   1      46.622  28.298  33.922  1.00  0.00     0.012 A 
ATOM     88  C   UNL A   1      45.372  26.415  34.816  1.00  0.00     0.148 A 
ATOM     89  C   UNL A   1      47.737  27.923  34.671  1.00  0.00     0.002 A 
ATOM     90  C   UNL A   1      46.470  26.076  35.599  1.00  0.00     0.091 A 
ATOM     91  F   UNL A   1      44.242  25.692  34.837  1.00  0.00    -0.205 F 
ATOM     92  C   UNL A   1      47.657  26.820  35.518  1.00  0.00     0.022 A 
BRANCH  90  93
ATOM     93  S   UNL A   1      46.423  24.730  36.790  1.00  0.00     0.127 S 
ATOM     94  O   UNL A   1      45.888  23.635  35.981  1.00  0.00    -0.237 OA
ATOM     95  O   UNL A   1      47.833  24.587  37.155  1.00  0.00    -0.237 OA
ATOM     96  O   UNL A   1      45.564  25.186  37.875  1.00  0.00    -0.744 OA
ENDBRANCH  90  93
ENDBRANCH  63  86
ENDBRANCH  37  38
ENDBRANCH  30  32
ENDBRANCH  29  30
ENDBRANCH  28  29
ENDBRANCH   1  28
TORSDOF 19
ENDMDL
MODEL 2
REMARK VINA RESULT:     -12.0      0.974      8.134
REMARK SMILES CCN(C(=O)Cc1c(C(=O)OCCOC(=O)c2ccc(-c3c4nc(c(-c5cccc(S(=O)(=O)[O-])c5F)c5ccc([nH]5)c(-c5cccc(S(=O)(=O)[O-])c5F)c5nc(c(-c6cccc(S(=O)(=O)[O-])c6F)c6ccc3[nH]6)C=C5)C=C4)cc2)[nH]c2ccccc12)c1cccc(C)c1
REMARK SMILES IDX 12 1 11 2 9 3 10 4 8 5 7 6 86 7 80 8 81 9 85 10 82 12 84 13
REMARK SMILES IDX 83 14 6 15 4 16 5 17 3 18 2 19 1 20 87 21 88 22 93 23 89 24
REMARK SMILES IDX 91 25 90 26 92 27 13 28 14 29 15 30 16 31 17 32 18 33 79 34
REMARK SMILES IDX 19 35 78 36 20 37 21 38 22 39 72 40 23 41 77 42 71 43 73 44
REMARK SMILES IDX 24 45 76 46 70 47 69 48 25 50 57 51 37 52 56 53 38 54 41 55
REMARK SMILES IDX 55 56 74 57 39 58 40 59 54 61 75 62 42 63 26 64 27 65 35 66
REMARK SMILES IDX 28 67 30 68 36 69 29 70 31 71 32 72 33 73 34 74 58 75 59 76
REMARK SMILES IDX 67 77 60 78 62 79 68 80 61 81 63 82 64 83 65 84 66 85 43 86
REMARK SMILES IDX 44 87 52 88 45 89 47 90 53 91 46 92 48 93 49 94 50 95 51 96
REMARK H PARENT 80 11 73 49 41 60
REMARK Flexibility Score: inf
ROOT
ATOM      1  C   UNL A   1      33.582  28.671  24.758  1.00  0.00     0.275 C 
ENDROOT
BRANCH   1   2
ATOM      2  O   UNL A   1      33.924  28.831  23.364  1.00  0.00    -0.457 OA
BRANCH   2   3
ATOM      3  C   UNL A   1      33.221  28.025  22.513  1.00  0.00     0.355 C 
ATOM      4  O   UNL A   1      33.741  27.169  21.814  1.00  0.00    -0.244 OA
BRANCH   3   5
ATOM      5  C   UNL A   1      31.812  28.370  22.528  1.00  0.00     0.129 A 
ATOM      6  C   UNL A   1      30.682  27.665  22.962  1.00  0.00     0.002 A 
ATOM      7  C   UNL A   1      29.552  28.537  22.785  1.00  0.00     0.004 A 
ATOM      8  N   UNL A   1      31.350  29.565  22.007  1.00  0.00    -0.349 N 
ATOM      9  C   UNL A   1      29.987  29.669  22.108  1.00  0.00     0.046 A 
ATOM     10  C   UNL A   1      28.188  28.441  23.132  1.00  0.00     0.010 A 
ATOM     11  H   UNL A   1      31.930  30.256  21.613  1.00  0.00     0.167 HD
ATOM     12  C   UNL A   1      29.112  30.674  21.679  1.00  0.00     0.027 A 
ATOM     13  C   UNL A   1      27.305  29.452  22.747  1.00  0.00     0.001 A 
ATOM     14  C   UNL A   1      27.759  30.540  22.008  1.00  0.00     0.002 A 
BRANCH   6  15
ATOM     15  C   UNL A   1      30.524  26.296  23.579  1.00  0.00     0.139 C 
BRANCH  15  16
ATOM     16  C   UNL A   1      30.822  26.164  25.058  1.00  0.00     0.231 C 
ATOM     17  O   UNL A   1      30.495  27.106  25.786  1.00  0.00    -0.274 OA
BRANCH  16  18
ATOM     18  N   UNL A   1      31.489  25.003  25.487  1.00  0.00    -0.312 N 
BRANCH  18  19
ATOM     19  C   UNL A   1      31.369  24.470  26.853  1.00  0.00     0.122 C 
ATOM     20  C   UNL A   1      32.246  23.266  27.171  1.00  0.00     0.028 C 
ENDBRANCH  18  19
BRANCH  18  21
ATOM     21  C   UNL A   1      32.368  24.305  24.586  1.00  0.00     0.044 A 
ATOM     22  C   UNL A   1      33.686  24.718  24.363  1.00  0.00     0.026 A 
ATOM     23  C   UNL A   1      31.903  23.190  23.870  1.00  0.00     0.029 A 
ATOM     24  C   UNL A   1      34.512  24.039  23.464  1.00  0.00     0.002 A 
ATOM     25  C   UNL A   1      32.709  22.521  22.938  1.00  0.00    -0.049 A 
ATOM     26  C   UNL A   1      34.025  22.946  22.751  1.00  0.00     0.003 A 
ATOM     27  C   UNL A   1      32.161  21.372  22.149  1.00  0.00     0.044 C 
ENDBRANCH  18  21
ENDBRANCH  16  18
ENDBRANCH  15  16
ENDBRANCH   6  15
ENDBRANCH   3   5
ENDBRANCH   2   3
ENDBRANCH   1   2
BRANCH   1  28
ATOM     28  C   UNL A   1      32.699  29.812  25.270  1.00  0.00     0.275 C 
BRANCH  28  29
ATOM     29  O   UNL A   1      32.750  29.934  26.704  1.00  0.00    -0.458 OA
BRANCH  29  30
ATOM     30  C   UNL A   1      33.253  31.105  27.165  1.00  0.00     0.338 C 
ATOM     31  O   UNL A   1      32.668  32.175  27.227  1.00  0.00    -0.246 OA
BRANCH  30  32
ATOM     32  C   UNL A   1      34.583  30.889  27.761  1.00  0.00     0.060 A 
ATOM     33  C   UNL A   1      34.854  29.605  28.231  1.00  0.00     0.016 A 
ATOM     34  C   UNL A   1      35.525  31.910  27.925  1.00  0.00     0.016 A 
ATOM     35  C   UNL A   1      36.083  29.323  28.822  1.00  0.00     0.010 A 
ATOM     36  C   UNL A   1      36.762  31.623  28.531  1.00  0.00     0.010 A 
ATOM     37  C   UNL A   1      37.055  30.320  28.964  1.00  0.00    -0.014 A 
BRANCH  37  38
ATOM     38  C   UNL A   1      38.321  29.951  29.645  1.00  0.00     0.031 A 
ATOM     39  C   UNL A   1      38.597  30.482  31.020  1.00  0.00     0.074 A 
ATOM     40  C   UNL A   1      39.153  29.038  29.107  1.00  0.00     0.049 A 
ATOM     41  N   UNL A   1      39.606  30.238  31.814  1.00  0.00    -0.248 NA
ATOM     42  C   UNL A   1      37.585  31.389  31.585  1.00  0.00     0.031 C 
ATOM     43  C   UNL A   1      38.954  28.369  27.824  1.00  0.00     0.029 A 
ATOM     44  N   UNL A   1      40.327  28.504  29.584  1.00  0.00    -0.354 N 
ATOM     45  C   UNL A   1      39.369  30.980  32.963  1.00  0.00     0.074 A 
ATOM     46  C   UNL A   1      38.110  31.669  32.769  1.00  0.00     0.031 C 
ATOM     47  C   UNL A   1      39.971  27.518  27.610  1.00  0.00     0.029 A 
ATOM     48  C   UNL A   1      40.919  27.612  28.720  1.00  0.00     0.049 A 
ATOM     49  H   UNL A   1      40.708  28.738  30.461  1.00  0.00     0.167 HD
ATOM     50  C   UNL A   1      40.130  31.081  34.078  1.00  0.00     0.034 A 
ATOM     51  C   UNL A   1      42.103  26.969  28.799  1.00  0.00     0.034 A 
ATOM     52  C   UNL A   1      41.383  30.402  34.277  1.00  0.00     0.049 A 
ATOM     53  C   UNL A   1      42.971  27.171  30.017  1.00  0.00     0.074 A 
ATOM     54  C   UNL A   1      42.233  30.473  35.366  1.00  0.00     0.029 A 
ATOM     55  N   UNL A   1      41.974  29.544  33.364  1.00  0.00    -0.354 N 
ATOM     56  N   UNL A   1      42.717  27.840  31.116  1.00  0.00    -0.248 NA
ATOM     57  C   UNL A   1      44.288  26.514  30.011  1.00  0.00     0.031 C 
ATOM     58  C   UNL A   1      43.354  29.679  35.099  1.00  0.00     0.029 A 
ATOM     59  C   UNL A   1      43.185  29.086  33.859  1.00  0.00     0.049 A 
ATOM     60  H   UNL A   1      41.590  29.295  32.492  1.00  0.00     0.167 HD
ATOM     61  C   UNL A   1      43.824  27.661  31.940  1.00  0.00     0.074 A 
ATOM     62  C   UNL A   1      44.740  26.796  31.226  1.00  0.00     0.031 C 
ATOM     63  C   UNL A   1      44.070  28.184  33.167  1.00  0.00     0.034 A 
BRANCH  50  64
ATOM     64  C   UNL A   1      39.634  31.996  35.163  1.00  0.00     0.023 A 
ATOM     65  C   UNL A   1      39.925  33.374  35.113  1.00  0.00     0.012 A 
ATOM     66  C   UNL A   1      38.855  31.487  36.220  1.00  0.00     0.148 A 
ATOM     67  C   UNL A   1      39.474  34.228  36.119  1.00  0.00     0.002 A 
ATOM     68  C   UNL A   1      38.373  32.351  37.194  1.00  0.00     0.091 A 
ATOM     69  F   UNL A   1      38.614  30.169  36.259  1.00  0.00    -0.205 F 
ATOM     70  C   UNL A   1      38.691  33.718  37.153  1.00  0.00     0.022 A 
BRANCH  68  71
ATOM     71  S   UNL A   1      37.299  31.800  38.524  1.00  0.00     0.127 S 
ATOM     72  O   UNL A   1      37.021  30.420  38.126  1.00  0.00    -0.237 OA
ATOM     73  O   UNL A   1      38.167  31.933  39.694  1.00  0.00    -0.237 OA
ATOM     74  O   UNL A   1      36.152  32.696  38.513  1.00  0.00    -0.744 OA
ENDBRANCH  68  71
ENDBRANCH  50  64
BRANCH  51  75
ATOM     75  C   UNL A   1      42.560  26.081  27.689  1.00  0.00     0.023 A 
ATOM     76  C   UNL A   1      43.447  26.577  26.714  1.00  0.00     0.012 A 
ATOM     77  C   UNL A   1      42.091  24.757  27.577  1.00  0.00     0.148 A 
ATOM     78  C   UNL A   1      43.827  25.784  25.629  1.00  0.00     0.002 A 
ATOM     79  C   UNL A   1      42.520  23.954  26.528  1.00  0.00     0.091 A 
ATOM     80  F   UNL A   1      41.222  24.312  28.496  1.00  0.00    -0.205 F 
ATOM     81  C   UNL A   1      43.373  24.471  25.541  1.00  0.00     0.022 A 
BRANCH  79  82
ATOM     82  S   UNL A   1      42.071  22.221  26.395  1.00  0.00     0.127 S 
ATOM     83  O   UNL A   1      42.611  21.675  27.637  1.00  0.00    -0.237 OA
ATOM     84  O   UNL A   1      40.610  22.291  26.339  1.00  0.00    -0.237 OA
ATOM     85  O   UNL A   1      42.696  21.742  25.170  1.00  0.00    -0.744 OA
ENDBRANCH  79  82
ENDBRANCH  51  75
BRANCH  63  86
ATOM     86  C   UNL A   1      45.366  27.812  33.843  1.00  0.00     0.023 A 
ATOM     87  C   UNL A   1      46.502  28.633  33.691  1.00  0.00     0.012 A 
ATOM     88  C   UNL A   1      45.443  26.684  34.685  1.00  0.00     0.148 A 
ATOM     89  C   UNL A   1      47.700  28.317  34.331  1.00  0.00     0.002 A 
ATOM     90  C   UNL A   1      46.626  26.403  35.361  1.00  0.00     0.091 A 
ATOM     91  F   UNL A   1      44.361  25.901  34.808  1.00  0.00    -0.205 F 
ATOM     92  C   UNL A   1      47.759  27.211  35.174  1.00  0.00     0.022 A 
BRANCH  90  93
ATOM     93  S   UNL A   1      46.762  25.055  36.542  1.00  0.00     0.127 S 
ATOM     94  O   UNL A   1      48.128  25.226  37.033  1.00  0.00    -0.237 OA
ATOM     95  O   UNL A   1      45.719  25.385  37.514  1.00  0.00    -0.237 OA
ATOM     96  O   UNL A   1      46.516  23.834  35.786  1.00  0.00    -0.744 OA
ENDBRANCH  90  93
ENDBRANCH  63  86
ENDBRANCH  37  38
ENDBRANCH  30  32
ENDBRANCH  29  30
ENDBRANCH  28  29
ENDBRANCH   1  28
TORSDOF 19
ENDMDL
MODEL 3
REMARK VINA RESULT:     -12.0      0.985      3.613
REMARK SMILES CCN(C(=O)Cc1c(C(=O)OCCOC(=O)c2ccc(-c3c4nc(c(-c5cccc(S(=O)(=O)[O-])c5F)c5ccc([nH]5)c(-c5cccc(S(=O)(=O)[O-])c5F)c5nc(c(-c6cccc(S(=O)(=O)[O-])c6F)c6ccc3[nH]6)C=C5)C=C4)cc2)[nH]c2ccccc12)c1cccc(C)c1
REMARK SMILES IDX 12 1 11 2 9 3 10 4 8 5 7 6 86 7 80 8 81 9 85 10 82 12 84 13
REMARK SMILES IDX 83 14 6 15 4 16 5 17 3 18 2 19 1 20 87 21 88 22 93 23 89 24
REMARK SMILES IDX 91 25 90 26 92 27 13 28 14 29 15 30 16 31 17 32 18 33 79 34
REMARK SMILES IDX 19 35 78 36 20 37 21 38 22 39 72 40 23 41 77 42 71 43 73 44
REMARK SMILES IDX 24 45 76 46 70 47 69 48 25 50 57 51 37 52 56 53 38 54 41 55
REMARK SMILES IDX 55 56 74 57 39 58 40 59 54 61 75 62 42 63 26 64 27 65 35 66
REMARK SMILES IDX 28 67 30 68 36 69 29 70 31 71 32 72 33 73 34 74 58 75 59 76
REMARK SMILES IDX 67 77 60 78 62 79 68 80 61 81 63 82 64 83 65 84 66 85 43 86
REMARK SMILES IDX 44 87 52 88 45 89 47 90 53 91 46 92 48 93 49 94 50 95 51 96
REMARK H PARENT 80 11 73 49 41 60
REMARK Flexibility Score: inf
ROOT
ATOM      1  C   UNL A   1      33.573  28.644  24.694  1.00  0.00     0.275 C 
ENDROOT
BRANCH   1   2
ATOM      2  O   UNL A   1      33.887  28.729  23.287  1.00  0.00    -0.457 OA
BRANCH   2   3
ATOM      3  C   UNL A   1      33.147  27.901  22.491  1.00  0.00     0.355 C 
ATOM      4  O   UNL A   1      33.630  26.994  21.830  1.00  0.00    -0.244 OA
BRANCH   3   5
ATOM      5  C   UNL A   1      31.749  28.288  22.508  1.00  0.00     0.129 A 
ATOM      6  C   UNL A   1      30.600  27.622  22.956  1.00  0.00     0.002 A 
ATOM      7  C   UNL A   1      29.496  28.525  22.774  1.00  0.00     0.004 A 
ATOM      8  N   UNL A   1      31.320  29.490  21.976  1.00  0.00    -0.349 N 
ATOM      9  C   UNL A   1      29.962  29.636  22.083  1.00  0.00     0.046 A 
ATOM     10  C   UNL A   1      28.131  28.474  23.129  1.00  0.00     0.010 A 
ATOM     11  H   UNL A   1      31.918  30.159  21.571  1.00  0.00     0.167 HD
ATOM     12  C   UNL A   1      29.115  30.661  21.646  1.00  0.00     0.027 A 
ATOM     13  C   UNL A   1      27.277  29.506  22.736  1.00  0.00     0.001 A 
ATOM     14  C   UNL A   1      27.759  30.572  21.983  1.00  0.00     0.002 A 
BRANCH   6  15
ATOM     15  C   UNL A   1      30.405  26.265  23.590  1.00  0.00     0.139 C 
BRANCH  15  16
ATOM     16  C   UNL A   1      30.814  26.112  25.040  1.00  0.00     0.231 C 
ATOM     17  O   UNL A   1      30.637  27.083  25.781  1.00  0.00    -0.274 OA
BRANCH  16  18
ATOM     18  N   UNL A   1      31.406  24.897  25.425  1.00  0.00    -0.312 N 
BRANCH  18  19
ATOM     19  C   UNL A   1      31.190  24.284  26.745  1.00  0.00     0.122 C 
ATOM     20  C   UNL A   1      29.963  23.390  26.865  1.00  0.00     0.028 C 
ENDBRANCH  18  19
BRANCH  18  21
ATOM     21  C   UNL A   1      32.300  24.217  24.525  1.00  0.00     0.044 A 
ATOM     22  C   UNL A   1      33.605  24.665  24.293  1.00  0.00     0.026 A 
ATOM     23  C   UNL A   1      31.864  23.083  23.821  1.00  0.00     0.029 A 
ATOM     24  C   UNL A   1      34.446  24.002  23.396  1.00  0.00     0.002 A 
ATOM     25  C   UNL A   1      32.684  22.430  22.890  1.00  0.00    -0.049 A 
ATOM     26  C   UNL A   1      33.987  22.890  22.694  1.00  0.00     0.003 A 
ATOM     27  C   UNL A   1      32.166  21.259  22.112  1.00  0.00     0.044 C 
ENDBRANCH  18  21
ENDBRANCH  16  18
ENDBRANCH  15  16
ENDBRANCH   6  15
ENDBRANCH   3   5
ENDBRANCH   2   3
ENDBRANCH   1   2
BRANCH   1  28
ATOM     28  C   UNL A   1      32.723  29.826  25.169  1.00  0.00     0.275 C 
BRANCH  28  29
ATOM     29  O   UNL A   1      32.757  29.976  26.600  1.00  0.00    -0.458 OA
BRANCH  29  30
ATOM     30  C   UNL A   1      33.284  31.143  27.045  1.00  0.00     0.338 C 
ATOM     31  O   UNL A   1      32.748  32.240  27.023  1.00  0.00    -0.246 OA
BRANCH  30  32
ATOM     32  C   UNL A   1      34.561  30.894  27.736  1.00  0.00     0.060 A 
ATOM     33  C   UNL A   1      34.743  29.619  28.268  1.00  0.00     0.016 A 
ATOM     34  C   UNL A   1      35.534  31.880  27.929  1.00  0.00     0.016 A 
ATOM     35  C   UNL A   1      35.916  29.307  28.951  1.00  0.00     0.010 A 
ATOM     36  C   UNL A   1      36.714  31.565  28.627  1.00  0.00     0.010 A 
ATOM     37  C   UNL A   1      36.920  30.267  29.124  1.00  0.00    -0.014 A 
BRANCH  37  38
ATOM     38  C   UNL A   1      38.121  29.872  29.902  1.00  0.00     0.031 A 
ATOM     39  C   UNL A   1      39.129  28.953  29.280  1.00  0.00     0.074 A 
ATOM     40  C   UNL A   1      38.385  30.438  31.096  1.00  0.00     0.049 A 
ATOM     41  N   UNL A   1      40.271  28.533  29.758  1.00  0.00    -0.248 NA
ATOM     42  C   UNL A   1      38.820  28.463  27.928  1.00  0.00     0.031 C 
ATOM     43  C   UNL A   1      37.540  31.422  31.768  1.00  0.00     0.029 A 
ATOM     44  N   UNL A   1      39.453  30.278  31.947  1.00  0.00    -0.354 N 
ATOM     45  C   UNL A   1      40.808  27.708  28.780  1.00  0.00     0.074 A 
ATOM     46  C   UNL A   1      39.873  27.702  27.673  1.00  0.00     0.031 C 
ATOM     47  C   UNL A   1      38.116  31.775  32.930  1.00  0.00     0.029 A 
ATOM     48  C   UNL A   1      39.349  31.010  33.107  1.00  0.00     0.049 A 
ATOM     49  H   UNL A   1      40.220  29.694  31.745  1.00  0.00     0.167 HD
ATOM     50  C   UNL A   1      41.971  27.016  28.801  1.00  0.00     0.034 A 
ATOM     51  C   UNL A   1      40.142  31.037  34.200  1.00  0.00     0.034 A 
ATOM     52  C   UNL A   1      42.902  27.015  29.897  1.00  0.00     0.049 A 
ATOM     53  C   UNL A   1      41.387  30.186  34.229  1.00  0.00     0.074 A 
ATOM     54  C   UNL A   1      44.092  26.319  30.011  1.00  0.00     0.029 A 
ATOM     55  N   UNL A   1      42.744  27.731  31.073  1.00  0.00    -0.354 N 
ATOM     56  N   UNL A   1      41.908  29.444  33.281  1.00  0.00    -0.248 NA
ATOM     57  C   UNL A   1      42.166  30.189  35.477  1.00  0.00     0.031 C 
ATOM     58  C   UNL A   1      44.639  26.590  31.270  1.00  0.00     0.029 A 
ATOM     59  C   UNL A   1      43.809  27.483  31.926  1.00  0.00     0.049 A 
ATOM     60  H   UNL A   1      41.988  28.328  31.273  1.00  0.00     0.167 HD
ATOM     61  C   UNL A   1      43.084  28.918  33.807  1.00  0.00     0.074 A 
ATOM     62  C   UNL A   1      43.217  29.450  35.147  1.00  0.00     0.031 C 
ATOM     63  C   UNL A   1      43.963  28.055  33.239  1.00  0.00     0.034 A 
BRANCH  50  64
ATOM     64  C   UNL A   1      42.283  26.168  27.598  1.00  0.00     0.023 A 
ATOM     65  C   UNL A   1      42.945  26.732  26.490  1.00  0.00     0.012 A 
ATOM     66  C   UNL A   1      41.940  24.803  27.584  1.00  0.00     0.148 A 
ATOM     67  C   UNL A   1      43.232  25.954  25.369  1.00  0.00     0.002 A 
ATOM     68  C   UNL A   1      42.268  24.025  26.482  1.00  0.00     0.091 A 
ATOM     69  F   UNL A   1      41.287  24.297  28.640  1.00  0.00    -0.205 F 
ATOM     70  C   UNL A   1      42.902  24.600  25.369  1.00  0.00     0.022 A 
BRANCH  68  71
ATOM     71  S   UNL A   1      41.947  22.259  26.419  1.00  0.00     0.127 S 
ATOM     72  O   UNL A   1      42.841  21.835  25.342  1.00  0.00    -0.237 OA
ATOM     73  O   UNL A   1      42.355  21.826  27.756  1.00  0.00    -0.237 OA
ATOM     74  O   UNL A   1      40.525  22.117  26.143  1.00  0.00    -0.744 OA
ENDBRANCH  68  71
ENDBRANCH  50  64
BRANCH  51  75
ATOM     75  C   UNL A   1      39.783  31.884  35.376  1.00  0.00     0.023 A 
ATOM     76  C   UNL A   1      40.393  33.142  35.547  1.00  0.00     0.012 A 
ATOM     77  C   UNL A   1      38.866  31.432  36.345  1.00  0.00     0.148 A 
ATOM     78  C   UNL A   1      40.124  33.916  36.678  1.00  0.00     0.002 A 
ATOM     79  C   UNL A   1      38.558  32.232  37.438  1.00  0.00     0.091 A 
ATOM     80  F   UNL A   1      38.320  30.218  36.184  1.00  0.00    -0.205 F 
ATOM     81  C   UNL A   1      39.201  33.466  37.618  1.00  0.00     0.022 A 
BRANCH  79  82
ATOM     82  S   UNL A   1      37.303  31.780  38.640  1.00  0.00     0.127 S 
ATOM     83  O   UNL A   1      37.028  30.392  38.279  1.00  0.00    -0.237 OA
ATOM     84  O   UNL A   1      38.018  31.956  39.905  1.00  0.00    -0.237 OA
ATOM     85  O   UNL A   1      36.204  32.714  38.436  1.00  0.00    -0.744 OA
ENDBRANCH  79  82
ENDBRANCH  51  75
BRANCH  63  86
ATOM     86  C   UNL A   1      45.173  27.651  34.045  1.00  0.00     0.023 A 
ATOM     87  C   UNL A   1      46.345  28.434  33.999  1.00  0.00     0.012 A 
ATOM     88  C   UNL A   1      45.128  26.532  34.901  1.00  0.00     0.148 A 
ATOM     89  C   UNL A   1      47.462  28.088  34.759  1.00  0.00     0.002 A 
ATOM     90  C   UNL A   1      46.228  26.222  35.694  1.00  0.00     0.091 A 
ATOM     91  F   UNL A   1      44.014  25.785  34.921  1.00  0.00    -0.205 F 
ATOM     92  C   UNL A   1      47.400  26.991  35.614  1.00  0.00     0.022 A 
BRANCH  90  93
ATOM     93  S   UNL A   1      46.201  24.886  36.895  1.00  0.00     0.127 S 
ATOM     94  O   UNL A   1      46.067  23.712  36.034  1.00  0.00    -0.237 OA
ATOM     95  O   UNL A   1      47.508  25.021  37.542  1.00  0.00    -0.237 OA
ATOM     96  O   UNL A   1      45.067  25.155  37.769  1.00  0.00    -0.744 OA
ENDBRANCH  90  93
ENDBRANCH  63  86
ENDBRANCH  37  38
ENDBRANCH  30  32
ENDBRANCH  29  30
ENDBRANCH  28  29
ENDBRANCH   1  28
TORSDOF 19
ENDMDL
