MODEL 1
REMARK VINA RESULT:     -11.6      0.000      0.000
REMARK SMILES O=C(OCCOC(=O)[C@H]1CC[C@@H]2CCCC[C@@H]2N1C(=O)NC1CC1)c1ccc(-c2c3nc(c(-c4cccc(S(=O)(=O)[O-])c4F)c4ccc([nH]4)c(-c4cccc(S(=O)(=O)[O-])c4F)c4nc(c(-c5cccc(S(=O)(=O)[O-])c5F)c5ccc2[nH]5)C=C4)C=C3)cc1
REMARK SMILES IDX 4 1 3 2 2 3 1 4 25 5 26 6 87 7 27 8 86 9 28 10 29 11 30 12
REMARK SMILES IDX 80 13 31 14 85 15 79 16 81 17 32 18 84 19 78 20 77 21 33 23
REMARK SMILES IDX 65 24 45 25 64 26 46 27 49 28 63 29 82 30 47 31 48 32 62 34
REMARK SMILES IDX 83 35 50 36 34 37 35 38 43 39 36 40 38 41 44 42 37 43 39 44
REMARK SMILES IDX 40 45 41 46 42 47 66 48 67 49 75 50 68 51 70 52 76 53 69 54
REMARK SMILES IDX 71 55 72 56 73 57 74 58 51 59 52 60 60 61 53 62 55 63 61 64
REMARK SMILES IDX 54 65 56 66 57 67 58 68 59 69 5 70 6 71 7 72 8 73 9 74 10 75
REMARK SMILES IDX 18 76 11 77 17 78 12 79 16 80 13 81 15 82 14 83 19 84 20 85
REMARK SMILES IDX 21 86 22 88 23 89 24 90
REMARK H PARENT 81 22 49 33 21 87
REMARK Flexibility Score: inf
ROOT
ATOM      1  C   UNL A   1      32.065  32.833  26.938  1.00  0.00     0.275 C 
ENDROOT
BRANCH   1   2
ATOM      2  O   UNL A   1      32.749  33.593  27.936  1.00  0.00    -0.458 OA
BRANCH   2   3
ATOM      3  C   UNL A   1      34.081  33.810  28.031  1.00  0.00     0.338 C 
ATOM      4  O   UNL A   1      34.582  34.764  27.442  1.00  0.00    -0.246 OA
BRANCH   3   5
ATOM      5  C   UNL A   1      34.990  32.825  28.687  1.00  0.00     0.060 A 
ATOM      6  C   UNL A   1      34.707  32.092  29.851  1.00  0.00     0.016 A 
ATOM      7  C   UNL A   1      36.239  32.656  28.077  1.00  0.00     0.016 A 
ATOM      8  C   UNL A   1      35.602  31.128  30.343  1.00  0.00     0.010 A 
ATOM      9  C   UNL A   1      37.154  31.738  28.594  1.00  0.00     0.010 A 
ATOM     10  C   UNL A   1      36.833  30.945  29.717  1.00  0.00    -0.014 A 
BRANCH  10  11
ATOM     11  C   UNL A   1      37.944  30.209  30.366  1.00  0.00     0.031 A 
ATOM     12  C   UNL A   1      38.409  30.822  31.651  1.00  0.00     0.074 A 
ATOM     13  C   UNL A   1      38.609  29.179  29.802  1.00  0.00     0.049 A 
ATOM     14  N   UNL A   1      39.454  30.540  32.370  1.00  0.00    -0.248 NA
ATOM     15  C   UNL A   1      37.571  31.913  32.193  1.00  0.00     0.031 C 
ATOM     16  C   UNL A   1      38.229  28.449  28.593  1.00  0.00     0.029 A 
ATOM     17  N   UNL A   1      39.840  28.650  30.114  1.00  0.00    -0.354 N 
ATOM     18  C   UNL A   1      39.376  31.390  33.461  1.00  0.00     0.074 A 
ATOM     19  C   UNL A   1      38.265  32.283  33.251  1.00  0.00     0.031 C 
ATOM     20  C   UNL A   1      39.286  27.742  28.146  1.00  0.00     0.029 A 
ATOM     21  C   UNL A   1      40.382  27.889  29.095  1.00  0.00     0.049 A 
ATOM     22  H   UNL A   1      40.290  28.798  30.977  1.00  0.00     0.167 HD
ATOM     23  C   UNL A   1      40.116  31.370  34.588  1.00  0.00     0.034 A 
ATOM     24  C   UNL A   1      41.627  27.385  28.956  1.00  0.00     0.034 A 
ATOM     25  C   UNL A   1      41.240  30.505  34.752  1.00  0.00     0.049 A 
ATOM     26  C   UNL A   1      42.545  27.481  30.149  1.00  0.00     0.074 A 
ATOM     27  C   UNL A   1      42.054  30.337  35.851  1.00  0.00     0.029 A 
ATOM     28  N   UNL A   1      41.728  29.682  33.746  1.00  0.00    -0.354 N 
ATOM     29  N   UNL A   1      42.363  28.134  31.273  1.00  0.00    -0.248 NA
ATOM     30  C   UNL A   1      43.776  26.680  30.111  1.00  0.00     0.031 C 
ATOM     31  C   UNL A   1      43.064  29.436  35.493  1.00  0.00     0.029 A 
ATOM     32  C   UNL A   1      42.847  29.012  34.188  1.00  0.00     0.049 A 
ATOM     33  H   UNL A   1      41.333  29.591  32.850  1.00  0.00     0.167 HD
ATOM     34  C   UNL A   1      43.393  27.737  32.115  1.00  0.00     0.074 A 
ATOM     35  C   UNL A   1      44.226  26.828  31.352  1.00  0.00     0.031 C 
ATOM     36  C   UNL A   1      43.609  28.063  33.414  1.00  0.00     0.034 A 
BRANCH  23  37
ATOM     37  C   UNL A   1      39.666  32.291  35.683  1.00  0.00     0.023 A 
ATOM     38  C   UNL A   1      38.634  31.872  36.556  1.00  0.00     0.012 A 
ATOM     39  C   UNL A   1      40.161  33.602  35.775  1.00  0.00     0.148 A 
ATOM     40  C   UNL A   1      38.048  32.767  37.447  1.00  0.00     0.002 A 
ATOM     41  C   UNL A   1      39.606  34.473  36.702  1.00  0.00     0.091 A 
ATOM     42  F   UNL A   1      41.115  33.986  34.918  1.00  0.00    -0.205 F 
ATOM     43  C   UNL A   1      38.536  34.068  37.520  1.00  0.00     0.022 A 
BRANCH  41  44
ATOM     44  S   UNL A   1      40.195  36.153  36.917  1.00  0.00     0.127 S 
ATOM     45  O   UNL A   1      41.627  35.940  37.130  1.00  0.00    -0.237 OA
ATOM     46  O   UNL A   1      39.853  36.760  35.631  1.00  0.00    -0.237 OA
ATOM     47  O   UNL A   1      39.469  36.692  38.058  1.00  0.00    -0.744 OA
ENDBRANCH  41  44
ENDBRANCH  23  37
BRANCH  24  48
ATOM     48  C   UNL A   1      42.038  26.632  27.733  1.00  0.00     0.023 A 
ATOM     49  C   UNL A   1      42.597  27.333  26.645  1.00  0.00     0.012 A 
ATOM     50  C   UNL A   1      41.854  25.239  27.622  1.00  0.00     0.148 A 
ATOM     51  C   UNL A   1      42.943  26.668  25.466  1.00  0.00     0.002 A 
ATOM     52  C   UNL A   1      42.236  24.575  26.456  1.00  0.00     0.091 A 
ATOM     53  F   UNL A   1      41.284  24.592  28.646  1.00  0.00    -0.205 F 
ATOM     54  C   UNL A   1      42.770  25.291  25.373  1.00  0.00     0.022 A 
BRANCH  52  55
ATOM     55  S   UNL A   1      42.110  22.791  26.249  1.00  0.00     0.127 S 
ATOM     56  O   UNL A   1      42.706  22.599  24.929  1.00  0.00    -0.237 OA
ATOM     57  O   UNL A   1      42.923  22.306  27.364  1.00  0.00    -0.237 OA
ATOM     58  O   UNL A   1      40.691  22.482  26.347  1.00  0.00    -0.744 OA
ENDBRANCH  52  55
ENDBRANCH  24  48
BRANCH  36  59
ATOM     59  C   UNL A   1      44.720  27.367  34.142  1.00  0.00     0.023 A 
ATOM     60  C   UNL A   1      45.990  27.960  34.239  1.00  0.00     0.012 A 
ATOM     61  C   UNL A   1      44.432  26.196  34.872  1.00  0.00     0.148 A 
ATOM     62  C   UNL A   1      46.965  27.392  35.056  1.00  0.00     0.002 A 
ATOM     63  C   UNL A   1      45.386  25.673  35.731  1.00  0.00     0.091 A 
ATOM     64  F   UNL A   1      43.218  25.641  34.738  1.00  0.00    -0.205 F 
ATOM     65  C   UNL A   1      46.658  26.264  35.817  1.00  0.00     0.022 A 
BRANCH  63  66
ATOM     66  S   UNL A   1      45.026  24.312  36.844  1.00  0.00     0.127 S 
ATOM     67  O   UNL A   1      46.316  24.116  37.503  1.00  0.00    -0.237 OA
ATOM     68  O   UNL A   1      43.983  24.883  37.699  1.00  0.00    -0.237 OA
ATOM     69  O   UNL A   1      44.582  23.207  36.004  1.00  0.00    -0.744 OA
ENDBRANCH  63  66
ENDBRANCH  36  59
ENDBRANCH  10  11
ENDBRANCH   3   5
ENDBRANCH   2   3
ENDBRANCH   1   2
BRANCH   1  70
ATOM     70  C   UNL A   1      32.155  31.318  27.070  1.00  0.00     0.274 C 
BRANCH  70  71
ATOM     71  O   UNL A   1      33.173  30.652  26.314  1.00  0.00    -0.461 OA
BRANCH  71  72
ATOM     72  C   UNL A   1      33.710  29.473  26.778  1.00  0.00     0.329 C 
ATOM     73  O   UNL A   1      34.559  29.411  27.647  1.00  0.00    -0.250 OA
BRANCH  72  74
ATOM     74  C   UNL A   1      33.062  28.252  26.054  1.00  0.00     0.197 C 
ATOM     75  C   UNL A   1      31.610  27.988  26.445  1.00  0.00     0.038 C 
ATOM     76  N   UNL A   1      33.179  27.873  24.615  1.00  0.00    -0.308 N 
ATOM     77  C   UNL A   1      31.399  26.481  26.364  1.00  0.00     0.008 C 
ATOM     78  C   UNL A   1      32.874  26.396  24.353  1.00  0.00     0.091 C 
ATOM     79  C   UNL A   1      31.479  26.043  24.911  1.00  0.00     0.012 C 
ATOM     80  C   UNL A   1      33.981  25.438  24.839  1.00  0.00     0.025 C 
ATOM     81  C   UNL A   1      31.152  24.560  24.784  1.00  0.00     0.006 C 
ATOM     82  C   UNL A   1      33.586  24.015  25.285  1.00  0.00     0.002 C 
ATOM     83  C   UNL A   1      32.121  23.699  25.569  1.00  0.00     0.000 C 
BRANCH  76  84
ATOM     84  C   UNL A   1      32.981  28.689  23.524  1.00  0.00     0.318 C 
ATOM     85  O   UNL A   1      33.912  29.043  22.791  1.00  0.00    -0.249 OA
ATOM     86  N   UNL A   1      31.786  29.181  23.128  1.00  0.00    -0.335 N 
ATOM     87  H   UNL A   1      31.850  29.633  22.256  1.00  0.00     0.165 HD
BRANCH  86  88
ATOM     88  C   UNL A   1      30.470  29.216  23.638  1.00  0.00     0.084 C 
ATOM     89  C   UNL A   1      29.403  29.937  22.844  1.00  0.00     0.027 C 
ATOM     90  C   UNL A   1      29.345  28.454  22.975  1.00  0.00     0.027 C 
ENDBRANCH  86  88
ENDBRANCH  76  84
ENDBRANCH  72  74
ENDBRANCH  71  72
ENDBRANCH  70  71
ENDBRANCH   1  70
TORSDOF 16
ENDMDL
MODEL 2
REMARK VINA RESULT:     -11.4      3.473      5.989
REMARK SMILES O=C(OCCOC(=O)[C@H]1CC[C@@H]2CCCC[C@@H]2N1C(=O)NC1CC1)c1ccc(-c2c3nc(c(-c4cccc(S(=O)(=O)[O-])c4F)c4ccc([nH]4)c(-c4cccc(S(=O)(=O)[O-])c4F)c4nc(c(-c5cccc(S(=O)(=O)[O-])c5F)c5ccc2[nH]5)C=C4)C=C3)cc1
REMARK SMILES IDX 4 1 3 2 2 3 1 4 25 5 26 6 87 7 27 8 86 9 28 10 29 11 30 12
REMARK SMILES IDX 80 13 31 14 85 15 79 16 81 17 32 18 84 19 78 20 77 21 33 23
REMARK SMILES IDX 65 24 45 25 64 26 46 27 49 28 63 29 82 30 47 31 48 32 62 34
REMARK SMILES IDX 83 35 50 36 34 37 35 38 43 39 36 40 38 41 44 42 37 43 39 44
REMARK SMILES IDX 40 45 41 46 42 47 66 48 67 49 75 50 68 51 70 52 76 53 69 54
REMARK SMILES IDX 71 55 72 56 73 57 74 58 51 59 52 60 60 61 53 62 55 63 61 64
REMARK SMILES IDX 54 65 56 66 57 67 58 68 59 69 5 70 6 71 7 72 8 73 9 74 10 75
REMARK SMILES IDX 18 76 11 77 17 78 12 79 16 80 13 81 15 82 14 83 19 84 20 85
REMARK SMILES IDX 21 86 22 88 23 89 24 90
REMARK H PARENT 81 22 49 33 21 87
REMARK Flexibility Score: inf
ROOT
ATOM      1  C   UNL A   1      34.313  32.988  28.250  1.00  0.00     0.275 C 
ENDROOT
BRANCH   1   2
ATOM      2  O   UNL A   1      34.406  31.924  27.302  1.00  0.00    -0.458 OA
BRANCH   2   3
ATOM      3  C   UNL A   1      34.668  30.620  27.556  1.00  0.00     0.338 C 
ATOM      4  O   UNL A   1      33.750  29.805  27.534  1.00  0.00    -0.246 OA
BRANCH   3   5
ATOM      5  C   UNL A   1      36.007  30.169  28.034  1.00  0.00     0.060 A 
ATOM      6  C   UNL A   1      37.185  30.132  27.270  1.00  0.00     0.016 A 
ATOM      7  C   UNL A   1      36.056  29.725  29.361  1.00  0.00     0.016 A 
ATOM      8  C   UNL A   1      38.414  29.765  27.840  1.00  0.00     0.010 A 
ATOM      9  C   UNL A   1      37.266  29.308  29.917  1.00  0.00     0.010 A 
ATOM     10  C   UNL A   1      38.463  29.350  29.170  1.00  0.00    -0.014 A 
BRANCH  10  11
ATOM     11  C   UNL A   1      39.636  28.636  29.727  1.00  0.00     0.031 A 
ATOM     12  C   UNL A   1      40.423  29.440  30.716  1.00  0.00     0.074 A 
ATOM     13  C   UNL A   1      40.081  27.439  29.287  1.00  0.00     0.049 A 
ATOM     14  N   UNL A   1      41.580  29.189  31.251  1.00  0.00    -0.248 NA
ATOM     15  C   UNL A   1      39.810  30.711  31.157  1.00  0.00     0.031 C 
ATOM     16  C   UNL A   1      39.385  26.528  28.380  1.00  0.00     0.029 A 
ATOM     17  N   UNL A   1      41.309  26.842  29.453  1.00  0.00    -0.354 N 
ATOM     18  C   UNL A   1      41.812  30.248  32.113  1.00  0.00     0.074 A 
ATOM     19  C   UNL A   1      40.750  31.205  31.937  1.00  0.00     0.031 C 
ATOM     20  C   UNL A   1      40.260  25.622  27.899  1.00  0.00     0.029 A 
ATOM     21  C   UNL A   1      41.550  25.829  28.544  1.00  0.00     0.049 A 
ATOM     22  H   UNL A   1      41.952  27.109  30.149  1.00  0.00     0.167 HD
ATOM     23  C   UNL A   1      42.784  30.372  33.039  1.00  0.00     0.034 A 
ATOM     24  C   UNL A   1      42.693  25.162  28.272  1.00  0.00     0.034 A 
ATOM     25  C   UNL A   1      43.851  29.430  33.162  1.00  0.00     0.049 A 
ATOM     26  C   UNL A   1      43.860  25.389  29.197  1.00  0.00     0.074 A 
ATOM     27  C   UNL A   1      44.879  29.395  34.080  1.00  0.00     0.029 A 
ATOM     28  N   UNL A   1      44.038  28.365  32.291  1.00  0.00    -0.354 N 
ATOM     29  N   UNL A   1      43.984  26.277  30.157  1.00  0.00    -0.248 NA
ATOM     30  C   UNL A   1      44.990  24.457  29.091  1.00  0.00     0.031 C 
ATOM     31  C   UNL A   1      45.714  28.326  33.736  1.00  0.00     0.029 A 
ATOM     32  C   UNL A   1      45.177  27.671  32.634  1.00  0.00     0.049 A 
ATOM     33  H   UNL A   1      43.445  28.140  31.539  1.00  0.00     0.167 HD
ATOM     34  C   UNL A   1      45.147  25.942  30.838  1.00  0.00     0.074 A 
ATOM     35  C   UNL A   1      45.718  24.801  30.148  1.00  0.00     0.031 C 
ATOM     36  C   UNL A   1      45.674  26.500  31.957  1.00  0.00     0.034 A 
BRANCH  23  37
ATOM     37  C   UNL A   1      42.661  31.545  33.965  1.00  0.00     0.023 A 
ATOM     38  C   UNL A   1      43.030  32.830  33.502  1.00  0.00     0.012 A 
ATOM     39  C   UNL A   1      42.309  31.369  35.313  1.00  0.00     0.148 A 
ATOM     40  C   UNL A   1      43.128  33.903  34.384  1.00  0.00     0.002 A 
ATOM     41  C   UNL A   1      42.359  32.456  36.175  1.00  0.00     0.091 A 
ATOM     42  F   UNL A   1      41.994  30.138  35.736  1.00  0.00    -0.205 F 
ATOM     43  C   UNL A   1      42.791  33.715  35.721  1.00  0.00     0.022 A 
BRANCH  41  44
ATOM     44  S   UNL A   1      41.895  32.337  37.903  1.00  0.00     0.127 S 
ATOM     45  O   UNL A   1      42.734  31.229  38.359  1.00  0.00    -0.237 OA
ATOM     46  O   UNL A   1      42.288  33.650  38.412  1.00  0.00    -0.237 OA
ATOM     47  O   UNL A   1      40.462  32.080  37.918  1.00  0.00    -0.744 OA
ENDBRANCH  41  44
ENDBRANCH  23  37
BRANCH  24  48
ATOM     48  C   UNL A   1      42.760  24.129  27.194  1.00  0.00     0.023 A 
ATOM     49  C   UNL A   1      43.370  24.452  25.965  1.00  0.00     0.012 A 
ATOM     50  C   UNL A   1      42.203  22.844  27.359  1.00  0.00     0.148 A 
ATOM     51  C   UNL A   1      43.405  23.528  24.916  1.00  0.00     0.002 A 
ATOM     52  C   UNL A   1      42.273  21.915  26.322  1.00  0.00     0.091 A 
ATOM     53  F   UNL A   1      41.591  22.565  28.516  1.00  0.00    -0.205 F 
ATOM     54  C   UNL A   1      42.863  22.260  25.096  1.00  0.00     0.022 A 
BRANCH  52  55
ATOM     55  S   UNL A   1      41.658  20.229  26.465  1.00  0.00     0.127 S 
ATOM     56  O   UNL A   1      42.236  19.597  25.281  1.00  0.00    -0.237 OA
ATOM     57  O   UNL A   1      42.248  19.805  27.735  1.00  0.00    -0.237 OA
ATOM     58  O   UNL A   1      40.207  20.338  26.471  1.00  0.00    -0.744 OA
ENDBRANCH  52  55
ENDBRANCH  24  48
BRANCH  36  59
ATOM     59  C   UNL A   1      46.868  25.840  32.580  1.00  0.00     0.023 A 
ATOM     60  C   UNL A   1      48.165  26.294  32.290  1.00  0.00     0.012 A 
ATOM     61  C   UNL A   1      46.668  24.875  33.589  1.00  0.00     0.148 A 
ATOM     62  C   UNL A   1      49.255  25.792  32.999  1.00  0.00     0.002 A 
ATOM     63  C   UNL A   1      47.750  24.427  34.331  1.00  0.00     0.091 A 
ATOM     64  F   UNL A   1      45.420  24.444  33.824  1.00  0.00    -0.205 F 
ATOM     65  C   UNL A   1      49.046  24.877  34.031  1.00  0.00     0.022 A 
BRANCH  63  66
ATOM     66  S   UNL A   1      47.551  23.361  35.761  1.00  0.00     0.127 S 
ATOM     67  O   UNL A   1      48.911  23.321  36.295  1.00  0.00    -0.237 OA
ATOM     68  O   UNL A   1      46.596  24.115  36.575  1.00  0.00    -0.237 OA
ATOM     69  O   UNL A   1      47.044  22.092  35.254  1.00  0.00    -0.744 OA
ENDBRANCH  63  66
ENDBRANCH  36  59
ENDBRANCH  10  11
ENDBRANCH   3   5
ENDBRANCH   2   3
ENDBRANCH   1   2
BRANCH   1  70
ATOM     70  C   UNL A   1      35.590  33.784  28.492  1.00  0.00     0.274 C 
BRANCH  70  71
ATOM     71  O   UNL A   1      36.651  33.126  29.194  1.00  0.00    -0.461 OA
BRANCH  71  72
ATOM     72  C   UNL A   1      37.530  33.862  29.954  1.00  0.00     0.329 C 
ATOM     73  O   UNL A   1      38.332  34.651  29.488  1.00  0.00    -0.250 OA
BRANCH  72  74
ATOM     74  C   UNL A   1      37.333  33.560  31.472  1.00  0.00     0.197 C 
ATOM     75  C   UNL A   1      37.792  34.680  32.402  1.00  0.00     0.038 C 
ATOM     76  N   UNL A   1      36.151  32.931  32.133  1.00  0.00    -0.308 N 
ATOM     77  C   UNL A   1      38.298  34.015  33.675  1.00  0.00     0.008 C 
ATOM     78  C   UNL A   1      36.478  32.318  33.497  1.00  0.00     0.091 C 
ATOM     79  C   UNL A   1      37.126  33.383  34.407  1.00  0.00     0.012 C 
ATOM     80  C   UNL A   1      37.298  31.014  33.411  1.00  0.00     0.025 C 
ATOM     81  C   UNL A   1      37.580  32.814  35.747  1.00  0.00     0.006 C 
ATOM     82  C   UNL A   1      38.257  30.664  34.566  1.00  0.00     0.002 C 
ATOM     83  C   UNL A   1      38.639  31.743  35.576  1.00  0.00     0.000 C 
BRANCH  76  84
ATOM     84  C   UNL A   1      34.830  33.286  31.979  1.00  0.00     0.318 C 
ATOM     85  O   UNL A   1      33.996  32.513  31.492  1.00  0.00    -0.249 OA
ATOM     86  N   UNL A   1      34.296  34.474  32.336  1.00  0.00    -0.335 N 
ATOM     87  H   UNL A   1      33.315  34.471  32.259  1.00  0.00     0.165 HD
BRANCH  86  88
ATOM     88  C   UNL A   1      34.779  35.721  32.792  1.00  0.00     0.084 C 
ATOM     89  C   UNL A   1      33.984  36.968  32.472  1.00  0.00     0.027 C 
ATOM     90  C   UNL A   1      34.070  36.492  33.881  1.00  0.00     0.027 C 
ENDBRANCH  86  88
ENDBRANCH  76  84
ENDBRANCH  72  74
ENDBRANCH  71  72
ENDBRANCH  70  71
ENDBRANCH   1  70
TORSDOF 16
ENDMDL
MODEL 3
REMARK VINA RESULT:     -11.3      1.892      2.874
REMARK SMILES O=C(OCCOC(=O)[C@H]1CC[C@@H]2CCCC[C@@H]2N1C(=O)NC1CC1)c1ccc(-c2c3nc(c(-c4cccc(S(=O)(=O)[O-])c4F)c4ccc([nH]4)c(-c4cccc(S(=O)(=O)[O-])c4F)c4nc(c(-c5cccc(S(=O)(=O)[O-])c5F)c5ccc2[nH]5)C=C4)C=C3)cc1
REMARK SMILES IDX 4 1 3 2 2 3 1 4 25 5 26 6 87 7 27 8 86 9 28 10 29 11 30 12
REMARK SMILES IDX 80 13 31 14 85 15 79 16 81 17 32 18 84 19 78 20 77 21 33 23
REMARK SMILES IDX 65 24 45 25 64 26 46 27 49 28 63 29 82 30 47 31 48 32 62 34
REMARK SMILES IDX 83 35 50 36 34 37 35 38 43 39 36 40 38 41 44 42 37 43 39 44
REMARK SMILES IDX 40 45 41 46 42 47 66 48 67 49 75 50 68 51 70 52 76 53 69 54
REMARK SMILES IDX 71 55 72 56 73 57 74 58 51 59 52 60 60 61 53 62 55 63 61 64
REMARK SMILES IDX 54 65 56 66 57 67 58 68 59 69 5 70 6 71 7 72 8 73 9 74 10 75
REMARK SMILES IDX 18 76 11 77 17 78 12 79 16 80 13 81 15 82 14 83 19 84 20 85
REMARK SMILES IDX 21 86 22 88 23 89 24 90
REMARK H PARENT 81 22 49 33 21 87
REMARK Flexibility Score: inf
ROOT
ATOM      1  C   UNL A   1      31.794  31.666  27.064  1.00  0.00     0.275 C 
ENDROOT
BRANCH   1   2
ATOM      2  O   UNL A   1      32.633  32.819  26.972  1.00  0.00    -0.458 OA
BRANCH   2   3
ATOM      3  C   UNL A   1      33.268  33.454  27.984  1.00  0.00     0.338 C 
ATOM      4  O   UNL A   1      32.895  34.574  28.323  1.00  0.00    -0.246 OA
BRANCH   3   5
ATOM      5  C   UNL A   1      34.519  32.910  28.587  1.00  0.00     0.060 A 
ATOM      6  C   UNL A   1      35.799  32.953  28.009  1.00  0.00     0.016 A 
ATOM      7  C   UNL A   1      34.368  32.285  29.831  1.00  0.00     0.016 A 
ATOM      8  C   UNL A   1      36.928  32.483  28.698  1.00  0.00     0.010 A 
ATOM      9  C   UNL A   1      35.481  31.767  30.495  1.00  0.00     0.010 A 
ATOM     10  C   UNL A   1      36.776  31.885  29.947  1.00  0.00    -0.014 A 
BRANCH  10  11
ATOM     11  C   UNL A   1      37.851  31.075  30.567  1.00  0.00     0.031 A 
ATOM     12  C   UNL A   1      38.316  31.593  31.893  1.00  0.00     0.074 A 
ATOM     13  C   UNL A   1      38.490  30.058  29.951  1.00  0.00     0.049 A 
ATOM     14  N   UNL A   1      39.340  31.233  32.608  1.00  0.00    -0.248 NA
ATOM     15  C   UNL A   1      37.507  32.678  32.488  1.00  0.00     0.031 C 
ATOM     16  C   UNL A   1      38.105  29.415  28.695  1.00  0.00     0.029 A 
ATOM     17  N   UNL A   1      39.698  29.468  30.247  1.00  0.00    -0.354 N 
ATOM     18  C   UNL A   1      39.272  32.018  33.747  1.00  0.00     0.074 A 
ATOM     19  C   UNL A   1      38.196  32.960  33.575  1.00  0.00     0.031 C 
ATOM     20  C   UNL A   1      39.145  28.699  28.221  1.00  0.00     0.029 A 
ATOM     21  C   UNL A   1      40.230  28.752  29.192  1.00  0.00     0.049 A 
ATOM     22  H   UNL A   1      40.138  29.549  31.124  1.00  0.00     0.167 HD
ATOM     23  C   UNL A   1      39.993  31.905  34.881  1.00  0.00     0.034 A 
ATOM     24  C   UNL A   1      41.460  28.214  29.041  1.00  0.00     0.034 A 
ATOM     25  C   UNL A   1      41.085  30.993  35.009  1.00  0.00     0.049 A 
ATOM     26  C   UNL A   1      42.361  28.206  30.250  1.00  0.00     0.074 A 
ATOM     27  C   UNL A   1      41.875  30.732  36.107  1.00  0.00     0.029 A 
ATOM     28  N   UNL A   1      41.560  30.215  33.961  1.00  0.00    -0.354 N 
ATOM     29  N   UNL A   1      42.182  28.798  31.409  1.00  0.00    -0.248 NA
ATOM     30  C   UNL A   1      43.565  27.367  30.181  1.00  0.00     0.031 C 
ATOM     31  C   UNL A   1      42.860  29.820  35.709  1.00  0.00     0.029 A 
ATOM     32  C   UNL A   1      42.649  29.482  34.378  1.00  0.00     0.049 A 
ATOM     33  H   UNL A   1      41.177  30.192  33.056  1.00  0.00     0.167 HD
ATOM     34  C   UNL A   1      43.185  28.316  32.240  1.00  0.00     0.074 A 
ATOM     35  C   UNL A   1      43.999  27.425  31.435  1.00  0.00     0.031 C 
ATOM     36  C   UNL A   1      43.391  28.556  33.559  1.00  0.00     0.034 A 
BRANCH  23  37
ATOM     37  C   UNL A   1      39.557  32.774  36.023  1.00  0.00     0.023 A 
ATOM     38  C   UNL A   1      40.174  34.033  36.206  1.00  0.00     0.012 A 
ATOM     39  C   UNL A   1      38.643  32.305  36.980  1.00  0.00     0.148 A 
ATOM     40  C   UNL A   1      39.949  34.775  37.363  1.00  0.00     0.002 A 
ATOM     41  C   UNL A   1      38.384  33.075  38.106  1.00  0.00     0.091 A 
ATOM     42  F   UNL A   1      38.095  31.096  36.802  1.00  0.00    -0.205 F 
ATOM     43  C   UNL A   1      39.052  34.295  38.312  1.00  0.00     0.022 A 
BRANCH  41  44
ATOM     44  S   UNL A   1      37.207  32.577  39.364  1.00  0.00     0.127 S 
ATOM     45  O   UNL A   1      35.948  32.607  38.619  1.00  0.00    -0.237 OA
ATOM     46  O   UNL A   1      37.681  31.237  39.708  1.00  0.00    -0.237 OA
ATOM     47  O   UNL A   1      37.322  33.558  40.434  1.00  0.00    -0.744 OA
ENDBRANCH  41  44
ENDBRANCH  23  37
BRANCH  24  48
ATOM     48  C   UNL A   1      41.864  27.522  27.780  1.00  0.00     0.023 A 
ATOM     49  C   UNL A   1      42.228  28.290  26.656  1.00  0.00     0.012 A 
ATOM     50  C   UNL A   1      41.864  26.116  27.672  1.00  0.00     0.148 A 
ATOM     51  C   UNL A   1      42.561  27.676  25.445  1.00  0.00     0.002 A 
ATOM     52  C   UNL A   1      42.232  25.509  26.471  1.00  0.00     0.091 A 
ATOM     53  F   UNL A   1      41.476  25.400  28.734  1.00  0.00    -0.205 F 
ATOM     54  C   UNL A   1      42.570  26.288  25.355  1.00  0.00     0.022 A 
BRANCH  52  55
ATOM     55  S   UNL A   1      42.334  23.724  26.259  1.00  0.00     0.127 S 
ATOM     56  O   UNL A   1      40.933  23.327  26.372  1.00  0.00    -0.237 OA
ATOM     57  O   UNL A   1      42.895  23.617  24.912  1.00  0.00    -0.237 OA
ATOM     58  O   UNL A   1      43.207  23.249  27.324  1.00  0.00    -0.744 OA
ENDBRANCH  52  55
ENDBRANCH  24  48
BRANCH  36  59
ATOM     59  C   UNL A   1      44.466  27.779  34.259  1.00  0.00     0.023 A 
ATOM     60  C   UNL A   1      45.751  28.325  34.417  1.00  0.00     0.012 A 
ATOM     61  C   UNL A   1      44.129  26.572  34.905  1.00  0.00     0.148 A 
ATOM     62  C   UNL A   1      46.693  27.675  35.213  1.00  0.00     0.002 A 
ATOM     63  C   UNL A   1      45.050  25.965  35.745  1.00  0.00     0.091 A 
ATOM     64  F   UNL A   1      42.902  26.065  34.714  1.00  0.00    -0.205 F 
ATOM     65  C   UNL A   1      46.336  26.509  35.892  1.00  0.00     0.022 A 
BRANCH  63  66
ATOM     66  S   UNL A   1      44.627  24.545  36.759  1.00  0.00     0.127 S 
ATOM     67  O   UNL A   1      45.860  24.343  37.517  1.00  0.00    -0.237 OA
ATOM     68  O   UNL A   1      43.502  25.055  37.545  1.00  0.00    -0.237 OA
ATOM     69  O   UNL A   1      44.282  23.474  35.834  1.00  0.00    -0.744 OA
ENDBRANCH  63  66
ENDBRANCH  36  59
ENDBRANCH  10  11
ENDBRANCH   3   5
ENDBRANCH   2   3
ENDBRANCH   1   2
BRANCH   1  70
ATOM     70  C   UNL A   1      32.204  30.469  26.215  1.00  0.00     0.274 C 
BRANCH  70  71
ATOM     71  O   UNL A   1      32.713  29.320  26.902  1.00  0.00    -0.461 OA
BRANCH  71  72
ATOM     72  C   UNL A   1      31.907  28.220  27.088  1.00  0.00     0.329 C 
ATOM     73  O   UNL A   1      31.121  28.105  28.011  1.00  0.00    -0.250 OA
BRANCH  72  74
ATOM     74  C   UNL A   1      32.127  27.178  25.948  1.00  0.00     0.197 C 
ATOM     75  C   UNL A   1      33.561  26.665  25.833  1.00  0.00     0.038 C 
ATOM     76  N   UNL A   1      31.246  26.032  25.574  1.00  0.00    -0.308 N 
ATOM     77  C   UNL A   1      33.808  26.379  24.357  1.00  0.00     0.008 C 
ATOM     78  C   UNL A   1      31.466  25.545  24.139  1.00  0.00     0.091 C 
ATOM     79  C   UNL A   1      32.955  25.197  23.928  1.00  0.00     0.012 C 
ATOM     80  C   UNL A   1      30.910  26.504  23.066  1.00  0.00     0.025 C 
ATOM     81  C   UNL A   1      33.270  24.809  22.488  1.00  0.00     0.006 C 
ATOM     82  C   UNL A   1      31.601  26.554  21.688  1.00  0.00     0.002 C 
ATOM     83  C   UNL A   1      32.989  25.943  21.523  1.00  0.00     0.000 C 
BRANCH  76  84
ATOM     84  C   UNL A   1      30.726  25.076  26.417  1.00  0.00     0.318 C 
ATOM     85  O   UNL A   1      29.539  25.085  26.767  1.00  0.00    -0.249 OA
ATOM     86  N   UNL A   1      31.419  24.042  26.942  1.00  0.00    -0.335 N 
ATOM     87  H   UNL A   1      30.828  23.409  27.411  1.00  0.00     0.165 HD
BRANCH  86  88
ATOM     88  C   UNL A   1      32.769  23.632  26.994  1.00  0.00     0.084 C 
ATOM     89  C   UNL A   1      33.114  22.366  27.749  1.00  0.00     0.027 C 
ATOM     90  C   UNL A   1      33.248  22.398  26.265  1.00  0.00     0.027 C 
ENDBRANCH  86  88
ENDBRANCH  76  84
ENDBRANCH  72  74
ENDBRANCH  71  72
ENDBRANCH  70  71
ENDBRANCH   1  70
TORSDOF 16
ENDMDL
