MODEL 1
REMARK VINA RESULT:     -11.4      0.000      0.000
REMARK SMILES O=C(OCCOC(=O)c1ccc(-n2nc(Cl)ccc2=O)cc1)c1ccc(-c2c3nc(c(-c4cccc(S(=O)(=O)[O-])c4F)c4ccc([nH]4)c(-c4cccc(S(=O)(=O)[O-])c4F)c4nc(c(-c5cccc(S(=O)(=O)[O-])c5F)c5ccc2[nH]5)C=C4)C=C3)cc1
REMARK SMILES IDX 4 1 3 2 2 3 1 4 23 5 24 6 85 7 25 8 84 9 26 10 27 11 28 12
REMARK SMILES IDX 78 13 29 14 83 15 77 16 79 17 30 18 82 19 76 20 75 21 31 23
REMARK SMILES IDX 63 24 43 25 62 26 44 27 47 28 61 29 80 30 45 31 46 32 60 34
REMARK SMILES IDX 81 35 48 36 32 37 33 38 41 39 34 40 36 41 42 42 35 43 37 44
REMARK SMILES IDX 38 45 39 46 40 47 64 48 65 49 73 50 66 51 68 52 74 53 67 54
REMARK SMILES IDX 69 55 70 56 71 57 72 58 49 59 50 60 58 61 51 62 53 63 59 64
REMARK SMILES IDX 52 65 54 66 55 67 56 68 57 69 5 70 6 71 7 72 8 73 9 74 10 75
REMARK SMILES IDX 22 76 11 77 21 78 12 79 13 80 14 81 19 82 15 83 18 84 20 85
REMARK SMILES IDX 16 86 17 87
REMARK H PARENT 79 22 47 33
REMARK Flexibility Score: inf
ROOT
ATOM      1  C   UNL A   1      31.808  31.747  26.905  1.00  0.00     0.275 C 
ENDROOT
BRANCH   1   2
ATOM      2  O   UNL A   1      32.598  32.947  26.902  1.00  0.00    -0.458 OA
BRANCH   2   3
ATOM      3  C   UNL A   1      33.272  33.536  27.918  1.00  0.00     0.338 C 
ATOM      4  O   UNL A   1      32.886  34.634  28.320  1.00  0.00    -0.246 OA
BRANCH   3   5
ATOM      5  C   UNL A   1      34.548  32.996  28.484  1.00  0.00     0.060 A 
ATOM      6  C   UNL A   1      35.840  33.376  28.115  1.00  0.00     0.016 A 
ATOM      7  C   UNL A   1      34.413  32.001  29.468  1.00  0.00     0.016 A 
ATOM      8  C   UNL A   1      36.961  32.852  28.766  1.00  0.00     0.010 A 
ATOM      9  C   UNL A   1      35.530  31.479  30.127  1.00  0.00     0.010 A 
ATOM     10  C   UNL A   1      36.812  31.906  29.780  1.00  0.00    -0.014 A 
BRANCH  10  11
ATOM     11  C   UNL A   1      38.006  31.262  30.366  1.00  0.00     0.031 A 
ATOM     12  C   UNL A   1      38.431  31.671  31.743  1.00  0.00     0.074 A 
ATOM     13  C   UNL A   1      38.673  30.306  29.692  1.00  0.00     0.049 A 
ATOM     14  N   UNL A   1      39.388  31.184  32.486  1.00  0.00    -0.248 NA
ATOM     15  C   UNL A   1      37.654  32.747  32.383  1.00  0.00     0.031 C 
ATOM     16  C   UNL A   1      38.311  29.799  28.370  1.00  0.00     0.029 A 
ATOM     17  N   UNL A   1      39.801  29.597  30.019  1.00  0.00    -0.354 N 
ATOM     18  C   UNL A   1      39.316  31.879  33.685  1.00  0.00     0.074 A 
ATOM     19  C   UNL A   1      38.258  32.854  33.556  1.00  0.00     0.031 C 
ATOM     20  C   UNL A   1      39.226  28.898  27.973  1.00  0.00     0.029 A 
ATOM     21  C   UNL A   1      40.233  28.755  29.021  1.00  0.00     0.049 A 
ATOM     22  H   UNL A   1      40.257  29.682  30.887  1.00  0.00     0.167 HD
ATOM     23  C   UNL A   1      40.044  31.693  34.809  1.00  0.00     0.034 A 
ATOM     24  C   UNL A   1      41.317  27.959  28.967  1.00  0.00     0.034 A 
ATOM     25  C   UNL A   1      41.109  30.739  34.916  1.00  0.00     0.049 A 
ATOM     26  C   UNL A   1      42.188  27.856  30.192  1.00  0.00     0.074 A 
ATOM     27  C   UNL A   1      41.915  30.462  36.004  1.00  0.00     0.029 A 
ATOM     28  N   UNL A   1      41.532  29.919  33.880  1.00  0.00    -0.354 N 
ATOM     29  N   UNL A   1      42.036  28.436  31.359  1.00  0.00    -0.248 NA
ATOM     30  C   UNL A   1      43.344  26.953  30.115  1.00  0.00     0.031 C 
ATOM     31  C   UNL A   1      42.847  29.495  35.614  1.00  0.00     0.029 A 
ATOM     32  C   UNL A   1      42.603  29.147  34.294  1.00  0.00     0.049 A 
ATOM     33  H   UNL A   1      41.129  29.890  32.982  1.00  0.00     0.167 HD
ATOM     34  C   UNL A   1      43.037  27.922  32.173  1.00  0.00     0.074 A 
ATOM     35  C   UNL A   1      43.793  26.988  31.362  1.00  0.00     0.031 C 
ATOM     36  C   UNL A   1      43.304  28.192  33.475  1.00  0.00     0.034 A 
BRANCH  23  37
ATOM     37  C   UNL A   1      39.679  32.532  36.002  1.00  0.00     0.023 A 
ATOM     38  C   UNL A   1      40.328  33.770  36.203  1.00  0.00     0.012 A 
ATOM     39  C   UNL A   1      38.716  32.097  36.929  1.00  0.00     0.148 A 
ATOM     40  C   UNL A   1      40.049  34.543  37.329  1.00  0.00     0.002 A 
ATOM     41  C   UNL A   1      38.416  32.891  38.030  1.00  0.00     0.091 A 
ATOM     42  F   UNL A   1      38.132  30.906  36.733  1.00  0.00    -0.205 F 
ATOM     43  C   UNL A   1      39.089  34.106  38.238  1.00  0.00     0.022 A 
BRANCH  41  44
ATOM     44  S   UNL A   1      37.159  32.446  39.231  1.00  0.00     0.127 S 
ATOM     45  O   UNL A   1      37.431  33.395  40.309  1.00  0.00    -0.237 OA
ATOM     46  O   UNL A   1      35.924  32.702  38.490  1.00  0.00    -0.237 OA
ATOM     47  O   UNL A   1      37.393  31.047  39.559  1.00  0.00    -0.744 OA
ENDBRANCH  41  44
ENDBRANCH  23  37
BRANCH  24  48
ATOM     48  C   UNL A   1      41.598  27.139  27.754  1.00  0.00     0.023 A 
ATOM     49  C   UNL A   1      42.108  27.760  26.597  1.00  0.00     0.012 A 
ATOM     50  C   UNL A   1      41.365  25.751  27.736  1.00  0.00     0.148 A 
ATOM     51  C   UNL A   1      42.352  27.021  25.438  1.00  0.00     0.002 A 
ATOM     52  C   UNL A   1      41.654  25.014  26.591  1.00  0.00     0.091 A 
ATOM     53  F   UNL A   1      40.852  25.176  28.835  1.00  0.00    -0.205 F 
ATOM     54  C   UNL A   1      42.134  25.647  25.437  1.00  0.00     0.022 A 
BRANCH  52  55
ATOM     55  S   UNL A   1      41.513  23.225  26.560  1.00  0.00     0.127 S 
ATOM     56  O   UNL A   1      40.065  23.037  26.593  1.00  0.00    -0.237 OA
ATOM     57  O   UNL A   1      42.153  22.879  25.289  1.00  0.00    -0.237 OA
ATOM     58  O   UNL A   1      42.250  22.783  27.734  1.00  0.00    -0.744 OA
ENDBRANCH  52  55
ENDBRANCH  24  48
BRANCH  36  59
ATOM     59  C   UNL A   1      44.435  27.439  34.122  1.00  0.00     0.023 A 
ATOM     60  C   UNL A   1      45.749  27.941  34.044  1.00  0.00     0.012 A 
ATOM     61  C   UNL A   1      44.175  26.285  34.886  1.00  0.00     0.148 A 
ATOM     62  C   UNL A   1      46.792  27.290  34.699  1.00  0.00     0.002 A 
ATOM     63  C   UNL A   1      45.210  25.672  35.578  1.00  0.00     0.091 A 
ATOM     64  F   UNL A   1      42.920  25.813  34.927  1.00  0.00    -0.205 F 
ATOM     65  C   UNL A   1      46.521  26.165  35.476  1.00  0.00     0.022 A 
BRANCH  63  66
ATOM     66  S   UNL A   1      44.933  24.286  36.687  1.00  0.00     0.127 S 
ATOM     67  O   UNL A   1      44.033  24.875  37.677  1.00  0.00    -0.237 OA
ATOM     68  O   UNL A   1      44.309  23.302  35.802  1.00  0.00    -0.237 OA
ATOM     69  O   UNL A   1      46.247  23.902  37.184  1.00  0.00    -0.744 OA
ENDBRANCH  63  66
ENDBRANCH  36  59
ENDBRANCH  10  11
ENDBRANCH   3   5
ENDBRANCH   2   3
ENDBRANCH   1   2
BRANCH   1  70
ATOM     70  C   UNL A   1      32.571  30.469  26.548  1.00  0.00     0.275 C 
BRANCH  70  71
ATOM     71  O   UNL A   1      31.745  29.299  26.462  1.00  0.00    -0.458 OA
BRANCH  71  72
ATOM     72  C   UNL A   1      31.674  28.736  25.226  1.00  0.00     0.338 C 
ATOM     73  O   UNL A   1      31.206  29.244  24.220  1.00  0.00    -0.246 OA
BRANCH  72  74
ATOM     74  C   UNL A   1      32.384  27.444  25.233  1.00  0.00     0.060 A 
ATOM     75  C   UNL A   1      32.127  26.561  26.284  1.00  0.00     0.018 A 
ATOM     76  C   UNL A   1      33.283  27.093  24.226  1.00  0.00     0.018 A 
ATOM     77  C   UNL A   1      32.676  25.276  26.265  1.00  0.00     0.029 A 
ATOM     78  C   UNL A   1      33.900  25.834  24.261  1.00  0.00     0.029 A 
ATOM     79  C   UNL A   1      33.557  24.892  25.246  1.00  0.00     0.069 A 
BRANCH  79  80
ATOM     80  N   UNL A   1      34.074  23.569  25.172  1.00  0.00    -0.196 N 
ATOM     81  N   UNL A   1      33.185  22.657  24.637  1.00  0.00    -0.153 NA
ATOM     82  C   UNL A   1      35.386  23.249  25.534  1.00  0.00     0.271 A 
ATOM     83  C   UNL A   1      33.561  21.420  24.563  1.00  0.00     0.150 A 
ATOM     84  C   UNL A   1      35.705  21.803  25.555  1.00  0.00     0.077 A 
ATOM     85  O   UNL A   1      36.271  24.032  25.873  1.00  0.00    -0.267 OA
ATOM     86  Cl  UNL A   1      32.547  20.344  23.681  1.00  0.00    -0.060 Cl
ATOM     87  C   UNL A   1      34.832  20.906  25.101  1.00  0.00     0.049 A 
ENDBRANCH  79  80
ENDBRANCH  72  74
ENDBRANCH  71  72
ENDBRANCH  70  71
ENDBRANCH   1  70
TORSDOF 15
ENDMDL
MODEL 2
REMARK VINA RESULT:     -11.4      5.307     10.731
REMARK SMILES O=C(OCCOC(=O)c1ccc(-n2nc(Cl)ccc2=O)cc1)c1ccc(-c2c3nc(c(-c4cccc(S(=O)(=O)[O-])c4F)c4ccc([nH]4)c(-c4cccc(S(=O)(=O)[O-])c4F)c4nc(c(-c5cccc(S(=O)(=O)[O-])c5F)c5ccc2[nH]5)C=C4)C=C3)cc1
REMARK SMILES IDX 4 1 3 2 2 3 1 4 23 5 24 6 85 7 25 8 84 9 26 10 27 11 28 12
REMARK SMILES IDX 78 13 29 14 83 15 77 16 79 17 30 18 82 19 76 20 75 21 31 23
REMARK SMILES IDX 63 24 43 25 62 26 44 27 47 28 61 29 80 30 45 31 46 32 60 34
REMARK SMILES IDX 81 35 48 36 32 37 33 38 41 39 34 40 36 41 42 42 35 43 37 44
REMARK SMILES IDX 38 45 39 46 40 47 64 48 65 49 73 50 66 51 68 52 74 53 67 54
REMARK SMILES IDX 69 55 70 56 71 57 72 58 49 59 50 60 58 61 51 62 53 63 59 64
REMARK SMILES IDX 52 65 54 66 55 67 56 68 57 69 5 70 6 71 7 72 8 73 9 74 10 75
REMARK SMILES IDX 22 76 11 77 21 78 12 79 13 80 14 81 19 82 15 83 18 84 20 85
REMARK SMILES IDX 16 86 17 87
REMARK H PARENT 79 22 47 33
REMARK Flexibility Score: inf
ROOT
ATOM      1  C   UNL A   1      38.194  19.673  25.064  1.00  0.00     0.275 C 
ENDROOT
BRANCH   1   2
ATOM      2  O   UNL A   1      38.593  20.950  25.586  1.00  0.00    -0.458 OA
BRANCH   2   3
ATOM      3  C   UNL A   1      39.608  21.255  26.430  1.00  0.00     0.338 C 
ATOM      4  O   UNL A   1      40.161  20.339  27.037  1.00  0.00    -0.246 OA
BRANCH   3   5
ATOM      5  C   UNL A   1      39.998  22.658  26.779  1.00  0.00     0.060 A 
ATOM      6  C   UNL A   1      39.497  23.823  26.193  1.00  0.00     0.016 A 
ATOM      7  C   UNL A   1      40.973  22.795  27.782  1.00  0.00     0.016 A 
ATOM      8  C   UNL A   1      39.885  25.086  26.652  1.00  0.00     0.010 A 
ATOM      9  C   UNL A   1      41.358  24.054  28.250  1.00  0.00     0.010 A 
ATOM     10  C   UNL A   1      40.812  25.209  27.687  1.00  0.00    -0.014 A 
BRANCH  10  11
ATOM     11  C   UNL A   1      41.313  26.545  28.070  1.00  0.00     0.031 A 
ATOM     12  C   UNL A   1      42.753  26.867  27.804  1.00  0.00     0.074 A 
ATOM     13  C   UNL A   1      40.489  27.461  28.612  1.00  0.00     0.049 A 
ATOM     14  N   UNL A   1      43.387  27.994  27.975  1.00  0.00    -0.248 NA
ATOM     15  C   UNL A   1      43.578  25.786  27.237  1.00  0.00     0.031 C 
ATOM     16  C   UNL A   1      39.063  27.266  28.864  1.00  0.00     0.029 A 
ATOM     17  N   UNL A   1      40.732  28.734  29.060  1.00  0.00    -0.354 N 
ATOM     18  C   UNL A   1      44.678  27.765  27.520  1.00  0.00     0.074 A 
ATOM     19  C   UNL A   1      44.754  26.381  27.112  1.00  0.00     0.031 C 
ATOM     20  C   UNL A   1      38.565  28.359  29.468  1.00  0.00     0.029 A 
ATOM     21  C   UNL A   1      39.636  29.336  29.634  1.00  0.00     0.049 A 
ATOM     22  H   UNL A   1      41.608  29.176  28.977  1.00  0.00     0.167 HD
ATOM     23  C   UNL A   1      45.700  28.644  27.415  1.00  0.00     0.034 A 
ATOM     24  C   UNL A   1      39.518  30.542  30.222  1.00  0.00     0.034 A 
ATOM     25  C   UNL A   1      45.620  30.009  27.848  1.00  0.00     0.049 A 
ATOM     26  C   UNL A   1      40.708  31.465  30.202  1.00  0.00     0.074 A 
ATOM     27  C   UNL A   1      46.592  30.992  27.790  1.00  0.00     0.029 A 
ATOM     28  N   UNL A   1      44.504  30.578  28.443  1.00  0.00    -0.354 N 
ATOM     29  N   UNL A   1      41.889  31.272  29.663  1.00  0.00    -0.248 NA
ATOM     30  C   UNL A   1      40.539  32.786  30.821  1.00  0.00     0.031 C 
ATOM     31  C   UNL A   1      46.070  32.147  28.381  1.00  0.00     0.029 A 
ATOM     32  C   UNL A   1      44.765  31.894  28.778  1.00  0.00     0.049 A 
ATOM     33  H   UNL A   1      43.651  30.114  28.602  1.00  0.00     0.167 HD
ATOM     34  C   UNL A   1      42.580  32.466  29.820  1.00  0.00     0.074 A 
ATOM     35  C   UNL A   1      41.687  33.375  30.512  1.00  0.00     0.031 C 
ATOM     36  C   UNL A   1      43.837  32.787  29.424  1.00  0.00     0.034 A 
BRANCH  23  37
ATOM     37  C   UNL A   1      46.970  28.139  26.788  1.00  0.00     0.023 A 
ATOM     38  C   UNL A   1      48.047  27.756  27.616  1.00  0.00     0.012 A 
ATOM     39  C   UNL A   1      47.107  28.058  25.391  1.00  0.00     0.148 A 
ATOM     40  C   UNL A   1      49.254  27.335  27.062  1.00  0.00     0.002 A 
ATOM     41  C   UNL A   1      48.302  27.602  24.846  1.00  0.00     0.091 A 
ATOM     42  F   UNL A   1      46.082  28.453  24.624  1.00  0.00    -0.205 F 
ATOM     43  C   UNL A   1      49.379  27.253  25.677  1.00  0.00     0.022 A 
BRANCH  41  44
ATOM     44  S   UNL A   1      48.548  27.409  23.078  1.00  0.00     0.127 S 
ATOM     45  O   UNL A   1      48.408  25.963  22.918  1.00  0.00    -0.237 OA
ATOM     46  O   UNL A   1      47.443  28.193  22.528  1.00  0.00    -0.237 OA
ATOM     47  O   UNL A   1      49.873  27.941  22.795  1.00  0.00    -0.744 OA
ENDBRANCH  41  44
ENDBRANCH  23  37
BRANCH  24  48
ATOM     48  C   UNL A   1      38.216  30.979  30.802  1.00  0.00     0.023 A 
ATOM     49  C   UNL A   1      37.935  30.716  32.157  1.00  0.00     0.012 A 
ATOM     50  C   UNL A   1      37.256  31.654  30.024  1.00  0.00     0.148 A 
ATOM     51  C   UNL A   1      36.711  31.089  32.718  1.00  0.00     0.002 A 
ATOM     52  C   UNL A   1      36.058  32.062  30.603  1.00  0.00     0.091 A 
ATOM     53  F   UNL A   1      37.525  31.873  28.727  1.00  0.00    -0.205 F 
ATOM     54  C   UNL A   1      35.777  31.770  31.944  1.00  0.00     0.022 A 
BRANCH  52  55
ATOM     55  S   UNL A   1      34.862  33.049  29.699  1.00  0.00     0.127 S 
ATOM     56  O   UNL A   1      34.333  32.080  28.744  1.00  0.00    -0.237 OA
ATOM     57  O   UNL A   1      33.927  33.455  30.751  1.00  0.00    -0.237 OA
ATOM     58  O   UNL A   1      35.642  34.146  29.145  1.00  0.00    -0.744 OA
ENDBRANCH  52  55
ENDBRANCH  24  48
BRANCH  36  59
ATOM     59  C   UNL A   1      44.311  34.190  29.688  1.00  0.00     0.023 A 
ATOM     60  C   UNL A   1      45.049  34.474  30.854  1.00  0.00     0.012 A 
ATOM     61  C   UNL A   1      44.103  35.202  28.731  1.00  0.00     0.148 A 
ATOM     62  C   UNL A   1      45.554  35.755  31.073  1.00  0.00     0.002 A 
ATOM     63  C   UNL A   1      44.653  36.461  28.932  1.00  0.00     0.091 A 
ATOM     64  F   UNL A   1      43.378  34.913  27.641  1.00  0.00    -0.205 F 
ATOM     65  C   UNL A   1      45.368  36.742  30.107  1.00  0.00     0.022 A 
BRANCH  63  66
ATOM     66  S   UNL A   1      44.556  37.758  27.694  1.00  0.00     0.127 S 
ATOM     67  O   UNL A   1      44.514  38.959  28.526  1.00  0.00    -0.237 OA
ATOM     68  O   UNL A   1      45.804  37.571  26.952  1.00  0.00    -0.237 OA
ATOM     69  O   UNL A   1      43.350  37.487  26.923  1.00  0.00    -0.744 OA
ENDBRANCH  63  66
ENDBRANCH  36  59
ENDBRANCH  10  11
ENDBRANCH   3   5
ENDBRANCH   2   3
ENDBRANCH   1   2
BRANCH   1  70
ATOM     70  C   UNL A   1      36.697  19.530  24.779  1.00  0.00     0.275 C 
BRANCH  70  71
ATOM     71  O   UNL A   1      35.882  20.524  25.416  1.00  0.00    -0.458 OA
BRANCH  71  72
ATOM     72  C   UNL A   1      34.680  20.748  24.820  1.00  0.00     0.338 C 
ATOM     73  O   UNL A   1      33.786  19.934  24.651  1.00  0.00    -0.246 OA
BRANCH  72  74
ATOM     74  C   UNL A   1      34.541  22.185  24.519  1.00  0.00     0.060 A 
ATOM     75  C   UNL A   1      33.437  22.593  23.768  1.00  0.00     0.018 A 
ATOM     76  C   UNL A   1      35.470  23.123  24.969  1.00  0.00     0.018 A 
ATOM     77  C   UNL A   1      33.195  23.956  23.569  1.00  0.00     0.029 A 
ATOM     78  C   UNL A   1      35.267  24.482  24.688  1.00  0.00     0.029 A 
ATOM     79  C   UNL A   1      34.099  24.916  24.039  1.00  0.00     0.069 A 
BRANCH  79  80
ATOM     80  N   UNL A   1      33.838  26.309  23.905  1.00  0.00    -0.196 N 
ATOM     81  N   UNL A   1      33.841  26.989  25.107  1.00  0.00    -0.153 NA
ATOM     82  C   UNL A   1      33.676  26.931  22.663  1.00  0.00     0.271 A 
ATOM     83  C   UNL A   1      33.579  28.257  25.082  1.00  0.00     0.150 A 
ATOM     84  C   UNL A   1      33.246  28.347  22.714  1.00  0.00     0.077 A 
ATOM     85  O   UNL A   1      33.811  26.416  21.555  1.00  0.00    -0.267 OA
ATOM     86  Cl  UNL A   1      33.820  29.136  26.543  1.00  0.00    -0.060 Cl
ATOM     87  C   UNL A   1      33.182  28.999  23.873  1.00  0.00     0.049 A 
ENDBRANCH  79  80
ENDBRANCH  72  74
ENDBRANCH  71  72
ENDBRANCH  70  71
ENDBRANCH   1  70
TORSDOF 15
ENDMDL
MODEL 3
REMARK VINA RESULT:     -11.4      5.286     10.505
REMARK SMILES O=C(OCCOC(=O)c1ccc(-n2nc(Cl)ccc2=O)cc1)c1ccc(-c2c3nc(c(-c4cccc(S(=O)(=O)[O-])c4F)c4ccc([nH]4)c(-c4cccc(S(=O)(=O)[O-])c4F)c4nc(c(-c5cccc(S(=O)(=O)[O-])c5F)c5ccc2[nH]5)C=C4)C=C3)cc1
REMARK SMILES IDX 4 1 3 2 2 3 1 4 23 5 24 6 85 7 25 8 84 9 26 10 27 11 28 12
REMARK SMILES IDX 78 13 29 14 83 15 77 16 79 17 30 18 82 19 76 20 75 21 31 23
REMARK SMILES IDX 63 24 43 25 62 26 44 27 47 28 61 29 80 30 45 31 46 32 60 34
REMARK SMILES IDX 81 35 48 36 32 37 33 38 41 39 34 40 36 41 42 42 35 43 37 44
REMARK SMILES IDX 38 45 39 46 40 47 64 48 65 49 73 50 66 51 68 52 74 53 67 54
REMARK SMILES IDX 69 55 70 56 71 57 72 58 49 59 50 60 58 61 51 62 53 63 59 64
REMARK SMILES IDX 52 65 54 66 55 67 56 68 57 69 5 70 6 71 7 72 8 73 9 74 10 75
REMARK SMILES IDX 22 76 11 77 21 78 12 79 13 80 14 81 19 82 15 83 18 84 20 85
REMARK SMILES IDX 16 86 17 87
REMARK H PARENT 79 22 47 33
REMARK Flexibility Score: inf
ROOT
ATOM      1  C   UNL A   1      36.975  20.298  24.952  1.00  0.00     0.275 C 
ENDROOT
BRANCH   1   2
ATOM      2  O   UNL A   1      37.627  21.075  25.970  1.00  0.00    -0.458 OA
BRANCH   2   3
ATOM      3  C   UNL A   1      38.942  21.363  26.121  1.00  0.00     0.338 C 
ATOM      4  O   UNL A   1      39.756  20.442  26.054  1.00  0.00    -0.246 OA
BRANCH   3   5
ATOM      5  C   UNL A   1      39.450  22.715  26.512  1.00  0.00     0.060 A 
ATOM      6  C   UNL A   1      38.997  23.941  26.020  1.00  0.00     0.016 A 
ATOM      7  C   UNL A   1      40.492  22.733  27.455  1.00  0.00     0.016 A 
ATOM      8  C   UNL A   1      39.500  25.149  26.514  1.00  0.00     0.010 A 
ATOM      9  C   UNL A   1      40.994  23.937  27.959  1.00  0.00     0.010 A 
ATOM     10  C   UNL A   1      40.495  25.154  27.491  1.00  0.00    -0.014 A 
BRANCH  10  11
ATOM     11  C   UNL A   1      41.112  26.430  27.906  1.00  0.00     0.031 A 
ATOM     12  C   UNL A   1      42.550  26.671  27.559  1.00  0.00     0.074 A 
ATOM     13  C   UNL A   1      40.390  27.368  28.548  1.00  0.00     0.049 A 
ATOM     14  N   UNL A   1      43.271  27.744  27.743  1.00  0.00    -0.248 NA
ATOM     15  C   UNL A   1      43.260  25.571  26.883  1.00  0.00     0.031 C 
ATOM     16  C   UNL A   1      38.973  27.254  28.887  1.00  0.00     0.029 A 
ATOM     17  N   UNL A   1      40.750  28.596  29.043  1.00  0.00    -0.354 N 
ATOM     18  C   UNL A   1      44.511  27.456  27.191  1.00  0.00     0.074 A 
ATOM     19  C   UNL A   1      44.464  26.094  26.709  1.00  0.00     0.031 C 
ATOM     20  C   UNL A   1      38.593  28.342  29.578  1.00  0.00     0.029 A 
ATOM     21  C   UNL A   1      39.737  29.236  29.720  1.00  0.00     0.049 A 
ATOM     22  H   UNL A   1      41.647  28.983  28.923  1.00  0.00     0.167 HD
ATOM     23  C   UNL A   1      45.583  28.269  27.060  1.00  0.00     0.034 A 
ATOM     24  C   UNL A   1      39.741  30.413  30.374  1.00  0.00     0.034 A 
ATOM     25  C   UNL A   1      45.626  29.611  27.566  1.00  0.00     0.049 A 
ATOM     26  C   UNL A   1      40.989  31.255  30.320  1.00  0.00     0.074 A 
ATOM     27  C   UNL A   1      46.657  30.529  27.493  1.00  0.00     0.029 A 
ATOM     28  N   UNL A   1      44.592  30.218  28.264  1.00  0.00    -0.354 N 
ATOM     29  N   UNL A   1      42.116  31.015  29.693  1.00  0.00    -0.248 NA
ATOM     30  C   UNL A   1      40.951  32.548  31.015  1.00  0.00     0.031 C 
ATOM     31  C   UNL A   1      46.256  31.682  28.175  1.00  0.00     0.029 A 
ATOM     32  C   UNL A   1      44.965  31.494  28.647  1.00  0.00     0.049 A 
ATOM     33  H   UNL A   1      43.721  29.803  28.457  1.00  0.00     0.167 HD
ATOM     34  C   UNL A   1      42.897  32.151  29.863  1.00  0.00     0.074 A 
ATOM     35  C   UNL A   1      42.116  33.076  30.659  1.00  0.00     0.031 C 
ATOM     36  C   UNL A   1      44.144  32.409  29.399  1.00  0.00     0.034 A 
BRANCH  23  37
ATOM     37  C   UNL A   1      46.771  27.717  26.324  1.00  0.00     0.023 A 
ATOM     38  C   UNL A   1      46.880  27.921  24.932  1.00  0.00     0.012 A 
ATOM     39  C   UNL A   1      47.767  26.987  26.997  1.00  0.00     0.148 A 
ATOM     40  C   UNL A   1      47.943  27.374  24.215  1.00  0.00     0.002 A 
ATOM     41  C   UNL A   1      48.844  26.476  26.281  1.00  0.00     0.091 A 
ATOM     42  F   UNL A   1      47.630  26.782  28.315  1.00  0.00    -0.205 F 
ATOM     43  C   UNL A   1      48.927  26.658  24.891  1.00  0.00     0.022 A 
BRANCH  41  44
ATOM     44  S   UNL A   1      50.191  25.585  27.064  1.00  0.00     0.127 S 
ATOM     45  O   UNL A   1      51.120  25.416  25.949  1.00  0.00    -0.237 OA
ATOM     46  O   UNL A   1      50.632  26.534  28.086  1.00  0.00    -0.237 OA
ATOM     47  O   UNL A   1      49.612  24.354  27.584  1.00  0.00    -0.744 OA
ENDBRANCH  41  44
ENDBRANCH  23  37
BRANCH  24  48
ATOM     48  C   UNL A   1      38.513  30.902  31.063  1.00  0.00     0.023 A 
ATOM     49  C   UNL A   1      38.374  30.718  32.453  1.00  0.00     0.012 A 
ATOM     50  C   UNL A   1      37.483  31.549  30.355  1.00  0.00     0.148 A 
ATOM     51  C   UNL A   1      37.222  31.141  33.118  1.00  0.00     0.002 A 
ATOM     52  C   UNL A   1      36.357  32.008  31.033  1.00  0.00     0.091 A 
ATOM     53  F   UNL A   1      37.614  31.693  29.026  1.00  0.00    -0.205 F 
ATOM     54  C   UNL A   1      36.217  31.794  32.410  1.00  0.00     0.022 A 
BRANCH  52  55
ATOM     55  S   UNL A   1      35.083  32.964  30.207  1.00  0.00     0.127 S 
ATOM     56  O   UNL A   1      34.546  31.993  29.258  1.00  0.00    -0.237 OA
ATOM     57  O   UNL A   1      34.184  33.312  31.309  1.00  0.00    -0.237 OA
ATOM     58  O   UNL A   1      35.792  34.100  29.639  1.00  0.00    -0.744 OA
ENDBRANCH  52  55
ENDBRANCH  24  48
BRANCH  36  59
ATOM     59  C   UNL A   1      44.731  33.761  29.701  1.00  0.00     0.023 A 
ATOM     60  C   UNL A   1      45.502  33.948  30.864  1.00  0.00     0.012 A 
ATOM     61  C   UNL A   1      44.593  34.817  28.779  1.00  0.00     0.148 A 
ATOM     62  C   UNL A   1      46.109  35.177  31.117  1.00  0.00     0.002 A 
ATOM     63  C   UNL A   1      45.243  36.021  29.012  1.00  0.00     0.091 A 
ATOM     64  F   UNL A   1      43.835  34.621  27.690  1.00  0.00    -0.205 F 
ATOM     65  C   UNL A   1      45.991  36.207  30.186  1.00  0.00     0.022 A 
BRANCH  63  66
ATOM     66  S   UNL A   1      45.235  37.362  27.817  1.00  0.00     0.127 S 
ATOM     67  O   UNL A   1      43.822  37.738  27.803  1.00  0.00    -0.237 OA
ATOM     68  O   UNL A   1      46.122  38.341  28.445  1.00  0.00    -0.237 OA
ATOM     69  O   UNL A   1      45.746  36.796  26.576  1.00  0.00    -0.744 OA
ENDBRANCH  63  66
ENDBRANCH  36  59
ENDBRANCH  10  11
ENDBRANCH   3   5
ENDBRANCH   2   3
ENDBRANCH   1   2
BRANCH   1  70
ATOM     70  C   UNL A   1      35.449  20.414  24.927  1.00  0.00     0.275 C 
BRANCH  70  71
ATOM     71  O   UNL A   1      34.963  21.760  25.032  1.00  0.00    -0.458 OA
BRANCH  71  72
ATOM     72  C   UNL A   1      34.355  22.060  26.211  1.00  0.00     0.338 C 
ATOM     73  O   UNL A   1      34.347  21.377  27.222  1.00  0.00    -0.246 OA
BRANCH  72  74
ATOM     74  C   UNL A   1      33.805  23.426  26.146  1.00  0.00     0.060 A 
ATOM     75  C   UNL A   1      34.631  24.442  25.661  1.00  0.00     0.018 A 
ATOM     76  C   UNL A   1      32.499  23.714  26.544  1.00  0.00     0.018 A 
ATOM     77  C   UNL A   1      34.114  25.726  25.459  1.00  0.00     0.029 A 
ATOM     78  C   UNL A   1      32.015  25.025  26.422  1.00  0.00     0.029 A 
ATOM     79  C   UNL A   1      32.796  26.027  25.823  1.00  0.00     0.069 A 
BRANCH  79  80
ATOM     80  N   UNL A   1      32.230  27.307  25.566  1.00  0.00    -0.196 N 
ATOM     81  N   UNL A   1      31.379  27.326  24.478  1.00  0.00    -0.153 NA
ATOM     82  C   UNL A   1      32.458  28.414  26.390  1.00  0.00     0.271 A 
ATOM     83  C   UNL A   1      30.844  28.460  24.150  1.00  0.00     0.150 A 
ATOM     84  C   UNL A   1      31.930  29.702  25.883  1.00  0.00     0.077 A 
ATOM     85  O   UNL A   1      33.078  28.430  27.451  1.00  0.00    -0.267 OA
ATOM     86  Cl  UNL A   1      29.608  28.425  22.952  1.00  0.00    -0.060 Cl
ATOM     87  C   UNL A   1      31.160  29.744  24.798  1.00  0.00     0.049 A 
ENDBRANCH  79  80
ENDBRANCH  72  74
ENDBRANCH  71  72
ENDBRANCH  70  71
ENDBRANCH   1  70
TORSDOF 15
ENDMDL
