MODEL 1
REMARK VINA RESULT:     -10.7      0.000      0.000
REMARK SMILES Cc1ccc(C(=O)CC(C)(C)C(=O)OCCOC(=O)c2ccc(-c3c4nc(c(-c5cccc(S(=O)(=O)[O-])c5F)c5ccc([nH]5)c(-c5cccc(S(=O)(=O)[O-])c5F)c5nc(c(-c6cccc(S(=O)(=O)[O-])c6F)c6ccc3[nH]6)C=C5)C=C4)cc2)cc1
REMARK SMILES IDX 15 1 14 2 12 3 13 4 9 5 10 6 11 7 8 8 6 9 7 10 5 11 1 12
REMARK SMILES IDX 2 13 3 14 84 15 4 16 83 17 16 18 17 19 18 20 19 21 20 22
REMARK SMILES IDX 21 23 82 24 22 25 81 26 23 27 24 28 25 29 75 30 26 31 80 32
REMARK SMILES IDX 74 33 76 34 27 35 79 36 73 37 72 38 28 40 60 41 40 42 59 43
REMARK SMILES IDX 41 44 44 45 58 46 77 47 42 48 43 49 57 51 78 52 45 53 29 54
REMARK SMILES IDX 30 55 38 56 31 57 33 58 39 59 32 60 34 61 35 62 36 63 37 64
REMARK SMILES IDX 61 65 62 66 70 67 63 68 65 69 71 70 64 71 66 72 67 73 68 74
REMARK SMILES IDX 69 75 46 76 47 77 55 78 48 79 50 80 56 81 49 82 51 83 52 84
REMARK SMILES IDX 53 85 54 86
REMARK H PARENT 76 39 44 50
REMARK Flexibility Score: inf
ROOT
ATOM      1  C   UNL A   1      35.232  32.743  33.145  1.00  0.00     0.274 C 
ENDROOT
BRANCH   1   2
ATOM      2  O   UNL A   1      34.120  33.231  32.402  1.00  0.00    -0.462 OA
BRANCH   2   3
ATOM      3  C   UNL A   1      34.445  33.771  31.081  1.00  0.00     0.312 C 
ATOM      4  O   UNL A   1      33.969  34.934  31.138  1.00  0.00    -0.252 OA
BRANCH   3   5
ATOM      5  C   UNL A   1      35.660  32.747  29.533  1.00  0.00     0.070 C 
ATOM      6  C   UNL A   1      37.327  33.073  29.083  1.00  0.00     0.024 C 
ATOM      7  C   UNL A   1      35.260  32.625  27.800  1.00  0.00     0.024 C 
BRANCH   5   8
ATOM      8  C   UNL A   1      36.055  30.904  29.474  1.00  0.00     0.099 C 
BRANCH   8   9
ATOM      9  C   UNL A   1      36.765  29.909  30.465  1.00  0.00     0.163 C 
ATOM     10  O   UNL A   1      36.347  29.803  31.623  1.00  0.00    -0.294 OA
BRANCH   9  11
ATOM     11  C   UNL A   1      37.778  28.902  30.020  1.00  0.00     0.018 A 
ATOM     12  C   UNL A   1      40.093  25.612  28.475  1.00  0.00     0.044 C 
ATOM     13  C   UNL A   1      39.393  26.814  29.036  1.00  0.00    -0.051 A 
ATOM     14  C   UNL A   1      39.090  27.910  28.226  1.00  0.00     0.004 A 
ATOM     15  C   UNL A   1      39.000  26.847  30.377  1.00  0.00     0.004 A 
ATOM     16  C   UNL A   1      38.324  28.967  28.734  1.00  0.00     0.012 A 
ATOM     17  C   UNL A   1      38.220  27.899  30.870  1.00  0.00     0.012 A 
ENDBRANCH   9  11
ENDBRANCH   8   9
ENDBRANCH   5   8
ENDBRANCH   3   5
ENDBRANCH   2   3
ENDBRANCH   1   2
BRANCH   1  18
ATOM     18  C   UNL A   1      35.630  33.784  34.200  1.00  0.00     0.275 C 
BRANCH  18  19
ATOM     19  O   UNL A   1      36.947  34.462  34.209  1.00  0.00    -0.458 OA
BRANCH  19  20
ATOM     20  C   UNL A   1      38.214  34.138  33.808  1.00  0.00     0.338 C 
ATOM     21  O   UNL A   1      38.787  34.748  32.913  1.00  0.00    -0.246 OA
BRANCH  20  22
ATOM     22  C   UNL A   1      38.893  32.952  34.388  1.00  0.00     0.060 A 
ATOM     23  C   UNL A   1      40.416  33.246  35.307  1.00  0.00     0.016 A 
ATOM     24  C   UNL A   1      38.729  31.484  33.390  1.00  0.00     0.016 A 
ATOM     25  C   UNL A   1      41.859  32.156  34.987  1.00  0.00     0.010 A 
ATOM     26  C   UNL A   1      40.127  30.407  33.135  1.00  0.00     0.010 A 
ATOM     27  C   UNL A   1      41.740  30.830  33.823  1.00  0.00    -0.014 A 
BRANCH  27  28
ATOM     28  C   UNL A   1      42.880  30.465  32.961  1.00  0.00     0.031 A 
ATOM     29  C   UNL A   1      42.807  31.091  31.619  1.00  0.00     0.074 A 
ATOM     30  C   UNL A   1      43.949  29.697  33.346  1.00  0.00     0.049 A 
ATOM     31  N   UNL A   1      43.172  30.507  30.529  1.00  0.00    -0.248 NA
ATOM     32  C   UNL A   1      42.093  32.350  31.341  1.00  0.00     0.031 C 
ATOM     33  C   UNL A   1      45.253  29.689  32.669  1.00  0.00     0.029 A 
ATOM     34  N   UNL A   1      44.139  28.729  34.360  1.00  0.00    -0.354 N 
ATOM     35  C   UNL A   1      43.061  31.481  29.557  1.00  0.00     0.074 A 
ATOM     36  C   UNL A   1      42.048  32.361  30.014  1.00  0.00     0.031 C 
ATOM     37  C   UNL A   1      45.992  28.653  33.103  1.00  0.00     0.029 A 
ATOM     38  C   UNL A   1      45.180  27.845  33.998  1.00  0.00     0.049 A 
ATOM     39  H   UNL A   1      43.620  28.678  35.195  1.00  0.00     0.167 HD
ATOM     40  C   UNL A   1      44.071  31.669  28.670  1.00  0.00     0.034 A 
ATOM     41  C   UNL A   1      45.145  26.471  33.938  1.00  0.00     0.034 A 
ATOM     42  C   UNL A   1      45.028  30.563  28.793  1.00  0.00     0.049 A 
ATOM     43  C   UNL A   1      45.019  26.035  32.462  1.00  0.00     0.074 A 
ATOM     44  C   UNL A   1      46.305  30.412  29.298  1.00  0.00     0.029 A 
ATOM     45  N   UNL A   1      44.517  29.282  28.706  1.00  0.00    -0.354 N 
ATOM     46  N   UNL A   1      45.283  26.823  31.447  1.00  0.00    -0.248 NA
ATOM     47  C   UNL A   1      44.547  24.732  31.989  1.00  0.00     0.031 C 
ATOM     48  C   UNL A   1      46.522  29.010  29.527  1.00  0.00     0.029 A 
ATOM     49  C   UNL A   1      45.400  28.311  29.113  1.00  0.00     0.049 A 
ATOM     50  H   UNL A   1      43.607  29.084  28.384  1.00  0.00     0.167 HD
ATOM     51  C   UNL A   1      44.881  26.254  30.265  1.00  0.00     0.074 A 
ATOM     52  C   UNL A   1      44.415  24.937  30.667  1.00  0.00     0.031 C 
ATOM     53  C   UNL A   1      44.943  26.922  29.064  1.00  0.00     0.034 A 
BRANCH  40  54
ATOM     54  C   UNL A   1      44.291  32.925  27.833  1.00  0.00     0.023 A 
ATOM     55  C   UNL A   1      44.285  32.732  26.438  1.00  0.00     0.012 A 
ATOM     56  C   UNL A   1      44.550  34.261  28.266  1.00  0.00     0.148 A 
ATOM     57  C   UNL A   1      44.524  33.773  25.532  1.00  0.00     0.002 A 
ATOM     58  C   UNL A   1      44.723  35.314  27.359  1.00  0.00     0.091 A 
ATOM     59  F   UNL A   1      44.727  34.544  29.557  1.00  0.00    -0.205 F 
ATOM     60  C   UNL A   1      44.727  35.067  25.989  1.00  0.00     0.022 A 
BRANCH  58  61
ATOM     61  S   UNL A   1      44.942  37.035  27.876  1.00  0.00     0.127 S 
ATOM     62  O   UNL A   1      43.761  37.257  28.712  1.00  0.00    -0.237 OA
ATOM     63  O   UNL A   1      46.205  36.982  28.613  1.00  0.00    -0.237 OA
ATOM     64  O   UNL A   1      44.991  37.833  26.657  1.00  0.00    -0.744 OA
ENDBRANCH  58  61
ENDBRANCH  40  54
BRANCH  41  65
ATOM     65  C   UNL A   1      44.657  25.755  35.166  1.00  0.00     0.023 A 
ATOM     66  C   UNL A   1      45.495  25.784  36.312  1.00  0.00     0.012 A 
ATOM     67  C   UNL A   1      43.334  25.403  35.381  1.00  0.00     0.148 A 
ATOM     68  C   UNL A   1      44.970  25.811  37.614  1.00  0.00     0.002 A 
ATOM     69  C   UNL A   1      42.786  25.712  36.626  1.00  0.00     0.091 A 
ATOM     70  F   UNL A   1      42.517  25.101  34.366  1.00  0.00    -0.205 F 
ATOM     71  C   UNL A   1      43.593  25.847  37.774  1.00  0.00     0.022 A 
BRANCH  69  72
ATOM     72  S   UNL A   1      41.789  27.210  36.409  1.00  0.00     0.127 S 
ATOM     73  O   UNL A   1      41.377  27.190  35.015  1.00  0.00    -0.237 OA
ATOM     74  O   UNL A   1      40.778  26.837  37.386  1.00  0.00    -0.237 OA
ATOM     75  O   UNL A   1      42.662  28.299  36.813  1.00  0.00    -0.744 OA
ENDBRANCH  69  72
ENDBRANCH  41  65
BRANCH  53  76
ATOM     76  C   UNL A   1      44.553  26.326  27.707  1.00  0.00     0.023 A 
ATOM     77  C   UNL A   1      43.237  26.427  27.225  1.00  0.00     0.012 A 
ATOM     78  C   UNL A   1      45.436  25.532  26.914  1.00  0.00     0.148 A 
ATOM     79  C   UNL A   1      42.851  25.882  25.993  1.00  0.00     0.002 A 
ATOM     80  C   UNL A   1      45.035  24.931  25.729  1.00  0.00     0.091 A 
ATOM     81  F   UNL A   1      46.700  25.333  27.284  1.00  0.00    -0.205 F 
ATOM     82  C   UNL A   1      43.750  25.136  25.242  1.00  0.00     0.022 A 
BRANCH  80  83
ATOM     83  S   UNL A   1      46.111  23.812  24.810  1.00  0.00     0.127 S 
ATOM     84  O   UNL A   1      47.189  24.714  24.404  1.00  0.00    -0.237 OA
ATOM     85  O   UNL A   1      46.478  22.842  25.840  1.00  0.00    -0.237 OA
ATOM     86  O   UNL A   1      45.320  23.275  23.713  1.00  0.00    -0.744 OA
ENDBRANCH  80  83
ENDBRANCH  53  76
ENDBRANCH  27  28
ENDBRANCH  20  22
ENDBRANCH  19  20
ENDBRANCH  18  19
ENDBRANCH   1  18
TORSDOF 17
ENDMDL
MODEL 2
REMARK VINA RESULT:     -10.6      5.162     10.508
REMARK SMILES Cc1ccc(C(=O)CC(C)(C)C(=O)OCCOC(=O)c2ccc(-c3c4nc(c(-c5cccc(S(=O)(=O)[O-])c5F)c5ccc([nH]5)c(-c5cccc(S(=O)(=O)[O-])c5F)c5nc(c(-c6cccc(S(=O)(=O)[O-])c6F)c6ccc3[nH]6)C=C5)C=C4)cc2)cc1
REMARK SMILES IDX 15 1 14 2 12 3 13 4 9 5 10 6 11 7 8 8 6 9 7 10 5 11 1 12
REMARK SMILES IDX 2 13 3 14 84 15 4 16 83 17 16 18 17 19 18 20 19 21 20 22
REMARK SMILES IDX 21 23 82 24 22 25 81 26 23 27 24 28 25 29 75 30 26 31 80 32
REMARK SMILES IDX 74 33 76 34 27 35 79 36 73 37 72 38 28 40 60 41 40 42 59 43
REMARK SMILES IDX 41 44 44 45 58 46 77 47 42 48 43 49 57 51 78 52 45 53 29 54
REMARK SMILES IDX 30 55 38 56 31 57 33 58 39 59 32 60 34 61 35 62 36 63 37 64
REMARK SMILES IDX 61 65 62 66 70 67 63 68 65 69 71 70 64 71 66 72 67 73 68 74
REMARK SMILES IDX 69 75 46 76 47 77 55 78 48 79 50 80 56 81 49 82 51 83 52 84
REMARK SMILES IDX 53 85 54 86
REMARK H PARENT 76 39 44 50
REMARK Flexibility Score: inf
ROOT
ATOM      1  C   UNL A   1      38.692  21.729  25.642  1.00  0.00     0.274 C 
ENDROOT
BRANCH   1   2
ATOM      2  O   UNL A   1      38.000  22.969  25.528  1.00  0.00    -0.462 OA
BRANCH   2   3
ATOM      3  C   UNL A   1      36.721  22.902  24.819  1.00  0.00     0.312 C 
ATOM      4  O   UNL A   1      37.040  22.351  23.734  1.00  0.00    -0.252 OA
BRANCH   3   5
ATOM      5  C   UNL A   1      34.751  23.483  25.656  1.00  0.00     0.070 C 
ATOM      6  C   UNL A   1      34.080  25.101  25.808  1.00  0.00     0.024 C 
ATOM      7  C   UNL A   1      34.169  23.133  27.304  1.00  0.00     0.024 C 
BRANCH   5   8
ATOM      8  C   UNL A   1      33.068  22.896  25.040  1.00  0.00     0.099 C 
BRANCH   8   9
ATOM      9  C   UNL A   1      32.320  21.511  25.070  1.00  0.00     0.163 C 
ATOM     10  O   UNL A   1      31.130  21.471  25.399  1.00  0.00    -0.294 OA
BRANCH   9  11
ATOM     11  C   UNL A   1      32.901  20.260  24.492  1.00  0.00     0.018 A 
ATOM     12  C   UNL A   1      34.172  16.299  23.365  1.00  0.00     0.044 C 
ATOM     13  C   UNL A   1      33.788  17.720  23.658  1.00  0.00    -0.051 A 
ATOM     14  C   UNL A   1      32.636  18.280  23.101  1.00  0.00     0.004 A 
ATOM     15  C   UNL A   1      34.560  18.502  24.521  1.00  0.00     0.004 A 
ATOM     16  C   UNL A   1      32.224  19.562  23.487  1.00  0.00     0.012 A 
ATOM     17  C   UNL A   1      34.131  19.774  24.913  1.00  0.00     0.012 A 
ENDBRANCH   9  11
ENDBRANCH   8   9
ENDBRANCH   5   8
ENDBRANCH   3   5
ENDBRANCH   2   3
ENDBRANCH   1   2
BRANCH   1  18
ATOM     18  C   UNL A   1      39.759  21.847  26.739  1.00  0.00     0.275 C 
BRANCH  18  19
ATOM     19  O   UNL A   1      40.985  22.666  26.589  1.00  0.00    -0.458 OA
BRANCH  19  20
ATOM     20  C   UNL A   1      41.376  23.917  26.981  1.00  0.00     0.338 C 
ATOM     21  O   UNL A   1      42.481  24.127  27.467  1.00  0.00    -0.246 OA
BRANCH  20  22
ATOM     22  C   UNL A   1      40.414  25.046  26.923  1.00  0.00     0.060 A 
ATOM     23  C   UNL A   1      40.873  26.462  25.906  1.00  0.00     0.016 A 
ATOM     24  C   UNL A   1      39.527  25.299  28.448  1.00  0.00     0.016 A 
ATOM     25  C   UNL A   1      40.641  28.149  26.594  1.00  0.00     0.010 A 
ATOM     26  C   UNL A   1      39.263  26.949  29.073  1.00  0.00     0.010 A 
ATOM     27  C   UNL A   1      39.956  28.372  28.209  1.00  0.00    -0.014 A 
BRANCH  27  28
ATOM     28  C   UNL A   1      40.431  29.449  29.098  1.00  0.00     0.031 A 
ATOM     29  C   UNL A   1      39.391  30.471  29.366  1.00  0.00     0.074 A 
ATOM     30  C   UNL A   1      41.665  29.495  29.694  1.00  0.00     0.049 A 
ATOM     31  N   UNL A   1      39.630  31.733  29.474  1.00  0.00    -0.248 NA
ATOM     32  C   UNL A   1      37.943  30.201  29.302  1.00  0.00     0.031 C 
ATOM     33  C   UNL A   1      41.984  30.299  30.883  1.00  0.00     0.029 A 
ATOM     34  N   UNL A   1      42.918  28.912  29.391  1.00  0.00    -0.354 N 
ATOM     35  C   UNL A   1      38.423  32.286  29.849  1.00  0.00     0.074 A 
ATOM     36  C   UNL A   1      37.428  31.425  29.320  1.00  0.00     0.031 C 
ATOM     37  C   UNL A   1      43.315  30.350  31.062  1.00  0.00     0.029 A 
ATOM     38  C   UNL A   1      43.961  29.689  29.939  1.00  0.00     0.049 A 
ATOM     39  H   UNL A   1      43.042  28.084  28.871  1.00  0.00     0.167 HD
ATOM     40  C   UNL A   1      38.376  33.179  30.870  1.00  0.00     0.034 A 
ATOM     41  C   UNL A   1      45.058  30.214  29.297  1.00  0.00     0.034 A 
ATOM     42  C   UNL A   1      39.745  33.571  31.226  1.00  0.00     0.049 A 
ATOM     43  C   UNL A   1      44.823  31.719  29.047  1.00  0.00     0.074 A 
ATOM     44  C   UNL A   1      40.604  33.322  32.279  1.00  0.00     0.029 A 
ATOM     45  N   UNL A   1      40.551  34.026  30.199  1.00  0.00    -0.354 N 
ATOM     46  N   UNL A   1      43.914  32.427  29.675  1.00  0.00    -0.248 NA
ATOM     47  C   UNL A   1      45.523  32.546  28.061  1.00  0.00     0.031 C 
ATOM     48  C   UNL A   1      41.938  33.620  31.837  1.00  0.00     0.029 A 
ATOM     49  C   UNL A   1      41.880  34.099  30.538  1.00  0.00     0.049 A 
ATOM     50  H   UNL A   1      40.205  34.274  29.310  1.00  0.00     0.167 HD
ATOM     51  C   UNL A   1      43.777  33.668  29.108  1.00  0.00     0.074 A 
ATOM     52  C   UNL A   1      44.812  33.687  28.087  1.00  0.00     0.031 C 
ATOM     53  C   UNL A   1      42.812  34.562  29.510  1.00  0.00     0.034 A 
BRANCH  40  54
ATOM     54  C   UNL A   1      37.127  33.553  31.662  1.00  0.00     0.023 A 
ATOM     55  C   UNL A   1      37.156  33.223  33.031  1.00  0.00     0.012 A 
ATOM     56  C   UNL A   1      35.914  34.150  31.201  1.00  0.00     0.148 A 
ATOM     57  C   UNL A   1      36.069  33.453  33.884  1.00  0.00     0.002 A 
ATOM     58  C   UNL A   1      34.854  34.441  32.068  1.00  0.00     0.091 A 
ATOM     59  F   UNL A   1      35.707  34.373  29.902  1.00  0.00    -0.205 F 
ATOM     60  C   UNL A   1      34.925  34.076  33.410  1.00  0.00     0.022 A 
BRANCH  58  61
ATOM     61  S   UNL A   1      33.350  35.295  31.535  1.00  0.00     0.127 S 
ATOM     62  O   UNL A   1      33.780  36.694  31.521  1.00  0.00    -0.237 OA
ATOM     63  O   UNL A   1      33.115  34.720  30.210  1.00  0.00    -0.237 OA
ATOM     64  O   UNL A   1      32.320  34.978  32.518  1.00  0.00    -0.744 OA
ENDBRANCH  58  61
ENDBRANCH  40  54
BRANCH  41  65
ATOM     65  C   UNL A   1      45.890  29.255  28.491  1.00  0.00     0.023 A 
ATOM     66  C   UNL A   1      45.706  29.257  27.083  1.00  0.00     0.012 A 
ATOM     67  C   UNL A   1      47.051  28.658  28.958  1.00  0.00     0.148 A 
ATOM     68  C   UNL A   1      46.765  29.007  26.197  1.00  0.00     0.002 A 
ATOM     69  C   UNL A   1      48.165  28.687  28.118  1.00  0.00     0.091 A 
ATOM     70  F   UNL A   1      47.219  28.374  30.254  1.00  0.00    -0.205 F 
ATOM     71  C   UNL A   1      48.030  28.788  26.719  1.00  0.00     0.022 A 
BRANCH  69  72
ATOM     72  S   UNL A   1      49.247  30.012  28.718  1.00  0.00     0.127 S 
ATOM     73  O   UNL A   1      50.117  29.376  29.694  1.00  0.00    -0.237 OA
ATOM     74  O   UNL A   1      49.835  30.298  27.418  1.00  0.00    -0.237 OA
ATOM     75  O   UNL A   1      48.342  31.032  29.220  1.00  0.00    -0.744 OA
ENDBRANCH  69  72
ENDBRANCH  41  65
BRANCH  53  76
ATOM     76  C   UNL A   1      42.639  35.978  28.948  1.00  0.00     0.023 A 
ATOM     77  C   UNL A   1      42.072  36.188  27.680  1.00  0.00     0.012 A 
ATOM     78  C   UNL A   1      43.147  37.147  29.593  1.00  0.00     0.148 A 
ATOM     79  C   UNL A   1      41.912  37.470  27.139  1.00  0.00     0.002 A 
ATOM     80  C   UNL A   1      43.054  38.410  29.025  1.00  0.00     0.091 A 
ATOM     81  F   UNL A   1      43.738  37.072  30.784  1.00  0.00    -0.205 F 
ATOM     82  C   UNL A   1      42.400  38.583  27.811  1.00  0.00     0.022 A 
BRANCH  80  83
ATOM     83  S   UNL A   1      43.824  39.858  29.775  1.00  0.00     0.127 S 
ATOM     84  O   UNL A   1      45.243  39.588  29.536  1.00  0.00    -0.237 OA
ATOM     85  O   UNL A   1      43.263  40.942  28.971  1.00  0.00    -0.237 OA
ATOM     86  O   UNL A   1      43.433  39.865  31.176  1.00  0.00    -0.744 OA
ENDBRANCH  80  83
ENDBRANCH  53  76
ENDBRANCH  27  28
ENDBRANCH  20  22
ENDBRANCH  19  20
ENDBRANCH  18  19
ENDBRANCH   1  18
TORSDOF 17
ENDMDL
MODEL 3
REMARK VINA RESULT:     -10.5      4.935     10.276
REMARK SMILES Cc1ccc(C(=O)CC(C)(C)C(=O)OCCOC(=O)c2ccc(-c3c4nc(c(-c5cccc(S(=O)(=O)[O-])c5F)c5ccc([nH]5)c(-c5cccc(S(=O)(=O)[O-])c5F)c5nc(c(-c6cccc(S(=O)(=O)[O-])c6F)c6ccc3[nH]6)C=C5)C=C4)cc2)cc1
REMARK SMILES IDX 15 1 14 2 12 3 13 4 9 5 10 6 11 7 8 8 6 9 7 10 5 11 1 12
REMARK SMILES IDX 2 13 3 14 84 15 4 16 83 17 16 18 17 19 18 20 19 21 20 22
REMARK SMILES IDX 21 23 82 24 22 25 81 26 23 27 24 28 25 29 75 30 26 31 80 32
REMARK SMILES IDX 74 33 76 34 27 35 79 36 73 37 72 38 28 40 60 41 40 42 59 43
REMARK SMILES IDX 41 44 44 45 58 46 77 47 42 48 43 49 57 51 78 52 45 53 29 54
REMARK SMILES IDX 30 55 38 56 31 57 33 58 39 59 32 60 34 61 35 62 36 63 37 64
REMARK SMILES IDX 61 65 62 66 70 67 63 68 65 69 71 70 64 71 66 72 67 73 68 74
REMARK SMILES IDX 69 75 46 76 47 77 55 78 48 79 50 80 56 81 49 82 51 83 52 84
REMARK SMILES IDX 53 85 54 86
REMARK H PARENT 76 39 44 50
REMARK Flexibility Score: inf
ROOT
ATOM      1  C   UNL A   1      38.684  21.592  25.559  1.00  0.00     0.274 C 
ENDROOT
BRANCH   1   2
ATOM      2  O   UNL A   1      38.100  22.887  25.455  1.00  0.00    -0.462 OA
BRANCH   2   3
ATOM      3  C   UNL A   1      36.812  22.933  24.761  1.00  0.00     0.312 C 
ATOM      4  O   UNL A   1      37.129  22.644  23.579  1.00  0.00    -0.252 OA
BRANCH   3   5
ATOM      5  C   UNL A   1      34.840  23.249  25.725  1.00  0.00     0.070 C 
ATOM      6  C   UNL A   1      34.039  24.776  26.065  1.00  0.00     0.024 C 
ATOM      7  C   UNL A   1      34.367  22.688  27.350  1.00  0.00     0.024 C 
BRANCH   5   8
ATOM      8  C   UNL A   1      33.188  22.574  25.117  1.00  0.00     0.099 C 
BRANCH   8   9
ATOM      9  C   UNL A   1      32.423  21.213  25.325  1.00  0.00     0.163 C 
ATOM     10  O   UNL A   1      31.188  21.208  25.346  1.00  0.00    -0.294 OA
BRANCH   9  11
ATOM     11  C   UNL A   1      33.101  19.881  25.264  1.00  0.00     0.018 A 
ATOM     12  C   UNL A   1      34.751  15.998  24.388  1.00  0.00     0.044 C 
ATOM     13  C   UNL A   1      34.243  17.349  24.796  1.00  0.00    -0.051 A 
ATOM     14  C   UNL A   1      34.945  18.509  24.461  1.00  0.00     0.004 A 
ATOM     15  C   UNL A   1      33.038  17.476  25.493  1.00  0.00     0.004 A 
ATOM     16  C   UNL A   1      34.391  19.767  24.737  1.00  0.00     0.012 A 
ATOM     17  C   UNL A   1      32.486  18.735  25.747  1.00  0.00     0.012 A 
ENDBRANCH   9  11
ENDBRANCH   8   9
ENDBRANCH   5   8
ENDBRANCH   3   5
ENDBRANCH   2   3
ENDBRANCH   1   2
BRANCH   1  18
ATOM     18  C   UNL A   1      39.823  21.633  26.586  1.00  0.00     0.275 C 
BRANCH  18  19
ATOM     19  O   UNL A   1      40.972  22.562  26.482  1.00  0.00    -0.458 OA
BRANCH  19  20
ATOM     20  C   UNL A   1      41.274  23.800  26.981  1.00  0.00     0.338 C 
ATOM     21  O   UNL A   1      42.346  24.033  27.528  1.00  0.00    -0.246 OA
BRANCH  20  22
ATOM     22  C   UNL A   1      40.251  24.875  26.965  1.00  0.00     0.060 A 
ATOM     23  C   UNL A   1      40.611  26.334  25.969  1.00  0.00     0.016 A 
ATOM     24  C   UNL A   1      39.382  25.049  28.511  1.00  0.00     0.016 A 
ATOM     25  C   UNL A   1      40.302  27.992  26.696  1.00  0.00     0.010 A 
ATOM     26  C   UNL A   1      39.041  26.669  29.175  1.00  0.00     0.010 A 
ATOM     27  C   UNL A   1      39.638  28.145  28.328  1.00  0.00    -0.014 A 
BRANCH  27  28
ATOM     28  C   UNL A   1      40.071  29.228  29.230  1.00  0.00     0.031 A 
ATOM     29  C   UNL A   1      39.062  30.307  29.356  1.00  0.00     0.074 A 
ATOM     30  C   UNL A   1      41.237  29.238  29.952  1.00  0.00     0.049 A 
ATOM     31  N   UNL A   1      39.351  31.559  29.451  1.00  0.00    -0.248 NA
ATOM     32  C   UNL A   1      37.616  30.103  29.147  1.00  0.00     0.031 C 
ATOM     33  C   UNL A   1      41.471  30.066  31.143  1.00  0.00     0.029 A 
ATOM     34  N   UNL A   1      42.483  28.585  29.800  1.00  0.00    -0.354 N 
ATOM     35  C   UNL A   1      38.141  32.181  29.680  1.00  0.00     0.074 A 
ATOM     36  C   UNL A   1      37.165  31.350  29.074  1.00  0.00     0.031 C 
ATOM     37  C   UNL A   1      42.776  30.061  31.461  1.00  0.00     0.029 A 
ATOM     38  C   UNL A   1      43.502  29.332  30.433  1.00  0.00     0.049 A 
ATOM     39  H   UNL A   1      42.620  27.736  29.322  1.00  0.00     0.167 HD
ATOM     40  C   UNL A   1      38.033  33.110  30.663  1.00  0.00     0.034 A 
ATOM     41  C   UNL A   1      44.685  29.782  29.895  1.00  0.00     0.034 A 
ATOM     42  C   UNL A   1      39.375  33.450  31.150  1.00  0.00     0.049 A 
ATOM     43  C   UNL A   1      44.553  31.287  29.577  1.00  0.00     0.074 A 
ATOM     44  C   UNL A   1      40.106  33.197  32.296  1.00  0.00     0.029 A 
ATOM     45  N   UNL A   1      40.306  33.831  30.202  1.00  0.00    -0.354 N 
ATOM     46  N   UNL A   1      43.621  32.058  30.085  1.00  0.00    -0.248 NA
ATOM     47  C   UNL A   1      45.393  32.045  28.647  1.00  0.00     0.031 C 
ATOM     48  C   UNL A   1      41.492  33.417  31.989  1.00  0.00     0.029 A 
ATOM     49  C   UNL A   1      41.594  33.852  30.678  1.00  0.00     0.049 A 
ATOM     50  H   UNL A   1      40.067  34.063  29.275  1.00  0.00     0.167 HD
ATOM     51  C   UNL A   1      43.606  33.284  29.470  1.00  0.00     0.074 A 
ATOM     52  C   UNL A   1      44.741  33.219  28.563  1.00  0.00     0.031 C 
ATOM     53  C   UNL A   1      42.651  34.236  29.740  1.00  0.00     0.034 A 
BRANCH  40  54
ATOM     54  C   UNL A   1      36.729  33.570  31.307  1.00  0.00     0.023 A 
ATOM     55  C   UNL A   1      36.589  33.268  32.676  1.00  0.00     0.012 A 
ATOM     56  C   UNL A   1      35.609  34.223  30.706  1.00  0.00     0.148 A 
ATOM     57  C   UNL A   1      35.431  33.576  33.401  1.00  0.00     0.002 A 
ATOM     58  C   UNL A   1      34.479  34.590  31.447  1.00  0.00     0.091 A 
ATOM     59  F   UNL A   1      35.558  34.429  29.390  1.00  0.00    -0.205 F 
ATOM     60  C   UNL A   1      34.382  34.251  32.794  1.00  0.00     0.022 A 
BRANCH  58  61
ATOM     61  S   UNL A   1      33.094  35.515  30.739  1.00  0.00     0.127 S 
ATOM     62  O   UNL A   1      32.724  34.684  29.592  1.00  0.00    -0.237 OA
ATOM     63  O   UNL A   1      32.121  35.508  31.831  1.00  0.00    -0.237 OA
ATOM     64  O   UNL A   1      33.606  36.837  30.399  1.00  0.00    -0.744 OA
ENDBRANCH  58  61
ENDBRANCH  40  54
BRANCH  41  65
ATOM     65  C   UNL A   1      45.547  28.757  29.211  1.00  0.00     0.023 A 
ATOM     66  C   UNL A   1      45.886  27.594  29.951  1.00  0.00     0.012 A 
ATOM     67  C   UNL A   1      45.717  28.683  27.838  1.00  0.00     0.148 A 
ATOM     68  C   UNL A   1      46.039  26.342  29.335  1.00  0.00     0.002 A 
ATOM     69  C   UNL A   1      45.583  27.428  27.244  1.00  0.00     0.091 A 
ATOM     70  F   UNL A   1      45.672  29.776  27.067  1.00  0.00    -0.205 F 
ATOM     71  C   UNL A   1      45.814  26.242  27.970  1.00  0.00     0.022 A 
BRANCH  69  72
ATOM     72  S   UNL A   1      43.930  27.367  26.500  1.00  0.00     0.127 S 
ATOM     73  O   UNL A   1      44.016  26.338  25.477  1.00  0.00    -0.237 OA
ATOM     74  O   UNL A   1      43.247  26.999  27.731  1.00  0.00    -0.237 OA
ATOM     75  O   UNL A   1      43.681  28.723  26.040  1.00  0.00    -0.744 OA
ENDBRANCH  69  72
ENDBRANCH  41  65
BRANCH  53  76
ATOM     76  C   UNL A   1      42.608  35.638  29.122  1.00  0.00     0.023 A 
ATOM     77  C   UNL A   1      42.043  35.851  27.854  1.00  0.00     0.012 A 
ATOM     78  C   UNL A   1      43.240  36.775  29.711  1.00  0.00     0.148 A 
ATOM     79  C   UNL A   1      42.001  37.120  27.261  1.00  0.00     0.002 A 
ATOM     80  C   UNL A   1      43.262  38.017  29.091  1.00  0.00     0.091 A 
ATOM     81  F   UNL A   1      43.842  36.691  30.895  1.00  0.00    -0.205 F 
ATOM     82  C   UNL A   1      42.608  38.205  27.880  1.00  0.00     0.022 A 
BRANCH  80  83
ATOM     83  S   UNL A   1      44.185  39.410  29.769  1.00  0.00     0.127 S 
ATOM     84  O   UNL A   1      43.513  39.606  31.054  1.00  0.00    -0.237 OA
ATOM     85  O   UNL A   1      45.535  38.855  29.862  1.00  0.00    -0.237 OA
ATOM     86  O   UNL A   1      44.037  40.512  28.830  1.00  0.00    -0.744 OA
ENDBRANCH  80  83
ENDBRANCH  53  76
ENDBRANCH  27  28
ENDBRANCH  20  22
ENDBRANCH  19  20
ENDBRANCH  18  19
ENDBRANCH   1  18
TORSDOF 17
ENDMDL
