MODEL 1
REMARK VINA RESULT:     -11.2      0.000      0.000
REMARK SMILES C[C@@H]1[C@@H](C(=O)OCCOC(=O)c2ccc(-c3c4nc(c(-c5cccc(S(=O)(=O)[O-])c5F)c5ccc([nH]5)c(-c5cccc(S(=O)(=O)[O-])c5F)c5nc(c(-c6cccc(S(=O)(=O)[O-])c6F)c6ccc3[nH]6)C=C5)C=C4)cc2)CCN1C(=O)[C@@H]1CCCN(C(N)=O)C1
REMARK SMILES IDX 7 1 6 2 4 3 5 4 3 5 1 6 2 7 77 8 75 9 76 10 78 11 79 12
REMARK SMILES IDX 80 13 81 14 88 15 82 16 84 17 83 18 85 19 86 20 87 21 8 24
REMARK SMILES IDX 9 25 10 26 11 27 12 28 13 29 74 30 14 31 73 32 15 33 16 34
REMARK SMILES IDX 17 35 67 36 18 37 72 38 66 39 68 40 19 41 71 42 65 43 64 44
REMARK SMILES IDX 20 46 52 47 32 48 51 49 33 50 36 51 50 52 69 53 34 54 35 55
REMARK SMILES IDX 49 57 70 58 37 59 21 60 22 61 30 62 23 63 25 64 31 65 24 66
REMARK SMILES IDX 26 67 27 68 28 69 29 70 53 71 54 72 62 73 55 74 57 75 63 76
REMARK SMILES IDX 56 77 58 78 59 79 60 80 61 81 38 82 39 83 47 84 40 85 42 86
REMARK SMILES IDX 48 87 41 88 43 89 44 90 45 91 46 92
REMARK H PARENT 86 22 86 23 68 45 36 56
REMARK Flexibility Score: inf
ROOT
ATOM      1  C   UNL A   1      35.486  20.511  24.897  1.00  0.00     0.274 C 
ENDROOT
BRANCH   1   2
ATOM      2  O   UNL A   1      34.752  21.746  24.829  1.00  0.00    -0.462 OA
BRANCH   2   3
ATOM      3  C   UNL A   1      33.746  21.878  25.741  1.00  0.00     0.311 C 
ATOM      4  O   UNL A   1      33.865  21.653  26.940  1.00  0.00    -0.252 OA
BRANCH   3   5
ATOM      5  C   UNL A   1      32.430  22.177  25.040  1.00  0.00     0.123 C 
ATOM      6  C   UNL A   1      31.246  23.646  23.395  1.00  0.00     0.032 C 
ATOM      7  C   UNL A   1      32.287  23.621  24.530  1.00  0.00     0.096 C 
ATOM      8  N   UNL A   1      31.809  24.381  25.694  1.00  0.00    -0.339 N 
ATOM      9  C   UNL A   1      31.281  22.067  26.042  1.00  0.00     0.039 C 
ATOM     10  C   UNL A   1      31.199  23.464  26.652  1.00  0.00     0.121 C 
BRANCH   8  11
ATOM     11  C   UNL A   1      31.941  25.698  26.083  1.00  0.00     0.227 C 
ATOM     12  O   UNL A   1      30.944  26.265  26.566  1.00  0.00    -0.275 OA
BRANCH  11  13
ATOM     13  C   UNL A   1      33.227  26.549  26.018  1.00  0.00     0.098 C 
ATOM     14  C   UNL A   1      33.149  28.027  26.378  1.00  0.00     0.017 C 
ATOM     15  C   UNL A   1      34.108  26.287  24.804  1.00  0.00     0.134 C 
ATOM     16  C   UNL A   1      32.959  28.971  25.202  1.00  0.00     0.022 C 
ATOM     17  N   UNL A   1      33.703  27.096  23.677  1.00  0.00    -0.324 N 
ATOM     18  C   UNL A   1      33.633  28.535  23.908  1.00  0.00     0.121 C 
BRANCH  17  19
ATOM     19  C   UNL A   1      33.393  26.568  22.449  1.00  0.00     0.314 C 
ATOM     20  N   UNL A   1      32.530  27.271  21.688  1.00  0.00    -0.351 N 
ATOM     21  O   UNL A   1      33.874  25.534  22.005  1.00  0.00    -0.249 OA
ATOM     22  H   UNL A   1      32.136  28.104  22.033  1.00  0.00     0.161 HD
ATOM     23  H   UNL A   1      32.294  26.951  20.788  1.00  0.00     0.161 HD
ENDBRANCH  17  19
ENDBRANCH  11  13
ENDBRANCH   8  11
ENDBRANCH   3   5
ENDBRANCH   2   3
ENDBRANCH   1   2
BRANCH   1  24
ATOM     24  C   UNL A   1      36.975  20.755  24.650  1.00  0.00     0.275 C 
BRANCH  24  25
ATOM     25  O   UNL A   1      37.546  21.493  25.743  1.00  0.00    -0.458 OA
BRANCH  25  26
ATOM     26  C   UNL A   1      38.845  21.214  26.018  1.00  0.00     0.338 C 
ATOM     27  O   UNL A   1      39.410  20.146  25.826  1.00  0.00    -0.246 OA
BRANCH  26  28
ATOM     28  C   UNL A   1      39.546  22.433  26.490  1.00  0.00     0.060 A 
ATOM     29  C   UNL A   1      39.077  23.664  26.019  1.00  0.00     0.016 A 
ATOM     30  C   UNL A   1      40.577  22.395  27.439  1.00  0.00     0.016 A 
ATOM     31  C   UNL A   1      39.602  24.850  26.531  1.00  0.00     0.010 A 
ATOM     32  C   UNL A   1      41.116  23.589  27.939  1.00  0.00     0.010 A 
ATOM     33  C   UNL A   1      40.618  24.825  27.503  1.00  0.00    -0.014 A 
BRANCH  33  34
ATOM     34  C   UNL A   1      41.208  26.110  27.961  1.00  0.00     0.031 A 
ATOM     35  C   UNL A   1      42.609  26.435  27.530  1.00  0.00     0.074 A 
ATOM     36  C   UNL A   1      40.512  27.000  28.695  1.00  0.00     0.049 A 
ATOM     37  N   UNL A   1      43.283  27.545  27.674  1.00  0.00    -0.248 NA
ATOM     38  C   UNL A   1      43.342  25.366  26.830  1.00  0.00     0.031 C 
ATOM     39  C   UNL A   1      39.146  26.815  29.180  1.00  0.00     0.029 A 
ATOM     40  N   UNL A   1      40.852  28.257  29.141  1.00  0.00    -0.354 N 
ATOM     41  C   UNL A   1      44.514  27.311  27.080  1.00  0.00     0.074 A 
ATOM     42  C   UNL A   1      44.489  25.965  26.553  1.00  0.00     0.031 C 
ATOM     43  C   UNL A   1      38.745  27.936  29.810  1.00  0.00     0.029 A 
ATOM     44  C   UNL A   1      39.844  28.898  29.830  1.00  0.00     0.049 A 
ATOM     45  H   UNL A   1      41.735  28.662  28.984  1.00  0.00     0.167 HD
ATOM     46  C   UNL A   1      45.586  28.131  26.997  1.00  0.00     0.034 A 
ATOM     47  C   UNL A   1      39.819  30.114  30.414  1.00  0.00     0.034 A 
ATOM     48  C   UNL A   1      45.665  29.427  27.603  1.00  0.00     0.049 A 
ATOM     49  C   UNL A   1      41.063  30.970  30.376  1.00  0.00     0.074 A 
ATOM     50  C   UNL A   1      46.741  30.293  27.641  1.00  0.00     0.029 A 
ATOM     51  N   UNL A   1      44.638  30.029  28.314  1.00  0.00    -0.354 N 
ATOM     52  N   UNL A   1      42.181  30.780  29.719  1.00  0.00    -0.248 NA
ATOM     53  C   UNL A   1      41.040  32.212  31.168  1.00  0.00     0.031 C 
ATOM     54  C   UNL A   1      46.376  31.408  28.402  1.00  0.00     0.029 A 
ATOM     55  C   UNL A   1      45.061  31.248  28.811  1.00  0.00     0.049 A 
ATOM     56  H   UNL A   1      43.741  29.644  28.446  1.00  0.00     0.167 HD
ATOM     57  C   UNL A   1      42.984  31.881  30.002  1.00  0.00     0.074 A 
ATOM     58  C   UNL A   1      42.211  32.754  30.859  1.00  0.00     0.031 C 
ATOM     59  C   UNL A   1      44.257  32.134  29.612  1.00  0.00     0.034 A 
BRANCH  46  60
ATOM     60  C   UNL A   1      46.775  27.607  26.247  1.00  0.00     0.023 A 
ATOM     61  C   UNL A   1      46.862  27.817  24.856  1.00  0.00     0.012 A 
ATOM     62  C   UNL A   1      47.792  26.899  26.913  1.00  0.00     0.148 A 
ATOM     63  C   UNL A   1      47.938  27.306  24.133  1.00  0.00     0.002 A 
ATOM     64  C   UNL A   1      48.877  26.422  26.190  1.00  0.00     0.091 A 
ATOM     65  F   UNL A   1      47.664  26.684  28.229  1.00  0.00    -0.205 F 
ATOM     66  C   UNL A   1      48.947  26.616  24.800  1.00  0.00     0.022 A 
BRANCH  64  67
ATOM     67  S   UNL A   1      50.245  25.556  26.965  1.00  0.00     0.127 S 
ATOM     68  O   UNL A   1      51.150  25.362  25.832  1.00  0.00    -0.237 OA
ATOM     69  O   UNL A   1      50.704  26.532  27.954  1.00  0.00    -0.237 OA
ATOM     70  O   UNL A   1      49.681  24.338  27.529  1.00  0.00    -0.744 OA
ENDBRANCH  64  67
ENDBRANCH  46  60
BRANCH  47  71
ATOM     71  C   UNL A   1      38.587  30.626  31.092  1.00  0.00     0.023 A 
ATOM     72  C   UNL A   1      38.399  30.383  32.469  1.00  0.00     0.012 A 
ATOM     73  C   UNL A   1      37.578  31.302  30.379  1.00  0.00     0.148 A 
ATOM     74  C   UNL A   1      37.219  30.767  33.110  1.00  0.00     0.002 A 
ATOM     75  C   UNL A   1      36.432  31.738  31.038  1.00  0.00     0.091 A 
ATOM     76  F   UNL A   1      37.747  31.494  29.063  1.00  0.00    -0.205 F 
ATOM     77  C   UNL A   1      36.240  31.452  32.398  1.00  0.00     0.022 A 
BRANCH  75  78
ATOM     78  S   UNL A   1      35.187  32.741  30.220  1.00  0.00     0.127 S 
ATOM     79  O   UNL A   1      35.983  33.859  29.722  1.00  0.00    -0.237 OA
ATOM     80  O   UNL A   1      34.689  31.829  29.190  1.00  0.00    -0.237 OA
ATOM     81  O   UNL A   1      34.212  33.062  31.253  1.00  0.00    -0.744 OA
ENDBRANCH  75  78
ENDBRANCH  47  71
BRANCH  59  82
ATOM     82  C   UNL A   1      44.903  33.413  30.082  1.00  0.00     0.023 A 
ATOM     83  C   UNL A   1      45.676  33.415  31.259  1.00  0.00     0.012 A 
ATOM     84  C   UNL A   1      44.831  34.582  29.298  1.00  0.00     0.148 A 
ATOM     85  C   UNL A   1      46.351  34.566  31.661  1.00  0.00     0.002 A 
ATOM     86  C   UNL A   1      45.546  35.711  29.680  1.00  0.00     0.091 A 
ATOM     87  F   UNL A   1      44.073  34.566  28.192  1.00  0.00    -0.205 F 
ATOM     88  C   UNL A   1      46.299  35.709  30.865  1.00  0.00     0.022 A 
BRANCH  86  89
ATOM     89  S   UNL A   1      45.618  37.191  28.662  1.00  0.00     0.127 S 
ATOM     90  O   UNL A   1      46.511  38.045  29.441  1.00  0.00    -0.237 OA
ATOM     91  O   UNL A   1      46.193  36.684  27.415  1.00  0.00    -0.237 OA
ATOM     92  O   UNL A   1      44.244  37.661  28.543  1.00  0.00    -0.744 OA
ENDBRANCH  86  89
ENDBRANCH  59  82
ENDBRANCH  33  34
ENDBRANCH  26  28
ENDBRANCH  25  26
ENDBRANCH  24  25
ENDBRANCH   1  24
TORSDOF 17
ENDMDL
MODEL 2
REMARK VINA RESULT:     -11.1      1.689      2.354
REMARK SMILES C[C@@H]1[C@@H](C(=O)OCCOC(=O)c2ccc(-c3c4nc(c(-c5cccc(S(=O)(=O)[O-])c5F)c5ccc([nH]5)c(-c5cccc(S(=O)(=O)[O-])c5F)c5nc(c(-c6cccc(S(=O)(=O)[O-])c6F)c6ccc3[nH]6)C=C5)C=C4)cc2)CCN1C(=O)[C@@H]1CCCN(C(N)=O)C1
REMARK SMILES IDX 7 1 6 2 4 3 5 4 3 5 1 6 2 7 77 8 75 9 76 10 78 11 79 12
REMARK SMILES IDX 80 13 81 14 88 15 82 16 84 17 83 18 85 19 86 20 87 21 8 24
REMARK SMILES IDX 9 25 10 26 11 27 12 28 13 29 74 30 14 31 73 32 15 33 16 34
REMARK SMILES IDX 17 35 67 36 18 37 72 38 66 39 68 40 19 41 71 42 65 43 64 44
REMARK SMILES IDX 20 46 52 47 32 48 51 49 33 50 36 51 50 52 69 53 34 54 35 55
REMARK SMILES IDX 49 57 70 58 37 59 21 60 22 61 30 62 23 63 25 64 31 65 24 66
REMARK SMILES IDX 26 67 27 68 28 69 29 70 53 71 54 72 62 73 55 74 57 75 63 76
REMARK SMILES IDX 56 77 58 78 59 79 60 80 61 81 38 82 39 83 47 84 40 85 42 86
REMARK SMILES IDX 48 87 41 88 43 89 44 90 45 91 46 92
REMARK H PARENT 86 22 86 23 68 45 36 56
REMARK Flexibility Score: inf
ROOT
ATOM      1  C   UNL A   1      36.256  20.927  25.157  1.00  0.00     0.274 C 
ENDROOT
BRANCH   1   2
ATOM      2  O   UNL A   1      35.810  21.674  24.011  1.00  0.00    -0.462 OA
BRANCH   2   3
ATOM      3  C   UNL A   1      35.598  23.004  24.229  1.00  0.00     0.311 C 
ATOM      4  O   UNL A   1      36.470  23.863  24.172  1.00  0.00    -0.252 OA
BRANCH   3   5
ATOM      5  C   UNL A   1      34.176  23.242  24.714  1.00  0.00     0.123 C 
ATOM      6  C   UNL A   1      31.776  23.490  24.051  1.00  0.00     0.032 C 
ATOM      7  C   UNL A   1      33.225  23.827  23.656  1.00  0.00     0.096 C 
ATOM      8  N   UNL A   1      33.458  25.277  23.708  1.00  0.00    -0.339 N 
ATOM      9  C   UNL A   1      34.179  24.329  25.789  1.00  0.00     0.039 C 
ATOM     10  C   UNL A   1      34.055  25.624  24.993  1.00  0.00     0.121 C 
BRANCH   8  11
ATOM     11  C   UNL A   1      33.345  26.287  22.774  1.00  0.00     0.227 C 
ATOM     12  O   UNL A   1      33.844  26.100  21.650  1.00  0.00    -0.275 OA
BRANCH  11  13
ATOM     13  C   UNL A   1      32.618  27.634  22.966  1.00  0.00     0.098 C 
ATOM     14  C   UNL A   1      33.360  28.781  23.639  1.00  0.00     0.017 C 
ATOM     15  C   UNL A   1      31.171  27.522  23.429  1.00  0.00     0.134 C 
ATOM     16  C   UNL A   1      33.129  28.914  25.135  1.00  0.00     0.022 C 
ATOM     17  N   UNL A   1      31.085  27.449  24.870  1.00  0.00    -0.324 N 
ATOM     18  C   UNL A   1      31.735  28.525  25.610  1.00  0.00     0.121 C 
BRANCH  17  19
ATOM     19  C   UNL A   1      30.438  26.435  25.531  1.00  0.00     0.314 C 
ATOM     20  N   UNL A   1      29.426  25.834  24.876  1.00  0.00    -0.351 N 
ATOM     21  O   UNL A   1      30.749  26.034  26.645  1.00  0.00    -0.249 OA
ATOM     22  H   UNL A   1      29.165  26.147  23.979  1.00  0.00     0.161 HD
ATOM     23  H   UNL A   1      28.945  25.084  25.294  1.00  0.00     0.161 HD
ENDBRANCH  17  19
ENDBRANCH  11  13
ENDBRANCH   8  11
ENDBRANCH   3   5
ENDBRANCH   2   3
ENDBRANCH   1   2
BRANCH   1  24
ATOM     24  C   UNL A   1      37.728  20.542  25.008  1.00  0.00     0.275 C 
BRANCH  24  25
ATOM     25  O   UNL A   1      38.373  20.542  26.293  1.00  0.00    -0.458 OA
BRANCH  25  26
ATOM     26  C   UNL A   1      39.728  20.464  26.263  1.00  0.00     0.338 C 
ATOM     27  O   UNL A   1      40.388  19.506  25.888  1.00  0.00    -0.246 OA
BRANCH  26  28
ATOM     28  C   UNL A   1      40.327  21.765  26.651  1.00  0.00     0.060 A 
ATOM     29  C   UNL A   1      39.827  22.912  26.027  1.00  0.00     0.016 A 
ATOM     30  C   UNL A   1      41.290  21.883  27.663  1.00  0.00     0.016 A 
ATOM     31  C   UNL A   1      40.251  24.173  26.446  1.00  0.00     0.010 A 
ATOM     32  C   UNL A   1      41.728  23.151  28.070  1.00  0.00     0.010 A 
ATOM     33  C   UNL A   1      41.196  24.306  27.479  1.00  0.00    -0.014 A 
BRANCH  33  34
ATOM     34  C   UNL A   1      41.683  25.663  27.839  1.00  0.00     0.031 A 
ATOM     35  C   UNL A   1      43.047  26.072  27.363  1.00  0.00     0.074 A 
ATOM     36  C   UNL A   1      40.923  26.542  28.522  1.00  0.00     0.049 A 
ATOM     37  N   UNL A   1      43.628  27.240  27.420  1.00  0.00    -0.248 NA
ATOM     38  C   UNL A   1      43.858  25.021  26.724  1.00  0.00     0.031 C 
ATOM     39  C   UNL A   1      39.583  26.280  29.042  1.00  0.00     0.029 A 
ATOM     40  N   UNL A   1      41.163  27.850  28.877  1.00  0.00    -0.354 N 
ATOM     41  C   UNL A   1      44.868  27.067  26.822  1.00  0.00     0.074 A 
ATOM     42  C   UNL A   1      44.948  25.690  26.388  1.00  0.00     0.031 C 
ATOM     43  C   UNL A   1      39.098  27.404  29.601  1.00  0.00     0.029 A 
ATOM     44  C   UNL A   1      40.113  28.452  29.537  1.00  0.00     0.049 A 
ATOM     45  H   UNL A   1      42.008  28.314  28.678  1.00  0.00     0.167 HD
ATOM     46  C   UNL A   1      45.866  27.964  26.665  1.00  0.00     0.034 A 
ATOM     47  C   UNL A   1      39.994  29.700  30.038  1.00  0.00     0.034 A 
ATOM     48  C   UNL A   1      45.844  29.302  27.181  1.00  0.00     0.049 A 
ATOM     49  C   UNL A   1      41.162  30.650  29.921  1.00  0.00     0.074 A 
ATOM     50  C   UNL A   1      46.846  30.253  27.142  1.00  0.00     0.029 A 
ATOM     51  N   UNL A   1      44.780  29.865  27.867  1.00  0.00    -0.354 N 
ATOM     52  N   UNL A   1      42.285  30.507  29.259  1.00  0.00    -0.248 NA
ATOM     53  C   UNL A   1      41.046  31.937  30.627  1.00  0.00     0.031 C 
ATOM     54  C   UNL A   1      46.398  31.384  27.833  1.00  0.00     0.029 A 
ATOM     55  C   UNL A   1      45.106  31.146  28.273  1.00  0.00     0.049 A 
ATOM     56  H   UNL A   1      43.919  29.418  28.040  1.00  0.00     0.167 HD
ATOM     57  C   UNL A   1      42.997  31.687  29.453  1.00  0.00     0.074 A 
ATOM     58  C   UNL A   1      42.164  32.551  30.263  1.00  0.00     0.031 C 
ATOM     59  C   UNL A   1      44.240  32.016  29.026  1.00  0.00     0.034 A 
BRANCH  46  60
ATOM     60  C   UNL A   1      47.087  27.490  25.933  1.00  0.00     0.023 A 
ATOM     61  C   UNL A   1      48.097  26.809  26.642  1.00  0.00     0.012 A 
ATOM     62  C   UNL A   1      47.240  27.730  24.556  1.00  0.00     0.148 A 
ATOM     63  C   UNL A   1      49.257  26.393  25.991  1.00  0.00     0.002 A 
ATOM     64  C   UNL A   1      48.384  27.285  23.908  1.00  0.00     0.091 A 
ATOM     65  F   UNL A   1      46.281  28.413  23.916  1.00  0.00    -0.205 F 
ATOM     66  C   UNL A   1      49.397  26.625  24.625  1.00  0.00     0.022 A 
BRANCH  64  67
ATOM     67  S   UNL A   1      48.639  27.500  22.145  1.00  0.00     0.127 S 
ATOM     68  O   UNL A   1      48.855  26.121  21.708  1.00  0.00    -0.237 OA
ATOM     69  O   UNL A   1      47.365  28.082  21.721  1.00  0.00    -0.237 OA
ATOM     70  O   UNL A   1      49.787  28.385  22.010  1.00  0.00    -0.744 OA
ENDBRANCH  64  67
ENDBRANCH  46  60
BRANCH  47  71
ATOM     71  C   UNL A   1      38.732  30.154  30.700  1.00  0.00     0.023 A 
ATOM     72  C   UNL A   1      38.493  29.814  32.049  1.00  0.00     0.012 A 
ATOM     73  C   UNL A   1      37.744  30.871  29.997  1.00  0.00     0.148 A 
ATOM     74  C   UNL A   1      37.286  30.145  32.668  1.00  0.00     0.002 A 
ATOM     75  C   UNL A   1      36.570  31.252  30.639  1.00  0.00     0.091 A 
ATOM     76  F   UNL A   1      37.963  31.155  28.705  1.00  0.00    -0.205 F 
ATOM     77  C   UNL A   1      36.328  30.871  31.967  1.00  0.00     0.022 A 
BRANCH  75  78
ATOM     78  S   UNL A   1      35.348  32.301  29.844  1.00  0.00     0.127 S 
ATOM     79  O   UNL A   1      36.149  33.462  29.467  1.00  0.00    -0.237 OA
ATOM     80  O   UNL A   1      34.909  31.464  28.727  1.00  0.00    -0.237 OA
ATOM     81  O   UNL A   1      34.324  32.531  30.853  1.00  0.00    -0.744 OA
ENDBRANCH  75  78
ENDBRANCH  47  71
BRANCH  59  82
ATOM     82  C   UNL A   1      44.783  33.373  29.397  1.00  0.00     0.023 A 
ATOM     83  C   UNL A   1      45.503  33.534  30.596  1.00  0.00     0.012 A 
ATOM     84  C   UNL A   1      44.672  34.458  28.505  1.00  0.00     0.148 A 
ATOM     85  C   UNL A   1      46.086  34.760  30.913  1.00  0.00     0.002 A 
ATOM     86  C   UNL A   1      45.296  35.662  28.805  1.00  0.00     0.091 A 
ATOM     87  F   UNL A   1      43.965  34.290  27.377  1.00  0.00    -0.205 F 
ATOM     88  C   UNL A   1      45.996  35.819  30.012  1.00  0.00     0.022 A 
BRANCH  86  89
ATOM     89  S   UNL A   1      45.319  37.044  27.656  1.00  0.00     0.127 S 
ATOM     90  O   UNL A   1      43.894  37.319  27.492  1.00  0.00    -0.237 OA
ATOM     91  O   UNL A   1      46.054  38.062  28.407  1.00  0.00    -0.237 OA
ATOM     92  O   UNL A   1      46.006  36.563  26.465  1.00  0.00    -0.744 OA
ENDBRANCH  86  89
ENDBRANCH  59  82
ENDBRANCH  33  34
ENDBRANCH  26  28
ENDBRANCH  25  26
ENDBRANCH  24  25
ENDBRANCH   1  24
TORSDOF 17
ENDMDL
MODEL 3
REMARK VINA RESULT:     -11.0      5.212     10.402
REMARK SMILES C[C@@H]1[C@@H](C(=O)OCCOC(=O)c2ccc(-c3c4nc(c(-c5cccc(S(=O)(=O)[O-])c5F)c5ccc([nH]5)c(-c5cccc(S(=O)(=O)[O-])c5F)c5nc(c(-c6cccc(S(=O)(=O)[O-])c6F)c6ccc3[nH]6)C=C5)C=C4)cc2)CCN1C(=O)[C@@H]1CCCN(C(N)=O)C1
REMARK SMILES IDX 7 1 6 2 4 3 5 4 3 5 1 6 2 7 77 8 75 9 76 10 78 11 79 12
REMARK SMILES IDX 80 13 81 14 88 15 82 16 84 17 83 18 85 19 86 20 87 21 8 24
REMARK SMILES IDX 9 25 10 26 11 27 12 28 13 29 74 30 14 31 73 32 15 33 16 34
REMARK SMILES IDX 17 35 67 36 18 37 72 38 66 39 68 40 19 41 71 42 65 43 64 44
REMARK SMILES IDX 20 46 52 47 32 48 51 49 33 50 36 51 50 52 69 53 34 54 35 55
REMARK SMILES IDX 49 57 70 58 37 59 21 60 22 61 30 62 23 63 25 64 31 65 24 66
REMARK SMILES IDX 26 67 27 68 28 69 29 70 53 71 54 72 62 73 55 74 57 75 63 76
REMARK SMILES IDX 56 77 58 78 59 79 60 80 61 81 38 82 39 83 47 84 40 85 42 86
REMARK SMILES IDX 48 87 41 88 43 89 44 90 45 91 46 92
REMARK H PARENT 86 22 86 23 68 45 36 56
REMARK Flexibility Score: inf
ROOT
ATOM      1  C   UNL A   1      31.525  31.534  26.781  1.00  0.00     0.274 C 
ENDROOT
BRANCH   1   2
ATOM      2  O   UNL A   1      32.170  30.268  26.556  1.00  0.00    -0.462 OA
BRANCH   2   3
ATOM      3  C   UNL A   1      31.921  29.694  25.343  1.00  0.00     0.311 C 
ATOM      4  O   UNL A   1      30.801  29.484  24.894  1.00  0.00    -0.252 OA
BRANCH   3   5
ATOM      5  C   UNL A   1      33.215  29.205  24.712  1.00  0.00     0.123 C 
ATOM      6  C   UNL A   1      34.376  28.580  22.584  1.00  0.00     0.032 C 
ATOM      7  C   UNL A   1      33.043  28.506  23.352  1.00  0.00     0.096 C 
ATOM      8  N   UNL A   1      32.711  27.115  23.689  1.00  0.00    -0.339 N 
ATOM      9  C   UNL A   1      33.817  28.097  25.577  1.00  0.00     0.039 C 
ATOM     10  C   UNL A   1      33.155  26.827  25.049  1.00  0.00     0.121 C 
BRANCH   8  11
ATOM     11  C   UNL A   1      31.985  26.133  23.045  1.00  0.00     0.227 C 
ATOM     12  O   UNL A   1      32.460  25.647  22.003  1.00  0.00    -0.275 OA
BRANCH  11  13
ATOM     13  C   UNL A   1      30.641  25.534  23.509  1.00  0.00     0.098 C 
ATOM     14  C   UNL A   1      29.825  26.282  24.555  1.00  0.00     0.017 C 
ATOM     15  C   UNL A   1      30.656  24.029  23.745  1.00  0.00     0.134 C 
ATOM     16  C   UNL A   1      30.047  25.837  25.991  1.00  0.00     0.022 C 
ATOM     17  N   UNL A   1      31.082  23.713  25.089  1.00  0.00    -0.324 N 
ATOM     18  C   UNL A   1      30.338  24.352  26.169  1.00  0.00     0.121 C 
BRANCH  17  19
ATOM     19  C   UNL A   1      32.127  22.866  25.364  1.00  0.00     0.314 C 
ATOM     20  N   UNL A   1      31.806  21.629  25.792  1.00  0.00    -0.351 N 
ATOM     21  O   UNL A   1      33.305  23.158  25.211  1.00  0.00    -0.249 OA
ATOM     22  H   UNL A   1      30.862  21.382  25.920  1.00  0.00     0.161 HD
ATOM     23  H   UNL A   1      32.516  20.973  25.978  1.00  0.00     0.161 HD
ENDBRANCH  17  19
ENDBRANCH  11  13
ENDBRANCH   8  11
ENDBRANCH   3   5
ENDBRANCH   2   3
ENDBRANCH   1   2
BRANCH   1  24
ATOM     24  C   UNL A   1      32.556  32.662  26.834  1.00  0.00     0.275 C 
BRANCH  24  25
ATOM     25  O   UNL A   1      32.237  33.578  27.895  1.00  0.00    -0.458 OA
BRANCH  25  26
ATOM     26  C   UNL A   1      33.254  34.384  28.293  1.00  0.00     0.338 C 
ATOM     27  O   UNL A   1      33.250  35.607  28.288  1.00  0.00    -0.246 OA
BRANCH  26  28
ATOM     28  C   UNL A   1      34.362  33.575  28.856  1.00  0.00     0.060 A 
ATOM     29  C   UNL A   1      35.666  33.960  28.528  1.00  0.00     0.016 A 
ATOM     30  C   UNL A   1      34.150  32.520  29.755  1.00  0.00     0.016 A 
ATOM     31  C   UNL A   1      36.751  33.327  29.134  1.00  0.00     0.010 A 
ATOM     32  C   UNL A   1      35.243  31.874  30.349  1.00  0.00     0.010 A 
ATOM     33  C   UNL A   1      36.551  32.285  30.058  1.00  0.00    -0.014 A 
BRANCH  33  34
ATOM     34  C   UNL A   1      37.734  31.582  30.617  1.00  0.00     0.031 A 
ATOM     35  C   UNL A   1      38.111  31.859  32.043  1.00  0.00     0.074 A 
ATOM     36  C   UNL A   1      38.433  30.674  29.906  1.00  0.00     0.049 A 
ATOM     37  N   UNL A   1      39.000  31.268  32.795  1.00  0.00    -0.248 NA
ATOM     38  C   UNL A   1      37.372  32.942  32.715  1.00  0.00     0.031 C 
ATOM     39  C   UNL A   1      38.178  30.308  28.516  1.00  0.00     0.029 A 
ATOM     40  N   UNL A   1      39.493  29.874  30.268  1.00  0.00    -0.354 N 
ATOM     41  C   UNL A   1      38.926  31.901  34.027  1.00  0.00     0.074 A 
ATOM     42  C   UNL A   1      37.891  32.906  33.932  1.00  0.00     0.031 C 
ATOM     43  C   UNL A   1      39.018  29.319  28.157  1.00  0.00     0.029 A 
ATOM     44  C   UNL A   1      39.916  29.022  29.271  1.00  0.00     0.049 A 
ATOM     45  H   UNL A   1      39.911  29.907  31.158  1.00  0.00     0.167 HD
ATOM     46  C   UNL A   1      39.667  31.688  35.137  1.00  0.00     0.034 A 
ATOM     47  C   UNL A   1      40.918  28.118  29.258  1.00  0.00     0.034 A 
ATOM     48  C   UNL A   1      40.765  30.769  35.216  1.00  0.00     0.049 A 
ATOM     49  C   UNL A   1      41.782  27.965  30.488  1.00  0.00     0.074 A 
ATOM     50  C   UNL A   1      41.624  30.548  36.275  1.00  0.00     0.029 A 
ATOM     51  N   UNL A   1      41.181  29.948  34.180  1.00  0.00    -0.354 N 
ATOM     52  N   UNL A   1      41.631  28.493  31.679  1.00  0.00    -0.248 NA
ATOM     53  C   UNL A   1      42.961  27.090  30.369  1.00  0.00     0.031 C 
ATOM     54  C   UNL A   1      42.582  29.613  35.869  1.00  0.00     0.029 A 
ATOM     55  C   UNL A   1      42.297  29.230  34.569  1.00  0.00     0.049 A 
ATOM     56  H   UNL A   1      40.745  29.885  33.299  1.00  0.00     0.167 HD
ATOM     57  C   UNL A   1      42.680  28.003  32.451  1.00  0.00     0.074 A 
ATOM     58  C   UNL A   1      43.438  27.105  31.607  1.00  0.00     0.031 C 
ATOM     59  C   UNL A   1      43.004  28.292  33.735  1.00  0.00     0.034 A 
BRANCH  46  60
ATOM     60  C   UNL A   1      39.322  32.510  36.343  1.00  0.00     0.023 A 
ATOM     61  C   UNL A   1      39.948  33.760  36.529  1.00  0.00     0.012 A 
ATOM     62  C   UNL A   1      38.397  32.043  37.294  1.00  0.00     0.148 A 
ATOM     63  C   UNL A   1      39.673  34.524  37.662  1.00  0.00     0.002 A 
ATOM     64  C   UNL A   1      38.104  32.825  38.404  1.00  0.00     0.091 A 
ATOM     65  F   UNL A   1      37.847  30.835  37.110  1.00  0.00    -0.205 F 
ATOM     66  C   UNL A   1      38.747  34.060  38.593  1.00  0.00     0.022 A 
BRANCH  64  67
ATOM     67  S   UNL A   1      36.899  32.333  39.638  1.00  0.00     0.127 S 
ATOM     68  O   UNL A   1      35.659  32.347  38.862  1.00  0.00    -0.237 OA
ATOM     69  O   UNL A   1      37.371  30.998  40.012  1.00  0.00    -0.237 OA
ATOM     70  O   UNL A   1      36.982  33.326  40.700  1.00  0.00    -0.744 OA
ENDBRANCH  64  67
ENDBRANCH  46  60
BRANCH  47  71
ATOM     71  C   UNL A   1      41.184  27.268  28.056  1.00  0.00     0.023 A 
ATOM     72  C   UNL A   1      41.743  27.854  26.900  1.00  0.00     0.012 A 
ATOM     73  C   UNL A   1      40.841  25.902  28.025  1.00  0.00     0.148 A 
ATOM     74  C   UNL A   1      41.918  27.108  25.732  1.00  0.00     0.002 A 
ATOM     75  C   UNL A   1      41.076  25.150  26.879  1.00  0.00     0.091 A 
ATOM     76  F   UNL A   1      40.274  25.364  29.114  1.00  0.00    -0.205 F 
ATOM     77  C   UNL A   1      41.593  25.755  25.724  1.00  0.00     0.022 A 
BRANCH  75  78
ATOM     78  S   UNL A   1      40.808  23.375  26.833  1.00  0.00     0.127 S 
ATOM     79  O   UNL A   1      41.803  22.946  25.853  1.00  0.00    -0.237 OA
ATOM     80  O   UNL A   1      41.094  22.988  28.214  1.00  0.00    -0.237 OA
ATOM     81  O   UNL A   1      39.415  23.205  26.444  1.00  0.00    -0.744 OA
ENDBRANCH  75  78
ENDBRANCH  47  71
BRANCH  59  82
ATOM     82  C   UNL A   1      44.217  27.622  34.329  1.00  0.00     0.023 A 
ATOM     83  C   UNL A   1      45.466  28.270  34.283  1.00  0.00     0.012 A 
ATOM     84  C   UNL A   1      44.094  26.404  35.026  1.00  0.00     0.148 A 
ATOM     85  C   UNL A   1      46.580  27.705  34.903  1.00  0.00     0.002 A 
ATOM     86  C   UNL A   1      45.196  25.871  35.682  1.00  0.00     0.091 A 
ATOM     87  F   UNL A   1      42.899  25.793  35.041  1.00  0.00    -0.205 F 
ATOM     88  C   UNL A   1      46.443  26.514  35.615  1.00  0.00     0.022 A 
BRANCH  86  89
ATOM     89  S   UNL A   1      45.085  24.399  36.707  1.00  0.00     0.127 S 
ATOM     90  O   UNL A   1      46.476  24.210  37.110  1.00  0.00    -0.237 OA
ATOM     91  O   UNL A   1      44.192  24.834  37.782  1.00  0.00    -0.237 OA
ATOM     92  O   UNL A   1      44.533  23.358  35.851  1.00  0.00    -0.744 OA
ENDBRANCH  86  89
ENDBRANCH  59  82
ENDBRANCH  33  34
ENDBRANCH  26  28
ENDBRANCH  25  26
ENDBRANCH  24  25
ENDBRANCH   1  24
TORSDOF 17
ENDMDL
