MODEL 1
REMARK VINA RESULT:     -12.1      0.000      0.000
REMARK SMILES CCOC(=O)C1=NN(c2ccc([N+](=O)[O-])cc2C(F)(F)F)[C@@](C)(C(=O)OCCOC(=O)c2ccc(-c3c4nc(c(-c5cccc(S(=O)(=O)[O-])c5F)c5ccc([nH]5)c(-c5cccc(S(=O)(=O)[O-])c5F)c5nc(c(-c6cccc(S(=O)(=O)[O-])c6F)c6ccc3[nH]6)C=C5)C=C4)cc2)C1
REMARK SMILES IDX 27 1 26 2 24 3 25 4 22 5 6 6 7 7 95 8 8 9 23 10 4 11 5 12
REMARK SMILES IDX 3 13 2 14 1 15 9 16 10 17 17 18 11 19 16 20 12 21 18 22
REMARK SMILES IDX 19 23 20 24 21 25 13 26 14 27 15 28 28 29 29 30 30 31 31 32
REMARK SMILES IDX 32 33 33 34 94 35 34 36 93 37 35 38 36 39 37 40 87 41 38 42
REMARK SMILES IDX 92 43 86 44 88 45 39 46 91 47 85 48 84 49 40 51 72 52 52 53
REMARK SMILES IDX 71 54 53 55 56 56 70 57 89 58 54 59 55 60 69 62 90 63 57 64
REMARK SMILES IDX 41 65 42 66 50 67 43 68 45 69 51 70 44 71 46 72 47 73 48 74
REMARK SMILES IDX 49 75 73 76 74 77 82 78 75 79 77 80 83 81 76 82 78 83 79 84
REMARK SMILES IDX 80 85 81 86 58 87 59 88 67 89 60 90 62 91 68 92 61 93 63 94
REMARK SMILES IDX 64 95 65 96 66 97
REMARK H PARENT 88 50 56 61
REMARK Flexibility Score: inf
ROOT
ATOM      1  C   UNL A   1      31.427  28.356  26.341  1.00  0.00     0.274 C 
ENDROOT
BRANCH   1   2
ATOM      2  O   UNL A   1      32.690  27.676  26.165  1.00  0.00    -0.460 OA
BRANCH   2   3
ATOM      3  C   UNL A   1      32.669  26.582  25.359  1.00  0.00     0.334 C 
ATOM      4  O   UNL A   1      32.528  25.437  25.784  1.00  0.00    -0.249 OA
BRANCH   3   5
ATOM      5  C   UNL A   1      32.955  26.855  23.869  1.00  0.00     0.163 C 
ATOM      6  C   UNL A   1      32.636  24.930  22.642  1.00  0.00     0.149 C 
ATOM      7  N   UNL A   1      31.551  25.608  22.439  1.00  0.00    -0.169 NA
ATOM      8  C   UNL A   1      33.763  25.679  23.275  1.00  0.00     0.108 C 
ATOM      9  N   UNL A   1      31.771  26.846  22.976  1.00  0.00    -0.247 N 
ATOM     10  C   UNL A   1      33.768  28.145  23.846  1.00  0.00     0.050 C 
BRANCH   6  11
ATOM     11  C   UNL A   1      32.770  23.488  22.227  1.00  0.00     0.354 C 
ATOM     12  O   UNL A   1      33.539  23.149  21.352  1.00  0.00    -0.245 OA
BRANCH  11  13
ATOM     13  O   UNL A   1      31.976  22.719  22.998  1.00  0.00    -0.461 OA
BRANCH  13  14
ATOM     14  C   UNL A   1      32.660  21.913  23.972  1.00  0.00     0.230 C 
ATOM     15  C   UNL A   1      32.468  20.449  23.634  1.00  0.00     0.049 C 
ENDBRANCH  13  14
ENDBRANCH  11  13
ENDBRANCH   6  11
BRANCH   9  16
ATOM     16  C   UNL A   1      30.753  27.769  22.817  1.00  0.00     0.073 A 
ATOM     17  C   UNL A   1      31.078  29.038  22.286  1.00  0.00     0.036 A 
ATOM     18  C   UNL A   1      29.453  27.581  23.325  1.00  0.00     0.088 A 
ATOM     19  C   UNL A   1      30.148  30.077  22.207  1.00  0.00     0.088 A 
ATOM     20  C   UNL A   1      28.498  28.619  23.205  1.00  0.00     0.101 A 
ATOM     21  C   UNL A   1      28.852  29.859  22.662  1.00  0.00     0.270 A 
BRANCH  18  22
ATOM     22  C   UNL A   1      29.021  26.340  24.068  1.00  0.00     0.418 C 
ATOM     23  F   UNL A   1      27.686  26.349  24.364  1.00  0.00    -0.166 F 
ATOM     24  F   UNL A   1      29.203  25.214  23.320  1.00  0.00    -0.166 F 
ATOM     25  F   UNL A   1      29.642  26.115  25.256  1.00  0.00    -0.166 F 
ENDBRANCH  18  22
BRANCH  21  26
ATOM     26  N   UNL A   1      27.862  30.941  22.615  1.00  0.00     0.062 N 
ATOM     27  O   UNL A   1      27.805  31.631  21.588  1.00  0.00    -0.258 OA
ATOM     28  O   UNL A   1      27.135  31.097  23.607  1.00  0.00    -0.258 OA
ENDBRANCH  21  26
ENDBRANCH   9  16
ENDBRANCH   3   5
ENDBRANCH   2   3
ENDBRANCH   1   2
BRANCH   1  29
ATOM     29  C   UNL A   1      31.579  29.874  26.289  1.00  0.00     0.275 C 
BRANCH  29  30
ATOM     30  O   UNL A   1      32.241  30.346  27.474  1.00  0.00    -0.458 OA
BRANCH  30  31
ATOM     31  C   UNL A   1      33.006  31.449  27.301  1.00  0.00     0.338 C 
ATOM     32  O   UNL A   1      32.616  32.565  26.999  1.00  0.00    -0.246 OA
BRANCH  31  33
ATOM     33  C   UNL A   1      34.423  31.148  27.572  1.00  0.00     0.060 A 
ATOM     34  C   UNL A   1      34.851  29.824  27.604  1.00  0.00     0.016 A 
ATOM     35  C   UNL A   1      35.272  32.161  28.008  1.00  0.00     0.016 A 
ATOM     36  C   UNL A   1      36.038  29.494  28.257  1.00  0.00     0.010 A 
ATOM     37  C   UNL A   1      36.527  31.834  28.538  1.00  0.00     0.010 A 
ATOM     38  C   UNL A   1      36.886  30.493  28.759  1.00  0.00    -0.014 A 
BRANCH  38  39
ATOM     39  C   UNL A   1      38.070  30.141  29.605  1.00  0.00     0.031 A 
ATOM     40  C   UNL A   1      39.165  29.253  29.050  1.00  0.00     0.074 A 
ATOM     41  C   UNL A   1      38.220  30.650  30.845  1.00  0.00     0.049 A 
ATOM     42  N   UNL A   1      40.211  28.750  29.660  1.00  0.00    -0.248 NA
ATOM     43  C   UNL A   1      39.079  28.883  27.626  1.00  0.00     0.031 C 
ATOM     44  C   UNL A   1      37.281  31.553  31.511  1.00  0.00     0.029 A 
ATOM     45  N   UNL A   1      39.227  30.487  31.769  1.00  0.00    -0.354 N 
ATOM     46  C   UNL A   1      40.858  27.952  28.721  1.00  0.00     0.074 A 
ATOM     47  C   UNL A   1      40.094  28.039  27.496  1.00  0.00     0.031 C 
ATOM     48  C   UNL A   1      37.773  31.901  32.709  1.00  0.00     0.029 A 
ATOM     49  C   UNL A   1      39.014  31.170  32.945  1.00  0.00     0.049 A 
ATOM     50  H   UNL A   1      40.024  29.932  31.605  1.00  0.00     0.167 HD
ATOM     51  C   UNL A   1      41.998  27.231  28.847  1.00  0.00     0.034 A 
ATOM     52  C   UNL A   1      39.706  31.183  34.103  1.00  0.00     0.034 A 
ATOM     53  C   UNL A   1      42.815  27.195  30.029  1.00  0.00     0.049 A 
ATOM     54  C   UNL A   1      40.943  30.339  34.234  1.00  0.00     0.074 A 
ATOM     55  C   UNL A   1      43.996  26.503  30.237  1.00  0.00     0.029 A 
ATOM     56  N   UNL A   1      42.550  27.891  31.197  1.00  0.00    -0.354 N 
ATOM     57  N   UNL A   1      41.543  29.608  33.327  1.00  0.00    -0.248 NA
ATOM     58  C   UNL A   1      41.599  30.323  35.549  1.00  0.00     0.031 C 
ATOM     59  C   UNL A   1      44.443  26.779  31.534  1.00  0.00     0.029 A 
ATOM     60  C   UNL A   1      43.545  27.649  32.130  1.00  0.00     0.049 A 
ATOM     61  H   UNL A   1      41.768  28.472  31.343  1.00  0.00     0.167 HD
ATOM     62  C   UNL A   1      42.657  29.062  33.955  1.00  0.00     0.074 A 
ATOM     63  C   UNL A   1      42.664  29.569  35.312  1.00  0.00     0.031 C 
ATOM     64  C   UNL A   1      43.577  28.200  33.459  1.00  0.00     0.034 A 
BRANCH  51  65
ATOM     65  C   UNL A   1      42.461  26.443  27.650  1.00  0.00     0.023 A 
ATOM     66  C   UNL A   1      43.288  27.060  26.690  1.00  0.00     0.012 A 
ATOM     67  C   UNL A   1      42.126  25.083  27.503  1.00  0.00     0.148 A 
ATOM     68  C   UNL A   1      43.753  26.342  25.589  1.00  0.00     0.002 A 
ATOM     69  C   UNL A   1      42.623  24.364  26.422  1.00  0.00     0.091 A 
ATOM     70  F   UNL A   1      41.318  24.521  28.414  1.00  0.00    -0.205 F 
ATOM     71  C   UNL A   1      43.430  24.993  25.461  1.00  0.00     0.022 A 
BRANCH  69  72
ATOM     72  S   UNL A   1      42.314  22.606  26.215  1.00  0.00     0.127 S 
ATOM     73  O   UNL A   1      40.855  22.569  26.133  1.00  0.00    -0.237 OA
ATOM     74  O   UNL A   1      43.002  22.313  24.956  1.00  0.00    -0.237 OA
ATOM     75  O   UNL A   1      42.898  21.961  27.383  1.00  0.00    -0.744 OA
ENDBRANCH  69  72
ENDBRANCH  51  65
BRANCH  52  76
ATOM     76  C   UNL A   1      39.241  32.036  35.234  1.00  0.00     0.023 A 
ATOM     77  C   UNL A   1      38.360  31.501  36.194  1.00  0.00     0.012 A 
ATOM     78  C   UNL A   1      39.702  33.358  35.392  1.00  0.00     0.148 A 
ATOM     79  C   UNL A   1      37.940  32.268  37.281  1.00  0.00     0.002 A 
ATOM     80  C   UNL A   1      39.337  34.092  36.515  1.00  0.00     0.091 A 
ATOM     81  F   UNL A   1      40.508  33.869  34.450  1.00  0.00    -0.205 F 
ATOM     82  C   UNL A   1      38.443  33.555  37.452  1.00  0.00     0.022 A 
BRANCH  80  83
ATOM     83  S   UNL A   1      40.083  35.684  36.882  1.00  0.00     0.127 S 
ATOM     84  O   UNL A   1      41.505  35.351  36.907  1.00  0.00    -0.237 OA
ATOM     85  O   UNL A   1      39.658  36.495  35.741  1.00  0.00    -0.237 OA
ATOM     86  O   UNL A   1      39.497  36.096  38.151  1.00  0.00    -0.744 OA
ENDBRANCH  80  83
ENDBRANCH  52  76
BRANCH  64  87
ATOM     87  C   UNL A   1      44.689  27.764  34.374  1.00  0.00     0.023 A 
ATOM     88  C   UNL A   1      45.870  28.528  34.445  1.00  0.00     0.012 A 
ATOM     89  C   UNL A   1      44.540  26.641  35.209  1.00  0.00     0.148 A 
ATOM     90  C   UNL A   1      46.898  28.166  35.315  1.00  0.00     0.002 A 
ATOM     91  C   UNL A   1      45.553  26.309  36.104  1.00  0.00     0.091 A 
ATOM     92  F   UNL A   1      43.420  25.910  35.111  1.00  0.00    -0.205 F 
ATOM     93  C   UNL A   1      46.736  27.064  36.151  1.00  0.00     0.022 A 
BRANCH  91  94
ATOM     94  S   UNL A   1      45.379  24.955  37.274  1.00  0.00     0.127 S 
ATOM     95  O   UNL A   1      45.237  23.807  36.382  1.00  0.00    -0.237 OA
ATOM     96  O   UNL A   1      46.646  25.006  38.006  1.00  0.00    -0.237 OA
ATOM     97  O   UNL A   1      44.210  25.281  38.079  1.00  0.00    -0.744 OA
ENDBRANCH  91  94
ENDBRANCH  64  87
ENDBRANCH  38  39
ENDBRANCH  31  33
ENDBRANCH  30  31
ENDBRANCH  29  30
ENDBRANCH   1  29
TORSDOF 20
ENDMDL
MODEL 2
REMARK VINA RESULT:     -12.1      5.207     10.280
REMARK SMILES CCOC(=O)C1=NN(c2ccc([N+](=O)[O-])cc2C(F)(F)F)[C@@](C)(C(=O)OCCOC(=O)c2ccc(-c3c4nc(c(-c5cccc(S(=O)(=O)[O-])c5F)c5ccc([nH]5)c(-c5cccc(S(=O)(=O)[O-])c5F)c5nc(c(-c6cccc(S(=O)(=O)[O-])c6F)c6ccc3[nH]6)C=C5)C=C4)cc2)C1
REMARK SMILES IDX 27 1 26 2 24 3 25 4 22 5 6 6 7 7 95 8 8 9 23 10 4 11 5 12
REMARK SMILES IDX 3 13 2 14 1 15 9 16 10 17 17 18 11 19 16 20 12 21 18 22
REMARK SMILES IDX 19 23 20 24 21 25 13 26 14 27 15 28 28 29 29 30 30 31 31 32
REMARK SMILES IDX 32 33 33 34 94 35 34 36 93 37 35 38 36 39 37 40 87 41 38 42
REMARK SMILES IDX 92 43 86 44 88 45 39 46 91 47 85 48 84 49 40 51 72 52 52 53
REMARK SMILES IDX 71 54 53 55 56 56 70 57 89 58 54 59 55 60 69 62 90 63 57 64
REMARK SMILES IDX 41 65 42 66 50 67 43 68 45 69 51 70 44 71 46 72 47 73 48 74
REMARK SMILES IDX 49 75 73 76 74 77 82 78 75 79 77 80 83 81 76 82 78 83 79 84
REMARK SMILES IDX 80 85 81 86 58 87 59 88 67 89 60 90 62 91 68 92 61 93 63 94
REMARK SMILES IDX 64 95 65 96 66 97
REMARK H PARENT 88 50 56 61
REMARK Flexibility Score: inf
ROOT
ATOM      1  C   UNL A   1      36.145  22.209  23.898  1.00  0.00     0.274 C 
ENDROOT
BRANCH   1   2
ATOM      2  O   UNL A   1      35.872  23.226  24.887  1.00  0.00    -0.460 OA
BRANCH   2   3
ATOM      3  C   UNL A   1      34.626  23.767  24.856  1.00  0.00     0.334 C 
ATOM      4  O   UNL A   1      34.308  24.679  24.094  1.00  0.00    -0.249 OA
BRANCH   3   5
ATOM      5  C   UNL A   1      33.652  23.243  25.929  1.00  0.00     0.163 C 
ATOM      6  C   UNL A   1      31.592  24.247  25.680  1.00  0.00     0.149 C 
ATOM      7  N   UNL A   1      31.435  23.083  25.133  1.00  0.00    -0.169 NA
ATOM      8  C   UNL A   1      32.829  24.420  26.499  1.00  0.00     0.108 C 
ATOM      9  N   UNL A   1      32.561  22.368  25.434  1.00  0.00    -0.247 N 
ATOM     10  C   UNL A   1      34.536  22.621  27.005  1.00  0.00     0.050 C 
BRANCH   6  11
ATOM     11  C   UNL A   1      30.571  25.346  25.535  1.00  0.00     0.354 C 
ATOM     12  O   UNL A   1      29.720  25.534  26.378  1.00  0.00    -0.245 OA
BRANCH  11  13
ATOM     13  O   UNL A   1      30.814  26.044  24.409  1.00  0.00    -0.461 OA
BRANCH  13  14
ATOM     14  C   UNL A   1      31.697  27.169  24.563  1.00  0.00     0.230 C 
ATOM     15  C   UNL A   1      30.907  28.451  24.401  1.00  0.00     0.049 C 
ENDBRANCH  13  14
ENDBRANCH  11  13
ENDBRANCH   6  11
BRANCH   9  16
ATOM     16  C   UNL A   1      32.584  21.056  24.998  1.00  0.00     0.073 A 
ATOM     17  C   UNL A   1      32.963  20.052  25.916  1.00  0.00     0.036 A 
ATOM     18  C   UNL A   1      32.432  20.688  23.646  1.00  0.00     0.088 A 
ATOM     19  C   UNL A   1      33.140  18.718  25.540  1.00  0.00     0.088 A 
ATOM     20  C   UNL A   1      32.568  19.330  23.272  1.00  0.00     0.101 A 
ATOM     21  C   UNL A   1      32.932  18.360  24.212  1.00  0.00     0.270 A 
BRANCH  18  22
ATOM     22  C   UNL A   1      32.196  21.681  22.534  1.00  0.00     0.418 C 
ATOM     23  F   UNL A   1      33.260  22.520  22.350  1.00  0.00    -0.166 F 
ATOM     24  F   UNL A   1      32.030  21.062  21.330  1.00  0.00    -0.166 F 
ATOM     25  F   UNL A   1      31.124  22.502  22.693  1.00  0.00    -0.166 F 
ENDBRANCH  18  22
BRANCH  21  26
ATOM     26  N   UNL A   1      33.137  16.971  23.782  1.00  0.00     0.062 N 
ATOM     27  O   UNL A   1      33.525  16.775  22.623  1.00  0.00    -0.258 OA
ATOM     28  O   UNL A   1      32.914  16.076  24.610  1.00  0.00    -0.258 OA
ENDBRANCH  21  26
ENDBRANCH   9  16
ENDBRANCH   3   5
ENDBRANCH   2   3
ENDBRANCH   1   2
BRANCH   1  29
ATOM     29  C   UNL A   1      37.304  21.304  24.306  1.00  0.00     0.275 C 
BRANCH  29  30
ATOM     30  O   UNL A   1      37.617  21.497  25.695  1.00  0.00    -0.458 OA
BRANCH  30  31
ATOM     31  C   UNL A   1      38.936  21.454  25.996  1.00  0.00     0.338 C 
ATOM     32  O   UNL A   1      39.731  20.593  25.660  1.00  0.00    -0.246 OA
BRANCH  31  33
ATOM     33  C   UNL A   1      39.331  22.642  26.774  1.00  0.00     0.060 A 
ATOM     34  C   UNL A   1      38.705  23.861  26.535  1.00  0.00     0.016 A 
ATOM     35  C   UNL A   1      40.465  22.592  27.580  1.00  0.00     0.016 A 
ATOM     36  C   UNL A   1      39.323  25.048  26.927  1.00  0.00     0.010 A 
ATOM     37  C   UNL A   1      41.006  23.779  28.089  1.00  0.00     0.010 A 
ATOM     38  C   UNL A   1      40.501  25.029  27.690  1.00  0.00    -0.014 A 
BRANCH  38  39
ATOM     39  C   UNL A   1      41.256  26.292  27.967  1.00  0.00     0.031 A 
ATOM     40  C   UNL A   1      40.616  27.400  28.778  1.00  0.00     0.074 A 
ATOM     41  C   UNL A   1      42.533  26.447  27.559  1.00  0.00     0.049 A 
ATOM     42  N   UNL A   1      41.065  28.604  29.032  1.00  0.00    -0.248 NA
ATOM     43  C   UNL A   1      39.304  27.120  29.387  1.00  0.00     0.031 C 
ATOM     44  C   UNL A   1      43.308  25.461  26.807  1.00  0.00     0.029 A 
ATOM     45  N   UNL A   1      43.410  27.493  27.728  1.00  0.00    -0.354 N 
ATOM     46  C   UNL A   1      40.065  29.243  29.760  1.00  0.00     0.074 A 
ATOM     47  C   UNL A   1      38.986  28.294  29.914  1.00  0.00     0.031 C 
ATOM     48  C   UNL A   1      44.553  25.925  26.620  1.00  0.00     0.029 A 
ATOM     49  C   UNL A   1      44.641  27.281  27.148  1.00  0.00     0.049 A 
ATOM     50  H   UNL A   1      43.179  28.317  28.215  1.00  0.00     0.167 HD
ATOM     51  C   UNL A   1      40.049  30.495  30.279  1.00  0.00     0.034 A 
ATOM     52  C   UNL A   1      45.710  28.092  27.013  1.00  0.00     0.034 A 
ATOM     53  C   UNL A   1      41.142  31.424  30.206  1.00  0.00     0.049 A 
ATOM     54  C   UNL A   1      45.650  29.492  27.558  1.00  0.00     0.074 A 
ATOM     55  C   UNL A   1      41.216  32.708  30.719  1.00  0.00     0.029 A 
ATOM     56  N   UNL A   1      42.360  31.169  29.596  1.00  0.00    -0.354 N 
ATOM     57  N   UNL A   1      44.702  30.065  28.257  1.00  0.00    -0.248 NA
ATOM     58  C   UNL A   1      46.811  30.356  27.297  1.00  0.00     0.031 C 
ATOM     59  C   UNL A   1      42.478  33.230  30.418  1.00  0.00     0.029 A 
ATOM     60  C   UNL A   1      43.193  32.268  29.723  1.00  0.00     0.049 A 
ATOM     61  H   UNL A   1      42.598  30.330  29.140  1.00  0.00     0.167 HD
ATOM     62  C   UNL A   1      45.158  31.349  28.535  1.00  0.00     0.074 A 
ATOM     63  C   UNL A   1      46.480  31.459  27.954  1.00  0.00     0.031 C 
ATOM     64  C   UNL A   1      44.528  32.352  29.192  1.00  0.00     0.034 A 
BRANCH  51  65
ATOM     65  C   UNL A   1      38.809  30.926  31.019  1.00  0.00     0.023 A 
ATOM     66  C   UNL A   1      38.760  30.802  32.422  1.00  0.00     0.012 A 
ATOM     67  C   UNL A   1      37.720  31.502  30.336  1.00  0.00     0.148 A 
ATOM     68  C   UNL A   1      37.635  31.222  33.131  1.00  0.00     0.002 A 
ATOM     69  C   UNL A   1      36.617  31.951  31.054  1.00  0.00     0.091 A 
ATOM     70  F   UNL A   1      37.777  31.587  28.999  1.00  0.00    -0.205 F 
ATOM     71  C   UNL A   1      36.570  31.806  32.449  1.00  0.00     0.022 A 
BRANCH  69  72
ATOM     72  S   UNL A   1      35.231  32.778  30.265  1.00  0.00     0.127 S 
ATOM     73  O   UNL A   1      35.858  34.004  29.774  1.00  0.00    -0.237 OA
ATOM     74  O   UNL A   1      34.854  31.826  29.218  1.00  0.00    -0.237 OA
ATOM     75  O   UNL A   1      34.230  32.954  31.307  1.00  0.00    -0.744 OA
ENDBRANCH  69  72
ENDBRANCH  51  65
BRANCH  52  76
ATOM     76  C   UNL A   1      46.939  27.591  26.332  1.00  0.00     0.023 A 
ATOM     77  C   UNL A   1      47.813  26.727  27.019  1.00  0.00     0.012 A 
ATOM     78  C   UNL A   1      47.222  27.927  24.993  1.00  0.00     0.148 A 
ATOM     79  C   UNL A   1      48.948  26.215  26.390  1.00  0.00     0.002 A 
ATOM     80  C   UNL A   1      48.315  27.357  24.350  1.00  0.00     0.091 A 
ATOM     81  F   UNL A   1      46.403  28.782  24.363  1.00  0.00    -0.205 F 
ATOM     82  C   UNL A   1      49.189  26.515  25.051  1.00  0.00     0.022 A 
BRANCH  80  83
ATOM     83  S   UNL A   1      48.582  27.563  22.586  1.00  0.00     0.127 S 
ATOM     84  O   UNL A   1      49.837  28.308  22.556  1.00  0.00    -0.237 OA
ATOM     85  O   UNL A   1      48.674  26.178  22.124  1.00  0.00    -0.237 OA
ATOM     86  O   UNL A   1      47.403  28.271  22.102  1.00  0.00    -0.744 OA
ENDBRANCH  80  83
ENDBRANCH  52  76
BRANCH  64  87
ATOM     87  C   UNL A   1      45.265  33.656  29.347  1.00  0.00     0.023 A 
ATOM     88  C   UNL A   1      46.081  33.863  30.476  1.00  0.00     0.012 A 
ATOM     89  C   UNL A   1      45.204  34.645  28.347  1.00  0.00     0.148 A 
ATOM     90  C   UNL A   1      46.804  35.046  30.622  1.00  0.00     0.002 A 
ATOM     91  C   UNL A   1      45.960  35.805  28.479  1.00  0.00     0.091 A 
ATOM     92  F   UNL A   1      44.403  34.442  27.290  1.00  0.00    -0.205 F 
ATOM     93  C   UNL A   1      46.752  36.011  29.619  1.00  0.00     0.022 A 
BRANCH  91  94
ATOM     94  S   UNL A   1      46.012  37.055  27.188  1.00  0.00     0.127 S 
ATOM     95  O   UNL A   1      47.024  37.974  27.703  1.00  0.00    -0.237 OA
ATOM     96  O   UNL A   1      46.430  36.282  26.017  1.00  0.00    -0.237 OA
ATOM     97  O   UNL A   1      44.659  37.586  27.102  1.00  0.00    -0.744 OA
ENDBRANCH  91  94
ENDBRANCH  64  87
ENDBRANCH  38  39
ENDBRANCH  31  33
ENDBRANCH  30  31
ENDBRANCH  29  30
ENDBRANCH   1  29
TORSDOF 20
ENDMDL
MODEL 3
REMARK VINA RESULT:     -12.0      1.589      3.865
REMARK SMILES CCOC(=O)C1=NN(c2ccc([N+](=O)[O-])cc2C(F)(F)F)[C@@](C)(C(=O)OCCOC(=O)c2ccc(-c3c4nc(c(-c5cccc(S(=O)(=O)[O-])c5F)c5ccc([nH]5)c(-c5cccc(S(=O)(=O)[O-])c5F)c5nc(c(-c6cccc(S(=O)(=O)[O-])c6F)c6ccc3[nH]6)C=C5)C=C4)cc2)C1
REMARK SMILES IDX 27 1 26 2 24 3 25 4 22 5 6 6 7 7 95 8 8 9 23 10 4 11 5 12
REMARK SMILES IDX 3 13 2 14 1 15 9 16 10 17 17 18 11 19 16 20 12 21 18 22
REMARK SMILES IDX 19 23 20 24 21 25 13 26 14 27 15 28 28 29 29 30 30 31 31 32
REMARK SMILES IDX 32 33 33 34 94 35 34 36 93 37 35 38 36 39 37 40 87 41 38 42
REMARK SMILES IDX 92 43 86 44 88 45 39 46 91 47 85 48 84 49 40 51 72 52 52 53
REMARK SMILES IDX 71 54 53 55 56 56 70 57 89 58 54 59 55 60 69 62 90 63 57 64
REMARK SMILES IDX 41 65 42 66 50 67 43 68 45 69 51 70 44 71 46 72 47 73 48 74
REMARK SMILES IDX 49 75 73 76 74 77 82 78 75 79 77 80 83 81 76 82 78 83 79 84
REMARK SMILES IDX 80 85 81 86 58 87 59 88 67 89 60 90 62 91 68 92 61 93 63 94
REMARK SMILES IDX 64 95 65 96 66 97
REMARK H PARENT 88 50 56 61
REMARK Flexibility Score: inf
ROOT
ATOM      1  C   UNL A   1      31.809  28.557  27.135  1.00  0.00     0.274 C 
ENDROOT
BRANCH   1   2
ATOM      2  O   UNL A   1      30.908  27.750  26.344  1.00  0.00    -0.460 OA
BRANCH   2   3
ATOM      3  C   UNL A   1      31.179  26.420  26.307  1.00  0.00     0.334 C 
ATOM      4  O   UNL A   1      31.568  25.785  27.287  1.00  0.00    -0.249 OA
BRANCH   3   5
ATOM      5  C   UNL A   1      31.081  25.765  24.915  1.00  0.00     0.163 C 
ATOM      6  C   UNL A   1      31.491  27.336  23.277  1.00  0.00     0.149 C 
ATOM      7  N   UNL A   1      32.612  26.692  23.374  1.00  0.00    -0.169 NA
ATOM      8  C   UNL A   1      30.318  26.706  23.954  1.00  0.00     0.108 C 
ATOM      9  N   UNL A   1      32.364  25.618  24.183  1.00  0.00    -0.247 N 
ATOM     10  C   UNL A   1      30.314  24.466  25.134  1.00  0.00     0.050 C 
BRANCH   6  11
ATOM     11  C   UNL A   1      31.367  28.617  22.495  1.00  0.00     0.354 C 
ATOM     12  O   UNL A   1      32.317  29.354  22.331  1.00  0.00    -0.245 OA
BRANCH  11  13
ATOM     13  O   UNL A   1      30.115  28.734  22.013  1.00  0.00    -0.461 OA
BRANCH  13  14
ATOM     14  C   UNL A   1      29.580  30.069  22.010  1.00  0.00     0.230 C 
ATOM     15  C   UNL A   1      29.131  30.431  23.411  1.00  0.00     0.049 C 
ENDBRANCH  13  14
ENDBRANCH  11  13
ENDBRANCH   6  11
BRANCH   9  16
ATOM     16  C   UNL A   1      33.419  24.745  24.377  1.00  0.00     0.073 A 
ATOM     17  C   UNL A   1      34.400  25.085  25.335  1.00  0.00     0.036 A 
ATOM     18  C   UNL A   1      33.667  23.636  23.545  1.00  0.00     0.088 A 
ATOM     19  C   UNL A   1      35.566  24.336  25.513  1.00  0.00     0.088 A 
ATOM     20  C   UNL A   1      34.826  22.851  23.754  1.00  0.00     0.101 A 
ATOM     21  C   UNL A   1      35.771  23.210  24.722  1.00  0.00     0.270 A 
BRANCH  18  22
ATOM     22  C   UNL A   1      32.791  23.260  22.374  1.00  0.00     0.418 C 
ATOM     23  F   UNL A   1      33.165  22.075  21.804  1.00  0.00    -0.166 F 
ATOM     24  F   UNL A   1      31.495  23.069  22.753  1.00  0.00    -0.166 F 
ATOM     25  F   UNL A   1      32.762  24.151  21.348  1.00  0.00    -0.166 F 
ENDBRANCH  18  22
BRANCH  21  26
ATOM     26  N   UNL A   1      36.998  22.420  24.868  1.00  0.00     0.062 N 
ATOM     27  O   UNL A   1      37.575  22.443  25.964  1.00  0.00    -0.258 OA
ATOM     28  O   UNL A   1      37.383  21.770  23.885  1.00  0.00    -0.258 OA
ENDBRANCH  21  26
ENDBRANCH   9  16
ENDBRANCH   3   5
ENDBRANCH   2   3
ENDBRANCH   1   2
BRANCH   1  29
ATOM     29  C   UNL A   1      31.586  30.052  26.917  1.00  0.00     0.275 C 
BRANCH  29  30
ATOM     30  O   UNL A   1      32.788  30.666  26.425  1.00  0.00    -0.458 OA
BRANCH  30  31
ATOM     31  C   UNL A   1      33.343  31.581  27.252  1.00  0.00     0.338 C 
ATOM     32  O   UNL A   1      32.792  32.558  27.730  1.00  0.00    -0.246 OA
BRANCH  31  33
ATOM     33  C   UNL A   1      34.741  31.225  27.559  1.00  0.00     0.060 A 
ATOM     34  C   UNL A   1      35.111  29.886  27.626  1.00  0.00     0.016 A 
ATOM     35  C   UNL A   1      35.623  32.211  27.992  1.00  0.00     0.016 A 
ATOM     36  C   UNL A   1      36.269  29.519  28.311  1.00  0.00     0.010 A 
ATOM     37  C   UNL A   1      36.852  31.842  28.555  1.00  0.00     0.010 A 
ATOM     38  C   UNL A   1      37.149  30.492  28.810  1.00  0.00    -0.014 A 
BRANCH  38  39
ATOM     39  C   UNL A   1      38.300  30.108  29.687  1.00  0.00     0.031 A 
ATOM     40  C   UNL A   1      39.394  29.204  29.156  1.00  0.00     0.074 A 
ATOM     41  C   UNL A   1      38.421  30.601  30.938  1.00  0.00     0.049 A 
ATOM     42  N   UNL A   1      40.410  28.675  29.792  1.00  0.00    -0.248 NA
ATOM     43  C   UNL A   1      39.344  28.851  27.727  1.00  0.00     0.031 C 
ATOM     44  C   UNL A   1      37.480  31.515  31.584  1.00  0.00     0.029 A 
ATOM     45  N   UNL A   1      39.396  30.408  31.889  1.00  0.00    -0.354 N 
ATOM     46  C   UNL A   1      41.070  27.875  28.864  1.00  0.00     0.074 A 
ATOM     47  C   UNL A   1      40.346  27.990  27.618  1.00  0.00     0.031 C 
ATOM     48  C   UNL A   1      37.942  31.840  32.801  1.00  0.00     0.029 A 
ATOM     49  C   UNL A   1      39.160  31.083  33.066  1.00  0.00     0.049 A 
ATOM     50  H   UNL A   1      40.187  29.840  31.744  1.00  0.00     0.167 HD
ATOM     51  C   UNL A   1      42.192  27.130  29.017  1.00  0.00     0.034 A 
ATOM     52  C   UNL A   1      39.817  31.069  34.244  1.00  0.00     0.034 A 
ATOM     53  C   UNL A   1      42.972  27.066  30.222  1.00  0.00     0.049 A 
ATOM     54  C   UNL A   1      41.033  30.200  34.403  1.00  0.00     0.074 A 
ATOM     55  C   UNL A   1      44.132  26.349  30.459  1.00  0.00     0.029 A 
ATOM     56  N   UNL A   1      42.684  27.754  31.390  1.00  0.00    -0.354 N 
ATOM     57  N   UNL A   1      41.647  29.468  33.507  1.00  0.00    -0.248 NA
ATOM     58  C   UNL A   1      41.648  30.158  35.738  1.00  0.00     0.031 C 
ATOM     59  C   UNL A   1      44.545  26.602  31.771  1.00  0.00     0.029 A 
ATOM     60  C   UNL A   1      43.646  27.483  32.349  1.00  0.00     0.049 A 
ATOM     61  H   UNL A   1      41.910  28.348  31.518  1.00  0.00     0.167 HD
ATOM     62  C   UNL A   1      42.730  28.893  34.162  1.00  0.00     0.074 A 
ATOM     63  C   UNL A   1      42.705  29.385  35.524  1.00  0.00     0.031 C 
ATOM     64  C   UNL A   1      43.647  28.019  33.685  1.00  0.00     0.034 A 
BRANCH  51  65
ATOM     65  C   UNL A   1      42.677  26.346  27.825  1.00  0.00     0.023 A 
ATOM     66  C   UNL A   1      43.612  26.926  26.945  1.00  0.00     0.012 A 
ATOM     67  C   UNL A   1      42.250  25.021  27.607  1.00  0.00     0.148 A 
ATOM     68  C   UNL A   1      44.097  26.208  25.853  1.00  0.00     0.002 A 
ATOM     69  C   UNL A   1      42.766  24.299  26.536  1.00  0.00     0.091 A 
ATOM     70  F   UNL A   1      41.341  24.496  28.441  1.00  0.00    -0.205 F 
ATOM     71  C   UNL A   1      43.683  24.893  25.654  1.00  0.00     0.022 A 
BRANCH  69  72
ATOM     72  S   UNL A   1      42.341  22.578  26.245  1.00  0.00     0.127 S 
ATOM     73  O   UNL A   1      40.884  22.647  26.139  1.00  0.00    -0.237 OA
ATOM     74  O   UNL A   1      43.030  22.293  24.986  1.00  0.00    -0.237 OA
ATOM     75  O   UNL A   1      42.856  21.844  27.393  1.00  0.00    -0.744 OA
ENDBRANCH  69  72
ENDBRANCH  51  65
BRANCH  52  76
ATOM     76  C   UNL A   1      39.334  31.919  35.371  1.00  0.00     0.023 A 
ATOM     77  C   UNL A   1      38.476  31.367  36.342  1.00  0.00     0.012 A 
ATOM     78  C   UNL A   1      39.755  33.257  35.512  1.00  0.00     0.148 A 
ATOM     79  C   UNL A   1      38.041  32.132  37.425  1.00  0.00     0.002 A 
ATOM     80  C   UNL A   1      39.376  33.990  36.630  1.00  0.00     0.091 A 
ATOM     81  F   UNL A   1      40.539  33.782  34.559  1.00  0.00    -0.205 F 
ATOM     82  C   UNL A   1      38.505  33.436  37.579  1.00  0.00     0.022 A 
BRANCH  80  83
ATOM     83  S   UNL A   1      40.076  35.608  36.976  1.00  0.00     0.127 S 
ATOM     84  O   UNL A   1      39.494  35.916  38.279  1.00  0.00    -0.237 OA
ATOM     85  O   UNL A   1      41.512  35.327  36.992  1.00  0.00    -0.237 OA
ATOM     86  O   UNL A   1      39.650  36.453  35.867  1.00  0.00    -0.744 OA
ENDBRANCH  80  83
ENDBRANCH  52  76
BRANCH  64  87
ATOM     87  C   UNL A   1      44.723  27.551  34.628  1.00  0.00     0.023 A 
ATOM     88  C   UNL A   1      45.902  28.309  34.769  1.00  0.00     0.012 A 
ATOM     89  C   UNL A   1      44.540  26.403  35.422  1.00  0.00     0.148 A 
ATOM     90  C   UNL A   1      46.895  27.917  35.665  1.00  0.00     0.002 A 
ATOM     91  C   UNL A   1      45.516  26.041  36.345  1.00  0.00     0.091 A 
ATOM     92  F   UNL A   1      43.422  25.680  35.259  1.00  0.00    -0.205 F 
ATOM     93  C   UNL A   1      46.698  26.791  36.461  1.00  0.00     0.022 A 
BRANCH  91  94
ATOM     94  S   UNL A   1      45.295  24.653  37.465  1.00  0.00     0.127 S 
ATOM     95  O   UNL A   1      46.488  24.752  38.302  1.00  0.00    -0.237 OA
ATOM     96  O   UNL A   1      44.043  24.992  38.144  1.00  0.00    -0.237 OA
ATOM     97  O   UNL A   1      45.213  23.473  36.615  1.00  0.00    -0.744 OA
ENDBRANCH  91  94
ENDBRANCH  64  87
ENDBRANCH  38  39
ENDBRANCH  31  33
ENDBRANCH  30  31
ENDBRANCH  29  30
ENDBRANCH   1  29
TORSDOF 20
ENDMDL
