MODEL 1
REMARK VINA RESULT:     -11.8      0.000      0.000
REMARK SMILES COc1nc(-c2ccccc2)nc(C)c1CC(=O)OCCOC(=O)c1ccc(-c2c3nc(c(-c4cccc(S(=O)(=O)[O-])c4F)c4ccc([nH]4)c(-c4cccc(S(=O)(=O)[O-])c4F)c4nc(c(-c5cccc(S(=O)(=O)[O-])c5F)c5ccc2[nH]5)C=C4)C=C3)cc1
REMARK SMILES IDX 21 1 20 2 19 3 17 4 18 5 16 6 15 7 3 8 4 9 5 10 13 11 12 12
REMARK SMILES IDX 14 13 2 14 1 15 6 16 7 17 11 18 8 19 10 20 9 21 22 22 23 23
REMARK SMILES IDX 24 24 25 25 26 26 87 27 27 28 86 29 28 30 29 31 30 32 80 33
REMARK SMILES IDX 31 34 85 35 79 36 81 37 32 38 84 39 78 40 77 41 33 43 65 44
REMARK SMILES IDX 45 45 64 46 46 47 49 48 63 49 82 50 47 51 48 52 62 54 83 55
REMARK SMILES IDX 50 56 34 57 35 58 43 59 36 60 38 61 44 62 37 63 39 64 40 65
REMARK SMILES IDX 41 66 42 67 66 68 67 69 75 70 68 71 70 72 76 73 69 74 71 75
REMARK SMILES IDX 72 76 73 77 74 78 51 79 52 80 60 81 53 82 55 83 61 84 54 85
REMARK SMILES IDX 56 86 57 87 58 88 59 89
REMARK H PARENT 81 42 49 53
REMARK Flexibility Score: inf
ROOT
ATOM      1  C   UNL A   1      36.696  20.366  24.911  1.00  0.00     0.275 C 
ENDROOT
BRANCH   1   2
ATOM      2  C   UNL A   1      35.388  20.721  25.611  1.00  0.00     0.274 C 
BRANCH   2   3
ATOM      3  O   UNL A   1      34.348  20.960  24.641  1.00  0.00    -0.462 OA
BRANCH   3   4
ATOM      4  C   UNL A   1      33.232  21.575  25.114  1.00  0.00     0.310 C 
ATOM      5  O   UNL A   1      32.126  21.511  24.588  1.00  0.00    -0.252 OA
BRANCH   4   6
ATOM      6  C   UNL A   1      33.454  22.359  26.386  1.00  0.00     0.165 C 
BRANCH   6   7
ATOM      7  C   UNL A   1      33.134  23.825  26.335  1.00  0.00     0.047 A 
ATOM      8  C   UNL A   1      31.961  24.338  26.869  1.00  0.00     0.220 A 
ATOM      9  N   UNL A   1      31.622  25.636  26.835  1.00  0.00    -0.193 NA
ATOM     10  C   UNL A   1      32.487  26.447  26.213  1.00  0.00     0.163 A 
ATOM     11  C   UNL A   1      33.986  24.762  25.768  1.00  0.00     0.049 A 
ATOM     12  N   UNL A   1      33.658  26.066  25.672  1.00  0.00    -0.233 NA
ATOM     13  C   UNL A   1      35.308  24.386  25.167  1.00  0.00     0.067 C 
BRANCH   8  14
ATOM     14  O   UNL A   1      31.087  23.438  27.448  1.00  0.00    -0.481 OA
ATOM     15  C   UNL A   1      29.856  23.295  26.739  1.00  0.00     0.280 C 
ENDBRANCH   8  14
BRANCH  10  16
ATOM     16  C   UNL A   1      32.126  27.858  26.095  1.00  0.00     0.019 A 
ATOM     17  C   UNL A   1      31.503  28.345  24.933  1.00  0.00     0.012 A 
ATOM     18  C   UNL A   1      32.398  28.762  27.134  1.00  0.00     0.012 A 
ATOM     19  C   UNL A   1      31.164  29.695  24.812  1.00  0.00     0.001 A 
ATOM     20  C   UNL A   1      32.076  30.116  27.008  1.00  0.00     0.001 A 
ATOM     21  C   UNL A   1      31.458  30.580  25.848  1.00  0.00     0.000 A 
ENDBRANCH  10  16
ENDBRANCH   6   7
ENDBRANCH   4   6
ENDBRANCH   3   4
ENDBRANCH   2   3
ENDBRANCH   1   2
BRANCH   1  22
ATOM     22  O   UNL A   1      37.637  21.441  25.070  1.00  0.00    -0.458 OA
BRANCH  22  23
ATOM     23  C   UNL A   1      38.744  21.140  25.783  1.00  0.00     0.338 C 
ATOM     24  O   UNL A   1      39.224  20.026  25.965  1.00  0.00    -0.246 OA
BRANCH  23  25
ATOM     25  C   UNL A   1      39.332  22.359  26.364  1.00  0.00     0.060 A 
ATOM     26  C   UNL A   1      38.848  23.626  26.027  1.00  0.00     0.016 A 
ATOM     27  C   UNL A   1      40.463  22.234  27.171  1.00  0.00     0.016 A 
ATOM     28  C   UNL A   1      39.540  24.767  26.435  1.00  0.00     0.010 A 
ATOM     29  C   UNL A   1      41.104  23.378  27.648  1.00  0.00     0.010 A 
ATOM     30  C   UNL A   1      40.669  24.655  27.261  1.00  0.00    -0.014 A 
BRANCH  30  31
ATOM     31  C   UNL A   1      41.392  25.857  27.752  1.00  0.00     0.031 A 
ATOM     32  C   UNL A   1      40.673  26.905  28.559  1.00  0.00     0.074 A 
ATOM     33  C   UNL A   1      42.679  26.046  27.402  1.00  0.00     0.049 A 
ATOM     34  N   UNL A   1      41.084  28.095  28.918  1.00  0.00    -0.248 NA
ATOM     35  C   UNL A   1      39.310  26.581  29.012  1.00  0.00     0.031 C 
ATOM     36  C   UNL A   1      43.484  25.115  26.611  1.00  0.00     0.029 A 
ATOM     37  N   UNL A   1      43.525  27.103  27.636  1.00  0.00    -0.354 N 
ATOM     38  C   UNL A   1      40.017  28.682  29.590  1.00  0.00     0.074 A 
ATOM     39  C   UNL A   1      38.940  27.714  29.594  1.00  0.00     0.031 C 
ATOM     40  C   UNL A   1      44.701  25.644  26.414  1.00  0.00     0.029 A 
ATOM     41  C   UNL A   1      44.744  26.974  27.013  1.00  0.00     0.049 A 
ATOM     42  H   UNL A   1      43.283  27.877  28.195  1.00  0.00     0.167 HD
ATOM     43  C   UNL A   1      39.948  29.907  30.163  1.00  0.00     0.034 A 
ATOM     44  C   UNL A   1      45.770  27.839  26.897  1.00  0.00     0.034 A 
ATOM     45  C   UNL A   1      41.038  30.845  30.208  1.00  0.00     0.049 A 
ATOM     46  C   UNL A   1      45.668  29.190  27.545  1.00  0.00     0.074 A 
ATOM     47  C   UNL A   1      41.080  32.084  30.823  1.00  0.00     0.029 A 
ATOM     48  N   UNL A   1      42.278  30.649  29.620  1.00  0.00    -0.354 N 
ATOM     49  N   UNL A   1      44.686  29.690  28.253  1.00  0.00    -0.248 NA
ATOM     50  C   UNL A   1      46.820  30.089  27.392  1.00  0.00     0.031 C 
ATOM     51  C   UNL A   1      42.346  32.641  30.601  1.00  0.00     0.029 A 
ATOM     52  C   UNL A   1      43.091  31.746  29.852  1.00  0.00     0.049 A 
ATOM     53  H   UNL A   1      42.541  29.848  29.110  1.00  0.00     0.167 HD
ATOM     54  C   UNL A   1      45.107  30.954  28.648  1.00  0.00     0.074 A 
ATOM     55  C   UNL A   1      46.444  31.133  28.120  1.00  0.00     0.031 C 
ATOM     56  C   UNL A   1      44.437  31.891  29.362  1.00  0.00     0.034 A 
BRANCH  43  57
ATOM     57  C   UNL A   1      38.661  30.296  30.841  1.00  0.00     0.023 A 
ATOM     58  C   UNL A   1      38.484  30.006  32.208  1.00  0.00     0.012 A 
ATOM     59  C   UNL A   1      37.669  31.024  30.154  1.00  0.00     0.148 A 
ATOM     60  C   UNL A   1      37.333  30.420  32.878  1.00  0.00     0.002 A 
ATOM     61  C   UNL A   1      36.539  31.463  30.838  1.00  0.00     0.091 A 
ATOM     62  F   UNL A   1      37.841  31.268  28.847  1.00  0.00    -0.205 F 
ATOM     63  C   UNL A   1      36.368  31.158  32.198  1.00  0.00     0.022 A 
BRANCH  61  64
ATOM     64  S   UNL A   1      35.281  32.481  30.057  1.00  0.00     0.127 S 
ATOM     65  O   UNL A   1      34.342  32.687  31.157  1.00  0.00    -0.237 OA
ATOM     66  O   UNL A   1      36.036  33.673  29.669  1.00  0.00    -0.237 OA
ATOM     67  O   UNL A   1      34.781  31.697  28.935  1.00  0.00    -0.744 OA
ENDBRANCH  61  64
ENDBRANCH  43  57
BRANCH  44  68
ATOM     68  C   UNL A   1      46.994  27.424  26.158  1.00  0.00     0.023 A 
ATOM     69  C   UNL A   1      47.928  26.584  26.792  1.00  0.00     0.012 A 
ATOM     70  C   UNL A   1      47.197  27.788  24.813  1.00  0.00     0.148 A 
ATOM     71  C   UNL A   1      49.049  26.121  26.102  1.00  0.00     0.002 A 
ATOM     72  C   UNL A   1      48.283  27.276  24.113  1.00  0.00     0.091 A 
ATOM     73  F   UNL A   1      46.310  28.611  24.234  1.00  0.00    -0.205 F 
ATOM     74  C   UNL A   1      49.217  26.452  24.759  1.00  0.00     0.022 A 
BRANCH  72  75
ATOM     75  S   UNL A   1      48.474  27.531  22.345  1.00  0.00     0.127 S 
ATOM     76  O   UNL A   1      48.645  26.165  21.861  1.00  0.00    -0.237 OA
ATOM     77  O   UNL A   1      47.203  28.159  21.982  1.00  0.00    -0.237 OA
ATOM     78  O   UNL A   1      49.629  28.409  22.210  1.00  0.00    -0.744 OA
ENDBRANCH  72  75
ENDBRANCH  44  68
BRANCH  56  79
ATOM     79  C   UNL A   1      45.144  33.192  29.628  1.00  0.00     0.023 A 
ATOM     80  C   UNL A   1      45.958  33.314  30.772  1.00  0.00     0.012 A 
ATOM     81  C   UNL A   1      45.053  34.268  28.725  1.00  0.00     0.148 A 
ATOM     82  C   UNL A   1      46.649  34.496  31.027  1.00  0.00     0.002 A 
ATOM     83  C   UNL A   1      45.774  35.432  28.966  1.00  0.00     0.091 A 
ATOM     84  F   UNL A   1      44.255  34.142  27.654  1.00  0.00    -0.205 F 
ATOM     85  C   UNL A   1      46.567  35.551  30.119  1.00  0.00     0.022 A 
BRANCH  83  86
ATOM     86  S   UNL A   1      45.780  36.804  27.807  1.00  0.00     0.127 S 
ATOM     87  O   UNL A   1      44.385  37.239  27.851  1.00  0.00    -0.237 OA
ATOM     88  O   UNL A   1      46.728  37.735  28.421  1.00  0.00    -0.237 OA
ATOM     89  O   UNL A   1      46.230  36.245  26.539  1.00  0.00    -0.744 OA
ENDBRANCH  83  86
ENDBRANCH  56  79
ENDBRANCH  30  31
ENDBRANCH  23  25
ENDBRANCH  22  23
ENDBRANCH   1  22
TORSDOF 17
ENDMDL
MODEL 2
REMARK VINA RESULT:     -11.5      2.015      2.618
REMARK SMILES COc1nc(-c2ccccc2)nc(C)c1CC(=O)OCCOC(=O)c1ccc(-c2c3nc(c(-c4cccc(S(=O)(=O)[O-])c4F)c4ccc([nH]4)c(-c4cccc(S(=O)(=O)[O-])c4F)c4nc(c(-c5cccc(S(=O)(=O)[O-])c5F)c5ccc2[nH]5)C=C4)C=C3)cc1
REMARK SMILES IDX 21 1 20 2 19 3 17 4 18 5 16 6 15 7 3 8 4 9 5 10 13 11 12 12
REMARK SMILES IDX 14 13 2 14 1 15 6 16 7 17 11 18 8 19 10 20 9 21 22 22 23 23
REMARK SMILES IDX 24 24 25 25 26 26 87 27 27 28 86 29 28 30 29 31 30 32 80 33
REMARK SMILES IDX 31 34 85 35 79 36 81 37 32 38 84 39 78 40 77 41 33 43 65 44
REMARK SMILES IDX 45 45 64 46 46 47 49 48 63 49 82 50 47 51 48 52 62 54 83 55
REMARK SMILES IDX 50 56 34 57 35 58 43 59 36 60 38 61 44 62 37 63 39 64 40 65
REMARK SMILES IDX 41 66 42 67 66 68 67 69 75 70 68 71 70 72 76 73 69 74 71 75
REMARK SMILES IDX 72 76 73 77 74 78 51 79 52 80 60 81 53 82 55 83 61 84 54 85
REMARK SMILES IDX 56 86 57 87 58 88 59 89
REMARK H PARENT 81 42 49 53
REMARK Flexibility Score: inf
ROOT
ATOM      1  C   UNL A   1      35.760  20.743  25.204  1.00  0.00     0.275 C 
ENDROOT
BRANCH   1   2
ATOM      2  C   UNL A   1      34.510  21.487  24.744  1.00  0.00     0.274 C 
BRANCH   2   3
ATOM      3  O   UNL A   1      34.870  22.601  23.902  1.00  0.00    -0.462 OA
BRANCH   3   4
ATOM      4  C   UNL A   1      33.842  23.403  23.514  1.00  0.00     0.310 C 
ATOM      5  O   UNL A   1      32.778  22.999  23.059  1.00  0.00    -0.252 OA
BRANCH   4   6
ATOM      6  C   UNL A   1      34.108  24.877  23.704  1.00  0.00     0.165 C 
BRANCH   6   7
ATOM      7  C   UNL A   1      32.918  25.789  23.628  1.00  0.00     0.047 A 
ATOM      8  C   UNL A   1      32.518  26.373  22.435  1.00  0.00     0.220 A 
ATOM      9  N   UNL A   1      31.472  27.207  22.318  1.00  0.00    -0.193 NA
ATOM     10  C   UNL A   1      30.820  27.485  23.454  1.00  0.00     0.163 A 
ATOM     11  C   UNL A   1      32.135  26.099  24.731  1.00  0.00     0.049 A 
ATOM     12  N   UNL A   1      31.108  26.969  24.662  1.00  0.00    -0.233 NA
ATOM     13  C   UNL A   1      32.409  25.535  26.094  1.00  0.00     0.067 C 
BRANCH   8  14
ATOM     14  O   UNL A   1      33.268  26.086  21.311  1.00  0.00    -0.481 OA
ATOM     15  C   UNL A   1      32.527  25.442  20.275  1.00  0.00     0.280 C 
ENDBRANCH   8  14
BRANCH  10  16
ATOM     16  C   UNL A   1      29.716  28.439  23.383  1.00  0.00     0.019 A 
ATOM     17  C   UNL A   1      28.397  27.996  23.180  1.00  0.00     0.012 A 
ATOM     18  C   UNL A   1      29.943  29.819  23.508  1.00  0.00     0.012 A 
ATOM     19  C   UNL A   1      27.339  28.904  23.103  1.00  0.00     0.001 A 
ATOM     20  C   UNL A   1      28.888  30.730  23.413  1.00  0.00     0.001 A 
ATOM     21  C   UNL A   1      27.587  30.271  23.212  1.00  0.00     0.000 A 
ENDBRANCH  10  16
ENDBRANCH   6   7
ENDBRANCH   4   6
ENDBRANCH   3   4
ENDBRANCH   2   3
ENDBRANCH   1   2
BRANCH   1  22
ATOM     22  O   UNL A   1      36.702  21.677  25.756  1.00  0.00    -0.458 OA
BRANCH  22  23
ATOM     23  C   UNL A   1      37.995  21.288  25.712  1.00  0.00     0.338 C 
ATOM     24  O   UNL A   1      38.423  20.181  25.402  1.00  0.00    -0.246 OA
BRANCH  23  25
ATOM     25  C   UNL A   1      38.881  22.394  26.117  1.00  0.00     0.060 A 
ATOM     26  C   UNL A   1      40.016  22.162  26.899  1.00  0.00     0.016 A 
ATOM     27  C   UNL A   1      38.501  23.700  25.803  1.00  0.00     0.016 A 
ATOM     28  C   UNL A   1      40.728  23.239  27.429  1.00  0.00     0.010 A 
ATOM     29  C   UNL A   1      39.264  24.773  26.265  1.00  0.00     0.010 A 
ATOM     30  C   UNL A   1      40.366  24.557  27.107  1.00  0.00    -0.014 A 
BRANCH  30  31
ATOM     31  C   UNL A   1      41.140  25.719  27.617  1.00  0.00     0.031 A 
ATOM     32  C   UNL A   1      40.467  26.788  28.435  1.00  0.00     0.074 A 
ATOM     33  C   UNL A   1      42.436  25.854  27.274  1.00  0.00     0.049 A 
ATOM     34  N   UNL A   1      40.929  27.953  28.811  1.00  0.00    -0.248 NA
ATOM     35  C   UNL A   1      39.088  26.519  28.879  1.00  0.00     0.031 C 
ATOM     36  C   UNL A   1      43.202  24.898  26.473  1.00  0.00     0.029 A 
ATOM     37  N   UNL A   1      43.329  26.868  27.524  1.00  0.00    -0.354 N 
ATOM     38  C   UNL A   1      39.887  28.578  29.487  1.00  0.00     0.074 A 
ATOM     39  C   UNL A   1      38.768  27.661  29.474  1.00  0.00     0.031 C 
ATOM     40  C   UNL A   1      44.442  25.373  26.287  1.00  0.00     0.029 A 
ATOM     41  C   UNL A   1      44.543  26.691  26.904  1.00  0.00     0.049 A 
ATOM     42  H   UNL A   1      43.119  27.644  28.092  1.00  0.00     0.167 HD
ATOM     43  C   UNL A   1      39.871  29.798  30.076  1.00  0.00     0.034 A 
ATOM     44  C   UNL A   1      45.607  27.511  26.803  1.00  0.00     0.034 A 
ATOM     45  C   UNL A   1      41.002  30.685  30.137  1.00  0.00     0.049 A 
ATOM     46  C   UNL A   1      45.564  28.857  27.468  1.00  0.00     0.074 A 
ATOM     47  C   UNL A   1      41.099  31.913  30.768  1.00  0.00     0.029 A 
ATOM     48  N   UNL A   1      42.235  30.441  29.551  1.00  0.00    -0.354 N 
ATOM     49  N   UNL A   1      44.602  29.391  28.180  1.00  0.00    -0.248 NA
ATOM     50  C   UNL A   1      46.756  29.705  27.331  1.00  0.00     0.031 C 
ATOM     51  C   UNL A   1      42.389  32.414  30.558  1.00  0.00     0.029 A 
ATOM     52  C   UNL A   1      43.096  31.496  29.800  1.00  0.00     0.049 A 
ATOM     53  H   UNL A   1      42.463  29.635  29.031  1.00  0.00     0.167 HD
ATOM     54  C   UNL A   1      45.079  30.630  28.593  1.00  0.00     0.074 A 
ATOM     55  C   UNL A   1      46.425  30.754  28.072  1.00  0.00     0.031 C 
ATOM     56  C   UNL A   1      44.450  31.587  29.317  1.00  0.00     0.034 A 
BRANCH  43  57
ATOM     57  C   UNL A   1      38.600  30.236  30.754  1.00  0.00     0.023 A 
ATOM     58  C   UNL A   1      38.381  29.890  32.102  1.00  0.00     0.012 A 
ATOM     59  C   UNL A   1      37.670  31.061  30.092  1.00  0.00     0.148 A 
ATOM     60  C   UNL A   1      37.248  30.344  32.776  1.00  0.00     0.002 A 
ATOM     61  C   UNL A   1      36.559  31.538  30.780  1.00  0.00     0.091 A 
ATOM     62  F   UNL A   1      37.881  31.359  28.801  1.00  0.00    -0.205 F 
ATOM     63  C   UNL A   1      36.345  31.177  32.121  1.00  0.00     0.022 A 
BRANCH  61  64
ATOM     64  S   UNL A   1      35.384  32.675  30.035  1.00  0.00     0.127 S 
ATOM     65  O   UNL A   1      36.252  33.784  29.643  1.00  0.00    -0.237 OA
ATOM     66  O   UNL A   1      34.854  31.893  28.917  1.00  0.00    -0.237 OA
ATOM     67  O   UNL A   1      34.409  32.972  31.076  1.00  0.00    -0.744 OA
ENDBRANCH  61  64
ENDBRANCH  43  57
BRANCH  44  68
ATOM     68  C   UNL A   1      46.814  27.050  26.063  1.00  0.00     0.023 A 
ATOM     69  C   UNL A   1      46.894  27.268  24.676  1.00  0.00     0.012 A 
ATOM     70  C   UNL A   1      47.909  26.474  26.734  1.00  0.00     0.148 A 
ATOM     71  C   UNL A   1      48.043  26.911  23.967  1.00  0.00     0.002 A 
ATOM     72  C   UNL A   1      49.072  26.176  26.034  1.00  0.00     0.091 A 
ATOM     73  F   UNL A   1      47.804  26.250  28.053  1.00  0.00    -0.205 F 
ATOM     74  C   UNL A   1      49.136  26.382  24.648  1.00  0.00     0.022 A 
BRANCH  72  75
ATOM     75  S   UNL A   1      50.570  25.643  26.871  1.00  0.00     0.127 S 
ATOM     76  O   UNL A   1      50.110  24.452  27.580  1.00  0.00    -0.237 OA
ATOM     77  O   UNL A   1      51.476  25.382  25.752  1.00  0.00    -0.237 OA
ATOM     78  O   UNL A   1      50.964  26.773  27.703  1.00  0.00    -0.744 OA
ENDBRANCH  72  75
ENDBRANCH  44  68
BRANCH  56  79
ATOM     79  C   UNL A   1      45.213  32.851  29.602  1.00  0.00     0.023 A 
ATOM     80  C   UNL A   1      46.020  32.924  30.755  1.00  0.00     0.012 A 
ATOM     81  C   UNL A   1      45.182  33.938  28.709  1.00  0.00     0.148 A 
ATOM     82  C   UNL A   1      46.763  34.070  31.029  1.00  0.00     0.002 A 
ATOM     83  C   UNL A   1      45.954  35.065  28.969  1.00  0.00     0.091 A 
ATOM     84  F   UNL A   1      44.389  33.860  27.629  1.00  0.00    -0.205 F 
ATOM     85  C   UNL A   1      46.740  35.136  30.131  1.00  0.00     0.022 A 
BRANCH  83  86
ATOM     86  S   UNL A   1      46.036  36.446  27.824  1.00  0.00     0.127 S 
ATOM     87  O   UNL A   1      46.558  35.805  26.619  1.00  0.00    -0.237 OA
ATOM     88  O   UNL A   1      44.637  36.867  27.733  1.00  0.00    -0.237 OA
ATOM     89  O   UNL A   1      46.914  37.425  28.451  1.00  0.00    -0.744 OA
ENDBRANCH  83  86
ENDBRANCH  56  79
ENDBRANCH  30  31
ENDBRANCH  23  25
ENDBRANCH  22  23
ENDBRANCH   1  22
TORSDOF 17
ENDMDL
MODEL 3
REMARK VINA RESULT:     -11.4      5.134     10.116
REMARK SMILES COc1nc(-c2ccccc2)nc(C)c1CC(=O)OCCOC(=O)c1ccc(-c2c3nc(c(-c4cccc(S(=O)(=O)[O-])c4F)c4ccc([nH]4)c(-c4cccc(S(=O)(=O)[O-])c4F)c4nc(c(-c5cccc(S(=O)(=O)[O-])c5F)c5ccc2[nH]5)C=C4)C=C3)cc1
REMARK SMILES IDX 21 1 20 2 19 3 17 4 18 5 16 6 15 7 3 8 4 9 5 10 13 11 12 12
REMARK SMILES IDX 14 13 2 14 1 15 6 16 7 17 11 18 8 19 10 20 9 21 22 22 23 23
REMARK SMILES IDX 24 24 25 25 26 26 87 27 27 28 86 29 28 30 29 31 30 32 80 33
REMARK SMILES IDX 31 34 85 35 79 36 81 37 32 38 84 39 78 40 77 41 33 43 65 44
REMARK SMILES IDX 45 45 64 46 46 47 49 48 63 49 82 50 47 51 48 52 62 54 83 55
REMARK SMILES IDX 50 56 34 57 35 58 43 59 36 60 38 61 44 62 37 63 39 64 40 65
REMARK SMILES IDX 41 66 42 67 66 68 67 69 75 70 68 71 70 72 76 73 69 74 71 75
REMARK SMILES IDX 72 76 73 77 74 78 51 79 52 80 60 81 53 82 55 83 61 84 54 85
REMARK SMILES IDX 56 86 57 87 58 88 59 89
REMARK H PARENT 81 42 49 53
REMARK Flexibility Score: inf
ROOT
ATOM      1  C   UNL A   1      31.530  29.753  25.336  1.00  0.00     0.275 C 
ENDROOT
BRANCH   1   2
ATOM      2  C   UNL A   1      31.361  28.301  24.901  1.00  0.00     0.274 C 
BRANCH   2   3
ATOM      3  O   UNL A   1      31.416  27.424  26.045  1.00  0.00    -0.462 OA
BRANCH   3   4
ATOM      4  C   UNL A   1      31.898  26.175  25.807  1.00  0.00     0.310 C 
ATOM      5  O   UNL A   1      32.992  25.768  26.180  1.00  0.00    -0.252 OA
BRANCH   4   6
ATOM      6  C   UNL A   1      30.948  25.287  25.038  1.00  0.00     0.165 C 
BRANCH   6   7
ATOM      7  C   UNL A   1      31.399  23.876  24.792  1.00  0.00     0.047 A 
ATOM      8  C   UNL A   1      32.147  23.530  23.676  1.00  0.00     0.220 A 
ATOM      9  N   UNL A   1      32.560  22.282  23.404  1.00  0.00    -0.193 NA
ATOM     10  C   UNL A   1      32.180  21.340  24.276  1.00  0.00     0.163 A 
ATOM     11  C   UNL A   1      31.113  22.833  25.661  1.00  0.00     0.049 A 
ATOM     12  N   UNL A   1      31.469  21.559  25.397  1.00  0.00    -0.233 NA
ATOM     13  C   UNL A   1      30.337  23.032  26.929  1.00  0.00     0.067 C 
BRANCH   8  14
ATOM     14  O   UNL A   1      32.458  24.541  22.789  1.00  0.00    -0.481 OA
ATOM     15  C   UNL A   1      33.833  24.925  22.813  1.00  0.00     0.280 C 
ENDBRANCH   8  14
BRANCH  10  16
ATOM     16  C   UNL A   1      32.553  19.958  23.983  1.00  0.00     0.019 A 
ATOM     17  C   UNL A   1      33.309  19.209  24.902  1.00  0.00     0.012 A 
ATOM     18  C   UNL A   1      32.173  19.347  22.778  1.00  0.00     0.012 A 
ATOM     19  C   UNL A   1      33.675  17.890  24.623  1.00  0.00     0.001 A 
ATOM     20  C   UNL A   1      32.553  18.034  22.490  1.00  0.00     0.001 A 
ATOM     21  C   UNL A   1      33.302  17.306  23.414  1.00  0.00     0.000 A 
ENDBRANCH  10  16
ENDBRANCH   6   7
ENDBRANCH   4   6
ENDBRANCH   3   4
ENDBRANCH   2   3
ENDBRANCH   1   2
BRANCH   1  22
ATOM     22  O   UNL A   1      32.841  29.940  25.895  1.00  0.00    -0.458 OA
BRANCH  22  23
ATOM     23  C   UNL A   1      32.969  30.996  26.728  1.00  0.00     0.338 C 
ATOM     24  O   UNL A   1      32.214  31.958  26.822  1.00  0.00    -0.246 OA
BRANCH  23  25
ATOM     25  C   UNL A   1      34.190  30.867  27.542  1.00  0.00     0.060 A 
ATOM     26  C   UNL A   1      34.987  31.978  27.832  1.00  0.00     0.016 A 
ATOM     27  C   UNL A   1      34.604  29.589  27.923  1.00  0.00     0.016 A 
ATOM     28  C   UNL A   1      36.232  31.802  28.437  1.00  0.00     0.010 A 
ATOM     29  C   UNL A   1      35.812  29.426  28.602  1.00  0.00     0.010 A 
ATOM     30  C   UNL A   1      36.653  30.525  28.839  1.00  0.00    -0.014 A 
BRANCH  30  31
ATOM     31  C   UNL A   1      37.952  30.320  29.531  1.00  0.00     0.031 A 
ATOM     32  C   UNL A   1      39.004  29.423  28.935  1.00  0.00     0.074 A 
ATOM     33  C   UNL A   1      38.155  30.878  30.741  1.00  0.00     0.049 A 
ATOM     34  N   UNL A   1      40.114  28.983  29.471  1.00  0.00    -0.248 NA
ATOM     35  C   UNL A   1      38.773  28.947  27.560  1.00  0.00     0.031 C 
ATOM     36  C   UNL A   1      37.210  31.754  31.435  1.00  0.00     0.029 A 
ATOM     37  N   UNL A   1      39.206  30.761  31.617  1.00  0.00    -0.354 N 
ATOM     38  C   UNL A   1      40.687  28.140  28.526  1.00  0.00     0.074 A 
ATOM     39  C   UNL A   1      39.805  28.132  27.379  1.00  0.00     0.031 C 
ATOM     40  C   UNL A   1      37.716  32.086  32.631  1.00  0.00     0.029 A 
ATOM     41  C   UNL A   1      38.991  31.402  32.815  1.00  0.00     0.049 A 
ATOM     42  H   UNL A   1      40.032  30.268  31.407  1.00  0.00     0.167 HD
ATOM     43  C   UNL A   1      41.849  27.448  28.603  1.00  0.00     0.034 A 
ATOM     44  C   UNL A   1      39.714  31.408  33.951  1.00  0.00     0.034 A 
ATOM     45  C   UNL A   1      42.753  27.502  29.721  1.00  0.00     0.049 A 
ATOM     46  C   UNL A   1      41.000  30.635  34.008  1.00  0.00     0.074 A 
ATOM     47  C   UNL A   1      43.985  26.885  29.861  1.00  0.00     0.029 A 
ATOM     48  N   UNL A   1      42.529  28.213  30.890  1.00  0.00    -0.354 N 
ATOM     49  N   UNL A   1      41.571  29.917  33.072  1.00  0.00    -0.248 NA
ATOM     50  C   UNL A   1      41.751  30.685  35.270  1.00  0.00     0.031 C 
ATOM     51  C   UNL A   1      44.503  27.220  31.118  1.00  0.00     0.029 A 
ATOM     52  C   UNL A   1      43.596  28.048  31.758  1.00  0.00     0.049 A 
ATOM     53  H   UNL A   1      41.728  28.756  31.076  1.00  0.00     0.167 HD
ATOM     54  C   UNL A   1      42.755  29.446  33.623  1.00  0.00     0.074 A 
ATOM     55  C   UNL A   1      42.833  29.980  34.968  1.00  0.00     0.031 C 
ATOM     56  C   UNL A   1      43.684  28.625  33.074  1.00  0.00     0.034 A 
BRANCH  43  57
ATOM     57  C   UNL A   1      42.247  26.604  27.421  1.00  0.00     0.023 A 
ATOM     58  C   UNL A   1      43.008  27.180  26.385  1.00  0.00     0.012 A 
ATOM     59  C   UNL A   1      41.947  25.228  27.377  1.00  0.00     0.148 A 
ATOM     60  C   UNL A   1      43.452  26.404  25.315  1.00  0.00     0.002 A 
ATOM     61  C   UNL A   1      42.421  24.454  26.323  1.00  0.00     0.091 A 
ATOM     62  F   UNL A   1      41.197  24.703  28.357  1.00  0.00    -0.205 F 
ATOM     63  C   UNL A   1      43.170  25.040  25.290  1.00  0.00     0.022 A 
BRANCH  61  64
ATOM     64  S   UNL A   1      42.166  22.676  26.249  1.00  0.00     0.127 S 
ATOM     65  O   UNL A   1      42.835  22.230  27.469  1.00  0.00    -0.237 OA
ATOM     66  O   UNL A   1      40.707  22.565  26.280  1.00  0.00    -0.237 OA
ATOM     67  O   UNL A   1      42.774  22.243  24.998  1.00  0.00    -0.744 OA
ENDBRANCH  61  64
ENDBRANCH  43  57
BRANCH  44  68
ATOM     68  C   UNL A   1      39.239  32.209  35.112  1.00  0.00     0.023 A 
ATOM     69  C   UNL A   1      38.385  31.610  36.057  1.00  0.00     0.012 A 
ATOM     70  C   UNL A   1      39.689  33.526  35.328  1.00  0.00     0.148 A 
ATOM     71  C   UNL A   1      37.980  32.313  37.193  1.00  0.00     0.002 A 
ATOM     72  C   UNL A   1      39.330  34.199  36.489  1.00  0.00     0.091 A 
ATOM     73  F   UNL A   1      40.481  34.089  34.403  1.00  0.00    -0.205 F 
ATOM     74  C   UNL A   1      38.466  33.599  37.418  1.00  0.00     0.022 A 
BRANCH  72  75
ATOM     75  S   UNL A   1      40.044  35.791  36.919  1.00  0.00     0.127 S 
ATOM     76  O   UNL A   1      39.655  36.613  35.776  1.00  0.00    -0.237 OA
ATOM     77  O   UNL A   1      39.359  36.113  38.171  1.00  0.00    -0.237 OA
ATOM     78  O   UNL A   1      41.472  35.539  37.072  1.00  0.00    -0.744 OA
ENDBRANCH  72  75
ENDBRANCH  44  68
BRANCH  56  79
ATOM     79  C   UNL A   1      44.873  28.262  33.921  1.00  0.00     0.023 A 
ATOM     80  C   UNL A   1      46.020  29.078  33.884  1.00  0.00     0.012 A 
ATOM     81  C   UNL A   1      44.837  27.157  34.792  1.00  0.00     0.148 A 
ATOM     82  C   UNL A   1      47.125  28.785  34.681  1.00  0.00     0.002 A 
ATOM     83  C   UNL A   1      45.928  26.890  35.611  1.00  0.00     0.091 A 
ATOM     84  F   UNL A   1      43.745  26.377  34.796  1.00  0.00    -0.205 F 
ATOM     85  C   UNL A   1      47.075  27.699  35.553  1.00  0.00     0.022 A 
BRANCH  83  86
ATOM     86  S   UNL A   1      45.911  25.556  36.814  1.00  0.00     0.127 S 
ATOM     87  O   UNL A   1      47.238  25.678  37.415  1.00  0.00    -0.237 OA
ATOM     88  O   UNL A   1      44.805  25.937  37.695  1.00  0.00    -0.237 OA
ATOM     89  O   UNL A   1      45.672  24.340  36.048  1.00  0.00    -0.744 OA
ENDBRANCH  83  86
ENDBRANCH  56  79
ENDBRANCH  30  31
ENDBRANCH  23  25
ENDBRANCH  22  23
ENDBRANCH   1  22
TORSDOF 17
ENDMDL
