MODEL 1
REMARK VINA RESULT:     -12.0      0.000      0.000
REMARK SMILES CCCc1cc2c(cc1Cl)C=C(C(=O)OCCOC(=O)c1ccc(-c3c4nc(c(-c5cccc(S(=O)(=O)[O-])c5F)c5ccc([nH]5)c(-c5cccc(S(=O)(=O)[O-])c5F)c5nc(c(-c6cccc(S(=O)(=O)[O-])c6F)c6ccc3[nH]6)C=C5)C=C4)cc1)[C@@H](C(F)(F)F)O2
REMARK SMILES IDX 17 1 16 2 15 3 13 4 14 5 12 6 4 7 5 8 9 9 6 10 8 11 10 12
REMARK SMILES IDX 7 13 89 14 11 15 84 16 3 17 2 18 1 19 85 20 86 21 87 22
REMARK SMILES IDX 88 23 18 24 19 25 20 26 21 27 22 28 83 29 23 30 82 31 24 32
REMARK SMILES IDX 25 33 26 34 76 35 27 36 81 37 75 38 77 39 28 40 80 41 74 42
REMARK SMILES IDX 73 43 29 45 61 46 41 47 60 48 42 49 45 50 59 51 78 52 43 53
REMARK SMILES IDX 44 54 58 56 79 57 46 58 30 59 31 60 39 61 32 62 34 63 40 64
REMARK SMILES IDX 33 65 35 66 36 67 37 68 38 69 62 70 63 71 71 72 64 73 66 74
REMARK SMILES IDX 72 75 65 76 67 77 68 78 69 79 70 80 47 81 48 82 56 83 49 84
REMARK SMILES IDX 51 85 57 86 50 87 52 88 53 89 54 90 55 91
REMARK H PARENT 77 44 45 55
REMARK Flexibility Score: inf
ROOT
ATOM      1  C   UNL A   1      31.399  30.722  25.766  1.00  0.00     0.275 C 
ENDROOT
BRANCH   1   2
ATOM      2  C   UNL A   1      31.358  29.509  24.835  1.00  0.00     0.275 C 
BRANCH   2   3
ATOM      3  O   UNL A   1      32.138  28.409  25.353  1.00  0.00    -0.459 OA
BRANCH   3   4
ATOM      4  C   UNL A   1      32.920  27.777  24.446  1.00  0.00     0.338 C 
ATOM      5  O   UNL A   1      33.576  28.306  23.563  1.00  0.00    -0.246 OA
BRANCH   4   6
ATOM      6  C   UNL A   1      32.915  26.318  24.671  1.00  0.00     0.087 C 
ATOM      7  C   UNL A   1      34.167  21.443  24.789  1.00  0.00    -0.026 A 
ATOM      8  C   UNL A   1      32.958  22.153  24.955  1.00  0.00     0.052 A 
ATOM      9  C   UNL A   1      35.348  22.167  24.571  1.00  0.00     0.045 A 
ATOM     10  C   UNL A   1      32.927  23.546  24.896  1.00  0.00     0.128 A 
ATOM     11  C   UNL A   1      35.321  23.559  24.533  1.00  0.00     0.032 A 
ATOM     12  Cl  UNL A   1      36.871  21.399  24.303  1.00  0.00    -0.084 Cl
ATOM     13  C   UNL A   1      34.110  24.243  24.684  1.00  0.00     0.019 A 
ATOM     14  O   UNL A   1      31.715  24.156  25.068  1.00  0.00    -0.475 OA
ATOM     15  C   UNL A   1      34.089  25.684  24.586  1.00  0.00     0.027 C 
ATOM     16  C   UNL A   1      31.610  25.594  24.833  1.00  0.00     0.316 C 
BRANCH   7  17
ATOM     17  C   UNL A   1      34.150  19.933  24.872  1.00  0.00     0.037 C 
BRANCH  17  18
ATOM     18  C   UNL A   1      32.788  19.300  24.560  1.00  0.00     0.001 C 
ATOM     19  C   UNL A   1      32.827  18.323  23.395  1.00  0.00     0.004 C 
ENDBRANCH  17  18
ENDBRANCH   7  17
BRANCH  16  20
ATOM     20  C   UNL A   1      30.698  25.832  23.617  1.00  0.00     0.430 C 
ATOM     21  F   UNL A   1      29.955  24.733  23.333  1.00  0.00    -0.167 F 
ATOM     22  F   UNL A   1      29.817  26.837  23.845  1.00  0.00    -0.167 F 
ATOM     23  F   UNL A   1      31.394  26.149  22.503  1.00  0.00    -0.167 F 
ENDBRANCH  16  20
ENDBRANCH   4   6
ENDBRANCH   3   4
ENDBRANCH   2   3
ENDBRANCH   1   2
BRANCH   1  24
ATOM     24  O   UNL A   1      32.401  30.546  26.781  1.00  0.00    -0.458 OA
BRANCH  24  25
ATOM     25  C   UNL A   1      33.032  31.678  27.171  1.00  0.00     0.338 C 
ATOM     26  O   UNL A   1      32.568  32.803  27.222  1.00  0.00    -0.246 OA
BRANCH  25  27
ATOM     27  C   UNL A   1      34.390  31.350  27.630  1.00  0.00     0.060 A 
ATOM     28  C   UNL A   1      35.313  32.341  27.941  1.00  0.00     0.016 A 
ATOM     29  C   UNL A   1      34.680  30.020  27.908  1.00  0.00     0.016 A 
ATOM     30  C   UNL A   1      36.533  31.974  28.525  1.00  0.00     0.010 A 
ATOM     31  C   UNL A   1      35.817  29.678  28.633  1.00  0.00     0.010 A 
ATOM     32  C   UNL A   1      36.784  30.643  28.922  1.00  0.00    -0.014 A 
BRANCH  32  33
ATOM     33  C   UNL A   1      38.039  30.266  29.641  1.00  0.00     0.031 A 
ATOM     34  C   UNL A   1      38.304  30.718  31.060  1.00  0.00     0.074 A 
ATOM     35  C   UNL A   1      38.983  29.549  28.994  1.00  0.00     0.049 A 
ATOM     36  N   UNL A   1      39.328  30.445  31.831  1.00  0.00    -0.248 NA
ATOM     37  C   UNL A   1      37.329  31.628  31.687  1.00  0.00     0.031 C 
ATOM     38  C   UNL A   1      38.938  29.167  27.581  1.00  0.00     0.029 A 
ATOM     39  N   UNL A   1      40.163  29.004  29.441  1.00  0.00    -0.354 N 
ATOM     40  C   UNL A   1      39.146  31.185  32.994  1.00  0.00     0.074 A 
ATOM     41  C   UNL A   1      37.939  31.959  32.815  1.00  0.00     0.031 C 
ATOM     42  C   UNL A   1      39.992  28.386  27.299  1.00  0.00     0.029 A 
ATOM     43  C   UNL A   1      40.808  28.236  28.499  1.00  0.00     0.049 A 
ATOM     44  H   UNL A   1      40.514  29.150  30.350  1.00  0.00     0.167 HD
ATOM     45  C   UNL A   1      39.879  31.186  34.131  1.00  0.00     0.034 A 
ATOM     46  C   UNL A   1      41.912  27.469  28.591  1.00  0.00     0.034 A 
ATOM     47  C   UNL A   1      41.010  30.331  34.358  1.00  0.00     0.049 A 
ATOM     48  C   UNL A   1      42.630  27.367  29.906  1.00  0.00     0.074 A 
ATOM     49  C   UNL A   1      41.731  30.156  35.525  1.00  0.00     0.029 A 
ATOM     50  N   UNL A   1      41.570  29.497  33.406  1.00  0.00    -0.354 N 
ATOM     51  N   UNL A   1      42.344  27.954  31.042  1.00  0.00    -0.248 NA
ATOM     52  C   UNL A   1      43.801  26.480  29.964  1.00  0.00     0.031 C 
ATOM     53  C   UNL A   1      42.729  29.208  35.278  1.00  0.00     0.029 A 
ATOM     54  C   UNL A   1      42.624  28.795  33.960  1.00  0.00     0.049 A 
ATOM     55  H   UNL A   1      41.263  29.415  32.474  1.00  0.00     0.167 HD
ATOM     56  C   UNL A   1      43.288  27.500  31.954  1.00  0.00     0.074 A 
ATOM     57  C   UNL A   1      44.145  26.573  31.243  1.00  0.00     0.031 C 
ATOM     58  C   UNL A   1      43.438  27.838  33.256  1.00  0.00     0.034 A 
BRANCH  45  59
ATOM     59  C   UNL A   1      39.418  32.060  35.269  1.00  0.00     0.023 A 
ATOM     60  C   UNL A   1      38.545  31.521  36.236  1.00  0.00     0.012 A 
ATOM     61  C   UNL A   1      39.906  33.371  35.431  1.00  0.00     0.148 A 
ATOM     62  C   UNL A   1      38.140  32.282  37.332  1.00  0.00     0.002 A 
ATOM     63  C   UNL A   1      39.526  34.112  36.546  1.00  0.00     0.091 A 
ATOM     64  F   UNL A   1      40.727  33.868  34.496  1.00  0.00    -0.205 F 
ATOM     65  C   UNL A   1      38.638  33.571  37.491  1.00  0.00     0.022 A 
BRANCH  63  66
ATOM     66  S   UNL A   1      40.157  35.759  36.886  1.00  0.00     0.127 S 
ATOM     67  O   UNL A   1      39.649  36.512  35.740  1.00  0.00    -0.237 OA
ATOM     68  O   UNL A   1      39.511  36.078  38.159  1.00  0.00    -0.237 OA
ATOM     69  O   UNL A   1      41.607  35.632  36.951  1.00  0.00    -0.744 OA
ENDBRANCH  63  66
ENDBRANCH  45  59
BRANCH  46  70
ATOM     70  C   UNL A   1      42.310  26.638  27.422  1.00  0.00     0.023 A 
ATOM     71  C   UNL A   1      43.156  27.198  26.446  1.00  0.00     0.012 A 
ATOM     72  C   UNL A   1      41.953  25.279  27.329  1.00  0.00     0.148 A 
ATOM     73  C   UNL A   1      43.643  26.420  25.395  1.00  0.00     0.002 A 
ATOM     74  C   UNL A   1      42.472  24.500  26.302  1.00  0.00     0.091 A 
ATOM     75  F   UNL A   1      41.150  24.770  28.274  1.00  0.00    -0.205 F 
ATOM     76  C   UNL A   1      43.310  25.070  25.330  1.00  0.00     0.022 A 
BRANCH  74  77
ATOM     77  S   UNL A   1      42.197  22.727  26.191  1.00  0.00     0.127 S 
ATOM     78  O   UNL A   1      42.853  22.402  24.926  1.00  0.00    -0.237 OA
ATOM     79  O   UNL A   1      42.889  22.245  27.387  1.00  0.00    -0.237 OA
ATOM     80  O   UNL A   1      40.753  22.547  26.207  1.00  0.00    -0.744 OA
ENDBRANCH  74  77
ENDBRANCH  46  70
BRANCH  58  81
ATOM     81  C   UNL A   1      44.564  27.211  34.028  1.00  0.00     0.023 A 
ATOM     82  C   UNL A   1      45.815  27.855  34.063  1.00  0.00     0.012 A 
ATOM     83  C   UNL A   1      44.340  26.076  34.831  1.00  0.00     0.148 A 
ATOM     84  C   UNL A   1      46.832  27.376  34.885  1.00  0.00     0.002 A 
ATOM     85  C   UNL A   1      45.347  25.623  35.673  1.00  0.00     0.091 A 
ATOM     86  F   UNL A   1      43.140  25.478  34.772  1.00  0.00    -0.205 F 
ATOM     87  C   UNL A   1      46.595  26.269  35.699  1.00  0.00     0.022 A 
BRANCH  85  88
ATOM     88  S   UNL A   1      45.114  24.256  36.815  1.00  0.00     0.127 S 
ATOM     89  O   UNL A   1      46.455  24.110  37.381  1.00  0.00    -0.237 OA
ATOM     90  O   UNL A   1      44.116  24.792  37.740  1.00  0.00    -0.237 OA
ATOM     91  O   UNL A   1      44.656  23.131  36.011  1.00  0.00    -0.744 OA
ENDBRANCH  85  88
ENDBRANCH  58  81
ENDBRANCH  32  33
ENDBRANCH  25  27
ENDBRANCH  24  25
ENDBRANCH   1  24
TORSDOF 17
ENDMDL
MODEL 2
REMARK VINA RESULT:     -11.9      1.845      2.284
REMARK SMILES CCCc1cc2c(cc1Cl)C=C(C(=O)OCCOC(=O)c1ccc(-c3c4nc(c(-c5cccc(S(=O)(=O)[O-])c5F)c5ccc([nH]5)c(-c5cccc(S(=O)(=O)[O-])c5F)c5nc(c(-c6cccc(S(=O)(=O)[O-])c6F)c6ccc3[nH]6)C=C5)C=C4)cc1)[C@@H](C(F)(F)F)O2
REMARK SMILES IDX 17 1 16 2 15 3 13 4 14 5 12 6 4 7 5 8 9 9 6 10 8 11 10 12
REMARK SMILES IDX 7 13 89 14 11 15 84 16 3 17 2 18 1 19 85 20 86 21 87 22
REMARK SMILES IDX 88 23 18 24 19 25 20 26 21 27 22 28 83 29 23 30 82 31 24 32
REMARK SMILES IDX 25 33 26 34 76 35 27 36 81 37 75 38 77 39 28 40 80 41 74 42
REMARK SMILES IDX 73 43 29 45 61 46 41 47 60 48 42 49 45 50 59 51 78 52 43 53
REMARK SMILES IDX 44 54 58 56 79 57 46 58 30 59 31 60 39 61 32 62 34 63 40 64
REMARK SMILES IDX 33 65 35 66 36 67 37 68 38 69 62 70 63 71 71 72 64 73 66 74
REMARK SMILES IDX 72 75 65 76 67 77 68 78 69 79 70 80 47 81 48 82 56 83 49 84
REMARK SMILES IDX 51 85 57 86 50 87 52 88 53 89 54 90 55 91
REMARK H PARENT 77 44 45 55
REMARK Flexibility Score: inf
ROOT
ATOM      1  C   UNL A   1      31.726  31.103  26.564  1.00  0.00     0.275 C 
ENDROOT
BRANCH   1   2
ATOM      2  C   UNL A   1      31.390  30.363  25.268  1.00  0.00     0.275 C 
BRANCH   2   3
ATOM      3  O   UNL A   1      31.445  28.929  25.439  1.00  0.00    -0.459 OA
BRANCH   3   4
ATOM      4  C   UNL A   1      30.996  28.204  24.387  1.00  0.00     0.338 C 
ATOM      5  O   UNL A   1      30.002  28.438  23.719  1.00  0.00    -0.246 OA
BRANCH   4   6
ATOM      6  C   UNL A   1      31.895  27.067  24.110  1.00  0.00     0.087 C 
ATOM      7  C   UNL A   1      34.901  23.056  24.590  1.00  0.00    -0.026 A 
ATOM      8  C   UNL A   1      34.669  23.995  23.561  1.00  0.00     0.052 A 
ATOM      9  C   UNL A   1      34.154  23.155  25.773  1.00  0.00     0.045 A 
ATOM     10  C   UNL A   1      33.723  25.009  23.712  1.00  0.00     0.128 A 
ATOM     11  C   UNL A   1      33.195  24.155  25.915  1.00  0.00     0.032 A 
ATOM     12  Cl  UNL A   1      34.393  22.094  27.113  1.00  0.00    -0.084 Cl
ATOM     13  C   UNL A   1      32.991  25.085  24.890  1.00  0.00     0.019 A 
ATOM     14  O   UNL A   1      33.560  25.876  22.666  1.00  0.00    -0.475 OA
ATOM     15  C   UNL A   1      32.033  26.150  25.074  1.00  0.00     0.027 C 
ATOM     16  C   UNL A   1      32.716  27.055  22.854  1.00  0.00     0.316 C 
BRANCH   7  17
ATOM     17  C   UNL A   1      35.929  21.969  24.374  1.00  0.00     0.037 C 
BRANCH  17  18
ATOM     18  C   UNL A   1      37.332  22.317  24.888  1.00  0.00     0.001 C 
ATOM     19  C   UNL A   1      37.410  23.678  25.562  1.00  0.00     0.004 C 
ENDBRANCH  17  18
ENDBRANCH   7  17
BRANCH  16  20
ATOM     20  C   UNL A   1      33.596  28.313  22.764  1.00  0.00     0.430 C 
ATOM     21  F   UNL A   1      34.525  28.198  21.783  1.00  0.00    -0.167 F 
ATOM     22  F   UNL A   1      32.862  29.413  22.465  1.00  0.00    -0.167 F 
ATOM     23  F   UNL A   1      34.254  28.567  23.917  1.00  0.00    -0.167 F 
ENDBRANCH  16  20
ENDBRANCH   4   6
ENDBRANCH   3   4
ENDBRANCH   2   3
ENDBRANCH   1   2
BRANCH   1  24
ATOM     24  O   UNL A   1      33.072  30.814  26.977  1.00  0.00    -0.458 OA
BRANCH  24  25
ATOM     25  C   UNL A   1      33.745  31.855  27.518  1.00  0.00     0.338 C 
ATOM     26  O   UNL A   1      33.323  32.977  27.733  1.00  0.00    -0.246 OA
BRANCH  25  27
ATOM     27  C   UNL A   1      35.092  31.416  27.915  1.00  0.00     0.060 A 
ATOM     28  C   UNL A   1      36.118  32.326  28.138  1.00  0.00     0.016 A 
ATOM     29  C   UNL A   1      35.274  30.075  28.225  1.00  0.00     0.016 A 
ATOM     30  C   UNL A   1      37.330  31.866  28.669  1.00  0.00     0.010 A 
ATOM     31  C   UNL A   1      36.415  29.651  28.900  1.00  0.00     0.010 A 
ATOM     32  C   UNL A   1      37.481  30.530  29.100  1.00  0.00    -0.014 A 
BRANCH  32  33
ATOM     33  C   UNL A   1      38.736  30.060  29.763  1.00  0.00     0.031 A 
ATOM     34  C   UNL A   1      39.105  30.504  31.162  1.00  0.00     0.074 A 
ATOM     35  C   UNL A   1      39.587  29.263  29.082  1.00  0.00     0.049 A 
ATOM     36  N   UNL A   1      40.140  30.156  31.886  1.00  0.00    -0.248 NA
ATOM     37  C   UNL A   1      38.238  31.495  31.822  1.00  0.00     0.031 C 
ATOM     38  C   UNL A   1      39.441  28.871  27.678  1.00  0.00     0.029 A 
ATOM     39  N   UNL A   1      40.739  28.629  29.480  1.00  0.00    -0.354 N 
ATOM     40  C   UNL A   1      40.075  30.921  33.046  1.00  0.00     0.074 A 
ATOM     41  C   UNL A   1      38.927  31.788  32.914  1.00  0.00     0.031 C 
ATOM     42  C   UNL A   1      40.414  28.005  27.356  1.00  0.00     0.029 A 
ATOM     43  C   UNL A   1      41.273  27.802  28.518  1.00  0.00     0.049 A 
ATOM     44  H   UNL A   1      41.145  28.755  30.368  1.00  0.00     0.167 HD
ATOM     45  C   UNL A   1      40.861  30.874  34.147  1.00  0.00     0.034 A 
ATOM     46  C   UNL A   1      42.316  26.949  28.568  1.00  0.00     0.034 A 
ATOM     47  C   UNL A   1      41.929  29.933  34.331  1.00  0.00     0.049 A 
ATOM     48  C   UNL A   1      43.087  26.803  29.848  1.00  0.00     0.074 A 
ATOM     49  C   UNL A   1      42.691  29.712  35.464  1.00  0.00     0.029 A 
ATOM     50  N   UNL A   1      42.373  29.047  33.365  1.00  0.00    -0.354 N 
ATOM     51  N   UNL A   1      42.905  27.423  30.989  1.00  0.00    -0.248 NA
ATOM     52  C   UNL A   1      44.184  25.825  29.863  1.00  0.00     0.031 C 
ATOM     53  C   UNL A   1      43.596  28.684  35.183  1.00  0.00     0.029 A 
ATOM     54  C   UNL A   1      43.394  28.267  33.877  1.00  0.00     0.049 A 
ATOM     55  H   UNL A   1      42.016  28.980  32.450  1.00  0.00     0.167 HD
ATOM     56  C   UNL A   1      43.853  26.903  31.860  1.00  0.00     0.074 A 
ATOM     57  C   UNL A   1      44.597  25.903  31.122  1.00  0.00     0.031 C 
ATOM     58  C   UNL A   1      44.093  27.242  33.149  1.00  0.00     0.034 A 
BRANCH  45  59
ATOM     59  C   UNL A   1      40.528  31.794  35.293  1.00  0.00     0.023 A 
ATOM     60  C   UNL A   1      41.345  32.919  35.528  1.00  0.00     0.012 A 
ATOM     61  C   UNL A   1      39.375  31.599  36.078  1.00  0.00     0.148 A 
ATOM     62  C   UNL A   1      41.038  33.820  36.546  1.00  0.00     0.002 A 
ATOM     63  C   UNL A   1      39.055  32.523  37.069  1.00  0.00     0.091 A 
ATOM     64  F   UNL A   1      38.618  30.519  35.845  1.00  0.00    -0.205 F 
ATOM     65  C   UNL A   1      39.890  33.628  37.307  1.00  0.00     0.022 A 
BRANCH  63  66
ATOM     66  S   UNL A   1      37.565  32.410  38.066  1.00  0.00     0.127 S 
ATOM     67  O   UNL A   1      36.588  33.084  37.213  1.00  0.00    -0.237 OA
ATOM     68  O   UNL A   1      37.381  30.963  38.178  1.00  0.00    -0.237 OA
ATOM     69  O   UNL A   1      37.866  33.086  39.320  1.00  0.00    -0.744 OA
ENDBRANCH  63  66
ENDBRANCH  45  59
BRANCH  46  70
ATOM     70  C   UNL A   1      42.588  26.077  27.393  1.00  0.00     0.023 A 
ATOM     71  C   UNL A   1      43.419  26.561  26.364  1.00  0.00     0.012 A 
ATOM     72  C   UNL A   1      42.128  24.747  27.342  1.00  0.00     0.148 A 
ATOM     73  C   UNL A   1      43.790  25.736  25.302  1.00  0.00     0.002 A 
ATOM     74  C   UNL A   1      42.533  23.919  26.300  1.00  0.00     0.091 A 
ATOM     75  F   UNL A   1      41.343  24.310  28.335  1.00  0.00    -0.205 F 
ATOM     76  C   UNL A   1      43.357  24.414  25.276  1.00  0.00     0.022 A 
BRANCH  74  77
ATOM     77  S   UNL A   1      42.124  22.170  26.233  1.00  0.00     0.127 S 
ATOM     78  O   UNL A   1      40.677  22.209  26.032  1.00  0.00    -0.237 OA
ATOM     79  O   UNL A   1      42.897  21.730  25.071  1.00  0.00    -0.237 OA
ATOM     80  O   UNL A   1      42.561  21.610  27.503  1.00  0.00    -0.744 OA
ENDBRANCH  74  77
ENDBRANCH  46  70
BRANCH  58  81
ATOM     81  C   UNL A   1      45.202  26.533  33.875  1.00  0.00     0.023 A 
ATOM     82  C   UNL A   1      46.521  27.005  33.741  1.00  0.00     0.012 A 
ATOM     83  C   UNL A   1      44.917  25.506  34.796  1.00  0.00     0.148 A 
ATOM     84  C   UNL A   1      47.546  26.461  34.512  1.00  0.00     0.002 A 
ATOM     85  C   UNL A   1      45.937  24.992  35.585  1.00  0.00     0.091 A 
ATOM     86  F   UNL A   1      43.651  25.072  34.897  1.00  0.00    -0.205 F 
ATOM     87  C   UNL A   1      47.252  25.466  35.442  1.00  0.00     0.022 A 
BRANCH  85  88
ATOM     88  S   UNL A   1      45.647  23.765  36.865  1.00  0.00     0.127 S 
ATOM     89  O   UNL A   1      46.949  23.716  37.529  1.00  0.00    -0.237 OA
ATOM     90  O   UNL A   1      44.582  24.386  37.653  1.00  0.00    -0.237 OA
ATOM     91  O   UNL A   1      45.259  22.543  36.173  1.00  0.00    -0.744 OA
ENDBRANCH  85  88
ENDBRANCH  58  81
ENDBRANCH  32  33
ENDBRANCH  25  27
ENDBRANCH  24  25
ENDBRANCH   1  24
TORSDOF 17
ENDMDL
MODEL 3
REMARK VINA RESULT:     -11.8      5.156     10.111
REMARK SMILES CCCc1cc2c(cc1Cl)C=C(C(=O)OCCOC(=O)c1ccc(-c3c4nc(c(-c5cccc(S(=O)(=O)[O-])c5F)c5ccc([nH]5)c(-c5cccc(S(=O)(=O)[O-])c5F)c5nc(c(-c6cccc(S(=O)(=O)[O-])c6F)c6ccc3[nH]6)C=C5)C=C4)cc1)[C@@H](C(F)(F)F)O2
REMARK SMILES IDX 17 1 16 2 15 3 13 4 14 5 12 6 4 7 5 8 9 9 6 10 8 11 10 12
REMARK SMILES IDX 7 13 89 14 11 15 84 16 3 17 2 18 1 19 85 20 86 21 87 22
REMARK SMILES IDX 88 23 18 24 19 25 20 26 21 27 22 28 83 29 23 30 82 31 24 32
REMARK SMILES IDX 25 33 26 34 76 35 27 36 81 37 75 38 77 39 28 40 80 41 74 42
REMARK SMILES IDX 73 43 29 45 61 46 41 47 60 48 42 49 45 50 59 51 78 52 43 53
REMARK SMILES IDX 44 54 58 56 79 57 46 58 30 59 31 60 39 61 32 62 34 63 40 64
REMARK SMILES IDX 33 65 35 66 36 67 37 68 38 69 62 70 63 71 71 72 64 73 66 74
REMARK SMILES IDX 72 75 65 76 67 77 68 78 69 79 70 80 47 81 48 82 56 83 49 84
REMARK SMILES IDX 51 85 57 86 50 87 52 88 53 89 54 90 55 91
REMARK H PARENT 77 44 45 55
REMARK Flexibility Score: inf
ROOT
ATOM      1  C   UNL A   1      36.863  20.683  24.994  1.00  0.00     0.275 C 
ENDROOT
BRANCH   1   2
ATOM      2  C   UNL A   1      35.402  21.138  25.009  1.00  0.00     0.275 C 
BRANCH   2   3
ATOM      3  O   UNL A   1      35.287  22.574  24.893  1.00  0.00    -0.459 OA
BRANCH   3   4
ATOM      4  C   UNL A   1      34.462  23.162  25.792  1.00  0.00     0.338 C 
ATOM      5  O   UNL A   1      34.335  22.855  26.967  1.00  0.00    -0.246 OA
BRANCH   4   6
ATOM      6  C   UNL A   1      33.724  24.282  25.176  1.00  0.00     0.087 C 
ATOM      7  C   UNL A   1      31.237  28.593  24.416  1.00  0.00    -0.026 A 
ATOM      8  C   UNL A   1      31.382  27.397  23.679  1.00  0.00     0.052 A 
ATOM      9  C   UNL A   1      31.926  28.723  25.631  1.00  0.00     0.045 A 
ATOM     10  C   UNL A   1      32.186  26.357  24.146  1.00  0.00     0.128 A 
ATOM     11  C   UNL A   1      32.745  27.693  26.086  1.00  0.00     0.032 A 
ATOM     12  Cl  UNL A   1      31.779  30.118  26.636  1.00  0.00    -0.084 Cl
ATOM     13  C   UNL A   1      32.863  26.510  25.349  1.00  0.00     0.019 A 
ATOM     14  O   UNL A   1      32.273  25.234  23.370  1.00  0.00    -0.475 OA
ATOM     15  C   UNL A   1      33.671  25.428  25.861  1.00  0.00     0.027 C 
ATOM     16  C   UNL A   1      32.953  24.058  23.907  1.00  0.00     0.316 C 
BRANCH   7  17
ATOM     17  C   UNL A   1      30.362  29.695  23.863  1.00  0.00     0.037 C 
BRANCH  17  18
ATOM     18  C   UNL A   1      29.619  29.324  22.574  1.00  0.00     0.001 C 
ATOM     19  C   UNL A   1      28.113  29.206  22.755  1.00  0.00     0.004 C 
ENDBRANCH  17  18
ENDBRANCH   7  17
BRANCH  16  20
ATOM     20  C   UNL A   1      31.924  22.928  24.086  1.00  0.00     0.430 C 
ATOM     21  F   UNL A   1      32.452  21.722  23.763  1.00  0.00    -0.167 F 
ATOM     22  F   UNL A   1      31.512  22.830  25.374  1.00  0.00    -0.167 F 
ATOM     23  F   UNL A   1      30.823  23.107  23.322  1.00  0.00    -0.167 F 
ENDBRANCH  16  20
ENDBRANCH   4   6
ENDBRANCH   3   4
ENDBRANCH   2   3
ENDBRANCH   1   2
BRANCH   1  24
ATOM     24  O   UNL A   1      37.742  21.797  25.220  1.00  0.00    -0.458 OA
BRANCH  24  25
ATOM     25  C   UNL A   1      38.881  21.507  25.891  1.00  0.00     0.338 C 
ATOM     26  O   UNL A   1      39.484  20.449  25.900  1.00  0.00    -0.246 OA
BRANCH  25  27
ATOM     27  C   UNL A   1      39.371  22.715  26.571  1.00  0.00     0.060 A 
ATOM     28  C   UNL A   1      40.403  22.660  27.500  1.00  0.00     0.016 A 
ATOM     29  C   UNL A   1      38.889  23.945  26.142  1.00  0.00     0.016 A 
ATOM     30  C   UNL A   1      40.936  23.857  27.995  1.00  0.00     0.010 A 
ATOM     31  C   UNL A   1      39.527  25.125  26.511  1.00  0.00     0.010 A 
ATOM     32  C   UNL A   1      40.538  25.107  27.474  1.00  0.00    -0.014 A 
BRANCH  32  33
ATOM     33  C   UNL A   1      41.179  26.381  27.924  1.00  0.00     0.031 A 
ATOM     34  C   UNL A   1      42.616  26.707  27.581  1.00  0.00     0.074 A 
ATOM     35  C   UNL A   1      40.479  27.237  28.698  1.00  0.00     0.049 A 
ATOM     36  N   UNL A   1      43.303  27.785  27.867  1.00  0.00    -0.248 NA
ATOM     37  C   UNL A   1      43.404  25.686  26.868  1.00  0.00     0.031 C 
ATOM     38  C   UNL A   1      39.137  26.994  29.233  1.00  0.00     0.029 A 
ATOM     39  N   UNL A   1      40.792  28.492  29.162  1.00  0.00    -0.354 N 
ATOM     40  C   UNL A   1      44.600  27.547  27.424  1.00  0.00     0.074 A 
ATOM     41  C   UNL A   1      44.622  26.205  26.891  1.00  0.00     0.031 C 
ATOM     42  C   UNL A   1      38.713  28.090  29.881  1.00  0.00     0.029 A 
ATOM     43  C   UNL A   1      39.761  29.104  29.837  1.00  0.00     0.049 A 
ATOM     44  H   UNL A   1      41.671  28.914  29.026  1.00  0.00     0.167 HD
ATOM     45  C   UNL A   1      45.665  28.381  27.407  1.00  0.00     0.034 A 
ATOM     46  C   UNL A   1      39.650  30.351  30.337  1.00  0.00     0.034 A 
ATOM     47  C   UNL A   1      45.617  29.754  27.825  1.00  0.00     0.049 A 
ATOM     48  C   UNL A   1      40.793  31.312  30.179  1.00  0.00     0.074 A 
ATOM     49  C   UNL A   1      46.601  30.718  27.716  1.00  0.00     0.029 A 
ATOM     50  N   UNL A   1      44.520  30.359  28.414  1.00  0.00    -0.354 N 
ATOM     51  N   UNL A   1      41.957  31.112  29.610  1.00  0.00    -0.248 NA
ATOM     52  C   UNL A   1      40.603  32.673  30.701  1.00  0.00     0.031 C 
ATOM     53  C   UNL A   1      46.097  31.913  28.237  1.00  0.00     0.029 A 
ATOM     54  C   UNL A   1      44.798  31.690  28.667  1.00  0.00     0.049 A 
ATOM     55  H   UNL A   1      43.668  29.911  28.622  1.00  0.00     0.167 HD
ATOM     56  C   UNL A   1      42.633  32.323  29.692  1.00  0.00     0.074 A 
ATOM     57  C   UNL A   1      41.742  33.257  30.350  1.00  0.00     0.031 C 
ATOM     58  C   UNL A   1      43.886  32.622  29.277  1.00  0.00     0.034 A 
BRANCH  45  59
ATOM     59  C   UNL A   1      46.954  27.872  26.815  1.00  0.00     0.023 A 
ATOM     60  C   UNL A   1      47.933  27.327  27.672  1.00  0.00     0.012 A 
ATOM     61  C   UNL A   1      47.164  27.852  25.423  1.00  0.00     0.148 A 
ATOM     62  C   UNL A   1      49.114  26.798  27.155  1.00  0.00     0.002 A 
ATOM     63  C   UNL A   1      48.329  27.288  24.912  1.00  0.00     0.091 A 
ATOM     64  F   UNL A   1      46.225  28.383  24.627  1.00  0.00    -0.205 F 
ATOM     65  C   UNL A   1      49.307  26.769  25.778  1.00  0.00     0.022 A 
BRANCH  63  66
ATOM     66  S   UNL A   1      48.653  27.139  23.152  1.00  0.00     0.127 S 
ATOM     67  O   UNL A   1      47.805  28.198  22.606  1.00  0.00    -0.237 OA
ATOM     68  O   UNL A   1      50.089  27.411  23.080  1.00  0.00    -0.237 OA
ATOM     69  O   UNL A   1      48.268  25.784  22.783  1.00  0.00    -0.744 OA
ENDBRANCH  63  66
ENDBRANCH  45  59
BRANCH  46  70
ATOM     70  C   UNL A   1      38.347  30.781  30.913  1.00  0.00     0.023 A 
ATOM     71  C   UNL A   1      38.140  30.651  32.300  1.00  0.00     0.012 A 
ATOM     72  C   UNL A   1      37.367  31.415  30.125  1.00  0.00     0.148 A 
ATOM     73  C   UNL A   1      36.980  31.145  32.896  1.00  0.00     0.002 A 
ATOM     74  C   UNL A   1      36.231  31.940  30.731  1.00  0.00     0.091 A 
ATOM     75  F   UNL A   1      37.591  31.529  28.809  1.00  0.00    -0.205 F 
ATOM     76  C   UNL A   1      36.032  31.799  32.114  1.00  0.00     0.022 A 
BRANCH  74  77
ATOM     77  S   UNL A   1      35.004  32.897  29.832  1.00  0.00     0.127 S 
ATOM     78  O   UNL A   1      35.820  33.964  29.258  1.00  0.00    -0.237 OA
ATOM     79  O   UNL A   1      34.508  31.913  28.870  1.00  0.00    -0.237 OA
ATOM     80  O   UNL A   1      34.028  33.325  30.825  1.00  0.00    -0.744 OA
ENDBRANCH  74  77
ENDBRANCH  46  70
BRANCH  58  81
ATOM     81  C   UNL A   1      44.396  34.017  29.502  1.00  0.00     0.023 A 
ATOM     82  C   UNL A   1      45.067  34.317  30.702  1.00  0.00     0.012 A 
ATOM     83  C   UNL A   1      44.341  34.977  28.473  1.00  0.00     0.148 A 
ATOM     84  C   UNL A   1      45.676  35.557  30.879  1.00  0.00     0.002 A 
ATOM     85  C   UNL A   1      44.978  36.199  28.643  1.00  0.00     0.091 A 
ATOM     86  F   UNL A   1      43.689  34.666  27.343  1.00  0.00    -0.205 F 
ATOM     87  C   UNL A   1      45.643  36.492  29.846  1.00  0.00     0.022 A 
BRANCH  85  88
ATOM     88  S   UNL A   1      45.060  37.438  27.344  1.00  0.00     0.127 S 
ATOM     89  O   UNL A   1      43.675  37.469  26.875  1.00  0.00    -0.237 OA
ATOM     90  O   UNL A   1      45.483  38.630  28.079  1.00  0.00    -0.237 OA
ATOM     91  O   UNL A   1      46.031  36.945  26.376  1.00  0.00    -0.744 OA
ENDBRANCH  85  88
ENDBRANCH  58  81
ENDBRANCH  32  33
ENDBRANCH  25  27
ENDBRANCH  24  25
ENDBRANCH   1  24
TORSDOF 17
ENDMDL
