MODEL 1
REMARK VINA RESULT:     -12.4      0.000      0.000
REMARK SMILES CCN(c1cccc(C)c1)c1nc(OCC(=O)OCCOC(=O)c2ccc(-c3c4nc(c(-c5cccc(S(=O)(=O)[O-])c5F)c5ccc([nH]5)c(-c5cccc(S(=O)(=O)[O-])c5F)c5nc(c(-c6cccc(S(=O)(=O)[O-])c6F)c6ccc3[nH]6)C=C5)C=C4)cc2)cc(-c2ccc(C)cc2)n1
REMARK SMILES IDX 19 1 18 2 16 3 17 4 15 5 14 6 13 7 11 8 12 9 96 10 88 11
REMARK SMILES IDX 87 12 3 13 2 14 1 15 4 16 5 17 10 18 6 19 8 20 7 21 9 22
REMARK SMILES IDX 89 23 90 24 95 25 91 26 94 27 92 28 93 29 20 30 21 31 22 32
REMARK SMILES IDX 23 33 24 34 25 35 86 36 26 37 85 38 27 39 28 40 29 41 79 42
REMARK SMILES IDX 30 43 84 44 78 45 80 46 31 47 83 48 77 49 76 50 32 52 64 53
REMARK SMILES IDX 44 54 63 55 45 56 48 57 62 58 81 59 46 60 47 61 61 63 82 64
REMARK SMILES IDX 49 65 33 66 34 67 42 68 35 69 37 70 43 71 36 72 38 73 39 74
REMARK SMILES IDX 40 75 41 76 65 77 66 78 74 79 67 80 69 81 75 82 68 83 70 84
REMARK SMILES IDX 71 85 72 86 73 87 50 88 51 89 59 90 52 91 54 92 60 93 53 94
REMARK SMILES IDX 55 95 56 96 57 97 58 98
REMARK H PARENT 80 51 48 62
REMARK Flexibility Score: inf
ROOT
ATOM      1  C   UNL A   1      33.909  37.191  32.199  1.00  0.00     0.274 C 
ENDROOT
BRANCH   1   2
ATOM      2  O   UNL A   1      32.762  36.844  31.405  1.00  0.00    -0.460 OA
BRANCH   2   3
ATOM      3  C   UNL A   1      33.007  36.524  30.008  1.00  0.00     0.344 C 
ATOM      4  O   UNL A   1      33.201  37.638  29.447  1.00  0.00    -0.248 OA
BRANCH   3   5
ATOM      5  C   UNL A   1      33.239  34.486  29.250  1.00  0.00     0.353 C 
BRANCH   5   6
ATOM      6  O   UNL A   1      33.197  33.745  27.837  1.00  0.00    -0.466 OA
BRANCH   6   7
ATOM      7  C   UNL A   1      33.649  32.432  27.675  1.00  0.00     0.219 A 
ATOM      8  C   UNL A   1      33.285  30.190  27.382  1.00  0.00     0.233 A 
ATOM      9  N   UNL A   1      32.800  31.454  27.317  1.00  0.00    -0.177 NA
ATOM     10  N   UNL A   1      34.437  29.886  27.997  1.00  0.00    -0.212 NA
ATOM     11  C   UNL A   1      35.295  30.879  28.254  1.00  0.00     0.080 A 
ATOM     12  C   UNL A   1      34.981  32.188  27.958  1.00  0.00     0.097 A 
BRANCH   8  13
ATOM     13  N   UNL A   1      32.666  29.152  26.665  1.00  0.00    -0.311 N 
BRANCH  13  14
ATOM     14  C   UNL A   1      32.136  28.011  27.436  1.00  0.00     0.122 C 
ATOM     15  C   UNL A   1      31.775  26.763  26.629  1.00  0.00     0.028 C 
ENDBRANCH  13  14
BRANCH  13  16
ATOM     16  C   UNL A   1      32.769  29.005  25.266  1.00  0.00     0.044 A 
ATOM     17  C   UNL A   1      33.963  28.601  24.656  1.00  0.00     0.026 A 
ATOM     18  C   UNL A   1      31.657  29.232  24.431  1.00  0.00     0.029 A 
ATOM     19  C   UNL A   1      34.042  28.412  23.273  1.00  0.00     0.002 A 
ATOM     20  C   UNL A   1      31.725  29.061  23.038  1.00  0.00    -0.049 A 
ATOM     21  C   UNL A   1      32.927  28.640  22.467  1.00  0.00     0.003 A 
ATOM     22  C   UNL A   1      30.512  29.313  22.190  1.00  0.00     0.044 C 
ENDBRANCH  13  16
ENDBRANCH   8  13
BRANCH  11  23
ATOM     23  C   UNL A   1      36.488  30.512  29.037  1.00  0.00     0.000 A 
ATOM     24  C   UNL A   1      37.713  31.163  28.809  1.00  0.00     0.010 A 
ATOM     25  C   UNL A   1      36.495  29.438  29.928  1.00  0.00     0.010 A 
ATOM     26  C   UNL A   1      38.926  30.606  29.228  1.00  0.00     0.004 A 
ATOM     27  C   UNL A   1      37.701  28.935  30.436  1.00  0.00     0.004 A 
ATOM     28  C   UNL A   1      38.930  29.457  30.013  1.00  0.00    -0.051 A 
ATOM     29  C   UNL A   1      40.222  28.796  30.389  1.00  0.00     0.044 C 
ENDBRANCH  11  23
ENDBRANCH   6   7
ENDBRANCH   5   6
ENDBRANCH   3   5
ENDBRANCH   2   3
ENDBRANCH   1   2
BRANCH   1  30
ATOM     30  C   UNL A   1      34.030  36.178  33.347  1.00  0.00     0.275 C 
BRANCH  30  31
ATOM     31  O   UNL A   1      34.924  35.033  33.245  1.00  0.00    -0.458 OA
BRANCH  31  32
ATOM     32  C   UNL A   1      34.521  33.856  32.730  1.00  0.00     0.338 C 
ATOM     33  O   UNL A   1      33.489  33.299  33.059  1.00  0.00    -0.246 OA
BRANCH  32  34
ATOM     34  C   UNL A   1      35.490  33.222  31.781  1.00  0.00     0.060 A 
ATOM     35  C   UNL A   1      36.345  31.860  32.653  1.00  0.00     0.016 A 
ATOM     36  C   UNL A   1      36.439  34.352  30.742  1.00  0.00     0.016 A 
ATOM     37  C   UNL A   1      38.139  31.824  32.713  1.00  0.00     0.010 A 
ATOM     38  C   UNL A   1      38.259  34.283  30.815  1.00  0.00     0.010 A 
ATOM     39  C   UNL A   1      39.069  33.108  31.908  1.00  0.00    -0.014 A 
BRANCH  39  40
ATOM     40  C   UNL A   1      40.193  33.707  32.665  1.00  0.00     0.031 A 
ATOM     41  C   UNL A   1      39.816  34.357  33.914  1.00  0.00     0.074 A 
ATOM     42  C   UNL A   1      41.508  33.636  32.297  1.00  0.00     0.049 A 
ATOM     43  N   UNL A   1      40.405  35.400  34.375  1.00  0.00    -0.248 NA
ATOM     44  C   UNL A   1      38.621  33.970  34.651  1.00  0.00     0.031 C 
ATOM     45  C   UNL A   1      42.676  33.793  33.165  1.00  0.00     0.029 A 
ATOM     46  N   UNL A   1      42.106  33.436  31.052  1.00  0.00    -0.354 N 
ATOM     47  C   UNL A   1      39.885  35.596  35.632  1.00  0.00     0.074 A 
ATOM     48  C   UNL A   1      38.644  34.869  35.636  1.00  0.00     0.031 C 
ATOM     49  C   UNL A   1      43.794  33.874  32.418  1.00  0.00     0.029 A 
ATOM     50  C   UNL A   1      43.403  33.936  31.022  1.00  0.00     0.049 A 
ATOM     51  H   UNL A   1      41.664  32.996  30.290  1.00  0.00     0.167 HD
ATOM     52  C   UNL A   1      40.693  36.121  36.593  1.00  0.00     0.034 A 
ATOM     53  C   UNL A   1      43.917  34.759  30.058  1.00  0.00     0.034 A 
ATOM     54  C   UNL A   1      42.015  36.441  36.019  1.00  0.00     0.049 A 
ATOM     55  C   UNL A   1      44.230  36.119  30.669  1.00  0.00     0.074 A 
ATOM     56  C   UNL A   1      43.232  35.775  36.040  1.00  0.00     0.029 A 
ATOM     57  N   UNL A   1      42.119  37.398  35.015  1.00  0.00    -0.354 N 
ATOM     58  N   UNL A   1      44.068  36.385  31.935  1.00  0.00    -0.248 NA
ATOM     59  C   UNL A   1      44.662  37.300  29.923  1.00  0.00     0.031 C 
ATOM     60  C   UNL A   1      44.052  36.319  35.014  1.00  0.00     0.029 A 
ATOM     61  C   UNL A   1      43.355  37.338  34.387  1.00  0.00     0.049 A 
ATOM     62  H   UNL A   1      41.407  38.036  34.780  1.00  0.00     0.167 HD
ATOM     63  C   UNL A   1      44.121  37.734  32.142  1.00  0.00     0.074 A 
ATOM     64  C   UNL A   1      44.598  38.253  30.872  1.00  0.00     0.031 C 
ATOM     65  C   UNL A   1      43.685  38.285  33.318  1.00  0.00     0.034 A 
BRANCH  52  66
ATOM     66  C   UNL A   1      40.440  36.036  38.091  1.00  0.00     0.023 A 
ATOM     67  C   UNL A   1      39.612  34.980  38.534  1.00  0.00     0.012 A 
ATOM     68  C   UNL A   1      40.911  36.907  39.106  1.00  0.00     0.148 A 
ATOM     69  C   UNL A   1      39.224  34.831  39.870  1.00  0.00     0.002 A 
ATOM     70  C   UNL A   1      40.502  36.780  40.437  1.00  0.00     0.091 A 
ATOM     71  F   UNL A   1      41.815  37.842  38.828  1.00  0.00    -0.205 F 
ATOM     72  C   UNL A   1      39.655  35.742  40.822  1.00  0.00     0.022 A 
BRANCH  70  73
ATOM     73  S   UNL A   1      41.008  37.941  41.724  1.00  0.00     0.127 S 
ATOM     74  O   UNL A   1      39.746  38.194  42.424  1.00  0.00    -0.237 OA
ATOM     75  O   UNL A   1      41.977  37.159  42.487  1.00  0.00    -0.237 OA
ATOM     76  O   UNL A   1      41.549  39.109  41.041  1.00  0.00    -0.744 OA
ENDBRANCH  70  73
ENDBRANCH  52  66
BRANCH  53  77
ATOM     77  C   UNL A   1      43.335  34.553  28.694  1.00  0.00     0.023 A 
ATOM     78  C   UNL A   1      42.317  35.441  28.271  1.00  0.00     0.012 A 
ATOM     79  C   UNL A   1      44.041  33.835  27.723  1.00  0.00     0.148 A 
ATOM     80  C   UNL A   1      42.180  35.768  26.919  1.00  0.00     0.002 A 
ATOM     81  C   UNL A   1      43.931  34.192  26.384  1.00  0.00     0.091 A 
ATOM     82  F   UNL A   1      44.876  32.860  28.105  1.00  0.00    -0.205 F 
ATOM     83  C   UNL A   1      43.032  35.187  25.980  1.00  0.00     0.022 A 
BRANCH  81  84
ATOM     84  S   UNL A   1      45.138  33.527  25.231  1.00  0.00     0.127 S 
ATOM     85  O   UNL A   1      46.394  34.150  25.648  1.00  0.00    -0.237 OA
ATOM     86  O   UNL A   1      45.086  32.089  25.468  1.00  0.00    -0.237 OA
ATOM     87  O   UNL A   1      44.623  33.988  23.946  1.00  0.00    -0.744 OA
ENDBRANCH  81  84
ENDBRANCH  53  77
BRANCH  65  88
ATOM     88  C   UNL A   1      43.530  39.769  33.593  1.00  0.00     0.023 A 
ATOM     89  C   UNL A   1      42.543  40.561  32.980  1.00  0.00     0.012 A 
ATOM     90  C   UNL A   1      44.328  40.406  34.582  1.00  0.00     0.148 A 
ATOM     91  C   UNL A   1      42.421  41.929  33.252  1.00  0.00     0.002 A 
ATOM     92  C   UNL A   1      44.104  41.724  34.953  1.00  0.00     0.091 A 
ATOM     93  F   UNL A   1      45.348  39.747  35.150  1.00  0.00    -0.205 F 
ATOM     94  C   UNL A   1      43.187  42.507  34.254  1.00  0.00     0.022 A 
BRANCH  92  95
ATOM     95  S   UNL A   1      44.867  42.422  36.423  1.00  0.00     0.127 S 
ATOM     96  O   UNL A   1      43.751  42.428  37.366  1.00  0.00    -0.237 OA
ATOM     97  O   UNL A   1      45.913  41.442  36.721  1.00  0.00    -0.237 OA
ATOM     98  O   UNL A   1      45.370  43.728  36.018  1.00  0.00    -0.744 OA
ENDBRANCH  92  95
ENDBRANCH  65  88
ENDBRANCH  39  40
ENDBRANCH  32  34
ENDBRANCH  31  32
ENDBRANCH  30  31
ENDBRANCH   1  30
TORSDOF 20
ENDMDL
MODEL 2
REMARK VINA RESULT:     -12.2      1.660      2.015
REMARK SMILES CCN(c1cccc(C)c1)c1nc(OCC(=O)OCCOC(=O)c2ccc(-c3c4nc(c(-c5cccc(S(=O)(=O)[O-])c5F)c5ccc([nH]5)c(-c5cccc(S(=O)(=O)[O-])c5F)c5nc(c(-c6cccc(S(=O)(=O)[O-])c6F)c6ccc3[nH]6)C=C5)C=C4)cc2)cc(-c2ccc(C)cc2)n1
REMARK SMILES IDX 19 1 18 2 16 3 17 4 15 5 14 6 13 7 11 8 12 9 96 10 88 11
REMARK SMILES IDX 87 12 3 13 2 14 1 15 4 16 5 17 10 18 6 19 8 20 7 21 9 22
REMARK SMILES IDX 89 23 90 24 95 25 91 26 94 27 92 28 93 29 20 30 21 31 22 32
REMARK SMILES IDX 23 33 24 34 25 35 86 36 26 37 85 38 27 39 28 40 29 41 79 42
REMARK SMILES IDX 30 43 84 44 78 45 80 46 31 47 83 48 77 49 76 50 32 52 64 53
REMARK SMILES IDX 44 54 63 55 45 56 48 57 62 58 81 59 46 60 47 61 61 63 82 64
REMARK SMILES IDX 49 65 33 66 34 67 42 68 35 69 37 70 43 71 36 72 38 73 39 74
REMARK SMILES IDX 40 75 41 76 65 77 66 78 74 79 67 80 69 81 75 82 68 83 70 84
REMARK SMILES IDX 71 85 72 86 73 87 50 88 51 89 59 90 52 91 54 92 60 93 53 94
REMARK SMILES IDX 55 95 56 96 57 97 58 98
REMARK H PARENT 80 51 48 62
REMARK Flexibility Score: inf
ROOT
ATOM      1  C   UNL A   1      33.990  36.736  32.133  1.00  0.00     0.274 C 
ENDROOT
BRANCH   1   2
ATOM      2  O   UNL A   1      32.889  36.192  31.385  1.00  0.00    -0.460 OA
BRANCH   2   3
ATOM      3  C   UNL A   1      33.061  36.096  29.945  1.00  0.00     0.344 C 
ATOM      4  O   UNL A   1      33.218  37.286  29.555  1.00  0.00    -0.248 OA
BRANCH   3   5
ATOM      5  C   UNL A   1      33.264  34.205  28.867  1.00  0.00     0.353 C 
BRANCH   5   6
ATOM      6  O   UNL A   1      34.200  33.596  27.726  1.00  0.00    -0.466 OA
BRANCH   6   7
ATOM      7  C   UNL A   1      34.507  32.233  27.668  1.00  0.00     0.219 A 
ATOM      8  C   UNL A   1      33.899  30.026  27.596  1.00  0.00     0.233 A 
ATOM      9  N   UNL A   1      33.544  31.324  27.434  1.00  0.00    -0.177 NA
ATOM     10  N   UNL A   1      35.042  29.656  28.192  1.00  0.00    -0.212 NA
ATOM     11  C   UNL A   1      36.009  30.570  28.323  1.00  0.00     0.080 A 
ATOM     12  C   UNL A   1      35.818  31.874  27.921  1.00  0.00     0.097 A 
BRANCH   8  13
ATOM     13  N   UNL A   1      33.143  29.002  27.002  1.00  0.00    -0.311 N 
BRANCH  13  14
ATOM     14  C   UNL A   1      32.334  28.147  27.892  1.00  0.00     0.122 C 
ATOM     15  C   UNL A   1      30.908  27.850  27.424  1.00  0.00     0.028 C 
ENDBRANCH  13  14
BRANCH  13  16
ATOM     16  C   UNL A   1      33.328  28.572  25.671  1.00  0.00     0.044 A 
ATOM     17  C   UNL A   1      33.270  29.466  24.595  1.00  0.00     0.026 A 
ATOM     18  C   UNL A   1      33.608  27.222  25.380  1.00  0.00     0.029 A 
ATOM     19  C   UNL A   1      33.502  29.038  23.284  1.00  0.00     0.002 A 
ATOM     20  C   UNL A   1      33.828  26.774  24.066  1.00  0.00    -0.049 A 
ATOM     21  C   UNL A   1      33.781  27.698  23.021  1.00  0.00     0.003 A 
ATOM     22  C   UNL A   1      34.127  25.327  23.806  1.00  0.00     0.044 C 
ENDBRANCH  13  16
ENDBRANCH   8  13
BRANCH  11  23
ATOM     23  C   UNL A   1      37.195  30.147  29.091  1.00  0.00     0.000 A 
ATOM     24  C   UNL A   1      38.443  30.748  28.853  1.00  0.00     0.010 A 
ATOM     25  C   UNL A   1      37.165  29.068  29.974  1.00  0.00     0.010 A 
ATOM     26  C   UNL A   1      39.636  30.137  29.254  1.00  0.00     0.004 A 
ATOM     27  C   UNL A   1      38.355  28.511  30.465  1.00  0.00     0.004 A 
ATOM     28  C   UNL A   1      39.600  28.984  30.032  1.00  0.00    -0.051 A 
ATOM     29  C   UNL A   1      40.867  28.266  30.390  1.00  0.00     0.044 C 
ENDBRANCH  11  23
ENDBRANCH   6   7
ENDBRANCH   5   6
ENDBRANCH   3   5
ENDBRANCH   2   3
ENDBRANCH   1   2
BRANCH   1  30
ATOM     30  C   UNL A   1      34.177  35.895  33.405  1.00  0.00     0.275 C 
BRANCH  30  31
ATOM     31  O   UNL A   1      34.959  34.667  33.383  1.00  0.00    -0.458 OA
BRANCH  31  32
ATOM     32  C   UNL A   1      34.542  33.567  32.730  1.00  0.00     0.338 C 
ATOM     33  O   UNL A   1      33.498  32.993  32.984  1.00  0.00    -0.246 OA
BRANCH  32  34
ATOM     34  C   UNL A   1      35.509  33.031  31.721  1.00  0.00     0.060 A 
ATOM     35  C   UNL A   1      36.414  31.631  32.474  1.00  0.00     0.016 A 
ATOM     36  C   UNL A   1      36.411  34.261  30.755  1.00  0.00     0.016 A 
ATOM     37  C   UNL A   1      38.208  31.638  32.503  1.00  0.00     0.010 A 
ATOM     38  C   UNL A   1      38.234  34.234  30.795  1.00  0.00     0.010 A 
ATOM     39  C   UNL A   1      39.091  33.002  31.782  1.00  0.00    -0.014 A 
BRANCH  39  40
ATOM     40  C   UNL A   1      40.214  33.572  32.564  1.00  0.00     0.031 A 
ATOM     41  C   UNL A   1      39.828  34.214  33.815  1.00  0.00     0.074 A 
ATOM     42  C   UNL A   1      41.533  33.482  32.218  1.00  0.00     0.049 A 
ATOM     43  N   UNL A   1      40.428  35.241  34.298  1.00  0.00    -0.248 NA
ATOM     44  C   UNL A   1      38.614  33.840  34.528  1.00  0.00     0.031 C 
ATOM     45  C   UNL A   1      42.689  33.608  33.106  1.00  0.00     0.029 A 
ATOM     46  N   UNL A   1      42.147  33.285  30.979  1.00  0.00    -0.354 N 
ATOM     47  C   UNL A   1      39.891  35.431  35.549  1.00  0.00     0.074 A 
ATOM     48  C   UNL A   1      38.637  34.727  35.524  1.00  0.00     0.031 C 
ATOM     49  C   UNL A   1      43.820  33.678  32.378  1.00  0.00     0.029 A 
ATOM     50  C   UNL A   1      43.453  33.762  30.977  1.00  0.00     0.049 A 
ATOM     51  H   UNL A   1      41.711  32.862  30.205  1.00  0.00     0.167 HD
ATOM     52  C   UNL A   1      40.691  35.931  36.529  1.00  0.00     0.034 A 
ATOM     53  C   UNL A   1      43.998  34.588  30.031  1.00  0.00     0.034 A 
ATOM     54  C   UNL A   1      42.029  36.233  35.980  1.00  0.00     0.049 A 
ATOM     55  C   UNL A   1      44.325  35.935  30.663  1.00  0.00     0.074 A 
ATOM     56  C   UNL A   1      43.233  35.546  36.013  1.00  0.00     0.029 A 
ATOM     57  N   UNL A   1      42.166  37.200  34.990  1.00  0.00    -0.354 N 
ATOM     58  N   UNL A   1      44.147  36.189  31.930  1.00  0.00    -0.248 NA
ATOM     59  C   UNL A   1      44.790  37.117  29.939  1.00  0.00     0.031 C 
ATOM     60  C   UNL A   1      44.079  36.087  35.007  1.00  0.00     0.029 A 
ATOM     61  C   UNL A   1      43.410  37.125  34.381  1.00  0.00     0.049 A 
ATOM     62  H   UNL A   1      41.469  37.853  34.750  1.00  0.00     0.167 HD
ATOM     63  C   UNL A   1      44.220  37.534  32.153  1.00  0.00     0.074 A 
ATOM     64  C   UNL A   1      44.727  38.059  30.897  1.00  0.00     0.031 C 
ATOM     65  C   UNL A   1      43.775  38.078  33.329  1.00  0.00     0.034 A 
BRANCH  52  66
ATOM     66  C   UNL A   1      40.413  35.832  38.022  1.00  0.00     0.023 A 
ATOM     67  C   UNL A   1      39.498  36.765  38.558  1.00  0.00     0.012 A 
ATOM     68  C   UNL A   1      40.984  34.934  38.957  1.00  0.00     0.148 A 
ATOM     69  C   UNL A   1      39.214  36.849  39.925  1.00  0.00     0.002 A 
ATOM     70  C   UNL A   1      40.728  35.032  40.328  1.00  0.00     0.091 A 
ATOM     71  F   UNL A   1      41.741  33.919  38.546  1.00  0.00    -0.205 F 
ATOM     72  C   UNL A   1      39.843  35.992  40.816  1.00  0.00     0.022 A 
BRANCH  70  73
ATOM     73  S   UNL A   1      41.525  33.964  41.546  1.00  0.00     0.127 S 
ATOM     74  O   UNL A   1      40.963  34.460  42.805  1.00  0.00    -0.237 OA
ATOM     75  O   UNL A   1      41.056  32.638  41.154  1.00  0.00    -0.237 OA
ATOM     76  O   UNL A   1      42.961  34.182  41.413  1.00  0.00    -0.744 OA
ENDBRANCH  70  73
ENDBRANCH  52  66
BRANCH  53  77
ATOM     77  C   UNL A   1      43.435  34.408  28.656  1.00  0.00     0.023 A 
ATOM     78  C   UNL A   1      42.410  35.292  28.243  1.00  0.00     0.012 A 
ATOM     79  C   UNL A   1      44.162  33.725  27.675  1.00  0.00     0.148 A 
ATOM     80  C   UNL A   1      42.283  35.652  26.898  1.00  0.00     0.002 A 
ATOM     81  C   UNL A   1      44.063  34.113  26.344  1.00  0.00     0.091 A 
ATOM     82  F   UNL A   1      45.006  32.752  28.043  1.00  0.00    -0.205 F 
ATOM     83  C   UNL A   1      43.154  35.105  25.955  1.00  0.00     0.022 A 
BRANCH  81  84
ATOM     84  S   UNL A   1      45.293  33.494  25.190  1.00  0.00     0.127 S 
ATOM     85  O   UNL A   1      45.179  32.041  25.310  1.00  0.00    -0.237 OA
ATOM     86  O   UNL A   1      44.852  34.017  23.903  1.00  0.00    -0.237 OA
ATOM     87  O   UNL A   1      46.528  34.058  25.727  1.00  0.00    -0.744 OA
ENDBRANCH  81  84
ENDBRANCH  53  77
BRANCH  65  88
ATOM     88  C   UNL A   1      43.641  39.562  33.619  1.00  0.00     0.023 A 
ATOM     89  C   UNL A   1      44.055  40.146  34.828  1.00  0.00     0.012 A 
ATOM     90  C   UNL A   1      43.176  40.453  32.613  1.00  0.00     0.148 A 
ATOM     91  C   UNL A   1      43.921  41.518  35.070  1.00  0.00     0.002 A 
ATOM     92  C   UNL A   1      43.184  41.827  32.805  1.00  0.00     0.091 A 
ATOM     93  F   UNL A   1      42.681  39.972  31.464  1.00  0.00    -0.205 F 
ATOM     94  C   UNL A   1      43.506  42.363  34.051  1.00  0.00     0.022 A 
BRANCH  92  95
ATOM     95  S   UNL A   1      42.930  42.962  31.434  1.00  0.00     0.127 S 
ATOM     96  O   UNL A   1      43.105  44.260  32.082  1.00  0.00    -0.237 OA
ATOM     97  O   UNL A   1      44.010  42.586  30.520  1.00  0.00    -0.237 OA
ATOM     98  O   UNL A   1      41.594  42.672  30.931  1.00  0.00    -0.744 OA
ENDBRANCH  92  95
ENDBRANCH  65  88
ENDBRANCH  39  40
ENDBRANCH  32  34
ENDBRANCH  31  32
ENDBRANCH  30  31
ENDBRANCH   1  30
TORSDOF 20
ENDMDL
MODEL 3
REMARK VINA RESULT:     -11.9      6.324     12.414
REMARK SMILES CCN(c1cccc(C)c1)c1nc(OCC(=O)OCCOC(=O)c2ccc(-c3c4nc(c(-c5cccc(S(=O)(=O)[O-])c5F)c5ccc([nH]5)c(-c5cccc(S(=O)(=O)[O-])c5F)c5nc(c(-c6cccc(S(=O)(=O)[O-])c6F)c6ccc3[nH]6)C=C5)C=C4)cc2)cc(-c2ccc(C)cc2)n1
REMARK SMILES IDX 19 1 18 2 16 3 17 4 15 5 14 6 13 7 11 8 12 9 96 10 88 11
REMARK SMILES IDX 87 12 3 13 2 14 1 15 4 16 5 17 10 18 6 19 8 20 7 21 9 22
REMARK SMILES IDX 89 23 90 24 95 25 91 26 94 27 92 28 93 29 20 30 21 31 22 32
REMARK SMILES IDX 23 33 24 34 25 35 86 36 26 37 85 38 27 39 28 40 29 41 79 42
REMARK SMILES IDX 30 43 84 44 78 45 80 46 31 47 83 48 77 49 76 50 32 52 64 53
REMARK SMILES IDX 44 54 63 55 45 56 48 57 62 58 81 59 46 60 47 61 61 63 82 64
REMARK SMILES IDX 49 65 33 66 34 67 42 68 35 69 37 70 43 71 36 72 38 73 39 74
REMARK SMILES IDX 40 75 41 76 65 77 66 78 74 79 67 80 69 81 75 82 68 83 70 84
REMARK SMILES IDX 71 85 72 86 73 87 50 88 51 89 59 90 52 91 54 92 60 93 53 94
REMARK SMILES IDX 55 95 56 96 57 97 58 98
REMARK H PARENT 80 51 48 62
REMARK Flexibility Score: inf
ROOT
ATOM      1  C   UNL A   1      35.638  33.875  29.328  1.00  0.00     0.274 C 
ENDROOT
BRANCH   1   2
ATOM      2  O   UNL A   1      35.513  32.989  28.202  1.00  0.00    -0.460 OA
BRANCH   2   3
ATOM      3  C   UNL A   1      34.179  32.490  27.909  1.00  0.00     0.344 C 
ATOM      4  O   UNL A   1      33.448  33.518  27.872  1.00  0.00    -0.248 OA
BRANCH   3   5
ATOM      5  C   UNL A   1      33.745  30.412  27.390  1.00  0.00     0.353 C 
BRANCH   5   6
ATOM      6  O   UNL A   1      33.934  29.450  26.130  1.00  0.00    -0.466 OA
BRANCH   6   7
ATOM      7  C   UNL A   1      32.863  28.749  25.566  1.00  0.00     0.219 A 
ATOM      8  C   UNL A   1      31.976  26.918  24.514  1.00  0.00     0.233 A 
ATOM      9  N   UNL A   1      32.992  27.453  25.234  1.00  0.00    -0.177 NA
ATOM     10  N   UNL A   1      31.021  27.666  23.942  1.00  0.00    -0.212 NA
ATOM     11  C   UNL A   1      30.867  28.924  24.366  1.00  0.00     0.080 A 
ATOM     12  C   UNL A   1      31.706  29.465  25.316  1.00  0.00     0.097 A 
BRANCH   8  13
ATOM     13  N   UNL A   1      31.794  25.526  24.465  1.00  0.00    -0.311 N 
BRANCH  13  14
ATOM     14  C   UNL A   1      30.522  24.985  24.980  1.00  0.00     0.122 C 
ATOM     15  C   UNL A   1      29.892  25.745  26.149  1.00  0.00     0.028 C 
ENDBRANCH  13  14
BRANCH  13  16
ATOM     16  C   UNL A   1      32.842  24.614  24.219  1.00  0.00     0.044 A 
ATOM     17  C   UNL A   1      33.928  24.945  23.400  1.00  0.00     0.026 A 
ATOM     18  C   UNL A   1      32.846  23.339  24.821  1.00  0.00     0.029 A 
ATOM     19  C   UNL A   1      34.985  24.052  23.202  1.00  0.00     0.002 A 
ATOM     20  C   UNL A   1      33.894  22.425  24.619  1.00  0.00    -0.049 A 
ATOM     21  C   UNL A   1      34.969  22.797  23.810  1.00  0.00     0.003 A 
ATOM     22  C   UNL A   1      33.856  21.080  25.283  1.00  0.00     0.044 C 
ENDBRANCH  13  16
ENDBRANCH   8  13
BRANCH  11  23
ATOM     23  C   UNL A   1      29.888  29.739  23.623  1.00  0.00     0.000 A 
ATOM     24  C   UNL A   1      29.353  29.269  22.411  1.00  0.00     0.010 A 
ATOM     25  C   UNL A   1      29.553  31.037  24.006  1.00  0.00     0.010 A 
ATOM     26  C   UNL A   1      28.745  30.136  21.497  1.00  0.00     0.004 A 
ATOM     27  C   UNL A   1      28.852  31.884  23.135  1.00  0.00     0.004 A 
ATOM     28  C   UNL A   1      28.528  31.468  21.838  1.00  0.00    -0.051 A 
ATOM     29  C   UNL A   1      27.965  32.430  20.836  1.00  0.00     0.044 C 
ENDBRANCH  11  23
ENDBRANCH   6   7
ENDBRANCH   5   6
ENDBRANCH   3   5
ENDBRANCH   2   3
ENDBRANCH   1   2
BRANCH   1  30
ATOM     30  C   UNL A   1      36.890  33.476  30.124  1.00  0.00     0.275 C 
BRANCH  30  31
ATOM     31  O   UNL A   1      37.117  32.093  30.521  1.00  0.00    -0.458 OA
BRANCH  31  32
ATOM     32  C   UNL A   1      38.237  31.429  30.184  1.00  0.00     0.338 C 
ATOM     33  O   UNL A   1      39.169  31.943  29.591  1.00  0.00    -0.246 OA
BRANCH  32  34
ATOM     34  C   UNL A   1      38.222  29.967  30.507  1.00  0.00     0.060 A 
ATOM     35  C   UNL A   1      39.739  29.566  31.445  1.00  0.00     0.016 A 
ATOM     36  C   UNL A   1      37.673  28.868  29.183  1.00  0.00     0.016 A 
ATOM     37  C   UNL A   1      40.829  28.262  30.868  1.00  0.00     0.010 A 
ATOM     38  C   UNL A   1      38.797  27.545  28.628  1.00  0.00     0.010 A 
ATOM     39  C   UNL A   1      40.412  27.359  29.394  1.00  0.00    -0.014 A 
BRANCH  39  40
ATOM     40  C   UNL A   1      41.495  27.136  28.407  1.00  0.00     0.031 A 
ATOM     41  C   UNL A   1      41.943  25.754  28.289  1.00  0.00     0.074 A 
ATOM     42  C   UNL A   1      42.028  28.102  27.601  1.00  0.00     0.049 A 
ATOM     43  N   UNL A   1      43.158  25.423  28.037  1.00  0.00    -0.248 NA
ATOM     44  C   UNL A   1      41.075  24.633  28.621  1.00  0.00     0.031 C 
ATOM     45  C   UNL A   1      42.744  27.903  26.340  1.00  0.00     0.029 A 
ATOM     46  N   UNL A   1      42.080  29.491  27.739  1.00  0.00    -0.354 N 
ATOM     47  C   UNL A   1      43.139  24.064  27.833  1.00  0.00     0.074 A 
ATOM     48  C   UNL A   1      41.920  23.615  28.450  1.00  0.00     0.031 C 
ATOM     49  C   UNL A   1      43.306  29.062  25.944  1.00  0.00     0.029 A 
ATOM     50  C   UNL A   1      43.123  30.038  27.002  1.00  0.00     0.049 A 
ATOM     51  H   UNL A   1      41.455  30.016  28.290  1.00  0.00     0.167 HD
ATOM     52  C   UNL A   1      44.017  23.530  26.942  1.00  0.00     0.034 A 
ATOM     53  C   UNL A   1      44.053  30.924  27.474  1.00  0.00     0.034 A 
ATOM     54  C   UNL A   1      44.891  24.590  26.401  1.00  0.00     0.049 A 
ATOM     55  C   UNL A   1      45.425  30.263  27.478  1.00  0.00     0.074 A 
ATOM     56  C   UNL A   1      44.868  25.310  25.215  1.00  0.00     0.029 A 
ATOM     57  N   UNL A   1      45.747  25.281  27.253  1.00  0.00    -0.354 N 
ATOM     58  N   UNL A   1      45.635  29.056  27.033  1.00  0.00    -0.248 NA
ATOM     59  C   UNL A   1      46.642  30.847  28.042  1.00  0.00     0.031 C 
ATOM     60  C   UNL A   1      45.691  26.458  25.379  1.00  0.00     0.029 A 
ATOM     61  C   UNL A   1      46.243  26.427  26.649  1.00  0.00     0.049 A 
ATOM     62  H   UNL A   1      45.970  24.994  28.168  1.00  0.00     0.167 HD
ATOM     63  C   UNL A   1      46.861  28.612  27.440  1.00  0.00     0.074 A 
ATOM     64  C   UNL A   1      47.492  29.805  27.977  1.00  0.00     0.031 C 
ATOM     65  C   UNL A   1      47.192  27.285  27.363  1.00  0.00     0.034 A 
BRANCH  52  66
ATOM     66  C   UNL A   1      43.883  22.159  26.296  1.00  0.00     0.023 A 
ATOM     67  C   UNL A   1      42.610  21.550  26.362  1.00  0.00     0.012 A 
ATOM     68  C   UNL A   1      44.890  21.394  25.656  1.00  0.00     0.148 A 
ATOM     69  C   UNL A   1      42.363  20.256  25.889  1.00  0.00     0.002 A 
ATOM     70  C   UNL A   1      44.657  20.090  25.209  1.00  0.00     0.091 A 
ATOM     71  F   UNL A   1      46.084  21.925  25.402  1.00  0.00    -0.205 F 
ATOM     72  C   UNL A   1      43.392  19.517  25.327  1.00  0.00     0.022 A 
BRANCH  70  73
ATOM     73  S   UNL A   1      45.954  19.063  24.486  1.00  0.00     0.127 S 
ATOM     74  O   UNL A   1      45.449  18.840  23.129  1.00  0.00    -0.237 OA
ATOM     75  O   UNL A   1      47.122  19.935  24.562  1.00  0.00    -0.237 OA
ATOM     76  O   UNL A   1      46.026  17.853  25.296  1.00  0.00    -0.744 OA
ENDBRANCH  70  73
ENDBRANCH  52  66
BRANCH  53  77
ATOM     77  C   UNL A   1      43.547  31.839  28.545  1.00  0.00     0.023 A 
ATOM     78  C   UNL A   1      43.396  31.308  29.848  1.00  0.00     0.012 A 
ATOM     79  C   UNL A   1      43.644  33.227  28.397  1.00  0.00     0.148 A 
ATOM     80  C   UNL A   1      43.575  32.122  30.971  1.00  0.00     0.002 A 
ATOM     81  C   UNL A   1      43.862  34.028  29.512  1.00  0.00     0.091 A 
ATOM     82  F   UNL A   1      43.602  33.761  27.169  1.00  0.00    -0.205 F 
ATOM     83  C   UNL A   1      43.870  33.475  30.799  1.00  0.00     0.022 A 
BRANCH  81  84
ATOM     84  S   UNL A   1      44.377  35.728  29.243  1.00  0.00     0.127 S 
ATOM     85  O   UNL A   1      43.427  36.223  28.247  1.00  0.00    -0.237 OA
ATOM     86  O   UNL A   1      44.232  36.344  30.556  1.00  0.00    -0.237 OA
ATOM     87  O   UNL A   1      45.743  35.561  28.756  1.00  0.00    -0.744 OA
ENDBRANCH  81  84
ENDBRANCH  53  77
BRANCH  65  88
ATOM     88  C   UNL A   1      48.444  26.653  27.944  1.00  0.00     0.023 A 
ATOM     89  C   UNL A   1      48.425  25.815  29.072  1.00  0.00     0.012 A 
ATOM     90  C   UNL A   1      49.697  26.806  27.290  1.00  0.00     0.148 A 
ATOM     91  C   UNL A   1      49.594  25.243  29.587  1.00  0.00     0.002 A 
ATOM     92  C   UNL A   1      50.824  26.119  27.720  1.00  0.00     0.091 A 
ATOM     93  F   UNL A   1      49.821  27.656  26.262  1.00  0.00    -0.205 F 
ATOM     94  C   UNL A   1      50.791  25.378  28.899  1.00  0.00     0.022 A 
BRANCH  92  95
ATOM     95  S   UNL A   1      52.307  26.036  26.708  1.00  0.00     0.127 S 
ATOM     96  O   UNL A   1      53.361  26.208  27.704  1.00  0.00    -0.237 OA
ATOM     97  O   UNL A   1      52.217  24.689  26.140  1.00  0.00    -0.237 OA
ATOM     98  O   UNL A   1      52.170  27.106  25.728  1.00  0.00    -0.744 OA
ENDBRANCH  92  95
ENDBRANCH  65  88
ENDBRANCH  39  40
ENDBRANCH  32  34
ENDBRANCH  31  32
ENDBRANCH  30  31
ENDBRANCH   1  30
TORSDOF 20
ENDMDL
