MODEL 1
REMARK VINA RESULT:     -13.6      0.000      0.000
REMARK SMILES O=C(OCCOC(=O)[C@@H](Cc1ccccc1)N1C(=O)/C(=C/c2ccncc2)SC1=S)c1ccc(-c2c3nc(c(-c4cccc(S(=O)(=O)[O-])c4F)c4ccc([nH]4)c(-c4cccc(S(=O)(=O)[O-])c4F)c4nc(c(-c5cccc(S(=O)(=O)[O-])c5F)c5ccc2[nH]5)C=C4)C=C3)cc1
REMARK SMILES IDX 4 1 3 2 2 3 1 4 31 5 32 6 93 7 33 8 92 9 34 10 35 11 36 12
REMARK SMILES IDX 86 13 37 14 91 15 85 16 87 17 38 18 90 19 84 20 83 21 39 23
REMARK SMILES IDX 71 24 51 25 70 26 52 27 55 28 69 29 88 30 53 31 54 32 68 34
REMARK SMILES IDX 89 35 56 36 40 37 41 38 49 39 42 40 44 41 50 42 43 43 45 44
REMARK SMILES IDX 46 45 47 46 48 47 72 48 73 49 81 50 74 51 76 52 82 53 75 54
REMARK SMILES IDX 77 55 78 56 79 57 80 58 57 59 58 60 66 61 59 62 61 63 67 64
REMARK SMILES IDX 60 65 62 66 63 67 64 68 65 69 5 70 6 71 7 72 8 73 9 74 10 75
REMARK SMILES IDX 11 76 12 77 16 78 13 79 15 80 14 81 17 82 18 83 29 84 19 85
REMARK SMILES IDX 20 86 28 87 30 88 21 89 22 90 23 91 27 92 24 93 26 94 25 95
REMARK H PARENT 87 22 55 33
REMARK Flexibility Score: inf
ROOT
ATOM      1  C   UNL A   1      37.301  20.447  24.465  1.00  0.00     0.275 C 
ENDROOT
BRANCH   1   2
ATOM      2  O   UNL A   1      38.134  19.770  25.389  1.00  0.00    -0.458 OA
BRANCH   2   3
ATOM      3  C   UNL A   1      39.286  20.288  25.831  1.00  0.00     0.338 C 
ATOM      4  O   UNL A   1      40.246  19.539  26.009  1.00  0.00    -0.246 OA
BRANCH   3   5
ATOM      5  C   UNL A   1      39.466  21.740  26.162  1.00  0.00     0.060 A 
ATOM      6  C   UNL A   1      38.414  23.248  25.932  1.00  0.00     0.016 A 
ATOM      7  C   UNL A   1      40.925  21.859  27.206  1.00  0.00     0.016 A 
ATOM      8  C   UNL A   1      38.960  24.866  26.693  1.00  0.00     0.010 A 
ATOM      9  C   UNL A   1      41.365  23.407  27.995  1.00  0.00     0.010 A 
ATOM     10  C   UNL A   1      40.526  24.936  27.634  1.00  0.00    -0.014 A 
BRANCH  10  11
ATOM     11  C   UNL A   1      41.266  26.222  27.980  1.00  0.00     0.031 A 
ATOM     12  C   UNL A   1      42.713  26.522  27.629  1.00  0.00     0.074 A 
ATOM     13  C   UNL A   1      40.646  27.139  28.737  1.00  0.00     0.049 A 
ATOM     14  N   UNL A   1      43.297  27.695  27.509  1.00  0.00    -0.248 NA
ATOM     15  C   UNL A   1      43.649  25.413  27.415  1.00  0.00     0.031 C 
ATOM     16  C   UNL A   1      39.414  26.831  29.398  1.00  0.00     0.029 A 
ATOM     17  N   UNL A   1      40.917  28.412  29.160  1.00  0.00    -0.354 N 
ATOM     18  C   UNL A   1      44.622  27.437  27.156  1.00  0.00     0.074 A 
ATOM     19  C   UNL A   1      44.765  26.013  27.045  1.00  0.00     0.031 C 
ATOM     20  C   UNL A   1      38.962  27.875  30.088  1.00  0.00     0.029 A 
ATOM     21  C   UNL A   1      39.897  28.960  29.917  1.00  0.00     0.049 A 
ATOM     22  H   UNL A   1      41.753  28.888  28.948  1.00  0.00     0.167 HD
ATOM     23  C   UNL A   1      45.674  28.281  27.040  1.00  0.00     0.034 A 
ATOM     24  C   UNL A   1      39.711  30.199  30.408  1.00  0.00     0.034 A 
ATOM     25  C   UNL A   1      45.624  29.641  27.485  1.00  0.00     0.049 A 
ATOM     26  C   UNL A   1      40.821  31.165  30.155  1.00  0.00     0.074 A 
ATOM     27  C   UNL A   1      46.644  30.571  27.537  1.00  0.00     0.029 A 
ATOM     28  N   UNL A   1      44.513  30.218  28.084  1.00  0.00    -0.354 N 
ATOM     29  N   UNL A   1      41.953  30.941  29.532  1.00  0.00    -0.248 NA
ATOM     30  C   UNL A   1      40.655  32.531  30.655  1.00  0.00     0.031 C 
ATOM     31  C   UNL A   1      46.173  31.675  28.253  1.00  0.00     0.029 A 
ATOM     32  C   UNL A   1      44.835  31.471  28.563  1.00  0.00     0.049 A 
ATOM     33  H   UNL A   1      43.626  29.796  28.156  1.00  0.00     0.167 HD
ATOM     34  C   UNL A   1      42.659  32.125  29.602  1.00  0.00     0.074 A 
ATOM     35  C   UNL A   1      41.786  33.090  30.248  1.00  0.00     0.031 C 
ATOM     36  C   UNL A   1      43.930  32.379  29.217  1.00  0.00     0.034 A 
BRANCH  23  37
ATOM     37  C   UNL A   1      46.979  27.682  26.567  1.00  0.00     0.023 A 
ATOM     38  C   UNL A   1      47.936  27.251  27.512  1.00  0.00     0.012 A 
ATOM     39  C   UNL A   1      47.298  27.629  25.195  1.00  0.00     0.148 A 
ATOM     40  C   UNL A   1      49.200  26.822  27.103  1.00  0.00     0.002 A 
ATOM     41  C   UNL A   1      48.548  27.173  24.794  1.00  0.00     0.091 A 
ATOM     42  F   UNL A   1      46.393  28.076  24.314  1.00  0.00    -0.205 F 
ATOM     43  C   UNL A   1      49.506  26.784  25.745  1.00  0.00     0.022 A 
BRANCH  41  44
ATOM     44  S   UNL A   1      49.036  27.068  23.068  1.00  0.00     0.127 S 
ATOM     45  O   UNL A   1      48.299  25.884  22.627  1.00  0.00    -0.237 OA
ATOM     46  O   UNL A   1      48.531  28.333  22.534  1.00  0.00    -0.237 OA
ATOM     47  O   UNL A   1      50.485  26.935  23.065  1.00  0.00    -0.744 OA
ENDBRANCH  41  44
ENDBRANCH  23  37
BRANCH  24  48
ATOM     48  C   UNL A   1      38.413  30.582  31.054  1.00  0.00     0.023 A 
ATOM     49  C   UNL A   1      38.278  30.461  32.451  1.00  0.00     0.012 A 
ATOM     50  C   UNL A   1      37.358  31.175  30.329  1.00  0.00     0.148 A 
ATOM     51  C   UNL A   1      37.118  30.891  33.101  1.00  0.00     0.002 A 
ATOM     52  C   UNL A   1      36.256  31.704  30.996  1.00  0.00     0.091 A 
ATOM     53  F   UNL A   1      37.470  31.261  28.996  1.00  0.00    -0.205 F 
ATOM     54  C   UNL A   1      36.117  31.532  32.378  1.00  0.00     0.022 A 
BRANCH  52  55
ATOM     55  S   UNL A   1      35.065  32.774  30.174  1.00  0.00     0.127 S 
ATOM     56  O   UNL A   1      34.172  33.132  31.271  1.00  0.00    -0.237 OA
ATOM     57  O   UNL A   1      35.910  33.866  29.684  1.00  0.00    -0.237 OA
ATOM     58  O   UNL A   1      34.485  31.960  29.114  1.00  0.00    -0.744 OA
ENDBRANCH  52  55
ENDBRANCH  24  48
BRANCH  36  59
ATOM     59  C   UNL A   1      44.450  33.744  29.527  1.00  0.00     0.023 A 
ATOM     60  C   UNL A   1      45.083  33.992  30.760  1.00  0.00     0.012 A 
ATOM     61  C   UNL A   1      44.383  34.747  28.548  1.00  0.00     0.148 A 
ATOM     62  C   UNL A   1      45.626  35.245  31.024  1.00  0.00     0.002 A 
ATOM     63  C   UNL A   1      44.979  35.970  28.794  1.00  0.00     0.091 A 
ATOM     64  F   UNL A   1      43.749  34.477  27.399  1.00  0.00    -0.205 F 
ATOM     65  C   UNL A   1      45.588  36.228  30.036  1.00  0.00     0.022 A 
BRANCH  63  66
ATOM     66  S   UNL A   1      45.076  37.246  27.541  1.00  0.00     0.127 S 
ATOM     67  O   UNL A   1      45.749  38.322  28.267  1.00  0.00    -0.237 OA
ATOM     68  O   UNL A   1      45.889  36.598  26.511  1.00  0.00    -0.237 OA
ATOM     69  O   UNL A   1      43.704  37.530  27.144  1.00  0.00    -0.744 OA
ENDBRANCH  63  66
ENDBRANCH  36  59
ENDBRANCH  10  11
ENDBRANCH   3   5
ENDBRANCH   2   3
ENDBRANCH   1   2
BRANCH   1  70
ATOM     70  C   UNL A   1      35.886  20.599  25.035  1.00  0.00     0.274 C 
BRANCH  70  71
ATOM     71  O   UNL A   1      35.407  21.967  25.101  1.00  0.00    -0.461 OA
BRANCH  71  72
ATOM     72  C   UNL A   1      34.146  22.298  25.534  1.00  0.00     0.329 C 
ATOM     73  O   UNL A   1      33.885  22.629  26.680  1.00  0.00    -0.250 OA
BRANCH  72  74
ATOM     74  C   UNL A   1      33.128  22.364  24.320  1.00  0.00     0.206 C 
BRANCH  74  75
ATOM     75  C   UNL A   1      32.390  20.683  23.727  1.00  0.00     0.073 C 
BRANCH  75  76
ATOM     76  C   UNL A   1      32.760  18.604  24.170  1.00  0.00    -0.045 A 
ATOM     77  C   UNL A   1      33.605  17.561  23.300  1.00  0.00     0.004 A 
ATOM     78  C   UNL A   1      32.486  17.752  25.359  1.00  0.00     0.004 A 
ATOM     79  C   UNL A   1      34.213  16.339  23.642  1.00  0.00     0.000 A 
ATOM     80  C   UNL A   1      33.154  16.525  25.722  1.00  0.00     0.000 A 
ATOM     81  C   UNL A   1      34.064  15.873  24.910  1.00  0.00     0.000 A 
ENDBRANCH  75  76
ENDBRANCH  74  75
BRANCH  74  82
ATOM     82  N   UNL A   1      32.182  23.560  24.502  1.00  0.00    -0.278 N 
ATOM     83  C   UNL A   1      32.711  24.807  24.324  1.00  0.00     0.267 C 
ATOM     84  C   UNL A   1      31.168  23.708  25.446  1.00  0.00     0.149 C 
ATOM     85  O   UNL A   1      33.888  25.055  24.542  1.00  0.00    -0.268 OA
ATOM     86  C   UNL A   1      31.652  25.848  24.273  1.00  0.00     0.081 C 
ATOM     87  S   UNL A   1      30.424  25.331  25.333  1.00  0.00    -0.054 SA
ATOM     88  S   UNL A   1      30.603  22.674  26.632  1.00  0.00    -0.052 S 
ATOM     89  C   UNL A   1      31.682  26.928  23.482  1.00  0.00     0.029 C 
BRANCH  89  90
ATOM     90  C   UNL A   1      30.851  28.141  23.504  1.00  0.00    -0.021 A 
ATOM     91  C   UNL A   1      31.102  29.141  24.442  1.00  0.00     0.028 A 
ATOM     92  C   UNL A   1      29.964  28.420  22.462  1.00  0.00     0.028 A 
ATOM     93  C   UNL A   1      30.420  30.344  24.337  1.00  0.00     0.111 A 
ATOM     94  C   UNL A   1      29.319  29.650  22.451  1.00  0.00     0.111 A 
ATOM     95  N   UNL A   1      29.503  30.612  23.378  1.00  0.00    -0.265 NA
ENDBRANCH  89  90
ENDBRANCH  74  82
ENDBRANCH  72  74
ENDBRANCH  71  72
ENDBRANCH  70  71
ENDBRANCH   1  70
TORSDOF 18
ENDMDL
MODEL 2
REMARK VINA RESULT:     -13.2      1.296      1.634
REMARK SMILES O=C(OCCOC(=O)[C@@H](Cc1ccccc1)N1C(=O)/C(=C/c2ccncc2)SC1=S)c1ccc(-c2c3nc(c(-c4cccc(S(=O)(=O)[O-])c4F)c4ccc([nH]4)c(-c4cccc(S(=O)(=O)[O-])c4F)c4nc(c(-c5cccc(S(=O)(=O)[O-])c5F)c5ccc2[nH]5)C=C4)C=C3)cc1
REMARK SMILES IDX 4 1 3 2 2 3 1 4 31 5 32 6 93 7 33 8 92 9 34 10 35 11 36 12
REMARK SMILES IDX 86 13 37 14 91 15 85 16 87 17 38 18 90 19 84 20 83 21 39 23
REMARK SMILES IDX 71 24 51 25 70 26 52 27 55 28 69 29 88 30 53 31 54 32 68 34
REMARK SMILES IDX 89 35 56 36 40 37 41 38 49 39 42 40 44 41 50 42 43 43 45 44
REMARK SMILES IDX 46 45 47 46 48 47 72 48 73 49 81 50 74 51 76 52 82 53 75 54
REMARK SMILES IDX 77 55 78 56 79 57 80 58 57 59 58 60 66 61 59 62 61 63 67 64
REMARK SMILES IDX 60 65 62 66 63 67 64 68 65 69 5 70 6 71 7 72 8 73 9 74 10 75
REMARK SMILES IDX 11 76 12 77 16 78 13 79 15 80 14 81 17 82 18 83 29 84 19 85
REMARK SMILES IDX 20 86 28 87 30 88 21 89 22 90 23 91 27 92 24 93 26 94 25 95
REMARK H PARENT 87 22 55 33
REMARK Flexibility Score: inf
ROOT
ATOM      1  C   UNL A   1      37.394  20.806  24.467  1.00  0.00     0.275 C 
ENDROOT
BRANCH   1   2
ATOM      2  O   UNL A   1      38.225  20.030  25.312  1.00  0.00    -0.458 OA
BRANCH   2   3
ATOM      3  C   UNL A   1      39.329  20.525  25.885  1.00  0.00     0.338 C 
ATOM      4  O   UNL A   1      40.252  19.759  26.157  1.00  0.00    -0.246 OA
BRANCH   3   5
ATOM      5  C   UNL A   1      39.492  21.970  26.255  1.00  0.00     0.060 A 
ATOM      6  C   UNL A   1      38.384  23.452  26.155  1.00  0.00     0.016 A 
ATOM      7  C   UNL A   1      41.020  22.098  27.194  1.00  0.00     0.016 A 
ATOM      8  C   UNL A   1      38.938  25.059  26.932  1.00  0.00     0.010 A 
ATOM      9  C   UNL A   1      41.473  23.632  28.004  1.00  0.00     0.010 A 
ATOM     10  C   UNL A   1      40.566  25.145  27.760  1.00  0.00    -0.014 A 
BRANCH  10  11
ATOM     11  C   UNL A   1      41.293  26.441  28.097  1.00  0.00     0.031 A 
ATOM     12  C   UNL A   1      42.733  26.760  27.731  1.00  0.00     0.074 A 
ATOM     13  C   UNL A   1      40.670  27.350  28.861  1.00  0.00     0.049 A 
ATOM     14  N   UNL A   1      43.301  27.939  27.604  1.00  0.00    -0.248 NA
ATOM     15  C   UNL A   1      43.680  25.663  27.507  1.00  0.00     0.031 C 
ATOM     16  C   UNL A   1      39.449  27.026  29.536  1.00  0.00     0.029 A 
ATOM     17  N   UNL A   1      40.930  28.626  29.281  1.00  0.00    -0.354 N 
ATOM     18  C   UNL A   1      44.625  27.698  27.238  1.00  0.00     0.074 A 
ATOM     19  C   UNL A   1      44.785  26.276  27.125  1.00  0.00     0.031 C 
ATOM     20  C   UNL A   1      38.991  28.065  30.230  1.00  0.00     0.029 A 
ATOM     21  C   UNL A   1      39.911  29.162  30.048  1.00  0.00     0.049 A 
ATOM     22  H   UNL A   1      41.757  29.113  29.059  1.00  0.00     0.167 HD
ATOM     23  C   UNL A   1      45.664  28.556  27.110  1.00  0.00     0.034 A 
ATOM     24  C   UNL A   1      39.714  30.399  30.541  1.00  0.00     0.034 A 
ATOM     25  C   UNL A   1      45.602  29.915  27.555  1.00  0.00     0.049 A 
ATOM     26  C   UNL A   1      40.808  31.378  30.276  1.00  0.00     0.074 A 
ATOM     27  C   UNL A   1      46.610  30.858  27.596  1.00  0.00     0.029 A 
ATOM     28  N   UNL A   1      44.490  30.478  28.166  1.00  0.00    -0.354 N 
ATOM     29  N   UNL A   1      41.937  31.169  29.641  1.00  0.00    -0.248 NA
ATOM     30  C   UNL A   1      40.630  32.743  30.777  1.00  0.00     0.031 C 
ATOM     31  C   UNL A   1      46.132  31.957  28.317  1.00  0.00     0.029 A 
ATOM     32  C   UNL A   1      44.801  31.736  28.641  1.00  0.00     0.049 A 
ATOM     33  H   UNL A   1      43.610  30.045  28.247  1.00  0.00     0.167 HD
ATOM     34  C   UNL A   1      42.628  32.362  29.703  1.00  0.00     0.074 A 
ATOM     35  C   UNL A   1      41.750  33.316  30.357  1.00  0.00     0.031 C 
ATOM     36  C   UNL A   1      43.891  32.633  29.304  1.00  0.00     0.034 A 
BRANCH  23  37
ATOM     37  C   UNL A   1      46.972  27.974  26.623  1.00  0.00     0.023 A 
ATOM     38  C   UNL A   1      48.000  27.687  27.549  1.00  0.00     0.012 A 
ATOM     39  C   UNL A   1      47.219  27.795  25.247  1.00  0.00     0.148 A 
ATOM     40  C   UNL A   1      49.261  27.278  27.111  1.00  0.00     0.002 A 
ATOM     41  C   UNL A   1      48.468  27.359  24.821  1.00  0.00     0.091 A 
ATOM     42  F   UNL A   1      46.246  28.106  24.380  1.00  0.00    -0.205 F 
ATOM     43  C   UNL A   1      49.495  27.115  25.748  1.00  0.00     0.022 A 
BRANCH  41  44
ATOM     44  S   UNL A   1      48.867  27.102  23.088  1.00  0.00     0.127 S 
ATOM     45  O   UNL A   1      48.223  25.815  22.828  1.00  0.00    -0.237 OA
ATOM     46  O   UNL A   1      48.218  28.248  22.454  1.00  0.00    -0.237 OA
ATOM     47  O   UNL A   1      50.321  27.096  23.004  1.00  0.00    -0.744 OA
ENDBRANCH  41  44
ENDBRANCH  23  37
BRANCH  24  48
ATOM     48  C   UNL A   1      38.418  30.765  31.200  1.00  0.00     0.023 A 
ATOM     49  C   UNL A   1      38.302  30.652  32.600  1.00  0.00     0.012 A 
ATOM     50  C   UNL A   1      37.344  31.336  30.485  1.00  0.00     0.148 A 
ATOM     51  C   UNL A   1      37.144  31.067  33.261  1.00  0.00     0.002 A 
ATOM     52  C   UNL A   1      36.242  31.852  31.162  1.00  0.00     0.091 A 
ATOM     53  F   UNL A   1      37.438  31.414  29.150  1.00  0.00    -0.205 F 
ATOM     54  C   UNL A   1      36.124  31.687  32.547  1.00  0.00     0.022 A 
BRANCH  52  55
ATOM     55  S   UNL A   1      35.024  32.896  30.348  1.00  0.00     0.127 S 
ATOM     56  O   UNL A   1      34.453  31.985  29.362  1.00  0.00    -0.237 OA
ATOM     57  O   UNL A   1      34.128  33.252  31.452  1.00  0.00    -0.237 OA
ATOM     58  O   UNL A   1      35.778  34.025  29.818  1.00  0.00    -0.744 OA
ENDBRANCH  52  55
ENDBRANCH  24  48
BRANCH  36  59
ATOM     59  C   UNL A   1      44.397  34.004  29.608  1.00  0.00     0.023 A 
ATOM     60  C   UNL A   1      44.189  35.050  28.689  1.00  0.00     0.012 A 
ATOM     61  C   UNL A   1      45.001  34.258  30.849  1.00  0.00     0.148 A 
ATOM     62  C   UNL A   1      44.603  36.341  28.998  1.00  0.00     0.002 A 
ATOM     63  C   UNL A   1      45.353  35.555  31.174  1.00  0.00     0.091 A 
ATOM     64  F   UNL A   1      45.204  33.229  31.683  1.00  0.00    -0.205 F 
ATOM     65  C   UNL A   1      45.170  36.596  30.246  1.00  0.00     0.022 A 
BRANCH  63  66
ATOM     66  S   UNL A   1      45.981  35.988  32.795  1.00  0.00     0.127 S 
ATOM     67  O   UNL A   1      46.318  37.399  32.613  1.00  0.00    -0.237 OA
ATOM     68  O   UNL A   1      44.817  35.739  33.646  1.00  0.00    -0.237 OA
ATOM     69  O   UNL A   1      47.115  35.107  33.040  1.00  0.00    -0.744 OA
ENDBRANCH  63  66
ENDBRANCH  36  59
ENDBRANCH  10  11
ENDBRANCH   3   5
ENDBRANCH   2   3
ENDBRANCH   1   2
BRANCH   1  70
ATOM     70  C   UNL A   1      35.987  20.924  25.064  1.00  0.00     0.274 C 
BRANCH  70  71
ATOM     71  O   UNL A   1      35.306  22.168  24.761  1.00  0.00    -0.461 OA
BRANCH  71  72
ATOM     72  C   UNL A   1      34.069  22.486  25.266  1.00  0.00     0.329 C 
ATOM     73  O   UNL A   1      33.875  22.844  26.418  1.00  0.00    -0.250 OA
BRANCH  72  74
ATOM     74  C   UNL A   1      32.973  22.496  24.120  1.00  0.00     0.206 C 
BRANCH  74  75
ATOM     75  C   UNL A   1      32.200  20.791  23.655  1.00  0.00     0.073 C 
BRANCH  75  76
ATOM     76  C   UNL A   1      32.659  18.729  24.096  1.00  0.00    -0.045 A 
ATOM     77  C   UNL A   1      33.395  17.673  23.144  1.00  0.00     0.004 A 
ATOM     78  C   UNL A   1      32.561  17.905  25.331  1.00  0.00     0.004 A 
ATOM     79  C   UNL A   1      34.062  16.468  23.431  1.00  0.00     0.000 A 
ATOM     80  C   UNL A   1      33.292  16.696  25.630  1.00  0.00     0.000 A 
ATOM     81  C   UNL A   1      34.094  16.034  24.718  1.00  0.00     0.000 A 
ENDBRANCH  75  76
ENDBRANCH  74  75
BRANCH  74  82
ATOM     82  N   UNL A   1      32.039  23.701  24.307  1.00  0.00    -0.278 N 
ATOM     83  C   UNL A   1      32.557  24.938  24.049  1.00  0.00     0.267 C 
ATOM     84  C   UNL A   1      31.081  23.889  25.301  1.00  0.00     0.149 C 
ATOM     85  O   UNL A   1      33.744  25.192  24.190  1.00  0.00    -0.268 OA
ATOM     86  C   UNL A   1      31.496  25.980  24.017  1.00  0.00     0.081 C 
ATOM     87  S   UNL A   1      30.332  25.507  25.165  1.00  0.00    -0.054 SA
ATOM     88  S   UNL A   1      30.584  22.905  26.558  1.00  0.00    -0.052 S 
ATOM     89  C   UNL A   1      31.482  27.027  23.183  1.00  0.00     0.029 C 
BRANCH  89  90
ATOM     90  C   UNL A   1      30.654  28.241  23.204  1.00  0.00    -0.021 A 
ATOM     91  C   UNL A   1      29.375  28.223  22.652  1.00  0.00     0.028 A 
ATOM     92  C   UNL A   1      31.027  29.348  23.970  1.00  0.00     0.028 A 
ATOM     93  C   UNL A   1      28.551  29.324  22.834  1.00  0.00     0.111 A 
ATOM     94  C   UNL A   1      30.137  30.408  24.083  1.00  0.00     0.111 A 
ATOM     95  N   UNL A   1      28.915  30.437  23.510  1.00  0.00    -0.265 NA
ENDBRANCH  89  90
ENDBRANCH  74  82
ENDBRANCH  72  74
ENDBRANCH  71  72
ENDBRANCH  70  71
ENDBRANCH   1  70
TORSDOF 18
ENDMDL
MODEL 3
REMARK VINA RESULT:     -12.8      2.349      2.865
REMARK SMILES O=C(OCCOC(=O)[C@@H](Cc1ccccc1)N1C(=O)/C(=C/c2ccncc2)SC1=S)c1ccc(-c2c3nc(c(-c4cccc(S(=O)(=O)[O-])c4F)c4ccc([nH]4)c(-c4cccc(S(=O)(=O)[O-])c4F)c4nc(c(-c5cccc(S(=O)(=O)[O-])c5F)c5ccc2[nH]5)C=C4)C=C3)cc1
REMARK SMILES IDX 4 1 3 2 2 3 1 4 31 5 32 6 93 7 33 8 92 9 34 10 35 11 36 12
REMARK SMILES IDX 86 13 37 14 91 15 85 16 87 17 38 18 90 19 84 20 83 21 39 23
REMARK SMILES IDX 71 24 51 25 70 26 52 27 55 28 69 29 88 30 53 31 54 32 68 34
REMARK SMILES IDX 89 35 56 36 40 37 41 38 49 39 42 40 44 41 50 42 43 43 45 44
REMARK SMILES IDX 46 45 47 46 48 47 72 48 73 49 81 50 74 51 76 52 82 53 75 54
REMARK SMILES IDX 77 55 78 56 79 57 80 58 57 59 58 60 66 61 59 62 61 63 67 64
REMARK SMILES IDX 60 65 62 66 63 67 64 68 65 69 5 70 6 71 7 72 8 73 9 74 10 75
REMARK SMILES IDX 11 76 12 77 16 78 13 79 15 80 14 81 17 82 18 83 29 84 19 85
REMARK SMILES IDX 20 86 28 87 30 88 21 89 22 90 23 91 27 92 24 93 26 94 25 95
REMARK H PARENT 87 22 55 33
REMARK Flexibility Score: inf
ROOT
ATOM      1  C   UNL A   1      37.053  21.433  25.464  1.00  0.00     0.275 C 
ENDROOT
BRANCH   1   2
ATOM      2  O   UNL A   1      37.972  22.465  25.777  1.00  0.00    -0.458 OA
BRANCH   2   3
ATOM      3  C   UNL A   1      39.205  22.214  26.235  1.00  0.00     0.338 C 
ATOM      4  O   UNL A   1      39.674  21.087  26.093  1.00  0.00    -0.246 OA
BRANCH   3   5
ATOM      5  C   UNL A   1      40.042  23.232  26.953  1.00  0.00     0.060 A 
ATOM      6  C   UNL A   1      41.333  23.126  28.279  1.00  0.00     0.016 A 
ATOM      7  C   UNL A   1      39.825  24.791  26.084  1.00  0.00     0.016 A 
ATOM      8  C   UNL A   1      42.285  24.664  28.749  1.00  0.00     0.010 A 
ATOM      9  C   UNL A   1      40.823  26.220  26.501  1.00  0.00     0.010 A 
ATOM     10  C   UNL A   1      41.916  26.245  27.907  1.00  0.00    -0.014 A 
BRANCH  10  11
ATOM     11  C   UNL A   1      42.331  27.615  28.429  1.00  0.00     0.031 A 
ATOM     12  C   UNL A   1      43.748  28.163  28.423  1.00  0.00     0.074 A 
ATOM     13  C   UNL A   1      41.412  28.381  29.034  1.00  0.00     0.049 A 
ATOM     14  N   UNL A   1      44.138  29.418  28.454  1.00  0.00    -0.248 NA
ATOM     15  C   UNL A   1      44.881  27.232  28.416  1.00  0.00     0.031 C 
ATOM     16  C   UNL A   1      40.133  27.844  29.392  1.00  0.00     0.029 A 
ATOM     17  N   UNL A   1      41.362  29.658  29.523  1.00  0.00    -0.354 N 
ATOM     18  C   UNL A   1      45.532  29.396  28.412  1.00  0.00     0.074 A 
ATOM     19  C   UNL A   1      45.935  28.022  28.319  1.00  0.00     0.031 C 
ATOM     20  C   UNL A   1      39.368  28.766  29.972  1.00  0.00     0.029 A 
ATOM     21  C   UNL A   1      40.121  29.995  30.032  1.00  0.00     0.049 A 
ATOM     22  H   UNL A   1      42.131  30.273  29.514  1.00  0.00     0.167 HD
ATOM     23  C   UNL A   1      46.425  30.405  28.549  1.00  0.00     0.034 A 
ATOM     24  C   UNL A   1      39.622  31.162  30.482  1.00  0.00     0.034 A 
ATOM     25  C   UNL A   1      46.048  31.714  28.987  1.00  0.00     0.049 A 
ATOM     26  C   UNL A   1      40.581  32.305  30.502  1.00  0.00     0.074 A 
ATOM     27  C   UNL A   1      46.858  32.793  29.283  1.00  0.00     0.029 A 
ATOM     28  N   UNL A   1      44.749  32.073  29.322  1.00  0.00    -0.354 N 
ATOM     29  N   UNL A   1      41.846  32.299  30.153  1.00  0.00    -0.248 NA
ATOM     30  C   UNL A   1      40.079  33.600  30.966  1.00  0.00     0.031 C 
ATOM     31  C   UNL A   1      46.058  33.770  29.885  1.00  0.00     0.029 A 
ATOM     32  C   UNL A   1      44.739  33.336  29.877  1.00  0.00     0.049 A 
ATOM     33  H   UNL A   1      43.953  31.510  29.184  1.00  0.00     0.167 HD
ATOM     34  C   UNL A   1      42.307  33.576  30.397  1.00  0.00     0.074 A 
ATOM     35  C   UNL A   1      41.162  34.354  30.836  1.00  0.00     0.031 C 
ATOM     36  C   UNL A   1      43.570  34.052  30.317  1.00  0.00     0.034 A 
BRANCH  23  37
ATOM     37  C   UNL A   1      47.885  30.049  28.382  1.00  0.00     0.023 A 
ATOM     38  C   UNL A   1      48.476  30.094  27.100  1.00  0.00     0.012 A 
ATOM     39  C   UNL A   1      48.646  29.583  29.473  1.00  0.00     0.148 A 
ATOM     40  C   UNL A   1      49.781  29.640  26.900  1.00  0.00     0.002 A 
ATOM     41  C   UNL A   1      49.955  29.161  29.270  1.00  0.00     0.091 A 
ATOM     42  F   UNL A   1      48.060  29.511  30.675  1.00  0.00    -0.205 F 
ATOM     43  C   UNL A   1      50.520  29.174  27.984  1.00  0.00     0.022 A 
BRANCH  41  44
ATOM     44  S   UNL A   1      50.998  28.557  30.603  1.00  0.00     0.127 S 
ATOM     45  O   UNL A   1      50.705  27.124  30.578  1.00  0.00    -0.237 OA
ATOM     46  O   UNL A   1      52.334  28.914  30.128  1.00  0.00    -0.237 OA
ATOM     47  O   UNL A   1      50.566  29.258  31.803  1.00  0.00    -0.744 OA
ENDBRANCH  41  44
ENDBRANCH  23  37
BRANCH  24  48
ATOM     48  C   UNL A   1      38.167  31.296  30.817  1.00  0.00     0.023 A 
ATOM     49  C   UNL A   1      37.732  31.006  32.126  1.00  0.00     0.012 A 
ATOM     50  C   UNL A   1      37.229  31.821  29.903  1.00  0.00     0.148 A 
ATOM     51  C   UNL A   1      36.402  31.205  32.502  1.00  0.00     0.002 A 
ATOM     52  C   UNL A   1      35.935  32.124  30.317  1.00  0.00     0.091 A 
ATOM     53  F   UNL A   1      37.632  32.067  28.648  1.00  0.00    -0.205 F 
ATOM     54  C   UNL A   1      35.509  31.784  31.606  1.00  0.00     0.022 A 
BRANCH  52  55
ATOM     55  S   UNL A   1      34.816  33.111  29.311  1.00  0.00     0.127 S 
ATOM     56  O   UNL A   1      35.721  34.095  28.727  1.00  0.00    -0.237 OA
ATOM     57  O   UNL A   1      34.287  32.122  28.368  1.00  0.00    -0.237 OA
ATOM     58  O   UNL A   1      33.820  33.627  30.241  1.00  0.00    -0.744 OA
ENDBRANCH  52  55
ENDBRANCH  24  48
BRANCH  36  59
ATOM     59  C   UNL A   1      43.770  35.466  30.754  1.00  0.00     0.023 A 
ATOM     60  C   UNL A   1      44.187  35.743  32.069  1.00  0.00     0.012 A 
ATOM     61  C   UNL A   1      43.625  36.504  29.821  1.00  0.00     0.148 A 
ATOM     62  C   UNL A   1      44.436  37.055  32.459  1.00  0.00     0.002 A 
ATOM     63  C   UNL A   1      43.934  37.798  30.198  1.00  0.00     0.091 A 
ATOM     64  F   UNL A   1      43.200  36.199  28.587  1.00  0.00    -0.205 F 
ATOM     65  C   UNL A   1      44.325  38.079  31.520  1.00  0.00     0.022 A 
BRANCH  63  66
ATOM     66  S   UNL A   1      43.928  39.153  29.027  1.00  0.00     0.127 S 
ATOM     67  O   UNL A   1      42.500  39.296  28.749  1.00  0.00    -0.237 OA
ATOM     68  O   UNL A   1      44.511  40.238  29.817  1.00  0.00    -0.237 OA
ATOM     69  O   UNL A   1      44.739  38.717  27.898  1.00  0.00    -0.744 OA
ENDBRANCH  63  66
ENDBRANCH  36  59
ENDBRANCH  10  11
ENDBRANCH   3   5
ENDBRANCH   2   3
ENDBRANCH   1   2
BRANCH   1  70
ATOM     70  C   UNL A   1      35.661  21.775  26.007  1.00  0.00     0.274 C 
BRANCH  70  71
ATOM     71  O   UNL A   1      34.684  22.114  24.990  1.00  0.00    -0.461 OA
BRANCH  71  72
ATOM     72  C   UNL A   1      34.189  23.385  24.823  1.00  0.00     0.329 C 
ATOM     73  O   UNL A   1      34.665  24.376  25.355  1.00  0.00    -0.250 OA
BRANCH  72  74
ATOM     74  C   UNL A   1      33.047  23.409  23.723  1.00  0.00     0.206 C 
BRANCH  74  75
ATOM     75  C   UNL A   1      32.485  21.697  23.032  1.00  0.00     0.073 C 
BRANCH  75  76
ATOM     76  C   UNL A   1      32.506  19.667  23.763  1.00  0.00    -0.045 A 
ATOM     77  C   UNL A   1      32.727  18.330  22.911  1.00  0.00     0.004 A 
ATOM     78  C   UNL A   1      32.486  19.076  25.128  1.00  0.00     0.004 A 
ATOM     79  C   UNL A   1      33.121  17.036  23.295  1.00  0.00     0.000 A 
ATOM     80  C   UNL A   1      32.942  17.762  25.513  1.00  0.00     0.000 A 
ATOM     81  C   UNL A   1      33.331  16.786  24.613  1.00  0.00     0.000 A 
ENDBRANCH  75  76
ENDBRANCH  74  75
BRANCH  74  82
ATOM     82  N   UNL A   1      31.972  24.433  24.114  1.00  0.00    -0.278 N 
ATOM     83  C   UNL A   1      32.127  25.708  23.650  1.00  0.00     0.267 C 
ATOM     84  C   UNL A   1      31.312  24.550  25.336  1.00  0.00     0.149 C 
ATOM     85  O   UNL A   1      33.225  26.191  23.420  1.00  0.00    -0.268 OA
ATOM     86  C   UNL A   1      30.905  26.525  23.878  1.00  0.00     0.081 C 
ATOM     87  S   UNL A   1      30.233  25.977  25.342  1.00  0.00    -0.054 SA
ATOM     88  S   UNL A   1      31.403  23.637  26.734  1.00  0.00    -0.052 S 
ATOM     89  C   UNL A   1      30.440  27.452  23.031  1.00  0.00     0.029 C 
BRANCH  89  90
ATOM     90  C   UNL A   1      29.415  28.487  23.233  1.00  0.00    -0.021 A 
ATOM     91  C   UNL A   1      29.788  29.825  23.347  1.00  0.00     0.028 A 
ATOM     92  C   UNL A   1      28.059  28.190  23.082  1.00  0.00     0.028 A 
ATOM     93  C   UNL A   1      28.799  30.797  23.366  1.00  0.00     0.111 A 
ATOM     94  C   UNL A   1      27.142  29.232  23.127  1.00  0.00     0.111 A 
ATOM     95  N   UNL A   1      27.475  30.529  23.293  1.00  0.00    -0.265 NA
ENDBRANCH  89  90
ENDBRANCH  74  82
ENDBRANCH  72  74
ENDBRANCH  71  72
ENDBRANCH  70  71
ENDBRANCH   1  70
TORSDOF 18
ENDMDL
