MODEL 1
REMARK VINA RESULT:     -12.1      0.000      0.000
REMARK SMILES O=C(CSc1ccc(Cl)cc1)Nc1ccc(C(=O)OCCOC(=O)c2ccc(-c3c4nc(c(-c5cccc(S(=O)(=O)[O-])c5F)c5ccc([nH]5)c(-c5cccc(S(=O)(=O)[O-])c5F)c5nc(c(-c6cccc(S(=O)(=O)[O-])c6F)c6ccc3[nH]6)C=C5)C=C4)cc2)cc1
REMARK SMILES IDX 20 1 19 2 17 3 18 4 16 5 13 6 14 7 89 8 15 9 88 10 12 11
REMARK SMILES IDX 1 12 2 13 3 15 4 16 5 17 6 18 11 19 7 20 10 21 8 22 9 23
REMARK SMILES IDX 21 24 22 25 23 26 24 27 25 28 26 29 87 30 27 31 86 32 28 33
REMARK SMILES IDX 29 34 30 35 80 36 31 37 85 38 79 39 81 40 32 41 84 42 78 43
REMARK SMILES IDX 77 44 33 46 65 47 45 48 64 49 46 50 49 51 63 52 82 53 47 54
REMARK SMILES IDX 48 55 62 57 83 58 50 59 34 60 35 61 43 62 36 63 38 64 44 65
REMARK SMILES IDX 37 66 39 67 40 68 41 69 42 70 66 71 67 72 75 73 68 74 70 75
REMARK SMILES IDX 76 76 69 77 71 78 72 79 73 80 74 81 51 82 52 83 60 84 53 85
REMARK SMILES IDX 55 86 61 87 54 88 56 89 57 90 58 91 59 92
REMARK H PARENT 12 14 81 45 49 56
REMARK Flexibility Score: inf
ROOT
ATOM      1  C   UNL A   1      35.277  20.388  25.184  1.00  0.00     0.275 C 
ENDROOT
BRANCH   1   2
ATOM      2  O   UNL A   1      34.419  19.363  24.637  1.00  0.00    -0.458 OA
BRANCH   2   3
ATOM      3  C   UNL A   1      33.115  19.451  25.003  1.00  0.00     0.338 C 
ATOM      4  O   UNL A   1      32.511  18.670  25.715  1.00  0.00    -0.246 OA
BRANCH   3   5
ATOM      5  C   UNL A   1      32.475  20.668  24.457  1.00  0.00     0.060 A 
ATOM      6  C   UNL A   1      31.666  23.113  23.340  1.00  0.00     0.041 A 
ATOM      7  C   UNL A   1      32.026  22.055  22.512  1.00  0.00     0.027 A 
ATOM      8  C   UNL A   1      31.631  22.916  24.726  1.00  0.00     0.027 A 
ATOM      9  C   UNL A   1      32.463  20.858  23.071  1.00  0.00     0.018 A 
ATOM     10  C   UNL A   1      32.019  21.690  25.288  1.00  0.00     0.018 A 
BRANCH   6  11
ATOM     11  N   UNL A   1      31.405  24.336  22.705  1.00  0.00    -0.325 N 
ATOM     12  O   UNL A   1      33.552  25.062  22.188  1.00  0.00    -0.274 OA
ATOM     13  C   UNL A   1      32.332  25.211  22.176  1.00  0.00     0.234 C 
ATOM     14  H   UNL A   1      30.459  24.600  22.630  1.00  0.00     0.169 HD
BRANCH  13  15
ATOM     15  C   UNL A   1      31.719  26.481  21.608  1.00  0.00     0.175 C 
BRANCH  15  16
ATOM     16  S   UNL A   1      30.570  27.317  22.756  1.00  0.00    -0.116 SA
BRANCH  16  17
ATOM     17  C   UNL A   1      31.600  27.700  24.166  1.00  0.00     0.008 A 
ATOM     18  C   UNL A   1      32.679  28.572  23.963  1.00  0.00     0.016 A 
ATOM     19  C   UNL A   1      31.343  27.236  25.460  1.00  0.00     0.016 A 
ATOM     20  C   UNL A   1      33.500  28.958  25.028  1.00  0.00     0.021 A 
ATOM     21  C   UNL A   1      32.162  27.621  26.528  1.00  0.00     0.021 A 
ATOM     22  C   UNL A   1      33.237  28.480  26.308  1.00  0.00     0.041 A 
ATOM     23  Cl  UNL A   1      34.228  28.963  27.628  1.00  0.00    -0.084 Cl
ENDBRANCH  16  17
ENDBRANCH  15  16
ENDBRANCH  13  15
ENDBRANCH   6  11
ENDBRANCH   3   5
ENDBRANCH   2   3
ENDBRANCH   1   2
BRANCH   1  24
ATOM     24  C   UNL A   1      36.751  20.140  24.855  1.00  0.00     0.275 C 
BRANCH  24  25
ATOM     25  O   UNL A   1      37.562  21.283  25.183  1.00  0.00    -0.458 OA
BRANCH  25  26
ATOM     26  C   UNL A   1      38.739  20.987  25.774  1.00  0.00     0.338 C 
ATOM     27  O   UNL A   1      39.368  19.944  25.688  1.00  0.00    -0.246 OA
BRANCH  26  28
ATOM     28  C   UNL A   1      39.258  22.147  26.508  1.00  0.00     0.060 A 
ATOM     29  C   UNL A   1      38.742  23.396  26.188  1.00  0.00     0.016 A 
ATOM     30  C   UNL A   1      40.390  22.044  27.310  1.00  0.00     0.016 A 
ATOM     31  C   UNL A   1      39.455  24.547  26.499  1.00  0.00     0.010 A 
ATOM     32  C   UNL A   1      41.009  23.214  27.768  1.00  0.00     0.010 A 
ATOM     33  C   UNL A   1      40.588  24.480  27.319  1.00  0.00    -0.014 A 
BRANCH  33  34
ATOM     34  C   UNL A   1      41.321  25.723  27.697  1.00  0.00     0.031 A 
ATOM     35  C   UNL A   1      40.639  26.797  28.509  1.00  0.00     0.074 A 
ATOM     36  C   UNL A   1      42.600  25.902  27.300  1.00  0.00     0.049 A 
ATOM     37  N   UNL A   1      41.037  28.016  28.770  1.00  0.00    -0.248 NA
ATOM     38  C   UNL A   1      39.325  26.465  29.086  1.00  0.00     0.031 C 
ATOM     39  C   UNL A   1      43.397  24.937  26.537  1.00  0.00     0.029 A 
ATOM     40  N   UNL A   1      43.454  26.964  27.473  1.00  0.00    -0.354 N 
ATOM     41  C   UNL A   1      39.995  28.619  29.468  1.00  0.00     0.074 A 
ATOM     42  C   UNL A   1      38.945  27.631  29.589  1.00  0.00     0.031 C 
ATOM     43  C   UNL A   1      44.624  25.433  26.335  1.00  0.00     0.029 A 
ATOM     44  C   UNL A   1      44.671  26.792  26.853  1.00  0.00     0.049 A 
ATOM     45  H   UNL A   1      43.218  27.769  27.989  1.00  0.00     0.167 HD
ATOM     46  C   UNL A   1      39.920  29.879  29.965  1.00  0.00     0.034 A 
ATOM     47  C   UNL A   1      45.694  27.647  26.664  1.00  0.00     0.034 A 
ATOM     48  C   UNL A   1      40.991  30.838  29.882  1.00  0.00     0.049 A 
ATOM     49  C   UNL A   1      45.575  29.046  27.193  1.00  0.00     0.074 A 
ATOM     50  C   UNL A   1      41.033  32.127  30.384  1.00  0.00     0.029 A 
ATOM     51  N   UNL A   1      42.210  30.612  29.260  1.00  0.00    -0.354 N 
ATOM     52  N   UNL A   1      44.596  29.588  27.873  1.00  0.00    -0.248 NA
ATOM     53  C   UNL A   1      46.705  29.947  26.935  1.00  0.00     0.031 C 
ATOM     54  C   UNL A   1      42.264  32.692  30.035  1.00  0.00     0.029 A 
ATOM     55  C   UNL A   1      43.008  31.741  29.356  1.00  0.00     0.049 A 
ATOM     56  H   UNL A   1      42.470  29.774  28.816  1.00  0.00     0.167 HD
ATOM     57  C   UNL A   1      45.006  30.883  28.161  1.00  0.00     0.074 A 
ATOM     58  C   UNL A   1      46.331  31.036  27.592  1.00  0.00     0.031 C 
ATOM     59  C   UNL A   1      44.344  31.860  28.827  1.00  0.00     0.034 A 
BRANCH  46  60
ATOM     60  C   UNL A   1      38.635  30.292  30.643  1.00  0.00     0.023 A 
ATOM     61  C   UNL A   1      38.351  29.849  31.951  1.00  0.00     0.012 A 
ATOM     62  C   UNL A   1      37.720  31.145  29.993  1.00  0.00     0.148 A 
ATOM     63  C   UNL A   1      37.156  30.205  32.580  1.00  0.00     0.002 A 
ATOM     64  C   UNL A   1      36.556  31.537  30.646  1.00  0.00     0.091 A 
ATOM     65  F   UNL A   1      37.995  31.546  28.744  1.00  0.00    -0.205 F 
ATOM     66  C   UNL A   1      36.264  31.054  31.931  1.00  0.00     0.022 A 
BRANCH  64  67
ATOM     67  S   UNL A   1      35.384  32.694  29.927  1.00  0.00     0.127 S 
ATOM     68  O   UNL A   1      34.414  32.844  31.010  1.00  0.00    -0.237 OA
ATOM     69  O   UNL A   1      36.220  33.872  29.691  1.00  0.00    -0.237 OA
ATOM     70  O   UNL A   1      34.880  32.057  28.719  1.00  0.00    -0.744 OA
ENDBRANCH  64  67
ENDBRANCH  46  60
BRANCH  47  71
ATOM     71  C   UNL A   1      46.923  27.192  25.950  1.00  0.00     0.023 A 
ATOM     72  C   UNL A   1      47.038  27.420  24.567  1.00  0.00     0.012 A 
ATOM     73  C   UNL A   1      47.989  26.578  26.637  1.00  0.00     0.148 A 
ATOM     74  C   UNL A   1      48.182  27.023  23.874  1.00  0.00     0.002 A 
ATOM     75  C   UNL A   1      49.149  26.239  25.953  1.00  0.00     0.091 A 
ATOM     76  F   UNL A   1      47.855  26.361  27.953  1.00  0.00    -0.205 F 
ATOM     77  C   UNL A   1      49.242  26.444  24.568  1.00  0.00     0.022 A 
BRANCH  75  78
ATOM     78  S   UNL A   1      50.615  25.614  26.784  1.00  0.00     0.127 S 
ATOM     79  O   UNL A   1      50.986  26.748  27.627  1.00  0.00    -0.237 OA
ATOM     80  O   UNL A   1      50.081  24.457  27.504  1.00  0.00    -0.237 OA
ATOM     81  O   UNL A   1      51.559  25.282  25.725  1.00  0.00    -0.744 OA
ENDBRANCH  75  78
ENDBRANCH  47  71
BRANCH  59  82
ATOM     82  C   UNL A   1      45.063  33.166  29.037  1.00  0.00     0.023 A 
ATOM     83  C   UNL A   1      45.942  33.327  30.126  1.00  0.00     0.012 A 
ATOM     84  C   UNL A   1      44.909  34.215  28.109  1.00  0.00     0.148 A 
ATOM     85  C   UNL A   1      46.630  34.525  30.308  1.00  0.00     0.002 A 
ATOM     86  C   UNL A   1      45.640  35.386  28.267  1.00  0.00     0.091 A 
ATOM     87  F   UNL A   1      44.051  34.049  27.092  1.00  0.00    -0.205 F 
ATOM     88  C   UNL A   1      46.491  35.548  29.372  1.00  0.00     0.022 A 
BRANCH  86  89
ATOM     89  S   UNL A   1      45.601  36.715  27.059  1.00  0.00     0.127 S 
ATOM     90  O   UNL A   1      46.184  36.067  25.885  1.00  0.00    -0.237 OA
ATOM     91  O   UNL A   1      44.169  36.993  26.955  1.00  0.00    -0.237 OA
ATOM     92  O   UNL A   1      46.389  37.800  27.627  1.00  0.00    -0.744 OA
ENDBRANCH  86  89
ENDBRANCH  59  82
ENDBRANCH  33  34
ENDBRANCH  26  28
ENDBRANCH  25  26
ENDBRANCH  24  25
ENDBRANCH   1  24
TORSDOF 18
ENDMDL
MODEL 2
REMARK VINA RESULT:     -11.9      2.120      2.455
REMARK SMILES O=C(CSc1ccc(Cl)cc1)Nc1ccc(C(=O)OCCOC(=O)c2ccc(-c3c4nc(c(-c5cccc(S(=O)(=O)[O-])c5F)c5ccc([nH]5)c(-c5cccc(S(=O)(=O)[O-])c5F)c5nc(c(-c6cccc(S(=O)(=O)[O-])c6F)c6ccc3[nH]6)C=C5)C=C4)cc2)cc1
REMARK SMILES IDX 20 1 19 2 17 3 18 4 16 5 13 6 14 7 89 8 15 9 88 10 12 11
REMARK SMILES IDX 1 12 2 13 3 15 4 16 5 17 6 18 11 19 7 20 10 21 8 22 9 23
REMARK SMILES IDX 21 24 22 25 23 26 24 27 25 28 26 29 87 30 27 31 86 32 28 33
REMARK SMILES IDX 29 34 30 35 80 36 31 37 85 38 79 39 81 40 32 41 84 42 78 43
REMARK SMILES IDX 77 44 33 46 65 47 45 48 64 49 46 50 49 51 63 52 82 53 47 54
REMARK SMILES IDX 48 55 62 57 83 58 50 59 34 60 35 61 43 62 36 63 38 64 44 65
REMARK SMILES IDX 37 66 39 67 40 68 41 69 42 70 66 71 67 72 75 73 68 74 70 75
REMARK SMILES IDX 76 76 69 77 71 78 72 79 73 80 74 81 51 82 52 83 60 84 53 85
REMARK SMILES IDX 55 86 61 87 54 88 56 89 57 90 58 91 59 92
REMARK H PARENT 12 14 81 45 49 56
REMARK Flexibility Score: inf
ROOT
ATOM      1  C   UNL A   1      35.057  20.927  25.118  1.00  0.00     0.275 C 
ENDROOT
BRANCH   1   2
ATOM      2  O   UNL A   1      34.225  20.027  24.354  1.00  0.00    -0.458 OA
BRANCH   2   3
ATOM      3  C   UNL A   1      32.977  19.837  24.852  1.00  0.00     0.338 C 
ATOM      4  O   UNL A   1      32.572  18.841  25.423  1.00  0.00    -0.246 OA
BRANCH   3   5
ATOM      5  C   UNL A   1      32.123  21.031  24.659  1.00  0.00     0.060 A 
ATOM      6  C   UNL A   1      30.877  23.519  24.296  1.00  0.00     0.041 A 
ATOM      7  C   UNL A   1      31.459  22.867  23.213  1.00  0.00     0.027 A 
ATOM      8  C   UNL A   1      30.848  22.883  25.543  1.00  0.00     0.027 A 
ATOM      9  C   UNL A   1      32.109  21.652  23.407  1.00  0.00     0.018 A 
ATOM     10  C   UNL A   1      31.456  21.631  25.725  1.00  0.00     0.018 A 
BRANCH   6  11
ATOM     11  N   UNL A   1      30.397  24.815  24.054  1.00  0.00    -0.325 N 
ATOM     12  O   UNL A   1      32.000  26.115  25.123  1.00  0.00    -0.274 OA
ATOM     13  C   UNL A   1      30.969  26.002  24.462  1.00  0.00     0.234 C 
ATOM     14  H   UNL A   1      29.560  24.884  23.538  1.00  0.00     0.169 HD
BRANCH  13  15
ATOM     15  C   UNL A   1      30.160  27.232  24.083  1.00  0.00     0.175 C 
BRANCH  15  16
ATOM     16  S   UNL A   1      31.021  28.808  24.423  1.00  0.00    -0.116 SA
BRANCH  16  17
ATOM     17  C   UNL A   1      30.101  29.998  23.457  1.00  0.00     0.008 A 
ATOM     18  C   UNL A   1      29.939  29.737  22.089  1.00  0.00     0.016 A 
ATOM     19  C   UNL A   1      29.481  31.125  24.006  1.00  0.00     0.016 A 
ATOM     20  C   UNL A   1      29.189  30.596  21.279  1.00  0.00     0.021 A 
ATOM     21  C   UNL A   1      28.730  31.987  23.197  1.00  0.00     0.021 A 
ATOM     22  C   UNL A   1      28.587  31.719  21.838  1.00  0.00     0.041 A 
ATOM     23  Cl  UNL A   1      27.647  32.771  20.854  1.00  0.00    -0.084 Cl
ENDBRANCH  16  17
ENDBRANCH  15  16
ENDBRANCH  13  15
ENDBRANCH   6  11
ENDBRANCH   3   5
ENDBRANCH   2   3
ENDBRANCH   1   2
BRANCH   1  24
ATOM     24  C   UNL A   1      36.546  20.615  24.951  1.00  0.00     0.275 C 
BRANCH  24  25
ATOM     25  O   UNL A   1      37.363  21.743  25.314  1.00  0.00    -0.458 OA
BRANCH  25  26
ATOM     26  C   UNL A   1      38.573  21.422  25.820  1.00  0.00     0.338 C 
ATOM     27  O   UNL A   1      39.197  20.388  25.645  1.00  0.00    -0.246 OA
BRANCH  26  28
ATOM     28  C   UNL A   1      39.133  22.547  26.579  1.00  0.00     0.060 A 
ATOM     29  C   UNL A   1      38.629  23.814  26.321  1.00  0.00     0.016 A 
ATOM     30  C   UNL A   1      40.285  22.396  27.343  1.00  0.00     0.016 A 
ATOM     31  C   UNL A   1      39.370  24.941  26.652  1.00  0.00     0.010 A 
ATOM     32  C   UNL A   1      40.937  23.538  27.825  1.00  0.00     0.010 A 
ATOM     33  C   UNL A   1      40.525  24.826  27.435  1.00  0.00    -0.014 A 
BRANCH  33  34
ATOM     34  C   UNL A   1      41.290  26.043  27.837  1.00  0.00     0.031 A 
ATOM     35  C   UNL A   1      40.637  27.116  28.673  1.00  0.00     0.074 A 
ATOM     36  C   UNL A   1      42.571  26.199  27.438  1.00  0.00     0.049 A 
ATOM     37  N   UNL A   1      41.066  28.319  28.959  1.00  0.00    -0.248 NA
ATOM     38  C   UNL A   1      39.318  26.804  29.249  1.00  0.00     0.031 C 
ATOM     39  C   UNL A   1      43.341  25.231  26.651  1.00  0.00     0.029 A 
ATOM     40  N   UNL A   1      43.452  27.235  27.630  1.00  0.00    -0.354 N 
ATOM     41  C   UNL A   1      40.042  28.932  29.673  1.00  0.00     0.074 A 
ATOM     42  C   UNL A   1      38.968  27.967  29.778  1.00  0.00     0.031 C 
ATOM     43  C   UNL A   1      44.580  25.701  26.455  1.00  0.00     0.029 A 
ATOM     44  C   UNL A   1      44.662  27.047  27.001  1.00  0.00     0.049 A 
ATOM     45  H   UNL A   1      43.238  28.035  28.163  1.00  0.00     0.167 HD
ATOM     46  C   UNL A   1      40.000  30.183  30.197  1.00  0.00     0.034 A 
ATOM     47  C   UNL A   1      45.705  27.880  26.826  1.00  0.00     0.034 A 
ATOM     48  C   UNL A   1      41.093  31.116  30.130  1.00  0.00     0.049 A 
ATOM     49  C   UNL A   1      45.622  29.270  27.384  1.00  0.00     0.074 A 
ATOM     50  C   UNL A   1      41.169  32.393  30.658  1.00  0.00     0.029 A 
ATOM     51  N   UNL A   1      42.304  30.875  29.498  1.00  0.00    -0.354 N 
ATOM     52  N   UNL A   1      44.659  29.822  28.080  1.00  0.00    -0.248 NA
ATOM     53  C   UNL A   1      46.773  30.149  27.141  1.00  0.00     0.031 C 
ATOM     54  C   UNL A   1      42.412  32.936  30.316  1.00  0.00     0.029 A 
ATOM     55  C   UNL A   1      43.130  31.981  29.614  1.00  0.00     0.049 A 
ATOM     56  H   UNL A   1      42.542  30.040  29.036  1.00  0.00     0.167 HD
ATOM     57  C   UNL A   1      45.102  31.100  28.393  1.00  0.00     0.074 A 
ATOM     58  C   UNL A   1      46.428  31.233  27.823  1.00  0.00     0.031 C 
ATOM     59  C   UNL A   1      44.466  32.078  29.083  1.00  0.00     0.034 A 
BRANCH  46  60
ATOM     60  C   UNL A   1      38.727  30.612  30.889  1.00  0.00     0.023 A 
ATOM     61  C   UNL A   1      38.566  30.396  32.273  1.00  0.00     0.012 A 
ATOM     62  C   UNL A   1      37.701  31.260  30.171  1.00  0.00     0.148 A 
ATOM     63  C   UNL A   1      37.386  30.768  32.919  1.00  0.00     0.002 A 
ATOM     64  C   UNL A   1      36.550  31.674  30.833  1.00  0.00     0.091 A 
ATOM     65  F   UNL A   1      37.861  31.446  28.853  1.00  0.00    -0.205 F 
ATOM     66  C   UNL A   1      36.383  31.413  32.202  1.00  0.00     0.022 A 
BRANCH  64  67
ATOM     67  S   UNL A   1      35.236  32.587  30.014  1.00  0.00     0.127 S 
ATOM     68  O   UNL A   1      34.306  32.820  31.117  1.00  0.00    -0.237 OA
ATOM     69  O   UNL A   1      35.938  33.783  29.546  1.00  0.00    -0.237 OA
ATOM     70  O   UNL A   1      34.744  31.719  28.953  1.00  0.00    -0.744 OA
ENDBRANCH  64  67
ENDBRANCH  46  60
BRANCH  47  71
ATOM     71  C   UNL A   1      46.919  27.410  26.097  1.00  0.00     0.023 A 
ATOM     72  C   UNL A   1      47.810  26.531  26.740  1.00  0.00     0.012 A 
ATOM     73  C   UNL A   1      47.172  27.793  24.765  1.00  0.00     0.148 A 
ATOM     74  C   UNL A   1      48.944  26.060  26.079  1.00  0.00     0.002 A 
ATOM     75  C   UNL A   1      48.270  27.273  24.092  1.00  0.00     0.091 A 
ATOM     76  F   UNL A   1      46.316  28.638  24.173  1.00  0.00    -0.205 F 
ATOM     77  C   UNL A   1      49.168  26.420  24.751  1.00  0.00     0.022 A 
BRANCH  75  78
ATOM     78  S   UNL A   1      48.566  27.573  22.345  1.00  0.00     0.127 S 
ATOM     79  O   UNL A   1      48.680  26.212  21.824  1.00  0.00    -0.237 OA
ATOM     80  O   UNL A   1      47.348  28.283  21.953  1.00  0.00    -0.237 OA
ATOM     81  O   UNL A   1      49.779  28.375  22.280  1.00  0.00    -0.744 OA
ENDBRANCH  75  78
ENDBRANCH  47  71
BRANCH  59  82
ATOM     82  C   UNL A   1      45.218  33.362  29.317  1.00  0.00     0.023 A 
ATOM     83  C   UNL A   1      46.029  33.513  30.459  1.00  0.00     0.012 A 
ATOM     84  C   UNL A   1      45.166  34.397  28.363  1.00  0.00     0.148 A 
ATOM     85  C   UNL A   1      46.747  34.689  30.665  1.00  0.00     0.002 A 
ATOM     86  C   UNL A   1      45.928  35.543  28.548  1.00  0.00     0.091 A 
ATOM     87  F   UNL A   1      44.371  34.242  27.294  1.00  0.00    -0.205 F 
ATOM     88  C   UNL A   1      46.708  35.698  29.705  1.00  0.00     0.022 A 
BRANCH  86  89
ATOM     89  S   UNL A   1      46.018  36.848  27.317  1.00  0.00     0.127 S 
ATOM     90  O   UNL A   1      44.620  37.270  27.228  1.00  0.00    -0.237 OA
ATOM     91  O   UNL A   1      46.907  37.816  27.959  1.00  0.00    -0.237 OA
ATOM     92  O   UNL A   1      46.559  36.232  26.115  1.00  0.00    -0.744 OA
ENDBRANCH  86  89
ENDBRANCH  59  82
ENDBRANCH  33  34
ENDBRANCH  26  28
ENDBRANCH  25  26
ENDBRANCH  24  25
ENDBRANCH   1  24
TORSDOF 18
ENDMDL
MODEL 3
REMARK VINA RESULT:     -11.7      5.154     10.464
REMARK SMILES O=C(CSc1ccc(Cl)cc1)Nc1ccc(C(=O)OCCOC(=O)c2ccc(-c3c4nc(c(-c5cccc(S(=O)(=O)[O-])c5F)c5ccc([nH]5)c(-c5cccc(S(=O)(=O)[O-])c5F)c5nc(c(-c6cccc(S(=O)(=O)[O-])c6F)c6ccc3[nH]6)C=C5)C=C4)cc2)cc1
REMARK SMILES IDX 20 1 19 2 17 3 18 4 16 5 13 6 14 7 89 8 15 9 88 10 12 11
REMARK SMILES IDX 1 12 2 13 3 15 4 16 5 17 6 18 11 19 7 20 10 21 8 22 9 23
REMARK SMILES IDX 21 24 22 25 23 26 24 27 25 28 26 29 87 30 27 31 86 32 28 33
REMARK SMILES IDX 29 34 30 35 80 36 31 37 85 38 79 39 81 40 32 41 84 42 78 43
REMARK SMILES IDX 77 44 33 46 65 47 45 48 64 49 46 50 49 51 63 52 82 53 47 54
REMARK SMILES IDX 48 55 62 57 83 58 50 59 34 60 35 61 43 62 36 63 38 64 44 65
REMARK SMILES IDX 37 66 39 67 40 68 41 69 42 70 66 71 67 72 75 73 68 74 70 75
REMARK SMILES IDX 76 76 69 77 71 78 72 79 73 80 74 81 51 82 52 83 60 84 53 85
REMARK SMILES IDX 55 86 61 87 54 88 56 89 57 90 58 91 59 92
REMARK H PARENT 12 14 81 45 49 56
REMARK Flexibility Score: inf
ROOT
ATOM      1  C   UNL A   1      32.081  29.331  25.011  1.00  0.00     0.275 C 
ENDROOT
BRANCH   1   2
ATOM      2  O   UNL A   1      31.682  29.524  23.637  1.00  0.00    -0.458 OA
BRANCH   2   3
ATOM      3  C   UNL A   1      30.493  28.963  23.301  1.00  0.00     0.338 C 
ATOM      4  O   UNL A   1      29.434  29.547  23.157  1.00  0.00    -0.246 OA
BRANCH   3   5
ATOM      5  C   UNL A   1      30.619  27.505  23.078  1.00  0.00     0.060 A 
ATOM      6  C   UNL A   1      31.128  24.746  22.997  1.00  0.00     0.041 A 
ATOM      7  C   UNL A   1      30.215  25.259  23.912  1.00  0.00     0.027 A 
ATOM      8  C   UNL A   1      31.722  25.608  22.066  1.00  0.00     0.027 A 
ATOM      9  C   UNL A   1      29.996  26.631  23.974  1.00  0.00     0.018 A 
ATOM     10  C   UNL A   1      31.458  26.986  22.093  1.00  0.00     0.018 A 
BRANCH   6  11
ATOM     11  N   UNL A   1      31.422  23.379  23.114  1.00  0.00    -0.325 N 
ATOM     12  O   UNL A   1      33.682  23.432  23.656  1.00  0.00    -0.274 OA
ATOM     13  C   UNL A   1      32.642  22.817  23.432  1.00  0.00     0.234 C 
ATOM     14  H   UNL A   1      30.680  22.754  22.949  1.00  0.00     0.169 HD
BRANCH  13  15
ATOM     15  C   UNL A   1      32.635  21.297  23.419  1.00  0.00     0.175 C 
BRANCH  15  16
ATOM     16  S   UNL A   1      32.132  20.552  25.010  1.00  0.00    -0.116 SA
BRANCH  16  17
ATOM     17  C   UNL A   1      32.960  18.968  25.005  1.00  0.00     0.008 A 
ATOM     18  C   UNL A   1      34.146  18.858  24.265  1.00  0.00     0.016 A 
ATOM     19  C   UNL A   1      32.528  17.868  25.751  1.00  0.00     0.016 A 
ATOM     20  C   UNL A   1      34.876  17.664  24.254  1.00  0.00     0.021 A 
ATOM     21  C   UNL A   1      33.256  16.672  25.743  1.00  0.00     0.021 A 
ATOM     22  C   UNL A   1      34.427  16.575  24.994  1.00  0.00     0.041 A 
ATOM     23  Cl  UNL A   1      35.328  15.110  25.002  1.00  0.00    -0.084 Cl
ENDBRANCH  16  17
ENDBRANCH  15  16
ENDBRANCH  13  15
ENDBRANCH   6  11
ENDBRANCH   3   5
ENDBRANCH   2   3
ENDBRANCH   1   2
BRANCH   1  24
ATOM     24  C   UNL A   1      31.596  30.466  25.916  1.00  0.00     0.275 C 
BRANCH  24  25
ATOM     25  O   UNL A   1      32.362  30.532  27.132  1.00  0.00    -0.458 OA
BRANCH  25  26
ATOM     26  C   UNL A   1      33.091  31.660  27.278  1.00  0.00     0.338 C 
ATOM     27  O   UNL A   1      32.693  32.812  27.202  1.00  0.00    -0.246 OA
BRANCH  26  28
ATOM     28  C   UNL A   1      34.476  31.341  27.642  1.00  0.00     0.060 A 
ATOM     29  C   UNL A   1      34.779  30.016  27.925  1.00  0.00     0.016 A 
ATOM     30  C   UNL A   1      35.392  32.345  27.936  1.00  0.00     0.016 A 
ATOM     31  C   UNL A   1      35.905  29.702  28.675  1.00  0.00     0.010 A 
ATOM     32  C   UNL A   1      36.609  32.001  28.539  1.00  0.00     0.010 A 
ATOM     33  C   UNL A   1      36.856  30.685  28.973  1.00  0.00    -0.014 A 
BRANCH  33  34
ATOM     34  C   UNL A   1      38.093  30.335  29.732  1.00  0.00     0.031 A 
ATOM     35  C   UNL A   1      39.126  29.416  29.129  1.00  0.00     0.074 A 
ATOM     36  C   UNL A   1      38.286  30.828  30.974  1.00  0.00     0.049 A 
ATOM     37  N   UNL A   1      40.159  28.847  29.696  1.00  0.00    -0.248 NA
ATOM     38  C   UNL A   1      38.967  29.075  27.705  1.00  0.00     0.031 C 
ATOM     39  C   UNL A   1      37.387  31.752  31.673  1.00  0.00     0.029 A 
ATOM     40  N   UNL A   1      39.298  30.614  31.879  1.00  0.00    -0.354 N 
ATOM     41  C   UNL A   1      40.722  28.022  28.727  1.00  0.00     0.074 A 
ATOM     42  C   UNL A   1      39.916  28.165  27.534  1.00  0.00     0.031 C 
ATOM     43  C   UNL A   1      37.898  32.047  32.875  1.00  0.00     0.029 A 
ATOM     44  C   UNL A   1      39.099  31.253  33.082  1.00  0.00     0.049 A 
ATOM     45  H   UNL A   1      40.086  30.058  31.685  1.00  0.00     0.167 HD
ATOM     46  C   UNL A   1      41.814  27.221  28.820  1.00  0.00     0.034 A 
ATOM     47  C   UNL A   1      39.769  31.170  34.247  1.00  0.00     0.034 A 
ATOM     48  C   UNL A   1      42.638  27.125  29.997  1.00  0.00     0.049 A 
ATOM     49  C   UNL A   1      40.951  30.251  34.337  1.00  0.00     0.074 A 
ATOM     50  C   UNL A   1      43.785  26.374  30.185  1.00  0.00     0.029 A 
ATOM     51  N   UNL A   1      42.407  27.803  31.184  1.00  0.00    -0.354 N 
ATOM     52  N   UNL A   1      41.485  29.502  33.404  1.00  0.00    -0.248 NA
ATOM     53  C   UNL A   1      41.629  30.174  35.637  1.00  0.00     0.031 C 
ATOM     54  C   UNL A   1      44.227  26.571  31.498  1.00  0.00     0.029 A 
ATOM     55  C   UNL A   1      43.383  27.481  32.113  1.00  0.00     0.049 A 
ATOM     56  H   UNL A   1      41.660  28.423  31.343  1.00  0.00     0.167 HD
ATOM     57  C   UNL A   1      42.586  28.892  33.992  1.00  0.00     0.074 A 
ATOM     58  C   UNL A   1      42.650  29.374  35.357  1.00  0.00     0.031 C 
ATOM     59  C   UNL A   1      43.460  28.008  33.452  1.00  0.00     0.034 A 
BRANCH  46  60
ATOM     60  C   UNL A   1      42.177  26.385  27.616  1.00  0.00     0.023 A 
ATOM     61  C   UNL A   1      42.909  26.953  26.554  1.00  0.00     0.012 A 
ATOM     62  C   UNL A   1      41.817  25.023  27.550  1.00  0.00     0.148 A 
ATOM     63  C   UNL A   1      43.231  26.197  25.426  1.00  0.00     0.002 A 
ATOM     64  C   UNL A   1      42.186  24.263  26.446  1.00  0.00     0.091 A 
ATOM     65  F   UNL A   1      41.107  24.499  28.560  1.00  0.00    -0.205 F 
ATOM     66  C   UNL A   1      42.877  24.852  25.375  1.00  0.00     0.022 A 
BRANCH  64  67
ATOM     67  S   UNL A   1      41.849  22.502  26.325  1.00  0.00     0.127 S 
ATOM     68  O   UNL A   1      42.504  22.161  25.063  1.00  0.00    -0.237 OA
ATOM     69  O   UNL A   1      42.516  21.978  27.517  1.00  0.00    -0.237 OA
ATOM     70  O   UNL A   1      40.399  22.368  26.333  1.00  0.00    -0.744 OA
ENDBRANCH  64  67
ENDBRANCH  46  60
BRANCH  47  71
ATOM     71  C   UNL A   1      39.337  31.991  35.415  1.00  0.00     0.023 A 
ATOM     72  C   UNL A   1      38.428  31.445  36.341  1.00  0.00     0.012 A 
ATOM     73  C   UNL A   1      39.850  33.284  35.636  1.00  0.00     0.148 A 
ATOM     74  C   UNL A   1      38.019  32.182  37.453  1.00  0.00     0.002 A 
ATOM     75  C   UNL A   1      39.485  33.989  36.777  1.00  0.00     0.091 A 
ATOM     76  F   UNL A   1      40.707  33.790  34.737  1.00  0.00    -0.205 F 
ATOM     77  C   UNL A   1      38.557  33.447  37.678  1.00  0.00     0.022 A 
BRANCH  75  78
ATOM     78  S   UNL A   1      40.226  35.565  37.219  1.00  0.00     0.127 S 
ATOM     79  O   UNL A   1      39.650  36.456  36.214  1.00  0.00    -0.237 OA
ATOM     80  O   UNL A   1      39.723  35.761  38.579  1.00  0.00    -0.237 OA
ATOM     81  O   UNL A   1      41.665  35.365  37.131  1.00  0.00    -0.744 OA
ENDBRANCH  75  78
ENDBRANCH  47  71
BRANCH  59  82
ATOM     82  C   UNL A   1      44.602  27.547  34.319  1.00  0.00     0.023 A 
ATOM     83  C   UNL A   1      45.803  28.284  34.364  1.00  0.00     0.012 A 
ATOM     84  C   UNL A   1      44.456  26.411  35.138  1.00  0.00     0.148 A 
ATOM     85  C   UNL A   1      46.852  27.875  35.185  1.00  0.00     0.002 A 
ATOM     86  C   UNL A   1      45.485  26.042  35.995  1.00  0.00     0.091 A 
ATOM     87  F   UNL A   1      43.313  25.712  35.064  1.00  0.00    -0.205 F 
ATOM     88  C   UNL A   1      46.689  26.764  36.010  1.00  0.00     0.022 A 
BRANCH  86  89
ATOM     89  S   UNL A   1      45.326  24.688  37.164  1.00  0.00     0.127 S 
ATOM     90  O   UNL A   1      46.590  24.775  37.894  1.00  0.00    -0.237 OA
ATOM     91  O   UNL A   1      44.147  25.084  37.935  1.00  0.00    -0.237 OA
ATOM     92  O   UNL A   1      45.150  23.483  36.365  1.00  0.00    -0.744 OA
ENDBRANCH  86  89
ENDBRANCH  59  82
ENDBRANCH  33  34
ENDBRANCH  26  28
ENDBRANCH  25  26
ENDBRANCH  24  25
ENDBRANCH   1  24
TORSDOF 18
ENDMDL
