MODEL 1
REMARK VINA RESULT:     -13.0      0.000      0.000
REMARK SMILES COc1ccc2c(c1)C(=O)N(c1ccccc1C(=O)OCCOC(=O)c1ccc(-c3c4nc(c(-c5cccc(S(=O)(=O)[O-])c5F)c5ccc([nH]5)c(-c5cccc(S(=O)(=O)[O-])c5F)c5nc(c(-c6cccc(S(=O)(=O)[O-])c6F)c6ccc3[nH]6)C=C5)C=C4)cc1)C2=O
REMARK SMILES IDX 22 1 21 2 20 3 18 4 19 5 17 6 12 7 13 8 14 9 16 10 15 11
REMARK SMILES IDX 11 12 3 13 4 14 8 15 5 16 7 17 6 18 9 19 89 20 10 21 90 22
REMARK SMILES IDX 2 23 1 24 23 25 24 26 25 27 26 28 27 29 88 30 28 31 87 32
REMARK SMILES IDX 29 33 30 34 31 35 81 36 32 37 86 38 80 39 82 40 33 41 85 42
REMARK SMILES IDX 79 43 78 44 34 46 66 47 46 48 65 49 47 50 50 51 64 52 83 53
REMARK SMILES IDX 48 54 49 55 63 57 84 58 51 59 35 60 36 61 44 62 37 63 39 64
REMARK SMILES IDX 45 65 38 66 40 67 41 68 42 69 43 70 67 71 68 72 76 73 69 74
REMARK SMILES IDX 71 75 77 76 70 77 72 78 73 79 74 80 75 81 52 82 53 83 61 84
REMARK SMILES IDX 54 85 56 86 62 87 55 88 57 89 58 90 59 91 60 92
REMARK H PARENT 82 45 50 56
REMARK Flexibility Score: inf
ROOT
ATOM      1  C   UNL A   1      37.034  21.329  24.382  1.00  0.00     0.275 C 
ENDROOT
BRANCH   1   2
ATOM      2  C   UNL A   1      36.800  22.551  23.495  1.00  0.00     0.275 C 
BRANCH   2   3
ATOM      3  O   UNL A   1      36.092  23.593  24.201  1.00  0.00    -0.458 OA
BRANCH   3   4
ATOM      4  C   UNL A   1      34.914  24.011  23.664  1.00  0.00     0.340 C 
ATOM      5  O   UNL A   1      34.636  24.024  22.476  1.00  0.00    -0.246 OA
BRANCH   4   6
ATOM      6  C   UNL A   1      33.927  24.360  24.728  1.00  0.00     0.084 A 
ATOM      7  C   UNL A   1      32.920  23.491  25.189  1.00  0.00     0.067 A 
ATOM      8  C   UNL A   1      31.968  23.980  26.104  1.00  0.00     0.028 A 
ATOM      9  C   UNL A   1      32.021  25.294  26.569  1.00  0.00     0.002 A 
ATOM     10  C   UNL A   1      33.981  25.674  25.227  1.00  0.00     0.018 A 
ATOM     11  C   UNL A   1      33.024  26.145  26.125  1.00  0.00     0.001 A 
BRANCH   7  12
ATOM     12  N   UNL A   1      32.834  22.143  24.781  1.00  0.00    -0.241 N 
ATOM     13  C   UNL A   1      33.319  17.693  23.824  1.00  0.00     0.119 A 
ATOM     14  C   UNL A   1      32.595  18.085  22.679  1.00  0.00     0.047 A 
ATOM     15  C   UNL A   1      33.675  18.626  24.799  1.00  0.00     0.061 A 
ATOM     16  C   UNL A   1      32.151  19.402  22.521  1.00  0.00     0.018 A 
ATOM     17  C   UNL A   1      33.226  19.918  24.614  1.00  0.00     0.057 A 
ATOM     18  C   UNL A   1      32.472  20.294  23.522  1.00  0.00     0.053 A 
ATOM     19  C   UNL A   1      33.431  21.095  25.442  1.00  0.00     0.266 C 
ATOM     20  C   UNL A   1      32.164  21.714  23.661  1.00  0.00     0.266 C 
ATOM     21  O   UNL A   1      33.990  21.045  26.521  1.00  0.00    -0.268 OA
ATOM     22  O   UNL A   1      31.451  22.309  22.873  1.00  0.00    -0.268 OA
BRANCH  13  23
ATOM     23  O   UNL A   1      33.666  16.370  23.893  1.00  0.00    -0.497 OA
ATOM     24  C   UNL A   1      33.746  15.880  25.232  1.00  0.00     0.278 C 
ENDBRANCH  13  23
ENDBRANCH   7  12
ENDBRANCH   4   6
ENDBRANCH   3   4
ENDBRANCH   2   3
ENDBRANCH   1   2
BRANCH   1  25
ATOM     25  O   UNL A   1      37.437  21.737  25.697  1.00  0.00    -0.458 OA
BRANCH  25  26
ATOM     26  C   UNL A   1      38.725  21.455  25.995  1.00  0.00     0.338 C 
ATOM     27  O   UNL A   1      39.362  20.464  25.683  1.00  0.00    -0.246 OA
BRANCH  26  28
ATOM     28  C   UNL A   1      39.332  22.606  26.666  1.00  0.00     0.060 A 
ATOM     29  C   UNL A   1      38.876  23.870  26.306  1.00  0.00     0.016 A 
ATOM     30  C   UNL A   1      40.433  22.463  27.501  1.00  0.00     0.016 A 
ATOM     31  C   UNL A   1      39.582  25.004  26.677  1.00  0.00     0.010 A 
ATOM     32  C   UNL A   1      41.082  23.611  27.965  1.00  0.00     0.010 A 
ATOM     33  C   UNL A   1      40.691  24.892  27.522  1.00  0.00    -0.014 A 
BRANCH  33  34
ATOM     34  C   UNL A   1      41.461  26.101  27.920  1.00  0.00     0.031 A 
ATOM     35  C   UNL A   1      40.790  27.182  28.725  1.00  0.00     0.074 A 
ATOM     36  C   UNL A   1      42.747  26.244  27.537  1.00  0.00     0.049 A 
ATOM     37  N   UNL A   1      41.196  28.398  28.979  1.00  0.00    -0.248 NA
ATOM     38  C   UNL A   1      39.474  26.859  29.305  1.00  0.00     0.031 C 
ATOM     39  C   UNL A   1      43.525  25.257  26.785  1.00  0.00     0.029 A 
ATOM     40  N   UNL A   1      43.620  27.290  27.707  1.00  0.00    -0.354 N 
ATOM     41  C   UNL A   1      40.157  29.010  29.670  1.00  0.00     0.074 A 
ATOM     42  C   UNL A   1      39.103  28.028  29.808  1.00  0.00     0.031 C 
ATOM     43  C   UNL A   1      44.754  25.739  26.559  1.00  0.00     0.029 A 
ATOM     44  C   UNL A   1      44.823  27.104  27.063  1.00  0.00     0.049 A 
ATOM     45  H   UNL A   1      43.408  28.092  28.236  1.00  0.00     0.167 HD
ATOM     46  C   UNL A   1      40.091  30.276  30.148  1.00  0.00     0.034 A 
ATOM     47  C   UNL A   1      45.842  27.956  26.843  1.00  0.00     0.034 A 
ATOM     48  C   UNL A   1      41.173  31.221  30.056  1.00  0.00     0.049 A 
ATOM     49  C   UNL A   1      45.738  29.359  27.368  1.00  0.00     0.074 A 
ATOM     50  C   UNL A   1      41.229  32.514  30.546  1.00  0.00     0.029 A 
ATOM     51  N   UNL A   1      42.389  30.974  29.436  1.00  0.00    -0.354 N 
ATOM     52  N   UNL A   1      44.765  29.913  28.051  1.00  0.00    -0.248 NA
ATOM     53  C   UNL A   1      46.874  30.253  27.105  1.00  0.00     0.031 C 
ATOM     54  C   UNL A   1      42.467  33.059  30.194  1.00  0.00     0.029 A 
ATOM     55  C   UNL A   1      43.200  32.091  29.525  1.00  0.00     0.049 A 
ATOM     56  H   UNL A   1      42.638  30.128  28.999  1.00  0.00     0.167 HD
ATOM     57  C   UNL A   1      45.189  31.205  28.335  1.00  0.00     0.074 A 
ATOM     58  C   UNL A   1      46.511  31.346  27.761  1.00  0.00     0.031 C 
ATOM     59  C   UNL A   1      44.537  32.191  28.998  1.00  0.00     0.034 A 
BRANCH  46  60
ATOM     60  C   UNL A   1      38.815  30.718  30.815  1.00  0.00     0.023 A 
ATOM     61  C   UNL A   1      38.672  30.614  32.213  1.00  0.00     0.012 A 
ATOM     62  C   UNL A   1      37.776  31.299  30.058  1.00  0.00     0.148 A 
ATOM     63  C   UNL A   1      37.504  31.047  32.843  1.00  0.00     0.002 A 
ATOM     64  C   UNL A   1      36.636  31.773  30.698  1.00  0.00     0.091 A 
ATOM     65  F   UNL A   1      37.921  31.375  28.727  1.00  0.00    -0.205 F 
ATOM     66  C   UNL A   1      36.493  31.635  32.088  1.00  0.00     0.022 A 
BRANCH  64  67
ATOM     67  S   UNL A   1      35.315  32.623  29.826  1.00  0.00     0.127 S 
ATOM     68  O   UNL A   1      36.032  33.745  29.223  1.00  0.00    -0.237 OA
ATOM     69  O   UNL A   1      34.868  31.603  28.877  1.00  0.00    -0.237 OA
ATOM     70  O   UNL A   1      34.332  32.986  30.837  1.00  0.00    -0.744 OA
ENDBRANCH  64  67
ENDBRANCH  46  60
BRANCH  47  71
ATOM     71  C   UNL A   1      47.042  27.505  26.081  1.00  0.00     0.023 A 
ATOM     72  C   UNL A   1      48.025  26.733  26.728  1.00  0.00     0.012 A 
ATOM     73  C   UNL A   1      47.202  27.815  24.715  1.00  0.00     0.148 A 
ATOM     74  C   UNL A   1      49.161  26.305  26.039  1.00  0.00     0.002 A 
ATOM     75  C   UNL A   1      48.305  27.333  24.019  1.00  0.00     0.091 A 
ATOM     76  F   UNL A   1      46.264  28.563  24.118  1.00  0.00    -0.205 F 
ATOM     77  C   UNL A   1      49.295  26.595  24.685  1.00  0.00     0.022 A 
BRANCH  75  78
ATOM     78  S   UNL A   1      48.492  27.543  22.245  1.00  0.00     0.127 S 
ATOM     79  O   UNL A   1      48.701  26.166  21.803  1.00  0.00    -0.237 OA
ATOM     80  O   UNL A   1      47.200  28.121  21.872  1.00  0.00    -0.237 OA
ATOM     81  O   UNL A   1      49.623  28.443  22.071  1.00  0.00    -0.744 OA
ENDBRANCH  75  78
ENDBRANCH  47  71
BRANCH  59  82
ATOM     82  C   UNL A   1      45.267  33.491  29.204  1.00  0.00     0.023 A 
ATOM     83  C   UNL A   1      46.109  33.662  30.319  1.00  0.00     0.012 A 
ATOM     84  C   UNL A   1      45.172  34.514  28.240  1.00  0.00     0.148 A 
ATOM     85  C   UNL A   1      46.825  34.847  30.487  1.00  0.00     0.002 A 
ATOM     86  C   UNL A   1      45.929  35.668  28.386  1.00  0.00     0.091 A 
ATOM     87  F   UNL A   1      44.348  34.334  27.197  1.00  0.00    -0.205 F 
ATOM     88  C   UNL A   1      46.745  35.843  29.515  1.00  0.00     0.022 A 
BRANCH  86  89
ATOM     89  S   UNL A   1      45.969  36.958  27.137  1.00  0.00     0.127 S 
ATOM     90  O   UNL A   1      46.873  37.933  27.744  1.00  0.00    -0.237 OA
ATOM     91  O   UNL A   1      46.520  36.249  25.982  1.00  0.00    -0.237 OA
ATOM     92  O   UNL A   1      44.592  37.405  26.973  1.00  0.00    -0.744 OA
ENDBRANCH  86  89
ENDBRANCH  59  82
ENDBRANCH  33  34
ENDBRANCH  26  28
ENDBRANCH  25  26
ENDBRANCH   1  25
TORSDOF 16
ENDMDL
MODEL 2
REMARK VINA RESULT:     -13.0      5.656     10.514
REMARK SMILES COc1ccc2c(c1)C(=O)N(c1ccccc1C(=O)OCCOC(=O)c1ccc(-c3c4nc(c(-c5cccc(S(=O)(=O)[O-])c5F)c5ccc([nH]5)c(-c5cccc(S(=O)(=O)[O-])c5F)c5nc(c(-c6cccc(S(=O)(=O)[O-])c6F)c6ccc3[nH]6)C=C5)C=C4)cc1)C2=O
REMARK SMILES IDX 22 1 21 2 20 3 18 4 19 5 17 6 12 7 13 8 14 9 16 10 15 11
REMARK SMILES IDX 11 12 3 13 4 14 8 15 5 16 7 17 6 18 9 19 89 20 10 21 90 22
REMARK SMILES IDX 2 23 1 24 23 25 24 26 25 27 26 28 27 29 88 30 28 31 87 32
REMARK SMILES IDX 29 33 30 34 31 35 81 36 32 37 86 38 80 39 82 40 33 41 85 42
REMARK SMILES IDX 79 43 78 44 34 46 66 47 46 48 65 49 47 50 50 51 64 52 83 53
REMARK SMILES IDX 48 54 49 55 63 57 84 58 51 59 35 60 36 61 44 62 37 63 39 64
REMARK SMILES IDX 45 65 38 66 40 67 41 68 42 69 43 70 67 71 68 72 76 73 69 74
REMARK SMILES IDX 71 75 77 76 70 77 72 78 73 79 74 80 75 81 52 82 53 83 61 84
REMARK SMILES IDX 54 85 56 86 62 87 55 88 57 89 58 90 59 91 60 92
REMARK H PARENT 82 45 50 56
REMARK Flexibility Score: inf
ROOT
ATOM      1  C   UNL A   1      31.708  29.777  26.300  1.00  0.00     0.275 C 
ENDROOT
BRANCH   1   2
ATOM      2  C   UNL A   1      31.743  28.684  27.368  1.00  0.00     0.275 C 
BRANCH   2   3
ATOM      3  O   UNL A   1      32.593  27.584  26.974  1.00  0.00    -0.458 OA
BRANCH   3   4
ATOM      4  C   UNL A   1      31.979  26.488  26.451  1.00  0.00     0.340 C 
ATOM      5  O   UNL A   1      30.892  26.049  26.789  1.00  0.00    -0.246 OA
BRANCH   4   6
ATOM      6  C   UNL A   1      32.755  25.927  25.306  1.00  0.00     0.084 A 
ATOM      7  C   UNL A   1      32.425  26.127  23.952  1.00  0.00     0.067 A 
ATOM      8  C   UNL A   1      33.158  25.440  22.967  1.00  0.00     0.028 A 
ATOM      9  C   UNL A   1      34.209  24.588  23.309  1.00  0.00     0.002 A 
ATOM     10  C   UNL A   1      33.834  25.085  25.632  1.00  0.00     0.018 A 
ATOM     11  C   UNL A   1      34.543  24.404  24.644  1.00  0.00     0.001 A 
BRANCH   7  12
ATOM     12  N   UNL A   1      31.396  27.001  23.542  1.00  0.00    -0.241 N 
ATOM     13  C   UNL A   1      28.574  30.449  22.494  1.00  0.00     0.119 A 
ATOM     14  C   UNL A   1      27.611  29.472  22.824  1.00  0.00     0.047 A 
ATOM     15  C   UNL A   1      29.938  30.168  22.583  1.00  0.00     0.061 A 
ATOM     16  C   UNL A   1      27.993  28.175  23.182  1.00  0.00     0.018 A 
ATOM     17  C   UNL A   1      30.284  28.881  22.942  1.00  0.00     0.057 A 
ATOM     18  C   UNL A   1      29.345  27.907  23.213  1.00  0.00     0.053 A 
ATOM     19  C   UNL A   1      31.601  28.293  23.118  1.00  0.00     0.266 C 
ATOM     20  C   UNL A   1      30.061  26.677  23.538  1.00  0.00     0.266 C 
ATOM     21  O   UNL A   1      32.625  28.897  22.860  1.00  0.00    -0.268 OA
ATOM     22  O   UNL A   1      29.488  25.625  23.758  1.00  0.00    -0.268 OA
BRANCH  13  23
ATOM     23  O   UNL A   1      28.085  31.672  22.119  1.00  0.00    -0.497 OA
ATOM     24  C   UNL A   1      28.023  31.842  20.703  1.00  0.00     0.278 C 
ENDBRANCH  13  23
ENDBRANCH   7  12
ENDBRANCH   4   6
ENDBRANCH   3   4
ENDBRANCH   2   3
ENDBRANCH   1   2
BRANCH   1  25
ATOM     25  O   UNL A   1      33.015  30.340  26.119  1.00  0.00    -0.458 OA
BRANCH  25  26
ATOM     26  C   UNL A   1      33.335  31.301  27.014  1.00  0.00     0.338 C 
ATOM     27  O   UNL A   1      32.609  32.171  27.465  1.00  0.00    -0.246 OA
BRANCH  26  28
ATOM     28  C   UNL A   1      34.698  31.079  27.499  1.00  0.00     0.060 A 
ATOM     29  C   UNL A   1      35.077  29.767  27.763  1.00  0.00     0.016 A 
ATOM     30  C   UNL A   1      35.528  32.138  27.845  1.00  0.00     0.016 A 
ATOM     31  C   UNL A   1      36.233  29.501  28.481  1.00  0.00     0.010 A 
ATOM     32  C   UNL A   1      36.746  31.864  28.474  1.00  0.00     0.010 A 
ATOM     33  C   UNL A   1      37.091  30.546  28.839  1.00  0.00    -0.014 A 
BRANCH  33  34
ATOM     34  C   UNL A   1      38.329  30.273  29.617  1.00  0.00     0.031 A 
ATOM     35  C   UNL A   1      39.383  29.362  29.046  1.00  0.00     0.074 A 
ATOM     36  C   UNL A   1      38.496  30.815  30.841  1.00  0.00     0.049 A 
ATOM     37  N   UNL A   1      40.413  28.815  29.637  1.00  0.00    -0.248 NA
ATOM     38  C   UNL A   1      39.249  28.998  27.624  1.00  0.00     0.031 C 
ATOM     39  C   UNL A   1      37.568  31.741  31.494  1.00  0.00     0.029 A 
ATOM     40  N   UNL A   1      39.495  30.644  31.766  1.00  0.00    -0.354 N 
ATOM     41  C   UNL A   1      40.998  27.982  28.691  1.00  0.00     0.074 A 
ATOM     42  C   UNL A   1      40.215  28.101  27.480  1.00  0.00     0.031 C 
ATOM     43  C   UNL A   1      38.037  32.057  32.709  1.00  0.00     0.029 A 
ATOM     44  C   UNL A   1      39.247  31.285  32.959  1.00  0.00     0.049 A 
ATOM     45  H   UNL A   1      40.309  30.117  31.595  1.00  0.00     0.167 HD
ATOM     46  C   UNL A   1      42.089  27.190  28.822  1.00  0.00     0.034 A 
ATOM     47  C   UNL A   1      39.880  31.209  34.146  1.00  0.00     0.034 A 
ATOM     48  C   UNL A   1      42.892  27.129  30.015  1.00  0.00     0.049 A 
ATOM     49  C   UNL A   1      41.078  30.312  34.270  1.00  0.00     0.074 A 
ATOM     50  C   UNL A   1      44.044  26.396  30.239  1.00  0.00     0.029 A 
ATOM     51  N   UNL A   1      42.629  27.830  31.183  1.00  0.00    -0.354 N 
ATOM     52  N   UNL A   1      41.641  29.558  33.357  1.00  0.00    -0.248 NA
ATOM     53  C   UNL A   1      41.737  30.263  35.582  1.00  0.00     0.031 C 
ATOM     54  C   UNL A   1      44.459  26.630  31.554  1.00  0.00     0.029 A 
ATOM     55  C   UNL A   1      43.592  27.543  32.133  1.00  0.00     0.049 A 
ATOM     56  H   UNL A   1      41.870  28.442  31.315  1.00  0.00     0.167 HD
ATOM     57  C   UNL A   1      42.743  28.977  33.971  1.00  0.00     0.074 A 
ATOM     58  C   UNL A   1      42.776  29.478  35.330  1.00  0.00     0.031 C 
ATOM     59  C   UNL A   1      43.640  28.098  33.461  1.00  0.00     0.034 A 
BRANCH  46  60
ATOM     60  C   UNL A   1      42.487  26.328  27.652  1.00  0.00     0.023 A 
ATOM     61  C   UNL A   1      43.379  26.820  26.678  1.00  0.00     0.012 A 
ATOM     62  C   UNL A   1      42.021  25.000  27.551  1.00  0.00     0.148 A 
ATOM     63  C   UNL A   1      43.774  26.019  25.607  1.00  0.00     0.002 A 
ATOM     64  C   UNL A   1      42.458  24.192  26.508  1.00  0.00     0.091 A 
ATOM     65  F   UNL A   1      41.160  24.553  28.476  1.00  0.00    -0.205 F 
ATOM     66  C   UNL A   1      43.323  24.703  25.528  1.00  0.00     0.022 A 
BRANCH  64  67
ATOM     67  S   UNL A   1      42.002  22.460  26.364  1.00  0.00     0.127 S 
ATOM     68  O   UNL A   1      42.697  22.073  25.137  1.00  0.00    -0.237 OA
ATOM     69  O   UNL A   1      42.565  21.892  27.589  1.00  0.00    -0.237 OA
ATOM     70  O   UNL A   1      40.548  22.429  26.290  1.00  0.00    -0.744 OA
ENDBRANCH  64  67
ENDBRANCH  46  60
BRANCH  47  71
ATOM     71  C   UNL A   1      39.384  31.999  35.309  1.00  0.00     0.023 A 
ATOM     72  C   UNL A   1      38.496  31.403  36.225  1.00  0.00     0.012 A 
ATOM     73  C   UNL A   1      39.804  33.327  35.527  1.00  0.00     0.148 A 
ATOM     74  C   UNL A   1      38.012  32.123  37.318  1.00  0.00     0.002 A 
ATOM     75  C   UNL A   1      39.367  34.018  36.651  1.00  0.00     0.091 A 
ATOM     76  F   UNL A   1      40.638  33.884  34.637  1.00  0.00    -0.205 F 
ATOM     77  C   UNL A   1      38.455  33.424  37.537  1.00  0.00     0.022 A 
BRANCH  75  78
ATOM     78  S   UNL A   1      39.990  35.646  37.084  1.00  0.00     0.127 S 
ATOM     79  O   UNL A   1      41.423  35.392  37.213  1.00  0.00    -0.237 OA
ATOM     80  O   UNL A   1      39.606  36.437  35.914  1.00  0.00    -0.237 OA
ATOM     81  O   UNL A   1      39.299  36.019  38.311  1.00  0.00    -0.744 OA
ENDBRANCH  75  78
ENDBRANCH  47  71
BRANCH  59  82
ATOM     82  C   UNL A   1      44.776  27.670  34.350  1.00  0.00     0.023 A 
ATOM     83  C   UNL A   1      45.961  28.428  34.401  1.00  0.00     0.012 A 
ATOM     84  C   UNL A   1      44.628  26.552  35.195  1.00  0.00     0.148 A 
ATOM     85  C   UNL A   1      46.996  28.062  35.260  1.00  0.00     0.002 A 
ATOM     86  C   UNL A   1      45.642  26.226  36.086  1.00  0.00     0.091 A 
ATOM     87  F   UNL A   1      43.498  25.835  35.115  1.00  0.00    -0.205 F 
ATOM     88  C   UNL A   1      46.832  26.970  36.110  1.00  0.00     0.022 A 
BRANCH  86  89
ATOM     89  S   UNL A   1      45.476  24.902  37.289  1.00  0.00     0.127 S 
ATOM     90  O   UNL A   1      45.370  23.727  36.426  1.00  0.00    -0.237 OA
ATOM     91  O   UNL A   1      46.732  25.003  38.031  1.00  0.00    -0.237 OA
ATOM     92  O   UNL A   1      44.285  25.210  38.068  1.00  0.00    -0.744 OA
ENDBRANCH  86  89
ENDBRANCH  59  82
ENDBRANCH  33  34
ENDBRANCH  26  28
ENDBRANCH  25  26
ENDBRANCH   1  25
TORSDOF 16
ENDMDL
MODEL 3
REMARK VINA RESULT:     -12.5      5.782     10.715
REMARK SMILES COc1ccc2c(c1)C(=O)N(c1ccccc1C(=O)OCCOC(=O)c1ccc(-c3c4nc(c(-c5cccc(S(=O)(=O)[O-])c5F)c5ccc([nH]5)c(-c5cccc(S(=O)(=O)[O-])c5F)c5nc(c(-c6cccc(S(=O)(=O)[O-])c6F)c6ccc3[nH]6)C=C5)C=C4)cc1)C2=O
REMARK SMILES IDX 22 1 21 2 20 3 18 4 19 5 17 6 12 7 13 8 14 9 16 10 15 11
REMARK SMILES IDX 11 12 3 13 4 14 8 15 5 16 7 17 6 18 9 19 89 20 10 21 90 22
REMARK SMILES IDX 2 23 1 24 23 25 24 26 25 27 26 28 27 29 88 30 28 31 87 32
REMARK SMILES IDX 29 33 30 34 31 35 81 36 32 37 86 38 80 39 82 40 33 41 85 42
REMARK SMILES IDX 79 43 78 44 34 46 66 47 46 48 65 49 47 50 50 51 64 52 83 53
REMARK SMILES IDX 48 54 49 55 63 57 84 58 51 59 35 60 36 61 44 62 37 63 39 64
REMARK SMILES IDX 45 65 38 66 40 67 41 68 42 69 43 70 67 71 68 72 76 73 69 74
REMARK SMILES IDX 71 75 77 76 70 77 72 78 73 79 74 80 75 81 52 82 53 83 61 84
REMARK SMILES IDX 54 85 56 86 62 87 55 88 57 89 58 90 59 91 60 92
REMARK H PARENT 82 45 50 56
REMARK Flexibility Score: inf
ROOT
ATOM      1  C   UNL A   1      31.994  31.026  26.667  1.00  0.00     0.275 C 
ENDROOT
BRANCH   1   2
ATOM      2  C   UNL A   1      31.501  29.706  26.074  1.00  0.00     0.275 C 
BRANCH   2   3
ATOM      3  O   UNL A   1      32.496  28.666  26.196  1.00  0.00    -0.458 OA
BRANCH   3   4
ATOM      4  C   UNL A   1      32.045  27.383  26.227  1.00  0.00     0.340 C 
ATOM      5  O   UNL A   1      31.187  26.946  26.977  1.00  0.00    -0.246 OA
BRANCH   4   6
ATOM      6  C   UNL A   1      32.654  26.568  25.135  1.00  0.00     0.084 A 
ATOM      7  C   UNL A   1      32.166  26.521  23.816  1.00  0.00     0.067 A 
ATOM      8  C   UNL A   1      32.747  25.616  22.908  1.00  0.00     0.028 A 
ATOM      9  C   UNL A   1      33.802  24.787  23.290  1.00  0.00     0.002 A 
ATOM     10  C   UNL A   1      33.735  25.743  25.496  1.00  0.00     0.018 A 
ATOM     11  C   UNL A   1      34.293  24.844  24.587  1.00  0.00     0.001 A 
BRANCH   7  12
ATOM     12  N   UNL A   1      31.124  27.358  23.361  1.00  0.00    -0.241 N 
ATOM     13  C   UNL A   1      28.287  30.705  22.056  1.00  0.00     0.119 A 
ATOM     14  C   UNL A   1      27.335  29.799  22.568  1.00  0.00     0.047 A 
ATOM     15  C   UNL A   1      29.650  30.409  22.096  1.00  0.00     0.061 A 
ATOM     16  C   UNL A   1      27.721  28.550  23.065  1.00  0.00     0.018 A 
ATOM     17  C   UNL A   1      30.001  29.171  22.594  1.00  0.00     0.057 A 
ATOM     18  C   UNL A   1      29.068  28.260  23.047  1.00  0.00     0.053 A 
ATOM     19  C   UNL A   1      31.319  28.581  22.763  1.00  0.00     0.266 C 
ATOM     20  C   UNL A   1      29.787  27.066  23.482  1.00  0.00     0.266 C 
ATOM     21  O   UNL A   1      32.332  29.125  22.366  1.00  0.00    -0.268 OA
ATOM     22  O   UNL A   1      29.215  26.063  23.870  1.00  0.00    -0.268 OA
BRANCH  13  23
ATOM     23  O   UNL A   1      27.792  31.881  21.558  1.00  0.00    -0.497 OA
ATOM     24  C   UNL A   1      28.013  32.034  20.156  1.00  0.00     0.278 C 
ENDBRANCH  13  23
ENDBRANCH   7  12
ENDBRANCH   4   6
ENDBRANCH   3   4
ENDBRANCH   2   3
ENDBRANCH   1   2
BRANCH   1  25
ATOM     25  O   UNL A   1      33.195  30.817  27.423  1.00  0.00    -0.458 OA
BRANCH  25  26
ATOM     26  C   UNL A   1      33.907  31.942  27.658  1.00  0.00     0.338 C 
ATOM     27  O   UNL A   1      33.500  33.091  27.672  1.00  0.00    -0.246 OA
BRANCH  26  28
ATOM     28  C   UNL A   1      35.273  31.581  28.040  1.00  0.00     0.060 A 
ATOM     29  C   UNL A   1      35.530  30.241  28.307  1.00  0.00     0.016 A 
ATOM     30  C   UNL A   1      36.236  32.551  28.293  1.00  0.00     0.016 A 
ATOM     31  C   UNL A   1      36.705  29.863  28.939  1.00  0.00     0.010 A 
ATOM     32  C   UNL A   1      37.464  32.157  28.832  1.00  0.00     0.010 A 
ATOM     33  C   UNL A   1      37.695  30.816  29.202  1.00  0.00    -0.014 A 
BRANCH  33  34
ATOM     34  C   UNL A   1      38.955  30.423  29.888  1.00  0.00     0.031 A 
ATOM     35  C   UNL A   1      39.884  29.434  29.233  1.00  0.00     0.074 A 
ATOM     36  C   UNL A   1      39.253  30.926  31.103  1.00  0.00     0.049 A 
ATOM     37  N   UNL A   1      40.901  28.790  29.744  1.00  0.00    -0.248 NA
ATOM     38  C   UNL A   1      39.621  29.109  27.820  1.00  0.00     0.031 C 
ATOM     39  C   UNL A   1      38.457  31.917  31.831  1.00  0.00     0.029 A 
ATOM     40  N   UNL A   1      40.295  30.654  31.954  1.00  0.00    -0.354 N 
ATOM     41  C   UNL A   1      41.344  27.927  28.750  1.00  0.00     0.074 A 
ATOM     42  C   UNL A   1      40.493  28.135  27.598  1.00  0.00     0.031 C 
ATOM     43  C   UNL A   1      39.035  32.170  33.013  1.00  0.00     0.029 A 
ATOM     44  C   UNL A   1      40.187  31.292  33.169  1.00  0.00     0.049 A 
ATOM     45  H   UNL A   1      41.046  30.062  31.720  1.00  0.00     0.167 HD
ATOM     46  C   UNL A   1      42.368  27.042  28.794  1.00  0.00     0.034 A 
ATOM     47  C   UNL A   1      40.891  31.142  34.307  1.00  0.00     0.034 A 
ATOM     48  C   UNL A   1      43.244  26.891  29.927  1.00  0.00     0.049 A 
ATOM     49  C   UNL A   1      42.012  30.142  34.336  1.00  0.00     0.074 A 
ATOM     50  C   UNL A   1      44.340  26.058  30.061  1.00  0.00     0.029 A 
ATOM     51  N   UNL A   1      43.124  27.591  31.118  1.00  0.00    -0.354 N 
ATOM     52  N   UNL A   1      42.443  29.359  33.377  1.00  0.00    -0.248 NA
ATOM     53  C   UNL A   1      42.753  30.013  35.598  1.00  0.00     0.031 C 
ATOM     54  C   UNL A   1      44.864  26.231  31.345  1.00  0.00     0.029 A 
ATOM     55  C   UNL A   1      44.121  27.205  31.995  1.00  0.00     0.049 A 
ATOM     56  H   UNL A   1      42.432  28.264  31.310  1.00  0.00     0.167 HD
ATOM     57  C   UNL A   1      43.530  28.675  33.905  1.00  0.00     0.074 A 
ATOM     58  C   UNL A   1      43.700  29.146  35.264  1.00  0.00     0.031 C 
ATOM     59  C   UNL A   1      44.309  27.731  33.323  1.00  0.00     0.034 A 
BRANCH  46  60
ATOM     60  C   UNL A   1      42.607  26.170  27.589  1.00  0.00     0.023 A 
ATOM     61  C   UNL A   1      43.356  26.656  26.498  1.00  0.00     0.012 A 
ATOM     62  C   UNL A   1      42.140  24.839  27.565  1.00  0.00     0.148 A 
ATOM     63  C   UNL A   1      43.606  25.845  25.391  1.00  0.00     0.002 A 
ATOM     64  C   UNL A   1      42.434  24.023  26.480  1.00  0.00     0.091 A 
ATOM     65  F   UNL A   1      41.414  24.398  28.603  1.00  0.00    -0.205 F 
ATOM     66  C   UNL A   1      43.156  24.527  25.386  1.00  0.00     0.022 A 
BRANCH  64  67
ATOM     67  S   UNL A   1      41.973  22.287  26.415  1.00  0.00     0.127 S 
ATOM     68  O   UNL A   1      40.516  22.373  26.315  1.00  0.00    -0.237 OA
ATOM     69  O   UNL A   1      42.643  21.837  25.195  1.00  0.00    -0.237 OA
ATOM     70  O   UNL A   1      42.477  21.689  27.643  1.00  0.00    -0.744 OA
ENDBRANCH  64  67
ENDBRANCH  46  60
BRANCH  47  71
ATOM     71  C   UNL A   1      40.548  31.951  35.511  1.00  0.00     0.023 A 
ATOM     72  C   UNL A   1      41.378  33.026  35.885  1.00  0.00     0.012 A 
ATOM     73  C   UNL A   1      39.394  31.677  36.274  1.00  0.00     0.148 A 
ATOM     74  C   UNL A   1      41.082  33.793  37.012  1.00  0.00     0.002 A 
ATOM     75  C   UNL A   1      39.073  32.485  37.359  1.00  0.00     0.091 A 
ATOM     76  F   UNL A   1      38.624  30.641  35.913  1.00  0.00    -0.205 F 
ATOM     77  C   UNL A   1      39.926  33.531  37.741  1.00  0.00     0.022 A 
BRANCH  75  78
ATOM     78  S   UNL A   1      37.536  32.304  38.272  1.00  0.00     0.127 S 
ATOM     79  O   UNL A   1      37.863  32.957  39.537  1.00  0.00    -0.237 OA
ATOM     80  O   UNL A   1      36.594  33.037  37.425  1.00  0.00    -0.237 OA
ATOM     81  O   UNL A   1      37.287  30.871  38.345  1.00  0.00    -0.744 OA
ENDBRANCH  75  78
ENDBRANCH  47  71
BRANCH  59  82
ATOM     82  C   UNL A   1      45.463  27.191  34.125  1.00  0.00     0.023 A 
ATOM     83  C   UNL A   1      46.691  27.877  34.152  1.00  0.00     0.012 A 
ATOM     84  C   UNL A   1      45.293  26.036  34.915  1.00  0.00     0.148 A 
ATOM     85  C   UNL A   1      47.746  27.407  34.932  1.00  0.00     0.002 A 
ATOM     86  C   UNL A   1      46.330  25.604  35.731  1.00  0.00     0.091 A 
ATOM     87  F   UNL A   1      44.120  25.389  34.858  1.00  0.00    -0.205 F 
ATOM     88  C   UNL A   1      47.561  26.279  35.731  1.00  0.00     0.022 A 
BRANCH  86  89
ATOM     89  S   UNL A   1      46.150  24.225  36.868  1.00  0.00     0.127 S 
ATOM     90  O   UNL A   1      47.489  24.140  37.448  1.00  0.00    -0.237 OA
ATOM     91  O   UNL A   1      45.118  24.714  37.782  1.00  0.00    -0.237 OA
ATOM     92  O   UNL A   1      45.750  23.083  36.058  1.00  0.00    -0.744 OA
ENDBRANCH  86  89
ENDBRANCH  59  82
ENDBRANCH  33  34
ENDBRANCH  26  28
ENDBRANCH  25  26
ENDBRANCH   1  25
TORSDOF 16
ENDMDL
