MODEL 1
REMARK VINA RESULT:     -12.7      0.000      0.000
REMARK SMILES NS(=O)(=O)c1ccc(-n2nc(C(F)F)cc2-c2ccc(C(=O)OCCOC(=O)c3ccc(-c4c5nc(c(-c6cccc(S(=O)(=O)[O-])c6F)c6ccc([nH]6)c(-c6cccc(S(=O)(=O)[O-])c6F)c6nc(c(-c7cccc(S(=O)(=O)[O-])c7F)c7ccc4[nH]7)C=C6)C=C5)cc3)cc2)cc1
REMARK SMILES IDX 24 1 23 2 21 3 22 4 20 5 17 6 18 7 93 8 19 9 92 10 16 11
REMARK SMILES IDX 9 12 10 13 11 14 15 15 8 16 5 17 6 18 95 19 7 20 94 21 2 22
REMARK SMILES IDX 3 23 4 24 1 25 12 28 13 29 14 30 25 31 26 32 27 33 28 34
REMARK SMILES IDX 29 35 30 36 91 37 31 38 90 39 32 40 33 41 34 42 84 43 35 44
REMARK SMILES IDX 89 45 83 46 85 47 36 48 88 49 82 50 81 51 37 53 69 54 49 55
REMARK SMILES IDX 68 56 50 57 53 58 67 59 86 60 51 61 52 62 66 64 87 65 54 66
REMARK SMILES IDX 38 67 39 68 47 69 40 70 42 71 48 72 41 73 43 74 44 75 45 76
REMARK SMILES IDX 46 77 70 78 71 79 79 80 72 81 74 82 80 83 73 84 75 85 76 86
REMARK SMILES IDX 77 87 78 88 55 89 56 90 64 91 57 92 59 93 65 94 58 95 60 96
REMARK SMILES IDX 61 97 62 98 63 99
REMARK H PARENT 1 26 1 27 85 52 53 63
REMARK Flexibility Score: inf
ROOT
ATOM      1  C   UNL A   1      34.323  32.841  28.115  1.00  0.00     0.275 C 
ENDROOT
BRANCH   1   2
ATOM      2  O   UNL A   1      33.769  31.530  27.918  1.00  0.00    -0.458 OA
BRANCH   2   3
ATOM      3  C   UNL A   1      34.635  30.598  27.440  1.00  0.00     0.338 C 
ATOM      4  O   UNL A   1      35.846  30.721  27.344  1.00  0.00    -0.246 OA
BRANCH   3   5
ATOM      5  C   UNL A   1      33.921  29.340  27.100  1.00  0.00     0.060 A 
ATOM      6  C   UNL A   1      32.619  26.978  26.308  1.00  0.00     0.000 A 
ATOM      7  C   UNL A   1      33.909  27.271  25.841  1.00  0.00     0.011 A 
ATOM      8  C   UNL A   1      32.003  27.861  27.204  1.00  0.00     0.011 A 
ATOM      9  C   UNL A   1      34.557  28.441  26.237  1.00  0.00     0.016 A 
ATOM     10  C   UNL A   1      32.653  29.034  27.605  1.00  0.00     0.016 A 
BRANCH   6  11
ATOM     11  C   UNL A   1      31.891  25.819  25.787  1.00  0.00     0.075 A 
ATOM     12  N   UNL A   1      30.714  25.853  25.044  1.00  0.00    -0.233 N 
ATOM     13  N   UNL A   1      30.087  24.646  25.048  1.00  0.00    -0.166 NA
ATOM     14  C   UNL A   1      30.977  23.794  25.583  1.00  0.00     0.129 A 
ATOM     15  C   UNL A   1      32.111  24.484  26.066  1.00  0.00     0.060 A 
BRANCH  12  16
ATOM     16  C   UNL A   1      30.154  26.951  24.341  1.00  0.00     0.065 A 
ATOM     17  C   UNL A   1      29.026  29.131  23.030  1.00  0.00     0.082 A 
ATOM     18  C   UNL A   1      30.366  29.179  23.425  1.00  0.00     0.024 A 
ATOM     19  C   UNL A   1      28.246  28.000  23.280  1.00  0.00     0.024 A 
ATOM     20  C   UNL A   1      30.931  28.091  24.089  1.00  0.00     0.030 A 
ATOM     21  C   UNL A   1      28.820  26.892  23.912  1.00  0.00     0.030 A 
BRANCH  17  22
ATOM     22  S   UNL A   1      28.354  30.550  22.212  1.00  0.00     0.238 S 
ATOM     23  O   UNL A   1      27.359  31.124  23.099  1.00  0.00    -0.207 OA
ATOM     24  O   UNL A   1      28.089  30.188  20.850  1.00  0.00    -0.207 OA
BRANCH  22  25
ATOM     25  N   UNL A   1      29.627  31.647  22.154  1.00  0.00    -0.225 NA
ATOM     26  H   UNL A   1      30.077  31.600  21.240  1.00  0.00     0.137 HD
ATOM     27  H   UNL A   1      30.306  31.419  22.879  1.00  0.00     0.137 HD
ENDBRANCH  22  25
ENDBRANCH  17  22
ENDBRANCH  12  16
BRANCH  14  28
ATOM     28  C   UNL A   1      30.734  22.318  25.682  1.00  0.00     0.393 C 
ATOM     29  F   UNL A   1      31.833  21.620  26.079  1.00  0.00    -0.203 F 
ATOM     30  F   UNL A   1      29.746  22.031  26.575  1.00  0.00    -0.203 F 
ENDBRANCH  14  28
ENDBRANCH   6  11
ENDBRANCH   3   5
ENDBRANCH   2   3
ENDBRANCH   1   2
BRANCH   1  31
ATOM     31  C   UNL A   1      34.637  33.094  29.583  1.00  0.00     0.275 C 
BRANCH  31  32
ATOM     32  O   UNL A   1      35.119  31.922  30.240  1.00  0.00    -0.458 OA
BRANCH  32  33
ATOM     33  C   UNL A   1      36.246  32.116  30.962  1.00  0.00     0.338 C 
ATOM     34  O   UNL A   1      36.468  33.013  31.759  1.00  0.00    -0.246 OA
BRANCH  33  35
ATOM     35  C   UNL A   1      37.294  31.213  30.485  1.00  0.00     0.060 A 
ATOM     36  C   UNL A   1      37.144  29.851  30.764  1.00  0.00     0.016 A 
ATOM     37  C   UNL A   1      38.506  31.749  30.027  1.00  0.00     0.016 A 
ATOM     38  C   UNL A   1      38.254  29.038  30.696  1.00  0.00     0.010 A 
ATOM     39  C   UNL A   1      39.614  30.936  29.970  1.00  0.00     0.010 A 
ATOM     40  C   UNL A   1      39.487  29.601  30.356  1.00  0.00    -0.014 A 
BRANCH  40  41
ATOM     41  C   UNL A   1      40.633  28.717  30.265  1.00  0.00     0.031 A 
ATOM     42  C   UNL A   1      41.445  28.698  31.507  1.00  0.00     0.074 A 
ATOM     43  C   UNL A   1      40.808  27.891  29.216  1.00  0.00     0.049 A 
ATOM     44  N   UNL A   1      42.694  29.002  31.654  1.00  0.00    -0.248 NA
ATOM     45  C   UNL A   1      40.730  28.475  32.777  1.00  0.00     0.031 C 
ATOM     46  C   UNL A   1      39.868  27.679  28.110  1.00  0.00     0.029 A 
ATOM     47  N   UNL A   1      41.763  26.940  29.005  1.00  0.00    -0.354 N 
ATOM     48  C   UNL A   1      42.969  28.742  32.995  1.00  0.00     0.074 A 
ATOM     49  C   UNL A   1      41.703  28.671  33.665  1.00  0.00     0.031 C 
ATOM     50  C   UNL A   1      40.156  26.505  27.511  1.00  0.00     0.029 A 
ATOM     51  C   UNL A   1      41.347  25.945  28.124  1.00  0.00     0.049 A 
ATOM     52  H   UNL A   1      42.651  26.956  29.430  1.00  0.00     0.167 HD
ATOM     53  C   UNL A   1      44.184  28.260  33.369  1.00  0.00     0.034 A 
ATOM     54  C   UNL A   1      41.874  24.703  27.996  1.00  0.00     0.034 A 
ATOM     55  C   UNL A   1      45.185  28.540  32.366  1.00  0.00     0.049 A 
ATOM     56  C   UNL A   1      43.223  24.723  28.602  1.00  0.00     0.074 A 
ATOM     57  C   UNL A   1      45.675  29.671  31.745  1.00  0.00     0.029 A 
ATOM     58  N   UNL A   1      45.593  27.474  31.605  1.00  0.00    -0.354 N 
ATOM     59  N   UNL A   1      44.241  25.364  28.101  1.00  0.00    -0.248 NA
ATOM     60  C   UNL A   1      43.371  24.303  29.988  1.00  0.00     0.031 C 
ATOM     61  C   UNL A   1      46.031  29.257  30.428  1.00  0.00     0.029 A 
ATOM     62  C   UNL A   1      45.783  27.888  30.319  1.00  0.00     0.049 A 
ATOM     63  H   UNL A   1      45.729  26.556  31.936  1.00  0.00     0.167 HD
ATOM     64  C   UNL A   1      44.936  25.824  29.211  1.00  0.00     0.074 A 
ATOM     65  C   UNL A   1      44.455  25.008  30.320  1.00  0.00     0.031 C 
ATOM     66  C   UNL A   1      45.593  27.022  29.174  1.00  0.00     0.034 A 
BRANCH  53  67
ATOM     67  C   UNL A   1      44.373  27.118  34.365  1.00  0.00     0.023 A 
ATOM     68  C   UNL A   1      45.295  27.348  35.413  1.00  0.00     0.012 A 
ATOM     69  C   UNL A   1      43.984  25.773  34.151  1.00  0.00     0.148 A 
ATOM     70  C   UNL A   1      45.897  26.293  36.109  1.00  0.00     0.002 A 
ATOM     71  C   UNL A   1      44.538  24.733  34.887  1.00  0.00     0.091 A 
ATOM     72  F   UNL A   1      43.151  25.452  33.163  1.00  0.00    -0.205 F 
ATOM     73  C   UNL A   1      45.527  24.984  35.838  1.00  0.00     0.022 A 
BRANCH  71  74
ATOM     74  S   UNL A   1      44.070  23.019  34.599  1.00  0.00     0.127 S 
ATOM     75  O   UNL A   1      44.821  22.337  35.649  1.00  0.00    -0.237 OA
ATOM     76  O   UNL A   1      42.623  23.071  34.802  1.00  0.00    -0.237 OA
ATOM     77  O   UNL A   1      44.471  22.720  33.231  1.00  0.00    -0.744 OA
ENDBRANCH  71  74
ENDBRANCH  53  67
BRANCH  54  78
ATOM     78  C   UNL A   1      41.221  23.435  27.590  1.00  0.00     0.023 A 
ATOM     79  C   UNL A   1      39.845  23.435  27.283  1.00  0.00     0.012 A 
ATOM     80  C   UNL A   1      41.971  22.282  27.264  1.00  0.00     0.148 A 
ATOM     81  C   UNL A   1      39.245  22.343  26.646  1.00  0.00     0.002 A 
ATOM     82  C   UNL A   1      41.365  21.187  26.655  1.00  0.00     0.091 A 
ATOM     83  F   UNL A   1      43.295  22.289  27.459  1.00  0.00    -0.205 F 
ATOM     84  C   UNL A   1      40.004  21.219  26.330  1.00  0.00     0.022 A 
BRANCH  82  85
ATOM     85  S   UNL A   1      42.288  19.700  26.236  1.00  0.00     0.127 S 
ATOM     86  O   UNL A   1      42.762  19.254  27.547  1.00  0.00    -0.237 OA
ATOM     87  O   UNL A   1      41.256  18.858  25.641  1.00  0.00    -0.237 OA
ATOM     88  O   UNL A   1      43.351  20.136  25.339  1.00  0.00    -0.744 OA
ENDBRANCH  82  85
ENDBRANCH  54  78
BRANCH  66  89
ATOM     89  C   UNL A   1      45.912  27.614  27.827  1.00  0.00     0.023 A 
ATOM     90  C   UNL A   1      45.166  28.668  27.263  1.00  0.00     0.012 A 
ATOM     91  C   UNL A   1      47.084  27.186  27.179  1.00  0.00     0.148 A 
ATOM     92  C   UNL A   1      45.562  29.257  26.060  1.00  0.00     0.002 A 
ATOM     93  C   UNL A   1      47.502  27.809  26.010  1.00  0.00     0.091 A 
ATOM     94  F   UNL A   1      47.786  26.182  27.728  1.00  0.00    -0.205 F 
ATOM     95  C   UNL A   1      46.737  28.837  25.439  1.00  0.00     0.022 A 
BRANCH  93  96
ATOM     96  S   UNL A   1      49.070  27.387  25.247  1.00  0.00     0.127 S 
ATOM     97  O   UNL A   1      50.033  27.873  26.231  1.00  0.00    -0.237 OA
ATOM     98  O   UNL A   1      48.992  25.929  25.136  1.00  0.00    -0.237 OA
ATOM     99  O   UNL A   1      49.078  28.075  23.960  1.00  0.00    -0.744 OA
ENDBRANCH  93  96
ENDBRANCH  66  89
ENDBRANCH  40  41
ENDBRANCH  33  35
ENDBRANCH  32  33
ENDBRANCH  31  32
ENDBRANCH   1  31
TORSDOF 19
ENDMDL
MODEL 2
REMARK VINA RESULT:     -12.6      1.774      2.148
REMARK SMILES NS(=O)(=O)c1ccc(-n2nc(C(F)F)cc2-c2ccc(C(=O)OCCOC(=O)c3ccc(-c4c5nc(c(-c6cccc(S(=O)(=O)[O-])c6F)c6ccc([nH]6)c(-c6cccc(S(=O)(=O)[O-])c6F)c6nc(c(-c7cccc(S(=O)(=O)[O-])c7F)c7ccc4[nH]7)C=C6)C=C5)cc3)cc2)cc1
REMARK SMILES IDX 24 1 23 2 21 3 22 4 20 5 17 6 18 7 93 8 19 9 92 10 16 11
REMARK SMILES IDX 9 12 10 13 11 14 15 15 8 16 5 17 6 18 95 19 7 20 94 21 2 22
REMARK SMILES IDX 3 23 4 24 1 25 12 28 13 29 14 30 25 31 26 32 27 33 28 34
REMARK SMILES IDX 29 35 30 36 91 37 31 38 90 39 32 40 33 41 34 42 84 43 35 44
REMARK SMILES IDX 89 45 83 46 85 47 36 48 88 49 82 50 81 51 37 53 69 54 49 55
REMARK SMILES IDX 68 56 50 57 53 58 67 59 86 60 51 61 52 62 66 64 87 65 54 66
REMARK SMILES IDX 38 67 39 68 47 69 40 70 42 71 48 72 41 73 43 74 44 75 45 76
REMARK SMILES IDX 46 77 70 78 71 79 79 80 72 81 74 82 80 83 73 84 75 85 76 86
REMARK SMILES IDX 77 87 78 88 55 89 56 90 64 91 57 92 59 93 65 94 58 95 60 96
REMARK SMILES IDX 61 97 62 98 63 99
REMARK H PARENT 1 26 1 27 85 52 53 63
REMARK Flexibility Score: inf
ROOT
ATOM      1  C   UNL A   1      34.264  32.920  28.834  1.00  0.00     0.275 C 
ENDROOT
BRANCH   1   2
ATOM      2  O   UNL A   1      33.746  31.657  28.385  1.00  0.00    -0.458 OA
BRANCH   2   3
ATOM      3  C   UNL A   1      34.596  30.915  27.628  1.00  0.00     0.338 C 
ATOM      4  O   UNL A   1      35.741  31.213  27.327  1.00  0.00    -0.246 OA
BRANCH   3   5
ATOM      5  C   UNL A   1      33.974  29.619  27.253  1.00  0.00     0.060 A 
ATOM      6  C   UNL A   1      32.861  27.183  26.399  1.00  0.00     0.000 A 
ATOM      7  C   UNL A   1      34.185  27.514  26.074  1.00  0.00     0.011 A 
ATOM      8  C   UNL A   1      32.113  28.067  27.187  1.00  0.00     0.011 A 
ATOM      9  C   UNL A   1      34.738  28.721  26.501  1.00  0.00     0.016 A 
ATOM     10  C   UNL A   1      32.667  29.277  27.618  1.00  0.00     0.016 A 
BRANCH   6  11
ATOM     11  C   UNL A   1      32.242  25.980  25.838  1.00  0.00     0.075 A 
ATOM     12  N   UNL A   1      31.080  25.933  25.074  1.00  0.00    -0.233 N 
ATOM     13  N   UNL A   1      30.556  24.678  25.039  1.00  0.00    -0.166 NA
ATOM     14  C   UNL A   1      31.504  23.891  25.572  1.00  0.00     0.129 A 
ATOM     15  C   UNL A   1      32.567  24.661  26.092  1.00  0.00     0.060 A 
BRANCH  12  16
ATOM     16  C   UNL A   1      30.442  26.997  24.384  1.00  0.00     0.065 A 
ATOM     17  C   UNL A   1      29.160  29.107  23.100  1.00  0.00     0.082 A 
ATOM     18  C   UNL A   1      30.498  29.241  23.485  1.00  0.00     0.024 A 
ATOM     19  C   UNL A   1      28.460  27.924  23.346  1.00  0.00     0.024 A 
ATOM     20  C   UNL A   1      31.140  28.188  24.135  1.00  0.00     0.030 A 
ATOM     21  C   UNL A   1      29.111  26.853  23.964  1.00  0.00     0.030 A 
BRANCH  17  22
ATOM     22  S   UNL A   1      28.389  30.484  22.298  1.00  0.00     0.238 S 
ATOM     23  O   UNL A   1      27.397  31.012  23.216  1.00  0.00    -0.207 OA
ATOM     24  O   UNL A   1      28.097  30.101  20.948  1.00  0.00    -0.207 OA
BRANCH  22  25
ATOM     25  N   UNL A   1      29.601  31.645  22.191  1.00  0.00    -0.225 NA
ATOM     26  H   UNL A   1      30.130  31.667  23.063  1.00  0.00     0.137 HD
ATOM     27  H   UNL A   1      29.183  32.559  22.025  1.00  0.00     0.137 HD
ENDBRANCH  22  25
ENDBRANCH  17  22
ENDBRANCH  12  16
BRANCH  14  28
ATOM     28  C   UNL A   1      31.384  22.398  25.634  1.00  0.00     0.393 C 
ATOM     29  F   UNL A   1      30.183  21.977  26.116  1.00  0.00    -0.203 F 
ATOM     30  F   UNL A   1      31.530  21.831  24.404  1.00  0.00    -0.203 F 
ENDBRANCH  14  28
ENDBRANCH   6  11
ENDBRANCH   3   5
ENDBRANCH   2   3
ENDBRANCH   1   2
BRANCH   1  31
ATOM     31  C   UNL A   1      34.808  32.821  30.253  1.00  0.00     0.275 C 
BRANCH  31  32
ATOM     32  O   UNL A   1      36.140  32.310  30.283  1.00  0.00    -0.458 OA
BRANCH  32  33
ATOM     33  C   UNL A   1      36.296  31.213  31.058  1.00  0.00     0.338 C 
ATOM     34  O   UNL A   1      35.617  30.882  32.017  1.00  0.00    -0.246 OA
BRANCH  33  35
ATOM     35  C   UNL A   1      37.566  30.562  30.736  1.00  0.00     0.060 A 
ATOM     36  C   UNL A   1      37.604  29.165  30.791  1.00  0.00     0.016 A 
ATOM     37  C   UNL A   1      38.734  31.334  30.657  1.00  0.00     0.016 A 
ATOM     38  C   UNL A   1      38.828  28.542  30.888  1.00  0.00     0.010 A 
ATOM     39  C   UNL A   1      39.955  30.709  30.765  1.00  0.00     0.010 A 
ATOM     40  C   UNL A   1      39.986  29.324  30.932  1.00  0.00    -0.014 A 
BRANCH  40  41
ATOM     41  C   UNL A   1      41.263  28.641  31.008  1.00  0.00     0.031 A 
ATOM     42  C   UNL A   1      41.817  28.607  32.384  1.00  0.00     0.074 A 
ATOM     43  C   UNL A   1      41.771  27.974  29.954  1.00  0.00     0.049 A 
ATOM     44  N   UNL A   1      42.945  29.079  32.807  1.00  0.00    -0.248 NA
ATOM     45  C   UNL A   1      40.925  28.136  33.459  1.00  0.00     0.031 C 
ATOM     46  C   UNL A   1      41.108  27.747  28.665  1.00  0.00     0.029 A 
ATOM     47  N   UNL A   1      42.898  27.209  29.867  1.00  0.00    -0.354 N 
ATOM     48  C   UNL A   1      43.003  28.714  34.150  1.00  0.00     0.074 A 
ATOM     49  C   UNL A   1      41.664  28.377  34.539  1.00  0.00     0.031 C 
ATOM     50  C   UNL A   1      41.700  26.705  28.047  1.00  0.00     0.029 A 
ATOM     51  C   UNL A   1      42.832  26.267  28.843  1.00  0.00     0.049 A 
ATOM     52  H   UNL A   1      43.673  27.312  30.465  1.00  0.00     0.167 HD
ATOM     53  C   UNL A   1      44.190  28.384  34.725  1.00  0.00     0.034 A 
ATOM     54  C   UNL A   1      43.579  25.143  28.727  1.00  0.00     0.034 A 
ATOM     55  C   UNL A   1      45.299  28.924  33.973  1.00  0.00     0.049 A 
ATOM     56  C   UNL A   1      44.765  25.300  29.596  1.00  0.00     0.074 A 
ATOM     57  C   UNL A   1      45.696  30.179  33.558  1.00  0.00     0.029 A 
ATOM     58  N   UNL A   1      46.020  28.024  33.229  1.00  0.00    -0.354 N 
ATOM     59  N   UNL A   1      45.734  26.140  29.366  1.00  0.00    -0.248 NA
ATOM     60  C   UNL A   1      44.719  24.754  30.944  1.00  0.00     0.031 C 
ATOM     61  C   UNL A   1      46.360  29.974  32.313  1.00  0.00     0.029 A 
ATOM     62  C   UNL A   1      46.374  28.604  32.046  1.00  0.00     0.049 A 
ATOM     63  H   UNL A   1      46.246  27.107  33.506  1.00  0.00     0.167 HD
ATOM     64  C   UNL A   1      46.118  26.573  30.628  1.00  0.00     0.074 A 
ATOM     65  C   UNL A   1      45.584  25.574  31.546  1.00  0.00     0.031 C 
ATOM     66  C   UNL A   1      46.555  27.853  30.821  1.00  0.00     0.034 A 
BRANCH  53  67
ATOM     67  C   UNL A   1      44.380  27.180  35.644  1.00  0.00     0.023 A 
ATOM     68  C   UNL A   1      45.019  27.431  36.881  1.00  0.00     0.012 A 
ATOM     69  C   UNL A   1      44.291  25.824  35.245  1.00  0.00     0.148 A 
ATOM     70  C   UNL A   1      45.652  26.413  37.604  1.00  0.00     0.002 A 
ATOM     71  C   UNL A   1      44.866  24.808  35.998  1.00  0.00     0.091 A 
ATOM     72  F   UNL A   1      43.743  25.490  34.078  1.00  0.00    -0.205 F 
ATOM     73  C   UNL A   1      45.585  25.101  37.157  1.00  0.00     0.022 A 
BRANCH  71  74
ATOM     74  S   UNL A   1      44.782  23.085  35.480  1.00  0.00     0.127 S 
ATOM     75  O   UNL A   1      43.355  22.937  35.212  1.00  0.00    -0.237 OA
ATOM     76  O   UNL A   1      45.642  23.091  34.298  1.00  0.00    -0.237 OA
ATOM     77  O   UNL A   1      45.306  22.307  36.596  1.00  0.00    -0.744 OA
ENDBRANCH  71  74
ENDBRANCH  53  67
BRANCH  54  78
ATOM     78  C   UNL A   1      43.241  23.843  28.096  1.00  0.00     0.023 A 
ATOM     79  C   UNL A   1      42.000  23.240  28.382  1.00  0.00     0.012 A 
ATOM     80  C   UNL A   1      44.007  23.309  27.034  1.00  0.00     0.148 A 
ATOM     81  C   UNL A   1      41.524  22.166  27.621  1.00  0.00     0.002 A 
ATOM     82  C   UNL A   1      43.542  22.225  26.297  1.00  0.00     0.091 A 
ATOM     83  F   UNL A   1      45.145  23.919  26.681  1.00  0.00    -0.205 F 
ATOM     84  C   UNL A   1      42.293  21.658  26.577  1.00  0.00     0.022 A 
BRANCH  82  85
ATOM     85  S   UNL A   1      44.496  21.514  24.946  1.00  0.00     0.127 S 
ATOM     86  O   UNL A   1      45.859  21.557  25.478  1.00  0.00    -0.237 OA
ATOM     87  O   UNL A   1      43.924  20.176  24.840  1.00  0.00    -0.237 OA
ATOM     88  O   UNL A   1      44.277  22.393  23.805  1.00  0.00    -0.744 OA
ENDBRANCH  82  85
ENDBRANCH  54  78
BRANCH  66  89
ATOM     89  C   UNL A   1      47.017  28.634  29.620  1.00  0.00     0.023 A 
ATOM     90  C   UNL A   1      48.319  28.520  29.093  1.00  0.00     0.012 A 
ATOM     91  C   UNL A   1      46.064  29.396  28.922  1.00  0.00     0.148 A 
ATOM     92  C   UNL A   1      48.671  29.183  27.914  1.00  0.00     0.002 A 
ATOM     93  C   UNL A   1      46.404  30.012  27.724  1.00  0.00     0.091 A 
ATOM     94  F   UNL A   1      44.827  29.496  29.434  1.00  0.00    -0.205 F 
ATOM     95  C   UNL A   1      47.710  29.918  27.222  1.00  0.00     0.022 A 
BRANCH  93  96
ATOM     96  S   UNL A   1      45.169  30.862  26.738  1.00  0.00     0.127 S 
ATOM     97  O   UNL A   1      44.822  31.996  27.590  1.00  0.00    -0.237 OA
ATOM     98  O   UNL A   1      45.912  31.213  25.526  1.00  0.00    -0.237 OA
ATOM     99  O   UNL A   1      44.107  29.888  26.516  1.00  0.00    -0.744 OA
ENDBRANCH  93  96
ENDBRANCH  66  89
ENDBRANCH  40  41
ENDBRANCH  33  35
ENDBRANCH  32  33
ENDBRANCH  31  32
ENDBRANCH   1  31
TORSDOF 19
ENDMDL
MODEL 3
REMARK VINA RESULT:     -12.6      4.047      8.233
REMARK SMILES NS(=O)(=O)c1ccc(-n2nc(C(F)F)cc2-c2ccc(C(=O)OCCOC(=O)c3ccc(-c4c5nc(c(-c6cccc(S(=O)(=O)[O-])c6F)c6ccc([nH]6)c(-c6cccc(S(=O)(=O)[O-])c6F)c6nc(c(-c7cccc(S(=O)(=O)[O-])c7F)c7ccc4[nH]7)C=C6)C=C5)cc3)cc2)cc1
REMARK SMILES IDX 24 1 23 2 21 3 22 4 20 5 17 6 18 7 93 8 19 9 92 10 16 11
REMARK SMILES IDX 9 12 10 13 11 14 15 15 8 16 5 17 6 18 95 19 7 20 94 21 2 22
REMARK SMILES IDX 3 23 4 24 1 25 12 28 13 29 14 30 25 31 26 32 27 33 28 34
REMARK SMILES IDX 29 35 30 36 91 37 31 38 90 39 32 40 33 41 34 42 84 43 35 44
REMARK SMILES IDX 89 45 83 46 85 47 36 48 88 49 82 50 81 51 37 53 69 54 49 55
REMARK SMILES IDX 68 56 50 57 53 58 67 59 86 60 51 61 52 62 66 64 87 65 54 66
REMARK SMILES IDX 38 67 39 68 47 69 40 70 42 71 48 72 41 73 43 74 44 75 45 76
REMARK SMILES IDX 46 77 70 78 71 79 79 80 72 81 74 82 80 83 73 84 75 85 76 86
REMARK SMILES IDX 77 87 78 88 55 89 56 90 64 91 57 92 59 93 65 94 58 95 60 96
REMARK SMILES IDX 61 97 62 98 63 99
REMARK H PARENT 1 26 1 27 85 52 53 63
REMARK Flexibility Score: inf
ROOT
ATOM      1  C   UNL A   1      32.772  32.558  26.882  1.00  0.00     0.275 C 
ENDROOT
BRANCH   1   2
ATOM      2  O   UNL A   1      32.556  31.449  27.770  1.00  0.00    -0.458 OA
BRANCH   2   3
ATOM      3  C   UNL A   1      33.579  30.559  27.850  1.00  0.00     0.338 C 
ATOM      4  O   UNL A   1      34.615  30.706  28.479  1.00  0.00    -0.246 OA
BRANCH   3   5
ATOM      5  C   UNL A   1      33.252  29.312  27.113  1.00  0.00     0.060 A 
ATOM      6  C   UNL A   1      32.652  27.029  25.586  1.00  0.00     0.000 A 
ATOM      7  C   UNL A   1      33.713  27.872  25.220  1.00  0.00     0.011 A 
ATOM      8  C   UNL A   1      31.919  27.320  26.743  1.00  0.00     0.011 A 
ATOM      9  C   UNL A   1      34.013  29.002  25.981  1.00  0.00     0.016 A 
ATOM     10  C   UNL A   1      32.221  28.453  27.509  1.00  0.00     0.016 A 
BRANCH   6  11
ATOM     11  C   UNL A   1      32.257  25.921  24.713  1.00  0.00     0.075 A 
ATOM     12  N   UNL A   1      31.173  25.910  23.840  1.00  0.00    -0.233 N 
ATOM     13  N   UNL A   1      30.839  24.642  23.476  1.00  0.00    -0.166 NA
ATOM     14  C   UNL A   1      31.849  23.876  23.919  1.00  0.00     0.129 A 
ATOM     15  C   UNL A   1      32.749  24.631  24.704  1.00  0.00     0.060 A 
BRANCH  12  16
ATOM     16  C   UNL A   1      30.442  27.017  23.337  1.00  0.00     0.065 A 
ATOM     17  C   UNL A   1      29.015  29.224  22.421  1.00  0.00     0.082 A 
ATOM     18  C   UNL A   1      30.381  29.119  22.142  1.00  0.00     0.024 A 
ATOM     19  C   UNL A   1      28.355  28.232  23.149  1.00  0.00     0.024 A 
ATOM     20  C   UNL A   1      31.099  28.018  22.607  1.00  0.00     0.030 A 
ATOM     21  C   UNL A   1      29.063  27.108  23.584  1.00  0.00     0.030 A 
BRANCH  17  22
ATOM     22  S   UNL A   1      28.159  30.655  21.827  1.00  0.00     0.238 S 
ATOM     23  O   UNL A   1      27.171  31.009  22.830  1.00  0.00    -0.207 OA
ATOM     24  O   UNL A   1      27.844  30.437  20.445  1.00  0.00    -0.207 OA
BRANCH  22  25
ATOM     25  N   UNL A   1      29.313  31.877  21.845  1.00  0.00    -0.225 NA
ATOM     26  H   UNL A   1      28.848  32.785  21.842  1.00  0.00     0.137 HD
ATOM     27  H   UNL A   1      29.906  31.798  21.019  1.00  0.00     0.137 HD
ENDBRANCH  22  25
ENDBRANCH  17  22
ENDBRANCH  12  16
BRANCH  14  28
ATOM     28  C   UNL A   1      31.942  22.406  23.640  1.00  0.00     0.393 C 
ATOM     29  F   UNL A   1      32.544  22.124  22.453  1.00  0.00    -0.203 F 
ATOM     30  F   UNL A   1      32.653  21.756  24.602  1.00  0.00    -0.203 F 
ENDBRANCH  14  28
ENDBRANCH   6  11
ENDBRANCH   3   5
ENDBRANCH   2   3
ENDBRANCH   1   2
BRANCH   1  31
ATOM     31  C   UNL A   1      32.212  33.850  27.464  1.00  0.00     0.275 C 
BRANCH  31  32
ATOM     32  O   UNL A   1      32.534  34.001  28.845  1.00  0.00    -0.458 OA
BRANCH  32  33
ATOM     33  C   UNL A   1      33.310  35.074  29.120  1.00  0.00     0.338 C 
ATOM     34  O   UNL A   1      33.055  36.247  28.897  1.00  0.00    -0.246 OA
BRANCH  33  35
ATOM     35  C   UNL A   1      34.642  34.625  29.523  1.00  0.00     0.060 A 
ATOM     36  C   UNL A   1      35.640  34.613  28.542  1.00  0.00     0.016 A 
ATOM     37  C   UNL A   1      34.807  33.982  30.758  1.00  0.00     0.016 A 
ATOM     38  C   UNL A   1      36.765  33.847  28.756  1.00  0.00     0.010 A 
ATOM     39  C   UNL A   1      35.927  33.210  30.964  1.00  0.00     0.010 A 
ATOM     40  C   UNL A   1      36.869  33.110  29.939  1.00  0.00    -0.014 A 
BRANCH  40  41
ATOM     41  C   UNL A   1      38.076  32.334  30.149  1.00  0.00     0.031 A 
ATOM     42  C   UNL A   1      37.992  30.969  29.573  1.00  0.00     0.074 A 
ATOM     43  C   UNL A   1      39.191  32.887  30.664  1.00  0.00     0.049 A 
ATOM     44  N   UNL A   1      38.108  29.833  30.179  1.00  0.00    -0.248 NA
ATOM     45  C   UNL A   1      37.554  30.856  28.170  1.00  0.00     0.031 C 
ATOM     46  C   UNL A   1      39.395  34.306  30.975  1.00  0.00     0.029 A 
ATOM     47  N   UNL A   1      40.429  32.344  30.847  1.00  0.00    -0.354 N 
ATOM     48  C   UNL A   1      38.023  28.878  29.169  1.00  0.00     0.074 A 
ATOM     49  C   UNL A   1      37.443  29.537  28.034  1.00  0.00     0.031 C 
ATOM     50  C   UNL A   1      40.719  34.553  31.043  1.00  0.00     0.029 A 
ATOM     51  C   UNL A   1      41.439  33.302  30.882  1.00  0.00     0.049 A 
ATOM     52  H   UNL A   1      40.591  31.378  30.945  1.00  0.00     0.167 HD
ATOM     53  C   UNL A   1      38.755  27.734  29.236  1.00  0.00     0.034 A 
ATOM     54  C   UNL A   1      42.761  33.095  30.672  1.00  0.00     0.034 A 
ATOM     55  C   UNL A   1      39.159  27.456  30.594  1.00  0.00     0.049 A 
ATOM     56  C   UNL A   1      43.023  31.650  30.849  1.00  0.00     0.074 A 
ATOM     57  C   UNL A   1      38.515  27.274  31.801  1.00  0.00     0.029 A 
ATOM     58  N   UNL A   1      40.479  27.684  30.890  1.00  0.00    -0.354 N 
ATOM     59  N   UNL A   1      42.959  31.030  31.993  1.00  0.00    -0.248 NA
ATOM     60  C   UNL A   1      43.021  30.793  29.673  1.00  0.00     0.031 C 
ATOM     61  C   UNL A   1      39.410  27.783  32.789  1.00  0.00     0.029 A 
ATOM     62  C   UNL A   1      40.572  28.212  32.145  1.00  0.00     0.049 A 
ATOM     63  H   UNL A   1      41.239  27.496  30.293  1.00  0.00     0.167 HD
ATOM     64  C   UNL A   1      42.450  29.778  31.675  1.00  0.00     0.074 A 
ATOM     65  C   UNL A   1      42.668  29.637  30.240  1.00  0.00     0.031 C 
ATOM     66  C   UNL A   1      41.626  29.121  32.545  1.00  0.00     0.034 A 
BRANCH  53  67
ATOM     67  C   UNL A   1      39.527  27.152  28.055  1.00  0.00     0.023 A 
ATOM     68  C   UNL A   1      39.431  25.752  27.874  1.00  0.00     0.012 A 
ATOM     69  C   UNL A   1      40.568  27.808  27.354  1.00  0.00     0.148 A 
ATOM     70  C   UNL A   1      40.394  25.034  27.155  1.00  0.00     0.002 A 
ATOM     71  C   UNL A   1      41.486  27.099  26.590  1.00  0.00     0.091 A 
ATOM     72  F   UNL A   1      40.764  29.118  27.492  1.00  0.00    -0.205 F 
ATOM     73  C   UNL A   1      41.430  25.707  26.522  1.00  0.00     0.022 A 
BRANCH  71  74
ATOM     74  S   UNL A   1      42.831  27.924  25.722  1.00  0.00     0.127 S 
ATOM     75  O   UNL A   1      43.634  28.413  26.839  1.00  0.00    -0.237 OA
ATOM     76  O   UNL A   1      43.418  26.817  24.969  1.00  0.00    -0.237 OA
ATOM     77  O   UNL A   1      42.203  28.944  24.893  1.00  0.00    -0.744 OA
ENDBRANCH  71  74
ENDBRANCH  53  67
BRANCH  54  78
ATOM     78  C   UNL A   1      43.786  34.010  30.111  1.00  0.00     0.023 A 
ATOM     79  C   UNL A   1      45.048  34.095  30.732  1.00  0.00     0.012 A 
ATOM     80  C   UNL A   1      43.630  34.614  28.842  1.00  0.00     0.148 A 
ATOM     81  C   UNL A   1      46.124  34.728  30.099  1.00  0.00     0.002 A 
ATOM     82  C   UNL A   1      44.695  35.266  28.229  1.00  0.00     0.091 A 
ATOM     83  F   UNL A   1      42.470  34.470  28.190  1.00  0.00    -0.205 F 
ATOM     84  C   UNL A   1      45.950  35.312  28.848  1.00  0.00     0.022 A 
BRANCH  82  85
ATOM     85  S   UNL A   1      44.529  36.053  26.620  1.00  0.00     0.127 S 
ATOM     86  O   UNL A   1      45.852  36.648  26.431  1.00  0.00    -0.237 OA
ATOM     87  O   UNL A   1      44.242  34.915  25.752  1.00  0.00    -0.237 OA
ATOM     88  O   UNL A   1      43.456  37.028  26.767  1.00  0.00    -0.744 OA
ENDBRANCH  82  85
ENDBRANCH  54  78
BRANCH  66  89
ATOM     89  C   UNL A   1      41.624  29.555  33.986  1.00  0.00     0.023 A 
ATOM     90  C   UNL A   1      42.582  29.105  34.918  1.00  0.00     0.012 A 
ATOM     91  C   UNL A   1      40.715  30.554  34.374  1.00  0.00     0.148 A 
ATOM     92  C   UNL A   1      42.606  29.616  36.217  1.00  0.00     0.002 A 
ATOM     93  C   UNL A   1      40.776  31.096  35.651  1.00  0.00     0.091 A 
ATOM     94  F   UNL A   1      39.809  30.975  33.476  1.00  0.00    -0.205 F 
ATOM     95  C   UNL A   1      41.712  30.621  36.581  1.00  0.00     0.022 A 
BRANCH  93  96
ATOM     96  S   UNL A   1      39.730  32.476  36.122  1.00  0.00     0.127 S 
ATOM     97  O   UNL A   1      40.135  32.712  37.505  1.00  0.00    -0.237 OA
ATOM     98  O   UNL A   1      40.134  33.521  35.180  1.00  0.00    -0.237 OA
ATOM     99  O   UNL A   1      38.360  32.012  35.933  1.00  0.00    -0.744 OA
ENDBRANCH  93  96
ENDBRANCH  66  89
ENDBRANCH  40  41
ENDBRANCH  33  35
ENDBRANCH  32  33
ENDBRANCH  31  32
ENDBRANCH   1  31
TORSDOF 19
ENDMDL
