MODEL 1
REMARK VINA RESULT:     -12.3      0.000      0.000
REMARK SMILES Cc1ccc(NC(=O)N2CCCC[C@@H]2C(=O)OCCOC(=O)c2ccc(-c3c4nc(c(-c5cccc(S(=O)(=O)[O-])c5F)c5ccc([nH]5)c(-c5cccc(S(=O)(=O)[O-])c5F)c5nc(c(-c6cccc(S(=O)(=O)[O-])c6F)c6ccc3[nH]6)C=C5)C=C4)cc2)cc1
REMARK SMILES IDX 19 1 18 2 17 3 15 4 16 5 14 6 9 7 10 8 11 9 13 10 12 11 7 12
REMARK SMILES IDX 6 13 8 15 5 16 1 17 2 18 3 19 87 20 4 21 86 22 20 23 21 24
REMARK SMILES IDX 22 25 23 26 24 27 85 28 25 29 84 30 26 31 27 32 28 33 78 34
REMARK SMILES IDX 29 35 83 36 77 37 79 38 30 39 82 40 76 41 75 42 31 44 63 45
REMARK SMILES IDX 43 46 62 47 44 48 47 49 61 50 80 51 45 52 46 53 60 55 81 56
REMARK SMILES IDX 48 57 32 58 33 59 41 60 34 61 36 62 42 63 35 64 37 65 38 66
REMARK SMILES IDX 39 67 40 68 64 69 65 70 73 71 66 72 68 73 74 74 67 75 69 76
REMARK SMILES IDX 70 77 71 78 72 79 49 80 50 81 58 82 51 83 53 84 59 85 52 86
REMARK SMILES IDX 54 87 55 88 56 89 57 90
REMARK H PARENT 6 14 79 43 47 54
REMARK Flexibility Score: inf
ROOT
ATOM      1  C   UNL A   1      34.089  31.051  27.631  1.00  0.00     0.275 C 
ENDROOT
BRANCH   1   2
ATOM      2  C   UNL A   1      33.965  29.658  26.939  1.00  0.00     0.274 C 
BRANCH   2   3
ATOM      3  O   UNL A   1      32.748  29.313  26.237  1.00  0.00    -0.461 OA
BRANCH   3   4
ATOM      4  C   UNL A   1      32.963  28.709  25.054  1.00  0.00     0.329 C 
ATOM      5  O   UNL A   1      33.276  29.379  24.062  1.00  0.00    -0.250 OA
BRANCH   4   6
ATOM      6  C   UNL A   1      32.641  27.171  24.912  1.00  0.00     0.196 C 
ATOM      7  N   UNL A   1      32.492  26.234  23.749  1.00  0.00    -0.311 N 
ATOM      8  C   UNL A   1      31.217  25.628  23.355  1.00  0.00     0.122 C 
ATOM      9  C   UNL A   1      30.076  25.732  24.336  1.00  0.00     0.022 C 
ATOM     10  C   UNL A   1      31.422  27.059  25.858  1.00  0.00     0.037 C 
ATOM     11  C   UNL A   1      30.622  25.787  25.742  1.00  0.00     0.005 C 
BRANCH   7  12
ATOM     12  C   UNL A   1      33.452  25.857  22.854  1.00  0.00     0.322 C 
ATOM     13  N   UNL A   1      34.150  24.695  22.987  1.00  0.00    -0.308 N 
ATOM     14  H   UNL A   1      34.251  24.250  22.114  1.00  0.00     0.171 HD
ATOM     15  O   UNL A   1      33.433  26.401  21.744  1.00  0.00    -0.248 OA
BRANCH  13  16
ATOM     16  C   UNL A   1      34.772  23.934  24.004  1.00  0.00     0.042 A 
ATOM     17  C   UNL A   1      38.090  21.772  25.693  1.00  0.00     0.044 C 
ATOM     18  C   UNL A   1      36.841  22.460  25.235  1.00  0.00    -0.051 A 
ATOM     19  C   UNL A   1      36.446  23.705  25.733  1.00  0.00     0.005 A 
ATOM     20  C   UNL A   1      36.043  21.860  24.270  1.00  0.00     0.005 A 
ATOM     21  C   UNL A   1      35.399  24.429  25.131  1.00  0.00     0.026 A 
ATOM     22  C   UNL A   1      34.982  22.576  23.712  1.00  0.00     0.026 A 
ENDBRANCH  13  16
ENDBRANCH   7  12
ENDBRANCH   4   6
ENDBRANCH   3   4
ENDBRANCH   2   3
ENDBRANCH   1   2
BRANCH   1  23
ATOM     23  O   UNL A   1      35.000  31.247  28.751  1.00  0.00    -0.458 OA
BRANCH  23  24
ATOM     24  C   UNL A   1      36.348  31.414  28.667  1.00  0.00     0.338 C 
ATOM     25  O   UNL A   1      36.923  32.471  28.901  1.00  0.00    -0.246 OA
BRANCH  24  26
ATOM     26  C   UNL A   1      37.081  30.179  28.411  1.00  0.00     0.060 A 
ATOM     27  C   UNL A   1      37.857  30.097  27.254  1.00  0.00     0.016 A 
ATOM     28  C   UNL A   1      37.235  29.290  29.461  1.00  0.00     0.016 A 
ATOM     29  C   UNL A   1      38.950  29.236  27.241  1.00  0.00     0.010 A 
ATOM     30  C   UNL A   1      38.392  28.548  29.488  1.00  0.00     0.010 A 
ATOM     31  C   UNL A   1      39.286  28.542  28.394  1.00  0.00    -0.014 A 
BRANCH  31  32
ATOM     32  C   UNL A   1      40.400  27.599  28.489  1.00  0.00     0.031 A 
ATOM     33  C   UNL A   1      40.360  26.127  28.284  1.00  0.00     0.074 A 
ATOM     34  C   UNL A   1      41.565  28.241  28.727  1.00  0.00     0.049 A 
ATOM     35  N   UNL A   1      41.356  25.376  28.623  1.00  0.00    -0.248 NA
ATOM     36  C   UNL A   1      39.260  25.355  27.710  1.00  0.00     0.031 C 
ATOM     37  C   UNL A   1      42.933  27.833  28.518  1.00  0.00     0.029 A 
ATOM     38  N   UNL A   1      41.676  29.477  29.375  1.00  0.00    -0.354 N 
ATOM     39  C   UNL A   1      41.144  24.098  28.146  1.00  0.00     0.074 A 
ATOM     40  C   UNL A   1      39.796  24.123  27.628  1.00  0.00     0.031 C 
ATOM     41  C   UNL A   1      43.734  28.680  29.197  1.00  0.00     0.029 A 
ATOM     42  C   UNL A   1      42.873  29.475  30.076  1.00  0.00     0.049 A 
ATOM     43  H   UNL A   1      41.024  30.214  29.340  1.00  0.00     0.167 HD
ATOM     44  C   UNL A   1      42.199  23.231  28.143  1.00  0.00     0.034 A 
ATOM     45  C   UNL A   1      42.974  29.556  31.441  1.00  0.00     0.034 A 
ATOM     46  C   UNL A   1      43.351  23.832  28.841  1.00  0.00     0.049 A 
ATOM     47  C   UNL A   1      43.902  28.493  32.004  1.00  0.00     0.074 A 
ATOM     48  C   UNL A   1      44.443  24.546  28.377  1.00  0.00     0.029 A 
ATOM     49  N   UNL A   1      43.337  23.985  30.222  1.00  0.00    -0.354 N 
ATOM     50  N   UNL A   1      44.145  27.367  31.401  1.00  0.00    -0.248 NA
ATOM     51  C   UNL A   1      44.317  28.508  33.402  1.00  0.00     0.031 C 
ATOM     52  C   UNL A   1      45.086  25.137  29.492  1.00  0.00     0.029 A 
ATOM     53  C   UNL A   1      44.411  24.762  30.642  1.00  0.00     0.049 A 
ATOM     54  H   UNL A   1      42.660  23.596  30.821  1.00  0.00     0.167 HD
ATOM     55  C   UNL A   1      44.461  26.432  32.350  1.00  0.00     0.074 A 
ATOM     56  C   UNL A   1      44.473  27.188  33.590  1.00  0.00     0.031 C 
ATOM     57  C   UNL A   1      44.583  25.100  32.055  1.00  0.00     0.034 A 
BRANCH  44  58
ATOM     58  C   UNL A   1      42.381  21.970  27.289  1.00  0.00     0.023 A 
ATOM     59  C   UNL A   1      41.443  20.930  27.527  1.00  0.00     0.012 A 
ATOM     60  C   UNL A   1      43.398  21.666  26.353  1.00  0.00     0.148 A 
ATOM     61  C   UNL A   1      41.544  19.651  26.974  1.00  0.00     0.002 A 
ATOM     62  C   UNL A   1      43.505  20.376  25.794  1.00  0.00     0.091 A 
ATOM     63  F   UNL A   1      44.263  22.615  25.983  1.00  0.00    -0.205 F 
ATOM     64  C   UNL A   1      42.589  19.367  26.119  1.00  0.00     0.022 A 
BRANCH  62  65
ATOM     65  S   UNL A   1      44.821  19.872  24.666  1.00  0.00     0.127 S 
ATOM     66  O   UNL A   1      44.524  20.673  23.477  1.00  0.00    -0.237 OA
ATOM     67  O   UNL A   1      46.030  20.286  25.379  1.00  0.00    -0.237 OA
ATOM     68  O   UNL A   1      44.679  18.434  24.482  1.00  0.00    -0.744 OA
ENDBRANCH  62  65
ENDBRANCH  44  58
BRANCH  45  69
ATOM     69  C   UNL A   1      41.685  29.848  32.210  1.00  0.00     0.023 A 
ATOM     70  C   UNL A   1      40.885  28.814  32.733  1.00  0.00     0.012 A 
ATOM     71  C   UNL A   1      41.535  31.123  32.787  1.00  0.00     0.148 A 
ATOM     72  C   UNL A   1      40.278  28.984  33.982  1.00  0.00     0.002 A 
ATOM     73  C   UNL A   1      40.992  31.289  34.034  1.00  0.00     0.091 A 
ATOM     74  F   UNL A   1      41.842  32.218  32.097  1.00  0.00    -0.205 F 
ATOM     75  C   UNL A   1      40.423  30.194  34.668  1.00  0.00     0.022 A 
BRANCH  73  76
ATOM     76  S   UNL A   1      41.129  32.911  34.795  1.00  0.00     0.127 S 
ATOM     77  O   UNL A   1      40.001  33.604  34.174  1.00  0.00    -0.237 OA
ATOM     78  O   UNL A   1      40.963  32.616  36.214  1.00  0.00    -0.237 OA
ATOM     79  O   UNL A   1      42.449  33.411  34.444  1.00  0.00    -0.744 OA
ENDBRANCH  73  76
ENDBRANCH  45  69
BRANCH  57  80
ATOM     80  C   UNL A   1      44.947  24.042  33.087  1.00  0.00     0.023 A 
ATOM     81  C   UNL A   1      43.977  23.158  33.607  1.00  0.00     0.012 A 
ATOM     82  C   UNL A   1      46.233  23.960  33.676  1.00  0.00     0.148 A 
ATOM     83  C   UNL A   1      44.268  22.173  34.551  1.00  0.00     0.002 A 
ATOM     84  C   UNL A   1      46.495  23.051  34.701  1.00  0.00     0.091 A 
ATOM     85  F   UNL A   1      47.209  24.778  33.273  1.00  0.00    -0.205 F 
ATOM     86  C   UNL A   1      45.530  22.127  35.108  1.00  0.00     0.022 A 
BRANCH  84  87
ATOM     87  S   UNL A   1      48.003  23.098  35.678  1.00  0.00     0.127 S 
ATOM     88  O   UNL A   1      49.001  22.694  34.684  1.00  0.00    -0.237 OA
ATOM     89  O   UNL A   1      48.074  24.506  36.067  1.00  0.00    -0.237 OA
ATOM     90  O   UNL A   1      47.819  22.159  36.773  1.00  0.00    -0.744 OA
ENDBRANCH  84  87
ENDBRANCH  57  80
ENDBRANCH  31  32
ENDBRANCH  24  26
ENDBRANCH  23  24
ENDBRANCH   1  23
TORSDOF 16
ENDMDL
MODEL 2
REMARK VINA RESULT:     -12.3      4.676     11.822
REMARK SMILES Cc1ccc(NC(=O)N2CCCC[C@@H]2C(=O)OCCOC(=O)c2ccc(-c3c4nc(c(-c5cccc(S(=O)(=O)[O-])c5F)c5ccc([nH]5)c(-c5cccc(S(=O)(=O)[O-])c5F)c5nc(c(-c6cccc(S(=O)(=O)[O-])c6F)c6ccc3[nH]6)C=C5)C=C4)cc2)cc1
REMARK SMILES IDX 19 1 18 2 17 3 15 4 16 5 14 6 9 7 10 8 11 9 13 10 12 11 7 12
REMARK SMILES IDX 6 13 8 15 5 16 1 17 2 18 3 19 87 20 4 21 86 22 20 23 21 24
REMARK SMILES IDX 22 25 23 26 24 27 85 28 25 29 84 30 26 31 27 32 28 33 78 34
REMARK SMILES IDX 29 35 83 36 77 37 79 38 30 39 82 40 76 41 75 42 31 44 63 45
REMARK SMILES IDX 43 46 62 47 44 48 47 49 61 50 80 51 45 52 46 53 60 55 81 56
REMARK SMILES IDX 48 57 32 58 33 59 41 60 34 61 36 62 42 63 35 64 37 65 38 66
REMARK SMILES IDX 39 67 40 68 64 69 65 70 73 71 66 72 68 73 74 74 67 75 69 76
REMARK SMILES IDX 70 77 71 78 72 79 49 80 50 81 58 82 51 83 53 84 59 85 52 86
REMARK SMILES IDX 54 87 55 88 56 89 57 90
REMARK H PARENT 6 14 79 43 47 54
REMARK Flexibility Score: inf
ROOT
ATOM      1  C   UNL A   1      39.979  21.370  26.355  1.00  0.00     0.275 C 
ENDROOT
BRANCH   1   2
ATOM      2  C   UNL A   1      40.999  20.227  26.652  1.00  0.00     0.274 C 
BRANCH   2   3
ATOM      3  O   UNL A   1      41.319  19.266  25.619  1.00  0.00    -0.461 OA
BRANCH   3   4
ATOM      4  C   UNL A   1      42.540  18.718  25.754  1.00  0.00     0.329 C 
ATOM      5  O   UNL A   1      42.657  17.501  25.941  1.00  0.00    -0.250 OA
BRANCH   4   6
ATOM      6  C   UNL A   1      43.797  19.666  25.847  1.00  0.00     0.196 C 
ATOM      7  N   UNL A   1      44.199  20.945  25.172  1.00  0.00    -0.311 N 
ATOM      8  C   UNL A   1      45.307  21.043  24.217  1.00  0.00     0.122 C 
ATOM      9  C   UNL A   1      46.251  19.870  24.139  1.00  0.00     0.022 C 
ATOM     10  C   UNL A   1      44.934  18.621  25.750  1.00  0.00     0.037 C 
ATOM     11  C   UNL A   1      46.308  19.177  25.478  1.00  0.00     0.005 C 
BRANCH   7  12
ATOM     12  C   UNL A   1      43.590  22.163  25.265  1.00  0.00     0.322 C 
ATOM     13  N   UNL A   1      43.890  23.050  26.254  1.00  0.00    -0.308 N 
ATOM     14  H   UNL A   1      43.948  23.964  25.894  1.00  0.00     0.171 HD
ATOM     15  O   UNL A   1      43.027  22.591  24.251  1.00  0.00    -0.248 OA
BRANCH  13  16
ATOM     16  C   UNL A   1      44.146  23.050  27.645  1.00  0.00     0.042 A 
ATOM     17  C   UNL A   1      44.411  24.954  31.498  1.00  0.00     0.044 C 
ATOM     18  C   UNL A   1      44.396  24.155  30.231  1.00  0.00    -0.051 A 
ATOM     19  C   UNL A   1      43.371  23.254  29.925  1.00  0.00     0.005 A 
ATOM     20  C   UNL A   1      45.421  24.314  29.308  1.00  0.00     0.005 A 
ATOM     21  C   UNL A   1      43.261  22.686  28.642  1.00  0.00     0.026 A 
ATOM     22  C   UNL A   1      45.317  23.711  28.053  1.00  0.00     0.026 A 
ENDBRANCH  13  16
ENDBRANCH   7  12
ENDBRANCH   4   6
ENDBRANCH   3   4
ENDBRANCH   2   3
ENDBRANCH   1   2
BRANCH   1  23
ATOM     23  O   UNL A   1      40.100  22.664  27.013  1.00  0.00    -0.458 OA
BRANCH  23  24
ATOM     24  C   UNL A   1      39.279  23.734  26.829  1.00  0.00     0.338 C 
ATOM     25  O   UNL A   1      38.222  23.688  26.210  1.00  0.00    -0.246 OA
BRANCH  24  26
ATOM     26  C   UNL A   1      39.691  24.927  27.560  1.00  0.00     0.060 A 
ATOM     27  C   UNL A   1      40.395  25.916  26.872  1.00  0.00     0.016 A 
ATOM     28  C   UNL A   1      39.096  25.171  28.786  1.00  0.00     0.016 A 
ATOM     29  C   UNL A   1      40.320  27.230  27.325  1.00  0.00     0.010 A 
ATOM     30  C   UNL A   1      38.917  26.486  29.145  1.00  0.00     0.010 A 
ATOM     31  C   UNL A   1      39.494  27.536  28.396  1.00  0.00    -0.014 A 
BRANCH  31  32
ATOM     32  C   UNL A   1      39.353  28.876  28.967  1.00  0.00     0.031 A 
ATOM     33  C   UNL A   1      38.347  29.911  28.607  1.00  0.00     0.074 A 
ATOM     34  C   UNL A   1      40.236  29.076  29.970  1.00  0.00     0.049 A 
ATOM     35  N   UNL A   1      38.469  31.132  29.013  1.00  0.00    -0.248 NA
ATOM     36  C   UNL A   1      37.150  29.719  27.791  1.00  0.00     0.031 C 
ATOM     37  C   UNL A   1      40.236  30.023  31.059  1.00  0.00     0.029 A 
ATOM     38  N   UNL A   1      41.469  28.425  30.088  1.00  0.00    -0.354 N 
ATOM     39  C   UNL A   1      37.315  31.827  28.713  1.00  0.00     0.074 A 
ATOM     40  C   UNL A   1      36.542  30.914  27.902  1.00  0.00     0.031 C 
ATOM     41  C   UNL A   1      41.470  30.040  31.602  1.00  0.00     0.029 A 
ATOM     42  C   UNL A   1      42.353  29.309  30.689  1.00  0.00     0.049 A 
ATOM     43  H   UNL A   1      41.673  27.506  29.798  1.00  0.00     0.167 HD
ATOM     44  C   UNL A   1      37.124  33.041  29.309  1.00  0.00     0.034 A 
ATOM     45  C   UNL A   1      43.481  29.807  30.091  1.00  0.00     0.034 A 
ATOM     46  C   UNL A   1      38.334  33.437  30.052  1.00  0.00     0.049 A 
ATOM     47  C   UNL A   1      43.578  31.316  30.234  1.00  0.00     0.074 A 
ATOM     48  C   UNL A   1      38.695  33.283  31.380  1.00  0.00     0.029 A 
ATOM     49  N   UNL A   1      39.482  33.826  29.373  1.00  0.00    -0.354 N 
ATOM     50  N   UNL A   1      42.544  32.084  30.410  1.00  0.00    -0.248 NA
ATOM     51  C   UNL A   1      44.784  32.041  29.851  1.00  0.00     0.031 C 
ATOM     52  C   UNL A   1      40.075  33.577  31.496  1.00  0.00     0.029 A 
ATOM     53  C   UNL A   1      40.556  33.943  30.249  1.00  0.00     0.049 A 
ATOM     54  H   UNL A   1      39.530  33.997  28.406  1.00  0.00     0.167 HD
ATOM     55  C   UNL A   1      42.836  33.321  29.899  1.00  0.00     0.074 A 
ATOM     56  C   UNL A   1      44.226  33.207  29.492  1.00  0.00     0.031 C 
ATOM     57  C   UNL A   1      41.887  34.298  29.759  1.00  0.00     0.034 A 
BRANCH  44  58
ATOM     58  C   UNL A   1      35.801  33.787  29.525  1.00  0.00     0.023 A 
ATOM     59  C   UNL A   1      35.148  34.230  28.342  1.00  0.00     0.012 A 
ATOM     60  C   UNL A   1      35.178  34.165  30.739  1.00  0.00     0.148 A 
ATOM     61  C   UNL A   1      34.030  35.066  28.340  1.00  0.00     0.002 A 
ATOM     62  C   UNL A   1      34.050  35.011  30.740  1.00  0.00     0.091 A 
ATOM     63  F   UNL A   1      35.656  33.707  31.899  1.00  0.00    -0.205 F 
ATOM     64  C   UNL A   1      33.489  35.473  29.543  1.00  0.00     0.022 A 
BRANCH  62  65
ATOM     65  S   UNL A   1      33.248  35.618  32.239  1.00  0.00     0.127 S 
ATOM     66  O   UNL A   1      32.177  36.453  31.692  1.00  0.00    -0.237 OA
ATOM     67  O   UNL A   1      32.781  34.386  32.874  1.00  0.00    -0.237 OA
ATOM     68  O   UNL A   1      34.266  36.346  32.985  1.00  0.00    -0.744 OA
ENDBRANCH  62  65
ENDBRANCH  44  58
BRANCH  45  69
ATOM     69  C   UNL A   1      43.870  29.199  28.742  1.00  0.00     0.023 A 
ATOM     70  C   UNL A   1      43.284  29.634  27.538  1.00  0.00     0.012 A 
ATOM     71  C   UNL A   1      45.113  28.546  28.646  1.00  0.00     0.148 A 
ATOM     72  C   UNL A   1      44.078  29.738  26.390  1.00  0.00     0.002 A 
ATOM     73  C   UNL A   1      45.919  28.690  27.548  1.00  0.00     0.091 A 
ATOM     74  F   UNL A   1      45.506  27.698  29.593  1.00  0.00    -0.205 F 
ATOM     75  C   UNL A   1      45.421  29.356  26.436  1.00  0.00     0.022 A 
BRANCH  73  76
ATOM     76  S   UNL A   1      47.600  28.069  27.659  1.00  0.00     0.127 S 
ATOM     77  O   UNL A   1      48.145  28.513  26.376  1.00  0.00    -0.237 OA
ATOM     78  O   UNL A   1      48.127  28.772  28.824  1.00  0.00    -0.237 OA
ATOM     79  O   UNL A   1      47.488  26.630  27.834  1.00  0.00    -0.744 OA
ENDBRANCH  73  76
ENDBRANCH  45  69
BRANCH  57  80
ATOM     80  C   UNL A   1      42.188  35.685  29.208  1.00  0.00     0.023 A 
ATOM     81  C   UNL A   1      41.751  36.078  27.924  1.00  0.00     0.012 A 
ATOM     82  C   UNL A   1      43.019  36.613  29.884  1.00  0.00     0.148 A 
ATOM     83  C   UNL A   1      42.001  37.339  27.383  1.00  0.00     0.002 A 
ATOM     84  C   UNL A   1      43.364  37.828  29.295  1.00  0.00     0.091 A 
ATOM     85  F   UNL A   1      43.510  36.318  31.092  1.00  0.00    -0.205 F 
ATOM     86  C   UNL A   1      42.820  38.214  28.067  1.00  0.00     0.022 A 
BRANCH  84  87
ATOM     87  S   UNL A   1      44.635  38.907  29.966  1.00  0.00     0.127 S 
ATOM     88  O   UNL A   1      45.812  38.037  29.901  1.00  0.00    -0.237 OA
ATOM     89  O   UNL A   1      44.644  40.009  29.003  1.00  0.00    -0.237 OA
ATOM     90  O   UNL A   1      44.213  39.262  31.312  1.00  0.00    -0.744 OA
ENDBRANCH  84  87
ENDBRANCH  57  80
ENDBRANCH  31  32
ENDBRANCH  24  26
ENDBRANCH  23  24
ENDBRANCH   1  23
TORSDOF 16
ENDMDL
MODEL 3
REMARK VINA RESULT:     -12.2      1.799      2.535
REMARK SMILES Cc1ccc(NC(=O)N2CCCC[C@@H]2C(=O)OCCOC(=O)c2ccc(-c3c4nc(c(-c5cccc(S(=O)(=O)[O-])c5F)c5ccc([nH]5)c(-c5cccc(S(=O)(=O)[O-])c5F)c5nc(c(-c6cccc(S(=O)(=O)[O-])c6F)c6ccc3[nH]6)C=C5)C=C4)cc2)cc1
REMARK SMILES IDX 19 1 18 2 17 3 15 4 16 5 14 6 9 7 10 8 11 9 13 10 12 11 7 12
REMARK SMILES IDX 6 13 8 15 5 16 1 17 2 18 3 19 87 20 4 21 86 22 20 23 21 24
REMARK SMILES IDX 22 25 23 26 24 27 85 28 25 29 84 30 26 31 27 32 28 33 78 34
REMARK SMILES IDX 29 35 83 36 77 37 79 38 30 39 82 40 76 41 75 42 31 44 63 45
REMARK SMILES IDX 43 46 62 47 44 48 47 49 61 50 80 51 45 52 46 53 60 55 81 56
REMARK SMILES IDX 48 57 32 58 33 59 41 60 34 61 36 62 42 63 35 64 37 65 38 66
REMARK SMILES IDX 39 67 40 68 64 69 65 70 73 71 66 72 68 73 74 74 67 75 69 76
REMARK SMILES IDX 70 77 71 78 72 79 49 80 50 81 58 82 51 83 53 84 59 85 52 86
REMARK SMILES IDX 54 87 55 88 56 89 57 90
REMARK H PARENT 6 14 79 43 47 54
REMARK Flexibility Score: inf
ROOT
ATOM      1  C   UNL A   1      34.098  28.765  26.716  1.00  0.00     0.275 C 
ENDROOT
BRANCH   1   2
ATOM      2  C   UNL A   1      32.839  27.856  26.868  1.00  0.00     0.274 C 
BRANCH   2   3
ATOM      3  O   UNL A   1      32.369  27.088  25.736  1.00  0.00    -0.461 OA
BRANCH   3   4
ATOM      4  C   UNL A   1      31.975  25.843  26.058  1.00  0.00     0.329 C 
ATOM      5  O   UNL A   1      31.018  25.672  26.825  1.00  0.00    -0.250 OA
BRANCH   4   6
ATOM      6  C   UNL A   1      32.851  24.618  25.589  1.00  0.00     0.196 C 
ATOM      7  N   UNL A   1      33.425  23.414  26.277  1.00  0.00    -0.311 N 
ATOM      8  C   UNL A   1      34.861  23.216  26.499  1.00  0.00     0.122 C 
ATOM      9  C   UNL A   1      35.803  24.123  25.747  1.00  0.00     0.022 C 
ATOM     10  C   UNL A   1      33.948  25.360  24.788  1.00  0.00     0.037 C 
ATOM     11  C   UNL A   1      35.168  24.544  24.445  1.00  0.00     0.005 C 
BRANCH   7  12
ATOM     12  C   UNL A   1      32.745  22.381  26.854  1.00  0.00     0.322 C 
ATOM     13  N   UNL A   1      32.981  21.081  26.520  1.00  0.00    -0.308 N 
ATOM     14  H   UNL A   1      32.990  20.513  27.323  1.00  0.00     0.171 HD
ATOM     15  O   UNL A   1      32.171  22.611  27.924  1.00  0.00    -0.248 OA
BRANCH  13  16
ATOM     16  C   UNL A   1      33.220  20.304  25.363  1.00  0.00     0.042 A 
ATOM     17  C   UNL A   1      34.011  16.592  23.329  1.00  0.00     0.044 C 
ATOM     18  C   UNL A   1      33.770  17.962  23.885  1.00  0.00    -0.051 A 
ATOM     19  C   UNL A   1      32.528  18.598  23.796  1.00  0.00     0.005 A 
ATOM     20  C   UNL A   1      34.800  18.631  24.532  1.00  0.00     0.005 A 
ATOM     21  C   UNL A   1      32.262  19.779  24.516  1.00  0.00     0.026 A 
ATOM     22  C   UNL A   1      34.531  19.823  25.207  1.00  0.00     0.026 A 
ENDBRANCH  13  16
ENDBRANCH   7  12
ENDBRANCH   4   6
ENDBRANCH   3   4
ENDBRANCH   2   3
ENDBRANCH   1   2
BRANCH   1  23
ATOM     23  O   UNL A   1      34.656  29.463  27.867  1.00  0.00    -0.458 OA
BRANCH  23  24
ATOM     24  C   UNL A   1      35.575  30.466  27.826  1.00  0.00     0.338 C 
ATOM     25  O   UNL A   1      35.300  31.638  27.595  1.00  0.00    -0.246 OA
BRANCH  24  26
ATOM     26  C   UNL A   1      36.916  30.054  28.226  1.00  0.00     0.060 A 
ATOM     27  C   UNL A   1      37.070  29.397  29.448  1.00  0.00     0.016 A 
ATOM     28  C   UNL A   1      37.903  30.038  27.256  1.00  0.00     0.016 A 
ATOM     29  C   UNL A   1      38.149  28.533  29.612  1.00  0.00     0.010 A 
ATOM     30  C   UNL A   1      38.885  29.082  27.377  1.00  0.00     0.010 A 
ATOM     31  C   UNL A   1      38.997  28.289  28.541  1.00  0.00    -0.014 A 
BRANCH  31  32
ATOM     32  C   UNL A   1      40.170  27.417  28.605  1.00  0.00     0.031 A 
ATOM     33  C   UNL A   1      40.220  25.950  28.369  1.00  0.00     0.074 A 
ATOM     34  C   UNL A   1      41.294  28.127  28.845  1.00  0.00     0.049 A 
ATOM     35  N   UNL A   1      41.266  25.258  28.682  1.00  0.00    -0.248 NA
ATOM     36  C   UNL A   1      39.165  25.122  27.790  1.00  0.00     0.031 C 
ATOM     37  C   UNL A   1      42.683  27.811  28.614  1.00  0.00     0.029 A 
ATOM     38  N   UNL A   1      41.334  29.354  29.519  1.00  0.00    -0.354 N 
ATOM     39  C   UNL A   1      41.129  23.979  28.180  1.00  0.00     0.074 A 
ATOM     40  C   UNL A   1      39.776  23.929  27.676  1.00  0.00     0.031 C 
ATOM     41  C   UNL A   1      43.436  28.692  29.303  1.00  0.00     0.029 A 
ATOM     42  C   UNL A   1      42.537  29.413  30.208  1.00  0.00     0.049 A 
ATOM     43  H   UNL A   1      40.637  30.048  29.507  1.00  0.00     0.167 HD
ATOM     44  C   UNL A   1      42.237  23.181  28.148  1.00  0.00     0.034 A 
ATOM     45  C   UNL A   1      42.648  29.472  31.573  1.00  0.00     0.034 A 
ATOM     46  C   UNL A   1      43.356  23.838  28.847  1.00  0.00     0.049 A 
ATOM     47  C   UNL A   1      43.647  28.458  32.103  1.00  0.00     0.074 A 
ATOM     48  C   UNL A   1      44.395  24.629  28.388  1.00  0.00     0.029 A 
ATOM     49  N   UNL A   1      43.348  23.961  30.231  1.00  0.00    -0.354 N 
ATOM     50  N   UNL A   1      43.955  27.363  31.474  1.00  0.00    -0.248 NA
ATOM     51  C   UNL A   1      44.076  28.470  33.497  1.00  0.00     0.031 C 
ATOM     52  C   UNL A   1      45.013  25.237  29.508  1.00  0.00     0.029 A 
ATOM     53  C   UNL A   1      44.375  24.796  30.657  1.00  0.00     0.049 A 
ATOM     54  H   UNL A   1      42.704  23.519  30.829  1.00  0.00     0.167 HD
ATOM     55  C   UNL A   1      44.339  26.430  32.400  1.00  0.00     0.074 A 
ATOM     56  C   UNL A   1      44.318  27.160  33.656  1.00  0.00     0.031 C 
ATOM     57  C   UNL A   1      44.542  25.115  32.075  1.00  0.00     0.034 A 
BRANCH  44  58
ATOM     58  C   UNL A   1      42.489  21.952  27.265  1.00  0.00     0.023 A 
ATOM     59  C   UNL A   1      41.720  20.800  27.587  1.00  0.00     0.012 A 
ATOM     60  C   UNL A   1      43.433  21.779  26.225  1.00  0.00     0.148 A 
ATOM     61  C   UNL A   1      41.926  19.544  27.012  1.00  0.00     0.002 A 
ATOM     62  C   UNL A   1      43.645  20.512  25.644  1.00  0.00     0.091 A 
ATOM     63  F   UNL A   1      44.127  22.830  25.779  1.00  0.00    -0.205 F 
ATOM     64  C   UNL A   1      42.904  19.394  26.050  1.00  0.00     0.022 A 
BRANCH  62  65
ATOM     65  S   UNL A   1      44.890  20.179  24.381  1.00  0.00     0.127 S 
ATOM     66  O   UNL A   1      44.613  18.781  24.043  1.00  0.00    -0.237 OA
ATOM     67  O   UNL A   1      44.539  21.130  23.325  1.00  0.00    -0.237 OA
ATOM     68  O   UNL A   1      46.185  20.407  25.007  1.00  0.00    -0.744 OA
ENDBRANCH  62  65
ENDBRANCH  44  58
BRANCH  45  69
ATOM     69  C   UNL A   1      41.352  29.666  32.361  1.00  0.00     0.023 A 
ATOM     70  C   UNL A   1      40.745  28.605  33.059  1.00  0.00     0.012 A 
ATOM     71  C   UNL A   1      41.015  30.970  32.767  1.00  0.00     0.148 A 
ATOM     72  C   UNL A   1      40.155  28.853  34.303  1.00  0.00     0.002 A 
ATOM     73  C   UNL A   1      40.490  31.225  34.007  1.00  0.00     0.091 A 
ATOM     74  F   UNL A   1      41.122  31.991  31.921  1.00  0.00    -0.205 F 
ATOM     75  C   UNL A   1      40.124  30.155  34.811  1.00  0.00     0.022 A 
BRANCH  73  76
ATOM     76  S   UNL A   1      40.386  32.939  34.534  1.00  0.00     0.127 S 
ATOM     77  O   UNL A   1      40.116  32.775  35.961  1.00  0.00    -0.237 OA
ATOM     78  O   UNL A   1      41.714  33.455  34.216  1.00  0.00    -0.237 OA
ATOM     79  O   UNL A   1      39.315  33.537  33.752  1.00  0.00    -0.744 OA
ENDBRANCH  73  76
ENDBRANCH  45  69
BRANCH  57  80
ATOM     80  C   UNL A   1      44.983  24.061  33.081  1.00  0.00     0.023 A 
ATOM     81  C   UNL A   1      44.078  23.105  33.590  1.00  0.00     0.012 A 
ATOM     82  C   UNL A   1      46.278  24.049  33.656  1.00  0.00     0.148 A 
ATOM     83  C   UNL A   1      44.441  22.121  34.509  1.00  0.00     0.002 A 
ATOM     84  C   UNL A   1      46.608  23.138  34.658  1.00  0.00     0.091 A 
ATOM     85  F   UNL A   1      47.196  24.937  33.263  1.00  0.00    -0.205 F 
ATOM     86  C   UNL A   1      45.709  22.144  35.054  1.00  0.00     0.022 A 
BRANCH  84  87
ATOM     87  S   UNL A   1      48.120  23.260  35.623  1.00  0.00     0.127 S 
ATOM     88  O   UNL A   1      49.136  23.025  34.594  1.00  0.00    -0.237 OA
ATOM     89  O   UNL A   1      48.063  24.639  36.111  1.00  0.00    -0.237 OA
ATOM     90  O   UNL A   1      48.043  22.234  36.650  1.00  0.00    -0.744 OA
ENDBRANCH  84  87
ENDBRANCH  57  80
ENDBRANCH  31  32
ENDBRANCH  24  26
ENDBRANCH  23  24
ENDBRANCH   1  23
TORSDOF 16
ENDMDL
