MODEL 1
REMARK VINA RESULT:     -13.0      0.000      0.000
REMARK SMILES Cc1ccc(-c2nn(-c3ccccc3)cc2[C@@H]2[NH2+][C@H](C(=O)OCCOC(=O)c3ccc(-c4c5nc(c(-c6cccc(S(=O)(=O)[O-])c6F)c6ccc([nH]6)c(-c6cccc(S(=O)(=O)[O-])c6F)c6nc(c(-c7cccc(S(=O)(=O)[O-])c7F)c7ccc4[nH]7)C=C6)C=C5)cc3)CS2)cc1
REMARK SMILES IDX 24 1 23 2 22 3 20 4 21 5 19 6 17 7 18 8 92 9 91 12 16 13
REMARK SMILES IDX 6 14 7 15 8 16 15 17 5 18 1 19 2 20 3 21 94 22 4 23 93 24
REMARK SMILES IDX 9 25 10 26 14 27 11 28 13 29 12 30 25 31 26 32 27 33 28 34
REMARK SMILES IDX 29 35 90 36 30 37 89 38 31 39 32 40 33 41 83 42 34 43 88 44
REMARK SMILES IDX 82 45 84 46 35 47 87 48 81 49 80 50 36 52 68 53 48 54 67 55
REMARK SMILES IDX 49 56 52 57 66 58 85 59 50 60 51 61 65 63 86 64 53 65 37 66
REMARK SMILES IDX 38 67 46 68 39 69 41 70 47 71 40 72 42 73 43 74 44 75 45 76
REMARK SMILES IDX 69 77 70 78 78 79 71 80 73 81 79 82 72 83 74 84 75 85 76 86
REMARK SMILES IDX 77 87 54 88 55 89 63 90 56 91 58 92 64 93 57 94 59 95 60 96
REMARK SMILES IDX 61 97 62 98
REMARK H PARENT 18 10 18 11 84 51 52 62
REMARK Flexibility Score: inf
ROOT
ATOM      1  C   UNL A   1      37.943  22.129  25.551  1.00  0.00     0.275 C 
ENDROOT
BRANCH   1   2
ATOM      2  C   UNL A   1      37.086  22.175  24.252  1.00  0.00     0.274 C 
BRANCH   2   3
ATOM      3  O   UNL A   1      35.657  22.322  24.343  1.00  0.00    -0.458 OA
BRANCH   3   4
ATOM      4  C   UNL A   1      35.192  23.586  24.377  1.00  0.00     0.365 C 
ATOM      5  O   UNL A   1      35.097  24.272  23.361  1.00  0.00    -0.245 OA
BRANCH   4   6
ATOM      6  C   UNL A   1      34.831  24.128  25.786  1.00  0.00     0.304 C 
ATOM      7  C   UNL A   1      32.469  23.885  26.126  1.00  0.00     0.278 C 
ATOM      8  N   UNL A   1      33.514  24.825  25.684  1.00  0.00    -0.319 N 
ATOM      9  S   UNL A   1      33.114  23.328  27.706  1.00  0.00    -0.087 SA
ATOM     10  H   UNL A   1      33.512  25.651  26.283  1.00  0.00     0.348 HD
ATOM     11  H   UNL A   1      33.342  25.123  24.724  1.00  0.00     0.348 HD
ATOM     12  C   UNL A   1      34.797  23.231  27.031  1.00  0.00     0.153 C 
BRANCH   7  13
ATOM     13  C   UNL A   1      32.304  22.770  25.133  1.00  0.00     0.067 A 
ATOM     14  C   UNL A   1      31.966  22.891  23.759  1.00  0.00     0.103 A 
ATOM     15  N   UNL A   1      32.112  21.733  23.092  1.00  0.00    -0.167 NA
ATOM     16  N   UNL A   1      32.403  20.822  24.064  1.00  0.00    -0.240 N 
ATOM     17  C   UNL A   1      32.347  21.402  25.309  1.00  0.00     0.126 A 
BRANCH  14  18
ATOM     18  C   UNL A   1      31.384  24.102  23.204  1.00  0.00     0.003 A 
ATOM     19  C   UNL A   1      30.236  28.200  22.591  1.00  0.00     0.044 C 
ATOM     20  C   UNL A   1      30.599  26.758  22.770  1.00  0.00    -0.051 A 
ATOM     21  C   UNL A   1      31.686  26.217  22.072  1.00  0.00     0.004 A 
ATOM     22  C   UNL A   1      29.884  25.950  23.659  1.00  0.00     0.004 A 
ATOM     23  C   UNL A   1      32.073  24.891  22.283  1.00  0.00     0.011 A 
ATOM     24  C   UNL A   1      30.272  24.629  23.872  1.00  0.00     0.011 A 
ENDBRANCH  14  18
BRANCH  16  25
ATOM     25  C   UNL A   1      32.822  19.488  23.777  1.00  0.00     0.065 A 
ATOM     26  C   UNL A   1      32.236  18.777  22.723  1.00  0.00     0.028 A 
ATOM     27  C   UNL A   1      33.881  18.902  24.486  1.00  0.00     0.028 A 
ATOM     28  C   UNL A   1      32.750  17.528  22.349  1.00  0.00     0.002 A 
ATOM     29  C   UNL A   1      34.394  17.658  24.109  1.00  0.00     0.002 A 
ATOM     30  C   UNL A   1      33.834  16.977  23.033  1.00  0.00     0.000 A 
ENDBRANCH  16  25
ENDBRANCH   7  13
ENDBRANCH   4   6
ENDBRANCH   3   4
ENDBRANCH   2   3
ENDBRANCH   1   2
BRANCH   1  31
ATOM     31  O   UNL A   1      38.570  23.283  26.215  1.00  0.00    -0.458 OA
BRANCH  31  32
ATOM     32  C   UNL A   1      39.656  23.476  27.013  1.00  0.00     0.338 C 
ATOM     33  O   UNL A   1      40.391  22.569  27.336  1.00  0.00    -0.246 OA
BRANCH  32  34
ATOM     34  C   UNL A   1      39.885  24.847  27.480  1.00  0.00     0.060 A 
ATOM     35  C   UNL A   1      40.285  25.889  26.628  1.00  0.00     0.016 A 
ATOM     36  C   UNL A   1      39.545  25.098  28.787  1.00  0.00     0.016 A 
ATOM     37  C   UNL A   1      40.251  27.208  27.098  1.00  0.00     0.010 A 
ATOM     38  C   UNL A   1      39.160  26.368  29.089  1.00  0.00     0.010 A 
ATOM     39  C   UNL A   1      39.642  27.439  28.325  1.00  0.00    -0.014 A 
BRANCH  39  40
ATOM     40  C   UNL A   1      39.702  28.650  29.139  1.00  0.00     0.031 A 
ATOM     41  C   UNL A   1      38.782  29.779  28.955  1.00  0.00     0.074 A 
ATOM     42  C   UNL A   1      40.439  28.418  30.254  1.00  0.00     0.049 A 
ATOM     43  N   UNL A   1      39.061  31.022  29.140  1.00  0.00    -0.248 NA
ATOM     44  C   UNL A   1      37.407  29.575  28.523  1.00  0.00     0.031 C 
ATOM     45  C   UNL A   1      40.462  29.035  31.558  1.00  0.00     0.029 A 
ATOM     46  N   UNL A   1      41.386  27.384  30.395  1.00  0.00    -0.354 N 
ATOM     47  C   UNL A   1      37.841  31.684  29.216  1.00  0.00     0.074 A 
ATOM     48  C   UNL A   1      36.884  30.805  28.599  1.00  0.00     0.031 C 
ATOM     49  C   UNL A   1      41.576  28.609  32.198  1.00  0.00     0.029 A 
ATOM     50  C   UNL A   1      42.373  27.831  31.243  1.00  0.00     0.049 A 
ATOM     51  H   UNL A   1      41.347  26.499  29.964  1.00  0.00     0.167 HD
ATOM     52  C   UNL A   1      37.681  32.717  30.097  1.00  0.00     0.034 A 
ATOM     53  C   UNL A   1      43.590  28.130  30.687  1.00  0.00     0.034 A 
ATOM     54  C   UNL A   1      38.882  32.790  30.944  1.00  0.00     0.049 A 
ATOM     55  C   UNL A   1      43.823  29.624  30.758  1.00  0.00     0.074 A 
ATOM     56  C   UNL A   1      39.135  32.261  32.199  1.00  0.00     0.029 A 
ATOM     57  N   UNL A   1      40.114  33.122  30.399  1.00  0.00    -0.354 N 
ATOM     58  N   UNL A   1      42.886  30.491  31.019  1.00  0.00    -0.248 NA
ATOM     59  C   UNL A   1      45.111  30.255  30.498  1.00  0.00     0.031 C 
ATOM     60  C   UNL A   1      40.544  32.184  32.360  1.00  0.00     0.029 A 
ATOM     61  C   UNL A   1      41.146  32.671  31.213  1.00  0.00     0.049 A 
ATOM     62  H   UNL A   1      40.239  33.608  29.551  1.00  0.00     0.167 HD
ATOM     63  C   UNL A   1      43.357  31.751  30.825  1.00  0.00     0.074 A 
ATOM     64  C   UNL A   1      44.780  31.554  30.589  1.00  0.00     0.031 C 
ATOM     65  C   UNL A   1      42.532  32.841  30.787  1.00  0.00     0.034 A 
BRANCH  52  66
ATOM     66  C   UNL A   1      36.378  33.407  30.512  1.00  0.00     0.023 A 
ATOM     67  C   UNL A   1      36.015  33.294  31.878  1.00  0.00     0.012 A 
ATOM     68  C   UNL A   1      35.498  34.175  29.710  1.00  0.00     0.148 A 
ATOM     69  C   UNL A   1      34.838  33.828  32.410  1.00  0.00     0.002 A 
ATOM     70  C   UNL A   1      34.301  34.696  30.237  1.00  0.00     0.091 A 
ATOM     71  F   UNL A   1      35.833  34.459  28.446  1.00  0.00    -0.205 F 
ATOM     72  C   UNL A   1      33.969  34.515  31.584  1.00  0.00     0.022 A 
BRANCH  70  73
ATOM     73  S   UNL A   1      33.084  35.600  29.258  1.00  0.00     0.127 S 
ATOM     74  O   UNL A   1      32.533  34.547  28.403  1.00  0.00    -0.237 OA
ATOM     75  O   UNL A   1      32.162  36.093  30.280  1.00  0.00    -0.237 OA
ATOM     76  O   UNL A   1      33.828  36.626  28.539  1.00  0.00    -0.744 OA
ENDBRANCH  70  73
ENDBRANCH  52  66
BRANCH  53  77
ATOM     77  C   UNL A   1      43.952  27.284  29.468  1.00  0.00     0.023 A 
ATOM     78  C   UNL A   1      44.040  25.873  29.637  1.00  0.00     0.012 A 
ATOM     79  C   UNL A   1      43.865  27.776  28.145  1.00  0.00     0.148 A 
ATOM     80  C   UNL A   1      43.900  24.993  28.555  1.00  0.00     0.002 A 
ATOM     81  C   UNL A   1      43.762  26.890  27.065  1.00  0.00     0.091 A 
ATOM     82  F   UNL A   1      43.800  29.098  27.959  1.00  0.00    -0.205 F 
ATOM     83  C   UNL A   1      43.742  25.502  27.272  1.00  0.00     0.022 A 
BRANCH  81  84
ATOM     84  S   UNL A   1      43.627  27.444  25.354  1.00  0.00     0.127 S 
ATOM     85  O   UNL A   1      43.036  26.272  24.709  1.00  0.00    -0.237 OA
ATOM     86  O   UNL A   1      42.731  28.593  25.466  1.00  0.00    -0.237 OA
ATOM     87  O   UNL A   1      44.988  27.746  24.937  1.00  0.00    -0.744 OA
ENDBRANCH  81  84
ENDBRANCH  53  77
BRANCH  65  88
ATOM     88  C   UNL A   1      42.998  34.191  30.325  1.00  0.00     0.023 A 
ATOM     89  C   UNL A   1      43.333  35.207  31.238  1.00  0.00     0.012 A 
ATOM     90  C   UNL A   1      43.236  34.440  28.954  1.00  0.00     0.148 A 
ATOM     91  C   UNL A   1      43.742  36.467  30.807  1.00  0.00     0.002 A 
ATOM     92  C   UNL A   1      43.774  35.650  28.541  1.00  0.00     0.091 A 
ATOM     93  F   UNL A   1      42.923  33.509  28.041  1.00  0.00    -0.205 F 
ATOM     94  C   UNL A   1      43.974  36.686  29.457  1.00  0.00     0.022 A 
BRANCH  92  95
ATOM     95  S   UNL A   1      44.360  35.872  26.861  1.00  0.00     0.127 S 
ATOM     96  O   UNL A   1      44.908  37.225  26.909  1.00  0.00    -0.237 OA
ATOM     97  O   UNL A   1      45.360  34.810  26.735  1.00  0.00    -0.237 OA
ATOM     98  O   UNL A   1      43.186  35.684  26.018  1.00  0.00    -0.744 OA
ENDBRANCH  92  95
ENDBRANCH  65  88
ENDBRANCH  39  40
ENDBRANCH  32  34
ENDBRANCH  31  32
ENDBRANCH   1  31
TORSDOF 17
ENDMDL
MODEL 2
REMARK VINA RESULT:     -12.9      1.590      2.094
REMARK SMILES Cc1ccc(-c2nn(-c3ccccc3)cc2[C@@H]2[NH2+][C@H](C(=O)OCCOC(=O)c3ccc(-c4c5nc(c(-c6cccc(S(=O)(=O)[O-])c6F)c6ccc([nH]6)c(-c6cccc(S(=O)(=O)[O-])c6F)c6nc(c(-c7cccc(S(=O)(=O)[O-])c7F)c7ccc4[nH]7)C=C6)C=C5)cc3)CS2)cc1
REMARK SMILES IDX 24 1 23 2 22 3 20 4 21 5 19 6 17 7 18 8 92 9 91 12 16 13
REMARK SMILES IDX 6 14 7 15 8 16 15 17 5 18 1 19 2 20 3 21 94 22 4 23 93 24
REMARK SMILES IDX 9 25 10 26 14 27 11 28 13 29 12 30 25 31 26 32 27 33 28 34
REMARK SMILES IDX 29 35 90 36 30 37 89 38 31 39 32 40 33 41 83 42 34 43 88 44
REMARK SMILES IDX 82 45 84 46 35 47 87 48 81 49 80 50 36 52 68 53 48 54 67 55
REMARK SMILES IDX 49 56 52 57 66 58 85 59 50 60 51 61 65 63 86 64 53 65 37 66
REMARK SMILES IDX 38 67 46 68 39 69 41 70 47 71 40 72 42 73 43 74 44 75 45 76
REMARK SMILES IDX 69 77 70 78 78 79 71 80 73 81 79 82 72 83 74 84 75 85 76 86
REMARK SMILES IDX 77 87 54 88 55 89 63 90 56 91 58 92 64 93 57 94 59 95 60 96
REMARK SMILES IDX 61 97 62 98
REMARK H PARENT 18 10 18 11 84 51 52 62
REMARK Flexibility Score: inf
ROOT
ATOM      1  C   UNL A   1      38.543  22.300  26.130  1.00  0.00     0.275 C 
ENDROOT
BRANCH   1   2
ATOM      2  C   UNL A   1      37.542  21.721  25.089  1.00  0.00     0.274 C 
BRANCH   2   3
ATOM      3  O   UNL A   1      36.129  21.743  25.365  1.00  0.00    -0.458 OA
BRANCH   3   4
ATOM      4  C   UNL A   1      35.511  22.929  25.196  1.00  0.00     0.365 C 
ATOM      5  O   UNL A   1      35.489  23.502  24.108  1.00  0.00    -0.245 OA
BRANCH   4   6
ATOM      6  C   UNL A   1      34.872  23.538  26.472  1.00  0.00     0.304 C 
ATOM      7  C   UNL A   1      32.491  23.598  26.194  1.00  0.00     0.278 C 
ATOM      8  N   UNL A   1      33.724  24.392  26.047  1.00  0.00    -0.319 N 
ATOM      9  S   UNL A   1      32.636  22.995  27.878  1.00  0.00    -0.087 SA
ATOM     10  H   UNL A   1      33.672  25.223  26.637  1.00  0.00     0.348 HD
ATOM     11  H   UNL A   1      33.841  24.690  25.079  1.00  0.00     0.348 HD
ATOM     12  C   UNL A   1      34.409  22.676  27.655  1.00  0.00     0.153 C 
BRANCH   7  13
ATOM     13  C   UNL A   1      32.447  22.493  25.176  1.00  0.00     0.067 A 
ATOM     14  C   UNL A   1      32.298  22.631  23.770  1.00  0.00     0.103 A 
ATOM     15  N   UNL A   1      32.518  21.477  23.118  1.00  0.00    -0.167 NA
ATOM     16  N   UNL A   1      32.665  20.554  24.111  1.00  0.00    -0.240 N 
ATOM     17  C   UNL A   1      32.450  21.123  25.342  1.00  0.00     0.126 A 
BRANCH  14  18
ATOM     18  C   UNL A   1      31.810  23.854  23.155  1.00  0.00     0.003 A 
ATOM     19  C   UNL A   1      30.710  27.954  22.476  1.00  0.00     0.044 C 
ATOM     20  C   UNL A   1      31.065  26.513  22.671  1.00  0.00    -0.051 A 
ATOM     21  C   UNL A   1      32.283  26.018  22.187  1.00  0.00     0.004 A 
ATOM     22  C   UNL A   1      30.205  25.657  23.367  1.00  0.00     0.004 A 
ATOM     23  C   UNL A   1      32.651  24.691  22.422  1.00  0.00     0.011 A 
ATOM     24  C   UNL A   1      30.574  24.335  23.604  1.00  0.00     0.011 A 
ENDBRANCH  14  18
BRANCH  16  25
ATOM     25  C   UNL A   1      33.102  19.216  23.869  1.00  0.00     0.065 A 
ATOM     26  C   UNL A   1      32.471  18.435  22.893  1.00  0.00     0.028 A 
ATOM     27  C   UNL A   1      34.218  18.695  24.540  1.00  0.00     0.028 A 
ATOM     28  C   UNL A   1      32.996  17.181  22.554  1.00  0.00     0.002 A 
ATOM     29  C   UNL A   1      34.741  17.446  24.197  1.00  0.00     0.002 A 
ATOM     30  C   UNL A   1      34.135  16.693  23.196  1.00  0.00     0.000 A 
ENDBRANCH  16  25
ENDBRANCH   7  13
ENDBRANCH   4   6
ENDBRANCH   3   4
ENDBRANCH   2   3
ENDBRANCH   1   2
BRANCH   1  31
ATOM     31  O   UNL A   1      38.835  23.726  26.349  1.00  0.00    -0.458 OA
BRANCH  31  32
ATOM     32  C   UNL A   1      39.931  24.453  26.699  1.00  0.00     0.338 C 
ATOM     33  O   UNL A   1      41.055  24.111  26.406  1.00  0.00    -0.246 OA
BRANCH  32  34
ATOM     34  C   UNL A   1      39.682  25.675  27.471  1.00  0.00     0.060 A 
ATOM     35  C   UNL A   1      39.205  25.662  28.791  1.00  0.00     0.016 A 
ATOM     36  C   UNL A   1      40.080  26.848  26.878  1.00  0.00     0.016 A 
ATOM     37  C   UNL A   1      39.221  26.849  29.536  1.00  0.00     0.010 A 
ATOM     38  C   UNL A   1      40.439  27.865  27.708  1.00  0.00     0.010 A 
ATOM     39  C   UNL A   1      39.884  27.941  28.992  1.00  0.00    -0.014 A 
BRANCH  39  40
ATOM     40  C   UNL A   1      39.827  29.332  29.434  1.00  0.00     0.031 A 
ATOM     41  C   UNL A   1      38.766  30.257  29.016  1.00  0.00     0.074 A 
ATOM     42  C   UNL A   1      40.635  29.506  30.510  1.00  0.00     0.049 A 
ATOM     43  N   UNL A   1      38.895  31.524  28.830  1.00  0.00    -0.248 NA
ATOM     44  C   UNL A   1      37.410  29.791  28.763  1.00  0.00     0.031 C 
ATOM     45  C   UNL A   1      40.636  30.465  31.587  1.00  0.00     0.029 A 
ATOM     46  N   UNL A   1      41.708  28.662  30.858  1.00  0.00    -0.354 N 
ATOM     47  C   UNL A   1      37.606  32.044  28.813  1.00  0.00     0.074 A 
ATOM     48  C   UNL A   1      36.741  30.928  28.537  1.00  0.00     0.031 C 
ATOM     49  C   UNL A   1      41.821  30.360  32.233  1.00  0.00     0.029 A 
ATOM     50  C   UNL A   1      42.668  29.435  31.471  1.00  0.00     0.049 A 
ATOM     51  H   UNL A   1      41.762  27.693  30.692  1.00  0.00     0.167 HD
ATOM     52  C   UNL A   1      37.356  33.260  29.385  1.00  0.00     0.034 A 
ATOM     53  C   UNL A   1      43.812  29.695  30.763  1.00  0.00     0.034 A 
ATOM     54  C   UNL A   1      38.573  33.700  30.084  1.00  0.00     0.049 A 
ATOM     55  C   UNL A   1      43.860  31.164  30.402  1.00  0.00     0.074 A 
ATOM     56  C   UNL A   1      38.945  33.578  31.414  1.00  0.00     0.029 A 
ATOM     57  N   UNL A   1      39.730  33.994  29.377  1.00  0.00    -0.354 N 
ATOM     58  N   UNL A   1      42.833  31.963  30.484  1.00  0.00    -0.248 NA
ATOM     59  C   UNL A   1      45.046  31.831  29.881  1.00  0.00     0.031 C 
ATOM     60  C   UNL A   1      40.358  33.702  31.482  1.00  0.00     0.029 A 
ATOM     61  C   UNL A   1      40.844  33.907  30.202  1.00  0.00     0.049 A 
ATOM     62  H   UNL A   1      39.756  34.232  28.421  1.00  0.00     0.167 HD
ATOM     63  C   UNL A   1      43.134  33.159  29.916  1.00  0.00     0.074 A 
ATOM     64  C   UNL A   1      44.559  33.059  29.635  1.00  0.00     0.031 C 
ATOM     65  C   UNL A   1      42.178  34.098  29.642  1.00  0.00     0.034 A 
BRANCH  52  66
ATOM     66  C   UNL A   1      35.995  33.894  29.692  1.00  0.00     0.023 A 
ATOM     67  C   UNL A   1      35.283  34.420  28.584  1.00  0.00     0.012 A 
ATOM     68  C   UNL A   1      35.338  33.996  30.943  1.00  0.00     0.148 A 
ATOM     69  C   UNL A   1      34.050  35.069  28.698  1.00  0.00     0.002 A 
ATOM     70  C   UNL A   1      34.106  34.667  31.064  1.00  0.00     0.091 A 
ATOM     71  F   UNL A   1      35.865  33.399  32.018  1.00  0.00    -0.205 F 
ATOM     72  C   UNL A   1      33.467  35.209  29.943  1.00  0.00     0.022 A 
BRANCH  70  73
ATOM     73  S   UNL A   1      33.254  34.922  32.635  1.00  0.00     0.127 S 
ATOM     74  O   UNL A   1      33.154  33.557  33.155  1.00  0.00    -0.237 OA
ATOM     75  O   UNL A   1      34.187  35.780  33.363  1.00  0.00    -0.237 OA
ATOM     76  O   UNL A   1      31.972  35.531  32.303  1.00  0.00    -0.744 OA
ENDBRANCH  70  73
ENDBRANCH  52  66
BRANCH  53  77
ATOM     77  C   UNL A   1      44.225  28.582  29.801  1.00  0.00     0.023 A 
ATOM     78  C   UNL A   1      44.390  27.271  30.328  1.00  0.00     0.012 A 
ATOM     79  C   UNL A   1      44.116  28.710  28.397  1.00  0.00     0.148 A 
ATOM     80  C   UNL A   1      44.303  26.135  29.512  1.00  0.00     0.002 A 
ATOM     81  C   UNL A   1      44.066  27.571  27.584  1.00  0.00     0.091 A 
ATOM     82  F   UNL A   1      43.979  29.934  27.876  1.00  0.00    -0.205 F 
ATOM     83  C   UNL A   1      44.122  26.285  28.143  1.00  0.00     0.022 A 
BRANCH  81  84
ATOM     84  S   UNL A   1      43.907  27.655  25.789  1.00  0.00     0.127 S 
ATOM     85  O   UNL A   1      45.234  28.131  25.398  1.00  0.00    -0.237 OA
ATOM     86  O   UNL A   1      43.630  26.265  25.434  1.00  0.00    -0.237 OA
ATOM     87  O   UNL A   1      42.826  28.595  25.540  1.00  0.00    -0.744 OA
ENDBRANCH  81  84
ENDBRANCH  53  77
BRANCH  65  88
ATOM     88  C   UNL A   1      42.452  35.305  28.792  1.00  0.00     0.023 A 
ATOM     89  C   UNL A   1      42.078  35.352  27.437  1.00  0.00     0.012 A 
ATOM     90  C   UNL A   1      42.984  36.483  29.364  1.00  0.00     0.148 A 
ATOM     91  C   UNL A   1      42.355  36.463  26.643  1.00  0.00     0.002 A 
ATOM     92  C   UNL A   1      43.130  37.632  28.602  1.00  0.00     0.091 A 
ATOM     93  F   UNL A   1      43.368  36.489  30.649  1.00  0.00    -0.205 F 
ATOM     94  C   UNL A   1      42.871  37.610  27.229  1.00  0.00     0.022 A 
BRANCH  92  95
ATOM     95  S   UNL A   1      43.513  39.207  29.371  1.00  0.00     0.127 S 
ATOM     96  O   UNL A   1      44.621  39.684  28.547  1.00  0.00    -0.237 OA
ATOM     97  O   UNL A   1      42.262  39.948  29.205  1.00  0.00    -0.237 OA
ATOM     98  O   UNL A   1      43.834  38.887  30.757  1.00  0.00    -0.744 OA
ENDBRANCH  92  95
ENDBRANCH  65  88
ENDBRANCH  39  40
ENDBRANCH  32  34
ENDBRANCH  31  32
ENDBRANCH   1  31
TORSDOF 17
ENDMDL
MODEL 3
REMARK VINA RESULT:     -12.7      4.185      9.715
REMARK SMILES Cc1ccc(-c2nn(-c3ccccc3)cc2[C@@H]2[NH2+][C@H](C(=O)OCCOC(=O)c3ccc(-c4c5nc(c(-c6cccc(S(=O)(=O)[O-])c6F)c6ccc([nH]6)c(-c6cccc(S(=O)(=O)[O-])c6F)c6nc(c(-c7cccc(S(=O)(=O)[O-])c7F)c7ccc4[nH]7)C=C6)C=C5)cc3)CS2)cc1
REMARK SMILES IDX 24 1 23 2 22 3 20 4 21 5 19 6 17 7 18 8 92 9 91 12 16 13
REMARK SMILES IDX 6 14 7 15 8 16 15 17 5 18 1 19 2 20 3 21 94 22 4 23 93 24
REMARK SMILES IDX 9 25 10 26 14 27 11 28 13 29 12 30 25 31 26 32 27 33 28 34
REMARK SMILES IDX 29 35 90 36 30 37 89 38 31 39 32 40 33 41 83 42 34 43 88 44
REMARK SMILES IDX 82 45 84 46 35 47 87 48 81 49 80 50 36 52 68 53 48 54 67 55
REMARK SMILES IDX 49 56 52 57 66 58 85 59 50 60 51 61 65 63 86 64 53 65 37 66
REMARK SMILES IDX 38 67 46 68 39 69 41 70 47 71 40 72 42 73 43 74 44 75 45 76
REMARK SMILES IDX 69 77 70 78 78 79 71 80 73 81 79 82 72 83 74 84 75 85 76 86
REMARK SMILES IDX 77 87 54 88 55 89 63 90 56 91 58 92 64 93 57 94 59 95 60 96
REMARK SMILES IDX 61 97 62 98
REMARK H PARENT 18 10 18 11 84 51 52 62
REMARK Flexibility Score: inf
ROOT
ATOM      1  C   UNL A   1      33.369  30.226  27.236  1.00  0.00     0.275 C 
ENDROOT
BRANCH   1   2
ATOM      2  C   UNL A   1      32.233  29.164  27.171  1.00  0.00     0.274 C 
BRANCH   2   3
ATOM      3  O   UNL A   1      32.081  28.351  25.993  1.00  0.00    -0.458 OA
BRANCH   3   4
ATOM      4  C   UNL A   1      32.707  27.157  26.013  1.00  0.00     0.365 C 
ATOM      5  O   UNL A   1      32.327  26.235  26.731  1.00  0.00    -0.245 OA
BRANCH   4   6
ATOM      6  C   UNL A   1      33.960  27.045  25.105  1.00  0.00     0.304 C 
ATOM      7  C   UNL A   1      33.347  25.927  23.073  1.00  0.00     0.278 C 
ATOM      8  N   UNL A   1      33.912  25.720  24.419  1.00  0.00    -0.319 N 
ATOM      9  S   UNL A   1      34.362  27.269  22.447  1.00  0.00    -0.087 SA
ATOM     10  H   UNL A   1      34.853  25.333  24.343  1.00  0.00     0.348 HD
ATOM     11  H   UNL A   1      33.336  25.065  24.949  1.00  0.00     0.348 HD
ATOM     12  C   UNL A   1      34.317  28.108  24.057  1.00  0.00     0.153 C 
BRANCH   7  13
ATOM     13  C   UNL A   1      31.890  26.284  23.159  1.00  0.00     0.067 A 
ATOM     14  C   UNL A   1      30.841  25.478  23.676  1.00  0.00     0.103 A 
ATOM     15  N   UNL A   1      29.693  26.162  23.815  1.00  0.00    -0.167 NA
ATOM     16  N   UNL A   1      29.954  27.374  23.250  1.00  0.00    -0.240 N 
ATOM     17  C   UNL A   1      31.212  27.394  22.698  1.00  0.00     0.126 A 
BRANCH  14  18
ATOM     18  C   UNL A   1      30.985  24.045  23.873  1.00  0.00     0.003 A 
ATOM     19  C   UNL A   1      32.650  20.137  24.535  1.00  0.00     0.044 C 
ATOM     20  C   UNL A   1      32.026  21.475  24.289  1.00  0.00    -0.051 A 
ATOM     21  C   UNL A   1      31.464  22.194  25.352  1.00  0.00     0.004 A 
ATOM     22  C   UNL A   1      32.028  22.036  23.008  1.00  0.00     0.004 A 
ATOM     23  C   UNL A   1      30.939  23.472  25.144  1.00  0.00     0.011 A 
ATOM     24  C   UNL A   1      31.508  23.311  22.801  1.00  0.00     0.011 A 
ENDBRANCH  14  18
BRANCH  16  25
ATOM     25  C   UNL A   1      29.062  28.485  23.346  1.00  0.00     0.065 A 
ATOM     26  C   UNL A   1      29.566  29.782  23.500  1.00  0.00     0.028 A 
ATOM     27  C   UNL A   1      27.678  28.306  23.202  1.00  0.00     0.028 A 
ATOM     28  C   UNL A   1      28.699  30.881  23.443  1.00  0.00     0.002 A 
ATOM     29  C   UNL A   1      26.817  29.404  23.143  1.00  0.00     0.002 A 
ATOM     30  C   UNL A   1      27.330  30.693  23.253  1.00  0.00     0.000 A 
ENDBRANCH  16  25
ENDBRANCH   7  13
ENDBRANCH   4   6
ENDBRANCH   3   4
ENDBRANCH   2   3
ENDBRANCH   1   2
BRANCH   1  31
ATOM     31  O   UNL A   1      34.762  29.978  27.642  1.00  0.00    -0.458 OA
BRANCH  31  32
ATOM     32  C   UNL A   1      35.855  30.749  27.895  1.00  0.00     0.338 C 
ATOM     33  O   UNL A   1      35.838  31.955  27.776  1.00  0.00    -0.246 OA
BRANCH  32  34
ATOM     34  C   UNL A   1      37.072  30.040  28.304  1.00  0.00     0.060 A 
ATOM     35  C   UNL A   1      37.144  29.249  29.462  1.00  0.00     0.016 A 
ATOM     36  C   UNL A   1      38.113  30.073  27.409  1.00  0.00     0.016 A 
ATOM     37  C   UNL A   1      38.256  28.420  29.656  1.00  0.00     0.010 A 
ATOM     38  C   UNL A   1      38.966  29.013  27.419  1.00  0.00     0.010 A 
ATOM     39  C   UNL A   1      39.146  28.279  28.599  1.00  0.00    -0.014 A 
BRANCH  39  40
ATOM     40  C   UNL A   1      40.484  27.696  28.629  1.00  0.00     0.031 A 
ATOM     41  C   UNL A   1      40.734  26.264  28.418  1.00  0.00     0.074 A 
ATOM     42  C   UNL A   1      41.415  28.676  28.513  1.00  0.00     0.049 A 
ATOM     43  N   UNL A   1      41.668  25.569  28.967  1.00  0.00    -0.248 NA
ATOM     44  C   UNL A   1      39.900  25.472  27.525  1.00  0.00     0.031 C 
ATOM     45  C   UNL A   1      42.779  28.678  28.043  1.00  0.00     0.029 A 
ATOM     46  N   UNL A   1      41.194  30.037  28.800  1.00  0.00    -0.354 N 
ATOM     47  C   UNL A   1      41.766  24.399  28.222  1.00  0.00     0.074 A 
ATOM     48  C   UNL A   1      40.519  24.285  27.513  1.00  0.00     0.031 C 
ATOM     49  C   UNL A   1      43.338  29.858  28.403  1.00  0.00     0.029 A 
ATOM     50  C   UNL A   1      42.379  30.567  29.257  1.00  0.00     0.049 A 
ATOM     51  H   UNL A   1      40.343  30.522  28.694  1.00  0.00     0.167 HD
ATOM     52  C   UNL A   1      42.992  23.844  27.985  1.00  0.00     0.034 A 
ATOM     53  C   UNL A   1      42.463  30.859  30.594  1.00  0.00     0.034 A 
ATOM     54  C   UNL A   1      44.022  24.774  28.475  1.00  0.00     0.049 A 
ATOM     55  C   UNL A   1      43.441  29.913  31.256  1.00  0.00     0.074 A 
ATOM     56  C   UNL A   1      44.755  25.743  27.807  1.00  0.00     0.029 A 
ATOM     57  N   UNL A   1      44.137  25.055  29.829  1.00  0.00    -0.354 N 
ATOM     58  N   UNL A   1      43.877  28.818  30.700  1.00  0.00    -0.248 NA
ATOM     59  C   UNL A   1      43.963  30.101  32.603  1.00  0.00     0.031 C 
ATOM     60  C   UNL A   1      45.228  26.670  28.774  1.00  0.00     0.029 A 
ATOM     61  C   UNL A   1      44.792  26.264  30.023  1.00  0.00     0.049 A 
ATOM     62  H   UNL A   1      43.799  24.477  30.551  1.00  0.00     0.167 HD
ATOM     63  C   UNL A   1      44.583  28.091  31.605  1.00  0.00     0.074 A 
ATOM     64  C   UNL A   1      44.686  28.979  32.754  1.00  0.00     0.031 C 
ATOM     65  C   UNL A   1      44.950  26.794  31.374  1.00  0.00     0.034 A 
BRANCH  52  66
ATOM     66  C   UNL A   1      43.344  22.721  27.003  1.00  0.00     0.023 A 
ATOM     67  C   UNL A   1      44.234  23.062  25.953  1.00  0.00     0.012 A 
ATOM     68  C   UNL A   1      42.918  21.370  27.027  1.00  0.00     0.148 A 
ATOM     69  C   UNL A   1      44.621  22.168  24.951  1.00  0.00     0.002 A 
ATOM     70  C   UNL A   1      43.289  20.473  26.007  1.00  0.00     0.091 A 
ATOM     71  F   UNL A   1      42.197  20.922  28.061  1.00  0.00    -0.205 F 
ATOM     72  C   UNL A   1      44.134  20.875  24.967  1.00  0.00     0.022 A 
BRANCH  70  73
ATOM     73  S   UNL A   1      42.710  18.766  25.914  1.00  0.00     0.127 S 
ATOM     74  O   UNL A   1      43.009  18.267  27.258  1.00  0.00    -0.237 OA
ATOM     75  O   UNL A   1      41.285  18.932  25.635  1.00  0.00    -0.237 OA
ATOM     76  O   UNL A   1      43.487  18.134  24.854  1.00  0.00    -0.744 OA
ENDBRANCH  70  73
ENDBRANCH  52  66
BRANCH  53  77
ATOM     77  C   UNL A   1      41.140  31.278  31.233  1.00  0.00     0.023 A 
ATOM     78  C   UNL A   1      40.486  32.433  30.717  1.00  0.00     0.012 A 
ATOM     79  C   UNL A   1      40.379  30.409  32.048  1.00  0.00     0.148 A 
ATOM     80  C   UNL A   1      39.109  32.633  30.886  1.00  0.00     0.002 A 
ATOM     81  C   UNL A   1      39.011  30.636  32.242  1.00  0.00     0.091 A 
ATOM     82  F   UNL A   1      40.975  29.327  32.560  1.00  0.00    -0.205 F 
ATOM     83  C   UNL A   1      38.369  31.725  31.632  1.00  0.00     0.022 A 
BRANCH  81  84
ATOM     84  S   UNL A   1      37.973  29.561  33.251  1.00  0.00     0.127 S 
ATOM     85  O   UNL A   1      38.308  30.011  34.602  1.00  0.00    -0.237 OA
ATOM     86  O   UNL A   1      36.627  29.918  32.808  1.00  0.00    -0.237 OA
ATOM     87  O   UNL A   1      38.400  28.206  32.938  1.00  0.00    -0.744 OA
ENDBRANCH  81  84
ENDBRANCH  53  77
BRANCH  65  88
ATOM     88  C   UNL A   1      45.500  25.906  32.452  1.00  0.00     0.023 A 
ATOM     89  C   UNL A   1      46.884  25.739  32.634  1.00  0.00     0.012 A 
ATOM     90  C   UNL A   1      44.639  25.307  33.401  1.00  0.00     0.148 A 
ATOM     91  C   UNL A   1      47.392  24.895  33.620  1.00  0.00     0.002 A 
ATOM     92  C   UNL A   1      45.158  24.581  34.462  1.00  0.00     0.091 A 
ATOM     93  F   UNL A   1      43.310  25.426  33.267  1.00  0.00    -0.205 F 
ATOM     94  C   UNL A   1      46.528  24.324  34.543  1.00  0.00     0.022 A 
BRANCH  92  95
ATOM     95  S   UNL A   1      44.113  24.074  35.829  1.00  0.00     0.127 S 
ATOM     96  O   UNL A   1      45.051  23.329  36.666  1.00  0.00    -0.237 OA
ATOM     97  O   UNL A   1      43.682  25.357  36.386  1.00  0.00    -0.237 OA
ATOM     98  O   UNL A   1      43.038  23.299  35.223  1.00  0.00    -0.744 OA
ENDBRANCH  92  95
ENDBRANCH  65  88
ENDBRANCH  39  40
ENDBRANCH  32  34
ENDBRANCH  31  32
ENDBRANCH   1  31
TORSDOF 17
ENDMDL
