MODEL 1
REMARK VINA RESULT:     -12.5      0.000      0.000
REMARK SMILES Cc1cc2c(c(C)c1Br)C=C(C(=O)OCCOC(=O)c1ccc(-c3c4nc(c(-c5cccc(S(=O)(=O)[O-])c5F)c5ccc([nH]5)c(-c5cccc(S(=O)(=O)[O-])c5F)c5nc(c(-c6cccc(S(=O)(=O)[O-])c6F)c6ccc3[nH]6)C=C5)C=C4)cc1)[C@@H](C(F)(F)F)O2
REMARK SMILES IDX 16 1 15 2 14 3 12 4 13 5 11 6 1 7 2 8 3 9 8 10 4 11 6 12
REMARK SMILES IDX 9 13 5 14 88 15 7 16 10 17 83 18 84 19 85 20 86 21 87 22
REMARK SMILES IDX 17 23 18 24 19 25 20 26 21 27 82 28 22 29 81 30 23 31 24 32
REMARK SMILES IDX 25 33 75 34 26 35 80 36 74 37 76 38 27 39 79 40 73 41 72 42
REMARK SMILES IDX 28 44 60 45 40 46 59 47 41 48 44 49 58 50 77 51 42 52 43 53
REMARK SMILES IDX 57 55 78 56 45 57 29 58 30 59 38 60 31 61 33 62 39 63 32 64
REMARK SMILES IDX 34 65 35 66 36 67 37 68 61 69 62 70 70 71 63 72 65 73 71 74
REMARK SMILES IDX 64 75 66 76 67 77 68 78 69 79 46 80 47 81 55 82 48 83 50 84
REMARK SMILES IDX 56 85 49 86 51 87 52 88 53 89 54 90
REMARK H PARENT 76 43 44 54
REMARK Flexibility Score: inf
ROOT
ATOM      1  C   UNL A   1      36.410  20.541  24.982  1.00  0.00     0.275 C 
ENDROOT
BRANCH   1   2
ATOM      2  C   UNL A   1      35.016  21.144  25.152  1.00  0.00     0.275 C 
BRANCH   2   3
ATOM      3  O   UNL A   1      35.025  22.567  24.905  1.00  0.00    -0.459 OA
BRANCH   3   4
ATOM      4  C   UNL A   1      34.410  23.325  25.842  1.00  0.00     0.338 C 
ATOM      5  O   UNL A   1      34.430  23.147  27.050  1.00  0.00    -0.246 OA
BRANCH   4   6
ATOM      6  C   UNL A   1      33.672  24.437  25.214  1.00  0.00     0.087 C 
ATOM      7  C   UNL A   1      30.138  29.689  23.785  1.00  0.00     0.046 C 
ATOM      8  C   UNL A   1      31.143  28.700  24.315  1.00  0.00    -0.033 A 
ATOM      9  C   UNL A   1      31.216  27.437  23.712  1.00  0.00     0.051 A 
ATOM     10  C   UNL A   1      31.979  28.986  25.413  1.00  0.00     0.024 A 
ATOM     11  C   UNL A   1      32.085  26.461  24.193  1.00  0.00     0.128 A 
ATOM     12  C   UNL A   1      32.884  28.016  25.904  1.00  0.00    -0.026 A 
ATOM     13  Br  UNL A   1      31.840  30.708  26.240  1.00  0.00    -0.050 Br
ATOM     14  C   UNL A   1      32.912  26.734  25.285  1.00  0.00     0.021 A 
ATOM     15  O   UNL A   1      32.062  25.272  23.515  1.00  0.00    -0.475 OA
ATOM     16  C   UNL A   1      33.818  28.303  27.060  1.00  0.00     0.046 C 
ATOM     17  C   UNL A   1      33.755  25.648  25.776  1.00  0.00     0.027 C 
ATOM     18  C   UNL A   1      32.750  24.125  24.078  1.00  0.00     0.316 C 
BRANCH  18  19
ATOM     19  C   UNL A   1      31.714  23.060  24.471  1.00  0.00     0.430 C 
ATOM     20  F   UNL A   1      30.508  23.315  23.906  1.00  0.00    -0.167 F 
ATOM     21  F   UNL A   1      32.078  21.825  24.046  1.00  0.00    -0.167 F 
ATOM     22  F   UNL A   1      31.527  22.990  25.808  1.00  0.00    -0.167 F 
ENDBRANCH  18  19
ENDBRANCH   4   6
ENDBRANCH   3   4
ENDBRANCH   2   3
ENDBRANCH   1   2
BRANCH   1  23
ATOM     23  O   UNL A   1      37.413  21.569  25.055  1.00  0.00    -0.458 OA
BRANCH  23  24
ATOM     24  C   UNL A   1      38.549  21.218  25.699  1.00  0.00     0.338 C 
ATOM     25  O   UNL A   1      39.132  20.148  25.640  1.00  0.00    -0.246 OA
BRANCH  24  26
ATOM     26  C   UNL A   1      39.084  22.368  26.441  1.00  0.00     0.060 A 
ATOM     27  C   UNL A   1      38.552  23.623  26.180  1.00  0.00     0.016 A 
ATOM     28  C   UNL A   1      40.230  22.247  27.223  1.00  0.00     0.016 A 
ATOM     29  C   UNL A   1      39.258  24.763  26.545  1.00  0.00     0.010 A 
ATOM     30  C   UNL A   1      40.849  23.402  27.722  1.00  0.00     0.010 A 
ATOM     31  C   UNL A   1      40.413  24.682  27.336  1.00  0.00    -0.014 A 
BRANCH  31  32
ATOM     32  C   UNL A   1      41.159  25.925  27.715  1.00  0.00     0.031 A 
ATOM     33  C   UNL A   1      40.506  26.983  28.578  1.00  0.00     0.074 A 
ATOM     34  C   UNL A   1      42.438  26.106  27.316  1.00  0.00     0.049 A 
ATOM     35  N   UNL A   1      40.919  28.195  28.851  1.00  0.00    -0.248 NA
ATOM     36  C   UNL A   1      39.214  26.646  29.203  1.00  0.00     0.031 C 
ATOM     37  C   UNL A   1      43.219  25.161  26.513  1.00  0.00     0.029 A 
ATOM     38  N   UNL A   1      43.316  27.142  27.536  1.00  0.00    -0.354 N 
ATOM     39  C   UNL A   1      39.908  28.788  29.604  1.00  0.00     0.074 A 
ATOM     40  C   UNL A   1      38.862  27.802  29.751  1.00  0.00     0.031 C 
ATOM     41  C   UNL A   1      44.468  25.623  26.367  1.00  0.00     0.029 A 
ATOM     42  C   UNL A   1      44.547  26.957  26.944  1.00  0.00     0.049 A 
ATOM     43  H   UNL A   1      43.087  27.939  28.066  1.00  0.00     0.167 HD
ATOM     44  C   UNL A   1      39.863  30.035  30.133  1.00  0.00     0.034 A 
ATOM     45  C   UNL A   1      45.607  27.780  26.818  1.00  0.00     0.034 A 
ATOM     46  C   UNL A   1      40.945  30.980  30.060  1.00  0.00     0.049 A 
ATOM     47  C   UNL A   1      45.519  29.165  27.391  1.00  0.00     0.074 A 
ATOM     48  C   UNL A   1      41.002  32.260  30.584  1.00  0.00     0.029 A 
ATOM     49  N   UNL A   1      42.167  30.746  29.449  1.00  0.00    -0.354 N 
ATOM     50  N   UNL A   1      44.552  29.707  28.091  1.00  0.00    -0.248 NA
ATOM     51  C   UNL A   1      46.665  30.055  27.158  1.00  0.00     0.031 C 
ATOM     52  C   UNL A   1      42.248  32.808  30.269  1.00  0.00     0.029 A 
ATOM     53  C   UNL A   1      42.982  31.858  29.580  1.00  0.00     0.049 A 
ATOM     54  H   UNL A   1      42.420  29.912  28.990  1.00  0.00     0.167 HD
ATOM     55  C   UNL A   1      44.980  30.991  28.399  1.00  0.00     0.074 A 
ATOM     56  C   UNL A   1      46.308  31.136  27.838  1.00  0.00     0.031 C 
ATOM     57  C   UNL A   1      44.323  31.970  29.066  1.00  0.00     0.034 A 
BRANCH  44  58
ATOM     58  C   UNL A   1      38.620  30.461  30.876  1.00  0.00     0.023 A 
ATOM     59  C   UNL A   1      38.556  30.324  32.276  1.00  0.00     0.012 A 
ATOM     60  C   UNL A   1      37.566  31.113  30.198  1.00  0.00     0.148 A 
ATOM     61  C   UNL A   1      37.458  30.809  32.989  1.00  0.00     0.002 A 
ATOM     62  C   UNL A   1      36.500  31.638  30.920  1.00  0.00     0.091 A 
ATOM     63  F   UNL A   1      37.639  31.224  28.865  1.00  0.00    -0.205 F 
ATOM     64  C   UNL A   1      36.440  31.478  32.314  1.00  0.00     0.022 A 
BRANCH  62  65
ATOM     65  S   UNL A   1      35.184  32.597  30.159  1.00  0.00     0.127 S 
ATOM     66  O   UNL A   1      34.264  32.777  31.281  1.00  0.00    -0.237 OA
ATOM     67  O   UNL A   1      35.890  33.811  29.748  1.00  0.00    -0.237 OA
ATOM     68  O   UNL A   1      34.673  31.785  29.063  1.00  0.00    -0.744 OA
ENDBRANCH  62  65
ENDBRANCH  44  58
BRANCH  45  69
ATOM     69  C   UNL A   1      46.838  27.311  26.114  1.00  0.00     0.023 A 
ATOM     70  C   UNL A   1      47.024  27.635  24.756  1.00  0.00     0.012 A 
ATOM     71  C   UNL A   1      47.845  26.592  26.789  1.00  0.00     0.148 A 
ATOM     72  C   UNL A   1      48.181  27.239  24.082  1.00  0.00     0.002 A 
ATOM     73  C   UNL A   1      49.027  26.267  26.132  1.00  0.00     0.091 A 
ATOM     74  F   UNL A   1      47.642  26.266  28.074  1.00  0.00    -0.205 F 
ATOM     75  C   UNL A   1      49.189  26.572  24.773  1.00  0.00     0.022 A 
BRANCH  73  76
ATOM     76  S   UNL A   1      50.438  25.559  26.990  1.00  0.00     0.127 S 
ATOM     77  O   UNL A   1      51.383  25.357  25.895  1.00  0.00    -0.237 OA
ATOM     78  O   UNL A   1      50.793  26.630  27.922  1.00  0.00    -0.237 OA
ATOM     79  O   UNL A   1      49.942  24.349  27.631  1.00  0.00    -0.744 OA
ENDBRANCH  73  76
ENDBRANCH  45  69
BRANCH  57  80
ATOM     80  C   UNL A   1      45.030  33.286  29.261  1.00  0.00     0.023 A 
ATOM     81  C   UNL A   1      45.847  33.478  30.392  1.00  0.00     0.012 A 
ATOM     82  C   UNL A   1      44.968  34.286  28.270  1.00  0.00     0.148 A 
ATOM     83  C   UNL A   1      46.574  34.658  30.546  1.00  0.00     0.002 A 
ATOM     84  C   UNL A   1      45.738  35.435  28.405  1.00  0.00     0.091 A 
ATOM     85  F   UNL A   1      44.172  34.088  27.210  1.00  0.00    -0.205 F 
ATOM     86  C   UNL A   1      46.531  35.628  29.548  1.00  0.00     0.022 A 
BRANCH  84  87
ATOM     87  S   UNL A   1      45.835  36.690  27.124  1.00  0.00     0.127 S 
ATOM     88  O   UNL A   1      46.856  37.588  27.663  1.00  0.00    -0.237 OA
ATOM     89  O   UNL A   1      46.259  35.911  25.961  1.00  0.00    -0.237 OA
ATOM     90  O   UNL A   1      44.499  37.262  27.017  1.00  0.00    -0.744 OA
ENDBRANCH  84  87
ENDBRANCH  57  80
ENDBRANCH  31  32
ENDBRANCH  24  26
ENDBRANCH  23  24
ENDBRANCH   1  23
TORSDOF 15
ENDMDL
MODEL 2
REMARK VINA RESULT:     -12.4      1.767      2.195
REMARK SMILES Cc1cc2c(c(C)c1Br)C=C(C(=O)OCCOC(=O)c1ccc(-c3c4nc(c(-c5cccc(S(=O)(=O)[O-])c5F)c5ccc([nH]5)c(-c5cccc(S(=O)(=O)[O-])c5F)c5nc(c(-c6cccc(S(=O)(=O)[O-])c6F)c6ccc3[nH]6)C=C5)C=C4)cc1)[C@@H](C(F)(F)F)O2
REMARK SMILES IDX 16 1 15 2 14 3 12 4 13 5 11 6 1 7 2 8 3 9 8 10 4 11 6 12
REMARK SMILES IDX 9 13 5 14 88 15 7 16 10 17 83 18 84 19 85 20 86 21 87 22
REMARK SMILES IDX 17 23 18 24 19 25 20 26 21 27 82 28 22 29 81 30 23 31 24 32
REMARK SMILES IDX 25 33 75 34 26 35 80 36 74 37 76 38 27 39 79 40 73 41 72 42
REMARK SMILES IDX 28 44 60 45 40 46 59 47 41 48 44 49 58 50 77 51 42 52 43 53
REMARK SMILES IDX 57 55 78 56 45 57 29 58 30 59 38 60 31 61 33 62 39 63 32 64
REMARK SMILES IDX 34 65 35 66 36 67 37 68 61 69 62 70 70 71 63 72 65 73 71 74
REMARK SMILES IDX 64 75 66 76 67 77 68 78 69 79 46 80 47 81 55 82 48 83 50 84
REMARK SMILES IDX 56 85 49 86 51 87 52 88 53 89 54 90
REMARK H PARENT 76 43 44 54
REMARK Flexibility Score: inf
ROOT
ATOM      1  C   UNL A   1      37.124  20.297  24.625  1.00  0.00     0.275 C 
ENDROOT
BRANCH   1   2
ATOM      2  C   UNL A   1      35.682  20.353  25.132  1.00  0.00     0.275 C 
BRANCH   2   3
ATOM      3  O   UNL A   1      34.909  21.338  24.411  1.00  0.00    -0.459 OA
BRANCH   3   4
ATOM      4  C   UNL A   1      33.569  21.268  24.584  1.00  0.00     0.338 C 
ATOM      5  O   UNL A   1      32.862  20.289  24.399  1.00  0.00    -0.246 OA
BRANCH   4   6
ATOM      6  C   UNL A   1      33.031  22.566  25.034  1.00  0.00     0.087 C 
ATOM      7  C   UNL A   1      31.884  28.779  26.513  1.00  0.00     0.046 C 
ATOM      8  C   UNL A   1      32.203  27.468  25.844  1.00  0.00    -0.033 A 
ATOM      9  C   UNL A   1      31.929  26.282  26.537  1.00  0.00     0.051 A 
ATOM     10  C   UNL A   1      32.802  27.396  24.570  1.00  0.00     0.024 A 
ATOM     11  C   UNL A   1      32.253  25.041  25.995  1.00  0.00     0.128 A 
ATOM     12  C   UNL A   1      33.121  26.145  23.991  1.00  0.00    -0.026 A 
ATOM     13  Br  UNL A   1      33.196  29.031  23.654  1.00  0.00    -0.050 Br
ATOM     14  C   UNL A   1      32.853  24.961  24.736  1.00  0.00     0.021 A 
ATOM     15  O   UNL A   1      31.931  23.961  26.771  1.00  0.00    -0.475 OA
ATOM     16  C   UNL A   1      33.732  26.032  22.612  1.00  0.00     0.046 C 
ATOM     17  C   UNL A   1      33.222  23.634  24.252  1.00  0.00     0.027 C 
ATOM     18  C   UNL A   1      32.437  22.651  26.404  1.00  0.00     0.316 C 
BRANCH  18  19
ATOM     19  C   UNL A   1      33.431  22.178  27.477  1.00  0.00     0.430 C 
ATOM     20  F   UNL A   1      34.657  22.724  27.287  1.00  0.00    -0.167 F 
ATOM     21  F   UNL A   1      33.039  22.548  28.721  1.00  0.00    -0.167 F 
ATOM     22  F   UNL A   1      33.584  20.835  27.483  1.00  0.00    -0.167 F 
ENDBRANCH  18  19
ENDBRANCH   4   6
ENDBRANCH   3   4
ENDBRANCH   2   3
ENDBRANCH   1   2
BRANCH   1  23
ATOM     23  O   UNL A   1      37.863  21.439  25.091  1.00  0.00    -0.458 OA
BRANCH  23  24
ATOM     24  C   UNL A   1      38.948  21.151  25.845  1.00  0.00     0.338 C 
ATOM     25  O   UNL A   1      39.557  20.095  25.891  1.00  0.00    -0.246 OA
BRANCH  24  26
ATOM     26  C   UNL A   1      39.394  22.351  26.566  1.00  0.00     0.060 A 
ATOM     27  C   UNL A   1      38.876  23.580  26.182  1.00  0.00     0.016 A 
ATOM     28  C   UNL A   1      40.460  22.295  27.461  1.00  0.00     0.016 A 
ATOM     29  C   UNL A   1      39.530  24.751  26.545  1.00  0.00     0.010 A 
ATOM     30  C   UNL A   1      41.014  23.487  27.949  1.00  0.00     0.010 A 
ATOM     31  C   UNL A   1      40.602  24.735  27.448  1.00  0.00    -0.014 A 
BRANCH  31  32
ATOM     32  C   UNL A   1      41.293  26.011  27.824  1.00  0.00     0.031 A 
ATOM     33  C   UNL A   1      40.585  27.052  28.664  1.00  0.00     0.074 A 
ATOM     34  C   UNL A   1      42.570  26.238  27.442  1.00  0.00     0.049 A 
ATOM     35  N   UNL A   1      40.946  28.282  28.930  1.00  0.00    -0.248 NA
ATOM     36  C   UNL A   1      39.299  26.671  29.273  1.00  0.00     0.031 C 
ATOM     37  C   UNL A   1      43.401  25.316  26.662  1.00  0.00     0.029 A 
ATOM     38  N   UNL A   1      43.403  27.310  27.663  1.00  0.00    -0.354 N 
ATOM     39  C   UNL A   1      39.902  28.843  29.660  1.00  0.00     0.074 A 
ATOM     40  C   UNL A   1      38.892  27.818  29.803  1.00  0.00     0.031 C 
ATOM     41  C   UNL A   1      44.632  25.824  26.531  1.00  0.00     0.029 A 
ATOM     42  C   UNL A   1      44.649  27.167  27.092  1.00  0.00     0.049 A 
ATOM     43  H   UNL A   1      43.135  28.103  28.181  1.00  0.00     0.167 HD
ATOM     44  C   UNL A   1      39.799  30.093  30.174  1.00  0.00     0.034 A 
ATOM     45  C   UNL A   1      45.678  28.030  26.973  1.00  0.00     0.034 A 
ATOM     46  C   UNL A   1      40.845  31.080  30.106  1.00  0.00     0.049 A 
ATOM     47  C   UNL A   1      45.528  29.417  27.529  1.00  0.00     0.074 A 
ATOM     48  C   UNL A   1      40.843  32.366  30.616  1.00  0.00     0.029 A 
ATOM     49  N   UNL A   1      42.084  30.887  29.517  1.00  0.00    -0.354 N 
ATOM     50  N   UNL A   1      44.529  29.927  28.207  1.00  0.00    -0.248 NA
ATOM     51  C   UNL A   1      46.641  30.348  27.303  1.00  0.00     0.031 C 
ATOM     52  C   UNL A   1      42.071  32.960  30.314  1.00  0.00     0.029 A 
ATOM     53  C   UNL A   1      42.853  32.032  29.647  1.00  0.00     0.049 A 
ATOM     54  H   UNL A   1      42.376  30.058  29.072  1.00  0.00     0.167 HD
ATOM     55  C   UNL A   1      44.901  31.231  28.507  1.00  0.00     0.074 A 
ATOM     56  C   UNL A   1      46.231  31.422  27.964  1.00  0.00     0.031 C 
ATOM     57  C   UNL A   1      44.196  32.191  29.152  1.00  0.00     0.034 A 
BRANCH  44  58
ATOM     58  C   UNL A   1      38.529  30.478  30.893  1.00  0.00     0.023 A 
ATOM     59  C   UNL A   1      38.402  30.236  32.275  1.00  0.00     0.012 A 
ATOM     60  C   UNL A   1      37.512  31.193  30.222  1.00  0.00     0.148 A 
ATOM     61  C   UNL A   1      37.278  30.681  32.974  1.00  0.00     0.002 A 
ATOM     62  C   UNL A   1      36.421  31.676  30.935  1.00  0.00     0.091 A 
ATOM     63  F   UNL A   1      37.645  31.404  28.905  1.00  0.00    -0.205 F 
ATOM     64  C   UNL A   1      36.298  31.412  32.309  1.00  0.00     0.022 A 
BRANCH  62  65
ATOM     65  S   UNL A   1      35.149  32.708  30.193  1.00  0.00     0.127 S 
ATOM     66  O   UNL A   1      34.617  31.823  29.159  1.00  0.00    -0.237 OA
ATOM     67  O   UNL A   1      34.247  32.939  31.322  1.00  0.00    -0.237 OA
ATOM     68  O   UNL A   1      35.831  33.897  29.700  1.00  0.00    -0.744 OA
ENDBRANCH  62  65
ENDBRANCH  44  58
BRANCH  45  69
ATOM     69  C   UNL A   1      46.938  27.602  26.293  1.00  0.00     0.023 A 
ATOM     70  C   UNL A   1      47.890  26.853  27.011  1.00  0.00     0.012 A 
ATOM     71  C   UNL A   1      47.176  27.887  24.933  1.00  0.00     0.148 A 
ATOM     72  C   UNL A   1      49.061  26.410  26.391  1.00  0.00     0.002 A 
ATOM     73  C   UNL A   1      48.307  27.379  24.304  1.00  0.00     0.091 A 
ATOM     74  F   UNL A   1      46.274  28.625  24.270  1.00  0.00    -0.205 F 
ATOM     75  C   UNL A   1      49.260  26.657  25.036  1.00  0.00     0.022 A 
BRANCH  73  76
ATOM     76  S   UNL A   1      48.557  27.508  22.529  1.00  0.00     0.127 S 
ATOM     77  O   UNL A   1      47.390  28.286  22.119  1.00  0.00    -0.237 OA
ATOM     78  O   UNL A   1      49.832  28.222  22.456  1.00  0.00    -0.237 OA
ATOM     79  O   UNL A   1      48.610  26.138  22.039  1.00  0.00    -0.744 OA
ENDBRANCH  73  76
ENDBRANCH  45  69
BRANCH  57  80
ATOM     80  C   UNL A   1      44.847  33.535  29.343  1.00  0.00     0.023 A 
ATOM     81  C   UNL A   1      45.761  33.725  30.397  1.00  0.00     0.012 A 
ATOM     82  C   UNL A   1      44.634  34.573  28.413  1.00  0.00     0.148 A 
ATOM     83  C   UNL A   1      46.436  34.937  30.539  1.00  0.00     0.002 A 
ATOM     84  C   UNL A   1      45.352  35.758  28.529  1.00  0.00     0.091 A 
ATOM     85  F   UNL A   1      43.748  34.375  27.426  1.00  0.00    -0.205 F 
ATOM     86  C   UNL A   1      46.243  35.945  29.598  1.00  0.00     0.022 A 
BRANCH  84  87
ATOM     87  S   UNL A   1      45.253  37.071  27.308  1.00  0.00     0.127 S 
ATOM     88  O   UNL A   1      45.688  38.232  28.084  1.00  0.00    -0.237 OA
ATOM     89  O   UNL A   1      46.208  36.622  26.296  1.00  0.00    -0.237 OA
ATOM     90  O   UNL A   1      43.866  37.106  26.862  1.00  0.00    -0.744 OA
ENDBRANCH  84  87
ENDBRANCH  57  80
ENDBRANCH  31  32
ENDBRANCH  24  26
ENDBRANCH  23  24
ENDBRANCH   1  23
TORSDOF 15
ENDMDL
MODEL 3
REMARK VINA RESULT:     -12.4      4.835      9.920
REMARK SMILES Cc1cc2c(c(C)c1Br)C=C(C(=O)OCCOC(=O)c1ccc(-c3c4nc(c(-c5cccc(S(=O)(=O)[O-])c5F)c5ccc([nH]5)c(-c5cccc(S(=O)(=O)[O-])c5F)c5nc(c(-c6cccc(S(=O)(=O)[O-])c6F)c6ccc3[nH]6)C=C5)C=C4)cc1)[C@@H](C(F)(F)F)O2
REMARK SMILES IDX 16 1 15 2 14 3 12 4 13 5 11 6 1 7 2 8 3 9 8 10 4 11 6 12
REMARK SMILES IDX 9 13 5 14 88 15 7 16 10 17 83 18 84 19 85 20 86 21 87 22
REMARK SMILES IDX 17 23 18 24 19 25 20 26 21 27 82 28 22 29 81 30 23 31 24 32
REMARK SMILES IDX 25 33 75 34 26 35 80 36 74 37 76 38 27 39 79 40 73 41 72 42
REMARK SMILES IDX 28 44 60 45 40 46 59 47 41 48 44 49 58 50 77 51 42 52 43 53
REMARK SMILES IDX 57 55 78 56 45 57 29 58 30 59 38 60 31 61 33 62 39 63 32 64
REMARK SMILES IDX 34 65 35 66 36 67 37 68 61 69 62 70 70 71 63 72 65 73 71 74
REMARK SMILES IDX 64 75 66 76 67 77 68 78 69 79 46 80 47 81 55 82 48 83 50 84
REMARK SMILES IDX 56 85 49 86 51 87 52 88 53 89 54 90
REMARK H PARENT 76 43 44 54
REMARK Flexibility Score: inf
ROOT
ATOM      1  C   UNL A   1      31.643  30.124  25.399  1.00  0.00     0.275 C 
ENDROOT
BRANCH   1   2
ATOM      2  C   UNL A   1      31.390  28.729  24.826  1.00  0.00     0.275 C 
BRANCH   2   3
ATOM      3  O   UNL A   1      32.280  27.752  25.411  1.00  0.00    -0.459 OA
BRANCH   3   4
ATOM      4  C   UNL A   1      33.151  27.171  24.554  1.00  0.00     0.338 C 
ATOM      5  O   UNL A   1      33.834  27.739  23.716  1.00  0.00    -0.246 OA
BRANCH   4   6
ATOM      6  C   UNL A   1      33.181  25.709  24.749  1.00  0.00     0.087 C 
ATOM      7  C   UNL A   1      34.423  19.340  24.731  1.00  0.00     0.046 C 
ATOM      8  C   UNL A   1      34.476  20.841  24.833  1.00  0.00    -0.033 A 
ATOM      9  C   UNL A   1      33.268  21.553  24.818  1.00  0.00     0.051 A 
ATOM     10  C   UNL A   1      35.691  21.553  24.902  1.00  0.00     0.024 A 
ATOM     11  C   UNL A   1      33.254  22.945  24.852  1.00  0.00     0.128 A 
ATOM     12  C   UNL A   1      35.699  22.966  24.959  1.00  0.00    -0.026 A 
ATOM     13  Br  UNL A   1      37.329  20.561  24.891  1.00  0.00    -0.050 Br
ATOM     14  C   UNL A   1      34.455  23.658  24.913  1.00  0.00     0.021 A 
ATOM     15  O   UNL A   1      32.012  23.518  24.834  1.00  0.00    -0.475 OA
ATOM     16  C   UNL A   1      36.984  23.757  25.067  1.00  0.00     0.046 C 
ATOM     17  C   UNL A   1      34.372  25.115  24.886  1.00  0.00     0.027 C 
ATOM     18  C   UNL A   1      31.898  24.951  24.630  1.00  0.00     0.316 C 
BRANCH  18  19
ATOM     19  C   UNL A   1      31.214  25.213  23.279  1.00  0.00     0.430 C 
ATOM     20  F   UNL A   1      32.126  25.436  22.301  1.00  0.00    -0.167 F 
ATOM     21  F   UNL A   1      30.478  24.149  22.875  1.00  0.00    -0.167 F 
ATOM     22  F   UNL A   1      30.391  26.285  23.315  1.00  0.00    -0.167 F 
ENDBRANCH  18  19
ENDBRANCH   4   6
ENDBRANCH   3   4
ENDBRANCH   2   3
ENDBRANCH   1   2
BRANCH   1  23
ATOM     23  O   UNL A   1      32.390  30.035  26.624  1.00  0.00    -0.458 OA
BRANCH  23  24
ATOM     24  C   UNL A   1      32.936  31.197  27.049  1.00  0.00     0.338 C 
ATOM     25  O   UNL A   1      32.376  32.273  27.177  1.00  0.00    -0.246 OA
BRANCH  24  26
ATOM     26  C   UNL A   1      34.332  30.980  27.454  1.00  0.00     0.060 A 
ATOM     27  C   UNL A   1      34.773  29.675  27.620  1.00  0.00     0.016 A 
ATOM     28  C   UNL A   1      35.131  32.043  27.868  1.00  0.00     0.016 A 
ATOM     29  C   UNL A   1      35.923  29.422  28.357  1.00  0.00     0.010 A 
ATOM     30  C   UNL A   1      36.369  31.780  28.472  1.00  0.00     0.010 A 
ATOM     31  C   UNL A   1      36.756  30.465  28.787  1.00  0.00    -0.014 A 
BRANCH  31  32
ATOM     32  C   UNL A   1      37.991  30.169  29.583  1.00  0.00     0.031 A 
ATOM     33  C   UNL A   1      39.089  29.301  29.007  1.00  0.00     0.074 A 
ATOM     34  C   UNL A   1      38.155  30.695  30.817  1.00  0.00     0.049 A 
ATOM     35  N   UNL A   1      40.132  28.785  29.606  1.00  0.00    -0.248 NA
ATOM     36  C   UNL A   1      38.999  28.952  27.578  1.00  0.00     0.031 C 
ATOM     37  C   UNL A   1      37.205  31.581  31.496  1.00  0.00     0.029 A 
ATOM     38  N   UNL A   1      39.183  30.574  31.723  1.00  0.00    -0.354 N 
ATOM     39  C   UNL A   1      40.771  27.991  28.657  1.00  0.00     0.074 A 
ATOM     40  C   UNL A   1      40.002  28.096  27.437  1.00  0.00     0.031 C 
ATOM     41  C   UNL A   1      37.719  31.975  32.668  1.00  0.00     0.029 A 
ATOM     42  C   UNL A   1      38.970  31.267  32.895  1.00  0.00     0.049 A 
ATOM     43  H   UNL A   1      39.994  30.043  31.550  1.00  0.00     0.167 HD
ATOM     44  C   UNL A   1      41.900  27.252  28.787  1.00  0.00     0.034 A 
ATOM     45  C   UNL A   1      39.662  31.294  34.052  1.00  0.00     0.034 A 
ATOM     46  C   UNL A   1      42.711  27.223  29.975  1.00  0.00     0.049 A 
ATOM     47  C   UNL A   1      40.895  30.446  34.177  1.00  0.00     0.074 A 
ATOM     48  C   UNL A   1      43.884  26.523  30.196  1.00  0.00     0.029 A 
ATOM     49  N   UNL A   1      42.452  27.940  31.133  1.00  0.00    -0.354 N 
ATOM     50  N   UNL A   1      41.475  29.697  33.270  1.00  0.00    -0.248 NA
ATOM     51  C   UNL A   1      41.569  30.442  35.482  1.00  0.00     0.031 C 
ATOM     52  C   UNL A   1      44.321  26.797  31.494  1.00  0.00     0.029 A 
ATOM     53  C   UNL A   1      43.440  27.695  32.072  1.00  0.00     0.049 A 
ATOM     54  H   UNL A   1      41.679  28.536  31.269  1.00  0.00     0.167 HD
ATOM     55  C   UNL A   1      42.592  29.151  33.888  1.00  0.00     0.074 A 
ATOM     56  C   UNL A   1      42.626  29.679  35.236  1.00  0.00     0.031 C 
ATOM     57  C   UNL A   1      43.494  28.271  33.390  1.00  0.00     0.034 A 
BRANCH  44  58
ATOM     58  C   UNL A   1      42.367  26.430  27.610  1.00  0.00     0.023 A 
ATOM     59  C   UNL A   1      43.320  26.958  26.717  1.00  0.00     0.012 A 
ATOM     60  C   UNL A   1      41.953  25.088  27.462  1.00  0.00     0.148 A 
ATOM     61  C   UNL A   1      43.840  26.173  25.686  1.00  0.00     0.002 A 
ATOM     62  C   UNL A   1      42.512  24.298  26.464  1.00  0.00     0.091 A 
ATOM     63  F   UNL A   1      41.037  24.606  28.313  1.00  0.00    -0.205 F 
ATOM     64  C   UNL A   1      43.448  24.842  25.569  1.00  0.00     0.022 A 
BRANCH  62  65
ATOM     65  S   UNL A   1      42.147  22.547  26.285  1.00  0.00     0.127 S 
ATOM     66  O   UNL A   1      42.759  21.994  27.492  1.00  0.00    -0.237 OA
ATOM     67  O   UNL A   1      40.685  22.538  26.283  1.00  0.00    -0.237 OA
ATOM     68  O   UNL A   1      42.764  22.132  25.032  1.00  0.00    -0.744 OA
ENDBRANCH  62  65
ENDBRANCH  44  58
BRANCH  45  69
ATOM     69  C   UNL A   1      39.195  32.152  35.182  1.00  0.00     0.023 A 
ATOM     70  C   UNL A   1      38.285  31.627  36.119  1.00  0.00     0.012 A 
ATOM     71  C   UNL A   1      39.682  33.463  35.363  1.00  0.00     0.148 A 
ATOM     72  C   UNL A   1      37.858  32.395  37.204  1.00  0.00     0.002 A 
ATOM     73  C   UNL A   1      39.311  34.193  36.486  1.00  0.00     0.091 A 
ATOM     74  F   UNL A   1      40.526  33.960  34.447  1.00  0.00    -0.205 F 
ATOM     75  C   UNL A   1      38.385  33.669  37.398  1.00  0.00     0.022 A 
BRANCH  73  76
ATOM     76  S   UNL A   1      40.068  35.771  36.897  1.00  0.00     0.127 S 
ATOM     77  O   UNL A   1      39.677  36.596  35.756  1.00  0.00    -0.237 OA
ATOM     78  O   UNL A   1      39.402  36.105  38.157  1.00  0.00    -0.237 OA
ATOM     79  O   UNL A   1      41.493  35.502  37.027  1.00  0.00    -0.744 OA
ENDBRANCH  73  76
ENDBRANCH  45  69
BRANCH  57  80
ATOM     80  C   UNL A   1      44.622  27.837  34.288  1.00  0.00     0.023 A 
ATOM     81  C   UNL A   1      45.812  28.590  34.329  1.00  0.00     0.012 A 
ATOM     82  C   UNL A   1      44.459  26.747  35.168  1.00  0.00     0.148 A 
ATOM     83  C   UNL A   1      46.833  28.251  35.215  1.00  0.00     0.002 A 
ATOM     84  C   UNL A   1      45.460  26.449  36.085  1.00  0.00     0.091 A 
ATOM     85  F   UNL A   1      43.325  26.036  35.100  1.00  0.00    -0.205 F 
ATOM     86  C   UNL A   1      46.652  27.192  36.102  1.00  0.00     0.022 A 
BRANCH  84  87
ATOM     87  S   UNL A   1      45.274  25.176  37.338  1.00  0.00     0.127 S 
ATOM     88  O   UNL A   1      45.138  23.971  36.521  1.00  0.00    -0.237 OA
ATOM     89  O   UNL A   1      46.537  25.278  38.069  1.00  0.00    -0.237 OA
ATOM     90  O   UNL A   1      44.094  25.538  38.111  1.00  0.00    -0.744 OA
ENDBRANCH  84  87
ENDBRANCH  57  80
ENDBRANCH  31  32
ENDBRANCH  24  26
ENDBRANCH  23  24
ENDBRANCH   1  23
TORSDOF 15
ENDMDL
