MODEL 1
REMARK VINA RESULT:     -11.3      0.000      0.000
REMARK SMILES O=C(CC1(C[S@](=O)C[C@H]2Cc3ccccc3S2)CC1)OCCOC(=O)c1ccc(-c2c3nc(c(-c4cccc(S(=O)(=O)[O-])c4F)c4ccc([nH]4)c(-c4cccc(S(=O)(=O)[O-])c4F)c4nc(c(-c5cccc(S(=O)(=O)[O-])c5F)c5ccc2[nH]5)C=C4)C=C3)cc1
REMARK SMILES IDX 21 1 20 2 2 3 1 4 3 5 4 6 18 7 19 8 5 9 6 10 7 11 8 12 9 13
REMARK SMILES IDX 10 14 17 15 11 16 16 17 12 18 15 19 13 20 14 21 22 22 23 23
REMARK SMILES IDX 24 24 25 25 26 26 27 27 88 28 28 29 87 30 29 31 30 32 31 33
REMARK SMILES IDX 81 34 32 35 86 36 80 37 82 38 33 39 85 40 79 41 78 42 34 44
REMARK SMILES IDX 66 45 46 46 65 47 47 48 50 49 64 50 83 51 48 52 49 53 63 55
REMARK SMILES IDX 84 56 51 57 35 58 36 59 44 60 37 61 39 62 45 63 38 64 40 65
REMARK SMILES IDX 41 66 42 67 43 68 67 69 68 70 76 71 69 72 71 73 77 74 70 75
REMARK SMILES IDX 72 76 73 77 74 78 75 79 52 80 53 81 61 82 54 83 56 84 62 85
REMARK SMILES IDX 55 86 57 87 58 88 59 89 60 90
REMARK H PARENT 82 43 50 54
REMARK Flexibility Score: inf
ROOT
ATOM      1  C   UNL A   1      36.206  20.354  24.999  1.00  0.00     0.274 C 
ENDROOT
BRANCH   1   2
ATOM      2  O   UNL A   1      35.636  21.459  25.728  1.00  0.00    -0.462 OA
BRANCH   2   3
ATOM      3  C   UNL A   1      34.438  21.436  26.359  1.00  0.00     0.306 C 
ATOM      4  O   UNL A   1      34.352  21.839  27.517  1.00  0.00    -0.252 OA
BRANCH   3   5
ATOM      5  C   UNL A   1      33.245  20.845  25.642  1.00  0.00     0.130 C 
BRANCH   5   6
ATOM      6  C   UNL A   1      32.495  21.782  24.718  1.00  0.00    -0.008 C 
ATOM      7  C   UNL A   1      33.300  22.703  23.818  1.00  0.00     0.009 C 
ATOM      8  C   UNL A   1      32.629  21.498  23.228  1.00  0.00     0.009 C 
BRANCH   6   9
ATOM      9  C   UNL A   1      31.123  22.226  25.210  1.00  0.00     0.112 C 
BRANCH   9  10
ATOM     10  S   UNL A   1      31.358  23.458  26.497  1.00  0.00     0.023 S 
ATOM     11  O   UNL A   1      30.414  23.190  27.625  1.00  0.00    -0.260 OA
BRANCH  10  12
ATOM     12  C   UNL A   1      31.017  25.021  25.681  1.00  0.00     0.120 C 
BRANCH  12  13
ATOM     13  C   UNL A   1      32.121  25.943  25.144  1.00  0.00     0.068 C 
ATOM     14  C   UNL A   1      32.009  26.207  23.626  1.00  0.00     0.052 C 
ATOM     15  S   UNL A   1      32.308  27.593  25.898  1.00  0.00    -0.121 SA
ATOM     16  C   UNL A   1      31.306  27.521  23.468  1.00  0.00    -0.033 A 
ATOM     17  C   UNL A   1      31.404  28.354  24.585  1.00  0.00     0.011 A 
ATOM     18  C   UNL A   1      30.603  27.928  22.342  1.00  0.00     0.005 A 
ATOM     19  C   UNL A   1      30.756  29.575  24.626  1.00  0.00     0.015 A 
ATOM     20  C   UNL A   1      29.946  29.160  22.373  1.00  0.00     0.000 A 
ATOM     21  C   UNL A   1      30.012  29.974  23.513  1.00  0.00     0.001 A 
ENDBRANCH  12  13
ENDBRANCH  10  12
ENDBRANCH   9  10
ENDBRANCH   6   9
ENDBRANCH   5   6
ENDBRANCH   3   5
ENDBRANCH   2   3
ENDBRANCH   1   2
BRANCH   1  22
ATOM     22  C   UNL A   1      37.737  20.392  24.990  1.00  0.00     0.275 C 
BRANCH  22  23
ATOM     23  O   UNL A   1      38.246  21.538  25.701  1.00  0.00    -0.458 OA
BRANCH  23  24
ATOM     24  C   UNL A   1      39.455  21.380  26.306  1.00  0.00     0.338 C 
ATOM     25  O   UNL A   1      40.124  20.360  26.303  1.00  0.00    -0.246 OA
BRANCH  24  26
ATOM     26  C   UNL A   1      39.944  22.687  26.825  1.00  0.00     0.060 A 
ATOM     27  C   UNL A   1      40.953  22.778  27.790  1.00  0.00     0.016 A 
ATOM     28  C   UNL A   1      39.327  23.858  26.361  1.00  0.00     0.016 A 
ATOM     29  C   UNL A   1      41.354  24.035  28.268  1.00  0.00     0.010 A 
ATOM     30  C   UNL A   1      39.726  25.111  26.842  1.00  0.00     0.010 A 
ATOM     31  C   UNL A   1      40.757  25.213  27.787  1.00  0.00    -0.014 A 
BRANCH  31  32
ATOM     32  C   UNL A   1      41.351  26.538  28.121  1.00  0.00     0.031 A 
ATOM     33  C   UNL A   1      42.767  26.913  27.794  1.00  0.00     0.074 A 
ATOM     34  C   UNL A   1      40.577  27.420  28.778  1.00  0.00     0.049 A 
ATOM     35  N   UNL A   1      43.386  28.054  27.958  1.00  0.00    -0.248 NA
ATOM     36  C   UNL A   1      43.602  25.864  27.218  1.00  0.00     0.031 C 
ATOM     37  C   UNL A   1      39.207  27.167  29.222  1.00  0.00     0.029 A 
ATOM     38  N   UNL A   1      40.839  28.699  29.193  1.00  0.00    -0.354 N 
ATOM     39  C   UNL A   1      44.686  27.854  27.499  1.00  0.00     0.074 A 
ATOM     40  C   UNL A   1      44.774  26.473  27.079  1.00  0.00     0.031 C 
ATOM     41  C   UNL A   1      38.745  28.259  29.850  1.00  0.00     0.029 A 
ATOM     42  C   UNL A   1      39.787  29.284  29.852  1.00  0.00     0.049 A 
ATOM     43  H   UNL A   1      41.697  29.153  29.035  1.00  0.00     0.167 HD
ATOM     44  C   UNL A   1      45.698  28.751  27.404  1.00  0.00     0.034 A 
ATOM     45  C   UNL A   1      39.664  30.513  30.387  1.00  0.00     0.034 A 
ATOM     46  C   UNL A   1      45.592  30.134  27.789  1.00  0.00     0.049 A 
ATOM     47  C   UNL A   1      40.785  31.500  30.253  1.00  0.00     0.074 A 
ATOM     48  C   UNL A   1      46.530  31.141  27.638  1.00  0.00     0.029 A 
ATOM     49  N   UNL A   1      44.492  30.701  28.409  1.00  0.00    -0.354 N 
ATOM     50  N   UNL A   1      41.941  31.353  29.654  1.00  0.00    -0.248 NA
ATOM     51  C   UNL A   1      40.573  32.834  30.834  1.00  0.00     0.031 C 
ATOM     52  C   UNL A   1      46.003  32.316  28.180  1.00  0.00     0.029 A 
ATOM     53  C   UNL A   1      44.733  32.040  28.662  1.00  0.00     0.049 A 
ATOM     54  H   UNL A   1      43.662  30.224  28.634  1.00  0.00     0.167 HD
ATOM     55  C   UNL A   1      42.586  32.577  29.768  1.00  0.00     0.074 A 
ATOM     56  C   UNL A   1      41.688  33.461  30.481  1.00  0.00     0.031 C 
ATOM     57  C   UNL A   1      43.820  32.928  29.331  1.00  0.00     0.034 A 
BRANCH  44  58
ATOM     58  C   UNL A   1      46.997  28.317  26.777  1.00  0.00     0.023 A 
ATOM     59  C   UNL A   1      48.013  27.814  27.613  1.00  0.00     0.012 A 
ATOM     60  C   UNL A   1      47.147  28.237  25.378  1.00  0.00     0.148 A 
ATOM     61  C   UNL A   1      49.160  27.235  27.069  1.00  0.00     0.002 A 
ATOM     62  C   UNL A   1      48.281  27.635  24.841  1.00  0.00     0.091 A 
ATOM     63  F   UNL A   1      46.164  28.718  24.603  1.00  0.00    -0.205 F 
ATOM     64  C   UNL A   1      49.287  27.136  25.685  1.00  0.00     0.022 A 
BRANCH  62  65
ATOM     65  S   UNL A   1      48.515  27.385  23.076  1.00  0.00     0.127 S 
ATOM     66  O   UNL A   1      49.880  27.873  22.881  1.00  0.00    -0.237 OA
ATOM     67  O   UNL A   1      48.365  25.935  22.950  1.00  0.00    -0.237 OA
ATOM     68  O   UNL A   1      47.483  28.169  22.413  1.00  0.00    -0.744 OA
ENDBRANCH  62  65
ENDBRANCH  44  58
BRANCH  45  69
ATOM     69  C   UNL A   1      38.371  30.885  31.015  1.00  0.00     0.023 A 
ATOM     70  C   UNL A   1      38.206  30.700  32.400  1.00  0.00     0.012 A 
ATOM     71  C   UNL A   1      37.360  31.521  30.269  1.00  0.00     0.148 A 
ATOM     72  C   UNL A   1      37.045  31.140  33.034  1.00  0.00     0.002 A 
ATOM     73  C   UNL A   1      36.226  31.993  30.916  1.00  0.00     0.091 A 
ATOM     74  F   UNL A   1      37.550  31.681  28.953  1.00  0.00    -0.205 F 
ATOM     75  C   UNL A   1      36.063  31.795  32.297  1.00  0.00     0.022 A 
BRANCH  73  76
ATOM     76  S   UNL A   1      34.966  32.954  30.073  1.00  0.00     0.127 S 
ATOM     77  O   UNL A   1      35.760  34.022  29.470  1.00  0.00    -0.237 OA
ATOM     78  O   UNL A   1      34.427  31.977  29.125  1.00  0.00    -0.237 OA
ATOM     79  O   UNL A   1      34.029  33.371  31.106  1.00  0.00    -0.744 OA
ENDBRANCH  73  76
ENDBRANCH  45  69
BRANCH  57  80
ATOM     80  C   UNL A   1      44.299  34.327  29.605  1.00  0.00     0.023 A 
ATOM     81  C   UNL A   1      45.041  34.577  30.775  1.00  0.00     0.012 A 
ATOM     82  C   UNL A   1      44.129  35.350  28.653  1.00  0.00     0.148 A 
ATOM     83  C   UNL A   1      45.602  35.833  30.999  1.00  0.00     0.002 A 
ATOM     84  C   UNL A   1      44.718  36.591  28.869  1.00  0.00     0.091 A 
ATOM     85  F   UNL A   1      43.413  35.086  27.552  1.00  0.00    -0.205 F 
ATOM     86  C   UNL A   1      45.451  36.835  30.043  1.00  0.00     0.022 A 
BRANCH  84  87
ATOM     87  S   UNL A   1      44.639  37.927  27.669  1.00  0.00     0.127 S 
ATOM     88  O   UNL A   1      45.421  38.970  28.334  1.00  0.00    -0.237 OA
ATOM     89  O   UNL A   1      45.287  37.331  26.501  1.00  0.00    -0.237 OA
ATOM     90  O   UNL A   1      43.226  38.232  27.493  1.00  0.00    -0.744 OA
ENDBRANCH  84  87
ENDBRANCH  57  80
ENDBRANCH  31  32
ENDBRANCH  24  26
ENDBRANCH  23  24
ENDBRANCH  22  23
ENDBRANCH   1  22
TORSDOF 19
ENDMDL
MODEL 2
REMARK VINA RESULT:     -11.2      5.022     10.419
REMARK SMILES O=C(CC1(C[S@](=O)C[C@H]2Cc3ccccc3S2)CC1)OCCOC(=O)c1ccc(-c2c3nc(c(-c4cccc(S(=O)(=O)[O-])c4F)c4ccc([nH]4)c(-c4cccc(S(=O)(=O)[O-])c4F)c4nc(c(-c5cccc(S(=O)(=O)[O-])c5F)c5ccc2[nH]5)C=C4)C=C3)cc1
REMARK SMILES IDX 21 1 20 2 2 3 1 4 3 5 4 6 18 7 19 8 5 9 6 10 7 11 8 12 9 13
REMARK SMILES IDX 10 14 17 15 11 16 16 17 12 18 15 19 13 20 14 21 22 22 23 23
REMARK SMILES IDX 24 24 25 25 26 26 27 27 88 28 28 29 87 30 29 31 30 32 31 33
REMARK SMILES IDX 81 34 32 35 86 36 80 37 82 38 33 39 85 40 79 41 78 42 34 44
REMARK SMILES IDX 66 45 46 46 65 47 47 48 50 49 64 50 83 51 48 52 49 53 63 55
REMARK SMILES IDX 84 56 51 57 35 58 36 59 44 60 37 61 39 62 45 63 38 64 40 65
REMARK SMILES IDX 41 66 42 67 43 68 67 69 68 70 76 71 69 72 71 73 77 74 70 75
REMARK SMILES IDX 72 76 73 77 74 78 75 79 52 80 53 81 61 82 54 83 56 84 62 85
REMARK SMILES IDX 55 86 57 87 58 88 59 89 60 90
REMARK H PARENT 82 43 50 54
REMARK Flexibility Score: inf
ROOT
ATOM      1  C   UNL A   1      31.389  30.068  25.565  1.00  0.00     0.274 C 
ENDROOT
BRANCH   1   2
ATOM      2  O   UNL A   1      32.454  29.584  24.722  1.00  0.00    -0.462 OA
BRANCH   2   3
ATOM      3  C   UNL A   1      32.277  28.916  23.558  1.00  0.00     0.306 C 
ATOM      4  O   UNL A   1      33.237  28.726  22.813  1.00  0.00    -0.252 OA
BRANCH   3   5
ATOM      5  C   UNL A   1      30.882  28.480  23.169  1.00  0.00     0.130 C 
BRANCH   5   6
ATOM      6  C   UNL A   1      30.506  27.057  23.532  1.00  0.00    -0.008 C 
ATOM      7  C   UNL A   1      29.963  26.789  24.924  1.00  0.00     0.009 C 
ATOM      8  C   UNL A   1      29.022  26.798  23.757  1.00  0.00     0.009 C 
BRANCH   6   9
ATOM      9  C   UNL A   1      31.291  25.969  22.811  1.00  0.00     0.112 C 
BRANCH   9  10
ATOM     10  S   UNL A   1      32.314  25.119  24.020  1.00  0.00     0.023 S 
ATOM     11  O   UNL A   1      33.757  25.376  23.723  1.00  0.00    -0.260 OA
BRANCH  10  12
ATOM     12  C   UNL A   1      31.879  23.387  23.828  1.00  0.00     0.120 C 
BRANCH  12  13
ATOM     13  C   UNL A   1      32.523  22.266  24.655  1.00  0.00     0.068 C 
ATOM     14  C   UNL A   1      33.715  21.590  23.941  1.00  0.00     0.052 C 
ATOM     15  S   UNL A   1      33.140  22.671  26.322  1.00  0.00    -0.121 SA
ATOM     16  C   UNL A   1      34.958  22.233  24.475  1.00  0.00    -0.033 A 
ATOM     17  C   UNL A   1      34.797  22.821  25.731  1.00  0.00     0.011 A 
ATOM     18  C   UNL A   1      36.185  22.276  23.825  1.00  0.00     0.005 A 
ATOM     19  C   UNL A   1      35.831  23.514  26.335  1.00  0.00     0.015 A 
ATOM     20  C   UNL A   1      37.235  22.973  24.427  1.00  0.00     0.000 A 
ATOM     21  C   UNL A   1      37.056  23.598  25.669  1.00  0.00     0.001 A 
ENDBRANCH  12  13
ENDBRANCH  10  12
ENDBRANCH   9  10
ENDBRANCH   6   9
ENDBRANCH   5   6
ENDBRANCH   3   5
ENDBRANCH   2   3
ENDBRANCH   1   2
BRANCH   1  22
ATOM     22  C   UNL A   1      31.811  31.285  26.392  1.00  0.00     0.275 C 
BRANCH  22  23
ATOM     23  O   UNL A   1      32.922  30.982  27.259  1.00  0.00    -0.458 OA
BRANCH  23  24
ATOM     24  C   UNL A   1      33.702  32.036  27.625  1.00  0.00     0.338 C 
ATOM     25  O   UNL A   1      33.345  33.201  27.677  1.00  0.00    -0.246 OA
BRANCH  24  26
ATOM     26  C   UNL A   1      35.016  31.551  28.132  1.00  0.00     0.060 A 
ATOM     27  C   UNL A   1      36.116  32.401  28.293  1.00  0.00     0.016 A 
ATOM     28  C   UNL A   1      35.157  30.182  28.405  1.00  0.00     0.016 A 
ATOM     29  C   UNL A   1      37.339  31.884  28.745  1.00  0.00     0.010 A 
ATOM     30  C   UNL A   1      36.380  29.669  28.853  1.00  0.00     0.010 A 
ATOM     31  C   UNL A   1      37.479  30.518  29.045  1.00  0.00    -0.014 A 
BRANCH  31  32
ATOM     32  C   UNL A   1      38.700  30.031  29.745  1.00  0.00     0.031 A 
ATOM     33  C   UNL A   1      39.126  30.522  31.098  1.00  0.00     0.074 A 
ATOM     34  C   UNL A   1      39.468  29.130  29.107  1.00  0.00     0.049 A 
ATOM     35  N   UNL A   1      40.120  30.129  31.853  1.00  0.00    -0.248 NA
ATOM     36  C   UNL A   1      38.338  31.606  31.676  1.00  0.00     0.031 C 
ATOM     37  C   UNL A   1      39.216  28.618  27.760  1.00  0.00     0.029 A 
ATOM     38  N   UNL A   1      40.618  28.500  29.502  1.00  0.00    -0.354 N 
ATOM     39  C   UNL A   1      40.069  30.922  32.998  1.00  0.00     0.074 A 
ATOM     40  C   UNL A   1      38.965  31.839  32.823  1.00  0.00     0.031 C 
ATOM     41  C   UNL A   1      40.185  27.747  27.440  1.00  0.00     0.029 A 
ATOM     42  C   UNL A   1      41.123  27.644  28.556  1.00  0.00     0.049 A 
ATOM     43  H   UNL A   1      41.040  28.646  30.378  1.00  0.00     0.167 HD
ATOM     44  C   UNL A   1      40.850  30.863  34.103  1.00  0.00     0.034 A 
ATOM     45  C   UNL A   1      42.211  26.852  28.584  1.00  0.00     0.034 A 
ATOM     46  C   UNL A   1      41.924  29.922  34.287  1.00  0.00     0.049 A 
ATOM     47  C   UNL A   1      43.050  26.782  29.824  1.00  0.00     0.074 A 
ATOM     48  C   UNL A   1      42.705  29.720  35.412  1.00  0.00     0.029 A 
ATOM     49  N   UNL A   1      42.375  29.037  33.323  1.00  0.00    -0.354 N 
ATOM     50  N   UNL A   1      42.883  27.404  30.965  1.00  0.00    -0.248 NA
ATOM     51  C   UNL A   1      44.207  25.875  29.797  1.00  0.00     0.031 C 
ATOM     52  C   UNL A   1      43.640  28.722  35.123  1.00  0.00     0.029 A 
ATOM     53  C   UNL A   1      43.434  28.298  33.820  1.00  0.00     0.049 A 
ATOM     54  H   UNL A   1      41.997  28.947  32.418  1.00  0.00     0.167 HD
ATOM     55  C   UNL A   1      43.897  26.950  31.797  1.00  0.00     0.074 A 
ATOM     56  C   UNL A   1      44.668  25.990  31.036  1.00  0.00     0.031 C 
ATOM     57  C   UNL A   1      44.170  27.312  33.074  1.00  0.00     0.034 A 
BRANCH  44  58
ATOM     58  C   UNL A   1      40.536  31.771  35.264  1.00  0.00     0.023 A 
ATOM     59  C   UNL A   1      41.227  32.993  35.369  1.00  0.00     0.012 A 
ATOM     60  C   UNL A   1      39.456  31.508  36.131  1.00  0.00     0.148 A 
ATOM     61  C   UNL A   1      40.850  33.944  36.317  1.00  0.00     0.002 A 
ATOM     62  C   UNL A   1      39.067  32.471  37.057  1.00  0.00     0.091 A 
ATOM     63  F   UNL A   1      38.810  30.339  36.009  1.00  0.00    -0.205 F 
ATOM     64  C   UNL A   1      39.764  33.688  37.151  1.00  0.00     0.022 A 
BRANCH  62  65
ATOM     65  S   UNL A   1      37.637  32.280  38.129  1.00  0.00     0.127 S 
ATOM     66  O   UNL A   1      38.129  32.834  39.390  1.00  0.00    -0.237 OA
ATOM     67  O   UNL A   1      36.635  33.105  37.454  1.00  0.00    -0.237 OA
ATOM     68  O   UNL A   1      37.340  30.854  38.160  1.00  0.00    -0.744 OA
ENDBRANCH  62  65
ENDBRANCH  44  58
BRANCH  45  69
ATOM     69  C   UNL A   1      42.491  25.993  27.406  1.00  0.00     0.023 A 
ATOM     70  C   UNL A   1      43.302  26.494  26.371  1.00  0.00     0.012 A 
ATOM     71  C   UNL A   1      42.053  24.656  27.364  1.00  0.00     0.148 A 
ATOM     72  C   UNL A   1      43.671  25.675  25.306  1.00  0.00     0.002 A 
ATOM     73  C   UNL A   1      42.459  23.834  26.321  1.00  0.00     0.091 A 
ATOM     74  F   UNL A   1      41.281  24.210  28.364  1.00  0.00    -0.205 F 
ATOM     75  C   UNL A   1      43.260  24.345  25.287  1.00  0.00     0.022 A 
BRANCH  73  76
ATOM     76  S   UNL A   1      42.082  22.080  26.273  1.00  0.00     0.127 S 
ATOM     77  O   UNL A   1      40.642  22.092  26.024  1.00  0.00    -0.237 OA
ATOM     78  O   UNL A   1      42.899  21.628  25.146  1.00  0.00    -0.237 OA
ATOM     79  O   UNL A   1      42.493  21.551  27.566  1.00  0.00    -0.744 OA
ENDBRANCH  73  76
ENDBRANCH  45  69
BRANCH  57  80
ATOM     80  C   UNL A   1      45.354  26.682  33.754  1.00  0.00     0.023 A 
ATOM     81  C   UNL A   1      46.587  27.364  33.747  1.00  0.00     0.012 A 
ATOM     82  C   UNL A   1      45.217  25.495  34.498  1.00  0.00     0.148 A 
ATOM     83  C   UNL A   1      47.671  26.867  34.468  1.00  0.00     0.002 A 
ATOM     84  C   UNL A   1      46.293  25.022  35.240  1.00  0.00     0.091 A 
ATOM     85  F   UNL A   1      44.034  24.864  34.481  1.00  0.00    -0.205 F 
ATOM     86  C   UNL A   1      47.522  25.705  35.222  1.00  0.00     0.022 A 
BRANCH  84  87
ATOM     87  S   UNL A   1      46.185  23.574  36.297  1.00  0.00     0.127 S 
ATOM     88  O   UNL A   1      45.108  23.953  37.212  1.00  0.00    -0.237 OA
ATOM     89  O   UNL A   1      45.833  22.522  35.345  1.00  0.00    -0.237 OA
ATOM     90  O   UNL A   1      47.495  23.423  36.915  1.00  0.00    -0.744 OA
ENDBRANCH  84  87
ENDBRANCH  57  80
ENDBRANCH  31  32
ENDBRANCH  24  26
ENDBRANCH  23  24
ENDBRANCH  22  23
ENDBRANCH   1  22
TORSDOF 19
ENDMDL
MODEL 3
REMARK VINA RESULT:     -11.0      0.996      7.610
REMARK SMILES O=C(CC1(C[S@](=O)C[C@H]2Cc3ccccc3S2)CC1)OCCOC(=O)c1ccc(-c2c3nc(c(-c4cccc(S(=O)(=O)[O-])c4F)c4ccc([nH]4)c(-c4cccc(S(=O)(=O)[O-])c4F)c4nc(c(-c5cccc(S(=O)(=O)[O-])c5F)c5ccc2[nH]5)C=C4)C=C3)cc1
REMARK SMILES IDX 21 1 20 2 2 3 1 4 3 5 4 6 18 7 19 8 5 9 6 10 7 11 8 12 9 13
REMARK SMILES IDX 10 14 17 15 11 16 16 17 12 18 15 19 13 20 14 21 22 22 23 23
REMARK SMILES IDX 24 24 25 25 26 26 27 27 88 28 28 29 87 30 29 31 30 32 31 33
REMARK SMILES IDX 81 34 32 35 86 36 80 37 82 38 33 39 85 40 79 41 78 42 34 44
REMARK SMILES IDX 66 45 46 46 65 47 47 48 50 49 64 50 83 51 48 52 49 53 63 55
REMARK SMILES IDX 84 56 51 57 35 58 36 59 44 60 37 61 39 62 45 63 38 64 40 65
REMARK SMILES IDX 41 66 42 67 43 68 67 69 68 70 76 71 69 72 71 73 77 74 70 75
REMARK SMILES IDX 72 76 73 77 74 78 75 79 52 80 53 81 61 82 54 83 56 84 62 85
REMARK SMILES IDX 55 86 57 87 58 88 59 89 60 90
REMARK H PARENT 82 43 50 54
REMARK Flexibility Score: inf
ROOT
ATOM      1  C   UNL A   1      35.946  21.366  25.599  1.00  0.00     0.274 C 
ENDROOT
BRANCH   1   2
ATOM      2  O   UNL A   1      34.660  20.773  25.329  1.00  0.00    -0.462 OA
BRANCH   2   3
ATOM      3  C   UNL A   1      33.481  21.437  25.352  1.00  0.00     0.306 C 
ATOM      4  O   UNL A   1      32.889  21.591  26.419  1.00  0.00    -0.252 OA
BRANCH   3   5
ATOM      5  C   UNL A   1      32.884  21.914  24.046  1.00  0.00     0.130 C 
BRANCH   5   6
ATOM      6  C   UNL A   1      32.654  23.406  23.928  1.00  0.00    -0.008 C 
ATOM      7  C   UNL A   1      33.864  24.324  23.937  1.00  0.00     0.009 C 
ATOM      8  C   UNL A   1      33.151  24.057  22.644  1.00  0.00     0.009 C 
BRANCH   6   9
ATOM      9  C   UNL A   1      31.327  23.910  24.482  1.00  0.00     0.112 C 
BRANCH   9  10
ATOM     10  S   UNL A   1      31.673  24.980  25.885  1.00  0.00     0.023 S 
ATOM     11  O   UNL A   1      31.023  24.423  27.111  1.00  0.00    -0.260 OA
BRANCH  10  12
ATOM     12  C   UNL A   1      30.983  26.568  25.410  1.00  0.00     0.120 C 
BRANCH  12  13
ATOM     13  C   UNL A   1      31.301  27.253  24.073  1.00  0.00     0.068 C 
ATOM     14  C   UNL A   1      30.150  27.151  23.048  1.00  0.00     0.052 C 
ATOM     15  S   UNL A   1      31.758  29.018  24.097  1.00  0.00    -0.121 SA
ATOM     16  C   UNL A   1      29.382  28.435  23.133  1.00  0.00    -0.033 A 
ATOM     17  C   UNL A   1      30.120  29.502  23.649  1.00  0.00     0.011 A 
ATOM     18  C   UNL A   1      28.058  28.607  22.754  1.00  0.00     0.005 A 
ATOM     19  C   UNL A   1      29.538  30.741  23.854  1.00  0.00     0.015 A 
ATOM     20  C   UNL A   1      27.462  29.854  22.956  1.00  0.00     0.000 A 
ATOM     21  C   UNL A   1      28.195  30.912  23.514  1.00  0.00     0.001 A 
ENDBRANCH  12  13
ENDBRANCH  10  12
ENDBRANCH   9  10
ENDBRANCH   6   9
ENDBRANCH   5   6
ENDBRANCH   3   5
ENDBRANCH   2   3
ENDBRANCH   1   2
BRANCH   1  22
ATOM     22  C   UNL A   1      37.101  20.523  25.050  1.00  0.00     0.275 C 
BRANCH  22  23
ATOM     23  O   UNL A   1      38.332  21.269  25.004  1.00  0.00    -0.458 OA
BRANCH  23  24
ATOM     24  C   UNL A   1      39.191  21.074  26.042  1.00  0.00     0.338 C 
ATOM     25  O   UNL A   1      39.623  19.995  26.414  1.00  0.00    -0.246 OA
BRANCH  24  26
ATOM     26  C   UNL A   1      39.682  22.382  26.555  1.00  0.00     0.060 A 
ATOM     27  C   UNL A   1      40.703  22.477  27.509  1.00  0.00     0.016 A 
ATOM     28  C   UNL A   1      39.055  23.551  26.099  1.00  0.00     0.016 A 
ATOM     29  C   UNL A   1      41.105  23.734  27.981  1.00  0.00     0.010 A 
ATOM     30  C   UNL A   1      39.456  24.806  26.575  1.00  0.00     0.010 A 
ATOM     31  C   UNL A   1      40.498  24.911  27.508  1.00  0.00    -0.014 A 
BRANCH  31  32
ATOM     32  C   UNL A   1      41.092  26.237  27.835  1.00  0.00     0.031 A 
ATOM     33  C   UNL A   1      40.324  27.343  28.499  1.00  0.00     0.074 A 
ATOM     34  C   UNL A   1      42.371  26.453  27.482  1.00  0.00     0.049 A 
ATOM     35  N   UNL A   1      40.737  28.515  28.910  1.00  0.00    -0.248 NA
ATOM     36  C   UNL A   1      38.901  27.106  28.722  1.00  0.00     0.031 C 
ATOM     37  C   UNL A   1      43.217  25.496  26.768  1.00  0.00     0.029 A 
ATOM     38  N   UNL A   1      43.175  27.546  27.667  1.00  0.00    -0.354 N 
ATOM     39  C   UNL A   1      39.617  29.151  29.443  1.00  0.00     0.074 A 
ATOM     40  C   UNL A   1      38.502  28.246  29.274  1.00  0.00     0.031 C 
ATOM     41  C   UNL A   1      44.425  26.046  26.575  1.00  0.00     0.029 A 
ATOM     42  C   UNL A   1      44.436  27.389  27.149  1.00  0.00     0.049 A 
ATOM     43  H   UNL A   1      42.878  28.364  28.125  1.00  0.00     0.167 HD
ATOM     44  C   UNL A   1      39.539  30.361  30.047  1.00  0.00     0.034 A 
ATOM     45  C   UNL A   1      45.491  28.225  27.147  1.00  0.00     0.034 A 
ATOM     46  C   UNL A   1      40.660  31.241  30.245  1.00  0.00     0.049 A 
ATOM     47  C   UNL A   1      45.394  29.551  27.840  1.00  0.00     0.074 A 
ATOM     48  C   UNL A   1      40.699  32.442  30.934  1.00  0.00     0.029 A 
ATOM     49  N   UNL A   1      41.934  31.025  29.748  1.00  0.00    -0.354 N 
ATOM     50  N   UNL A   1      44.382  30.061  28.498  1.00  0.00    -0.248 NA
ATOM     51  C   UNL A   1      46.592  30.402  27.824  1.00  0.00     0.031 C 
ATOM     52  C   UNL A   1      41.993  32.960  30.841  1.00  0.00     0.029 A 
ATOM     53  C   UNL A   1      42.762  32.077  30.100  1.00  0.00     0.049 A 
ATOM     54  H   UNL A   1      42.209  30.239  29.223  1.00  0.00     0.167 HD
ATOM     55  C   UNL A   1      44.826  31.281  28.991  1.00  0.00     0.074 A 
ATOM     56  C   UNL A   1      46.203  31.429  28.569  1.00  0.00     0.031 C 
ATOM     57  C   UNL A   1      44.143  32.200  29.717  1.00  0.00     0.034 A 
BRANCH  44  58
ATOM     58  C   UNL A   1      38.222  30.795  30.636  1.00  0.00     0.023 A 
ATOM     59  C   UNL A   1      38.012  30.620  32.018  1.00  0.00     0.012 A 
ATOM     60  C   UNL A   1      37.283  31.523  29.879  1.00  0.00     0.148 A 
ATOM     61  C   UNL A   1      36.889  31.164  32.640  1.00  0.00     0.002 A 
ATOM     62  C   UNL A   1      36.177  32.086  30.510  1.00  0.00     0.091 A 
ATOM     63  F   UNL A   1      37.506  31.680  28.566  1.00  0.00    -0.205 F 
ATOM     64  C   UNL A   1      35.980  31.906  31.889  1.00  0.00     0.022 A 
BRANCH  62  65
ATOM     65  S   UNL A   1      34.984  33.124  29.656  1.00  0.00     0.127 S 
ATOM     66  O   UNL A   1      35.836  34.183  29.117  1.00  0.00    -0.237 OA
ATOM     67  O   UNL A   1      34.445  32.208  28.650  1.00  0.00    -0.237 OA
ATOM     68  O   UNL A   1      34.028  33.559  30.665  1.00  0.00    -0.744 OA
ENDBRANCH  62  65
ENDBRANCH  44  58
BRANCH  45  69
ATOM     69  C   UNL A   1      46.761  27.760  26.533  1.00  0.00     0.023 A 
ATOM     70  C   UNL A   1      47.662  27.010  27.310  1.00  0.00     0.012 A 
ATOM     71  C   UNL A   1      47.019  27.962  25.164  1.00  0.00     0.148 A 
ATOM     72  C   UNL A   1      48.809  26.469  26.732  1.00  0.00     0.002 A 
ATOM     73  C   UNL A   1      48.142  27.385  24.586  1.00  0.00     0.091 A 
ATOM     74  F   UNL A   1      46.141  28.681  24.452  1.00  0.00    -0.205 F 
ATOM     75  C   UNL A   1      49.043  26.646  25.371  1.00  0.00     0.022 A 
BRANCH  73  76
ATOM     76  S   UNL A   1      48.462  27.455  22.821  1.00  0.00     0.127 S 
ATOM     77  O   UNL A   1      47.304  28.201  22.338  1.00  0.00    -0.237 OA
ATOM     78  O   UNL A   1      49.729  28.186  22.775  1.00  0.00    -0.237 OA
ATOM     79  O   UNL A   1      48.550  26.070  22.379  1.00  0.00    -0.744 OA
ENDBRANCH  73  76
ENDBRANCH  45  69
BRANCH  57  80
ATOM     80  C   UNL A   1      44.854  33.464  30.111  1.00  0.00     0.023 A 
ATOM     81  C   UNL A   1      45.649  33.466  31.273  1.00  0.00     0.012 A 
ATOM     82  C   UNL A   1      44.839  34.596  29.274  1.00  0.00     0.148 A 
ATOM     83  C   UNL A   1      46.416  34.583  31.601  1.00  0.00     0.002 A 
ATOM     84  C   UNL A   1      45.631  35.694  29.591  1.00  0.00     0.091 A 
ATOM     85  F   UNL A   1      44.069  34.569  28.177  1.00  0.00    -0.205 F 
ATOM     86  C   UNL A   1      46.416  35.690  30.756  1.00  0.00     0.022 A 
BRANCH  84  87
ATOM     87  S   UNL A   1      45.753  37.142  28.534  1.00  0.00     0.127 S 
ATOM     88  O   UNL A   1      46.166  36.548  27.262  1.00  0.00    -0.237 OA
ATOM     89  O   UNL A   1      44.384  37.654  28.551  1.00  0.00    -0.237 OA
ATOM     90  O   UNL A   1      46.739  38.016  29.156  1.00  0.00    -0.744 OA
ENDBRANCH  84  87
ENDBRANCH  57  80
ENDBRANCH  31  32
ENDBRANCH  24  26
ENDBRANCH  23  24
ENDBRANCH  22  23
ENDBRANCH   1  22
TORSDOF 19
ENDMDL
