MODEL 1
REMARK VINA RESULT:     -12.5      0.000      0.000
REMARK SMILES O=C(OCCOC(=O)[C@]1(NC(=O)C2CCN(C(=O)C3CC3)CC2)CCCc2ccccc21)c1ccc(-c2c3nc(c(-c4cccc(S(=O)(=O)[O-])c4F)c4ccc([nH]4)c(-c4cccc(S(=O)(=O)[O-])c4F)c4nc(c(-c5cccc(S(=O)(=O)[O-])c5F)c5ccc2[nH]5)C=C4)C=C3)cc1
REMARK SMILES IDX 4 1 3 2 2 3 1 4 33 5 34 6 95 7 35 8 94 9 36 10 37 11 38 12
REMARK SMILES IDX 88 13 39 14 93 15 87 16 89 17 40 18 92 19 86 20 85 21 41 23
REMARK SMILES IDX 73 24 53 25 72 26 54 27 57 28 71 29 90 30 55 31 56 32 70 34
REMARK SMILES IDX 91 35 58 36 42 37 43 38 51 39 44 40 46 41 52 42 45 43 47 44
REMARK SMILES IDX 48 45 49 46 50 47 74 48 75 49 83 50 76 51 78 52 84 53 77 54
REMARK SMILES IDX 79 55 80 56 81 57 82 58 59 59 60 60 68 61 61 62 63 63 69 64
REMARK SMILES IDX 62 65 64 66 65 67 66 68 67 69 5 70 6 71 7 72 8 73 9 74 24 75
REMARK SMILES IDX 32 76 25 77 27 78 31 79 26 80 28 81 30 82 29 83 10 84 11 85
REMARK SMILES IDX 12 87 13 88 14 89 23 90 15 91 22 92 16 93 17 94 18 95 19 96
REMARK SMILES IDX 20 97 21 98
REMARK H PARENT 89 22 57 33 10 86
REMARK Flexibility Score: inf
ROOT
ATOM      1  C   UNL A   1      36.164  22.398  25.733  1.00  0.00     0.275 C 
ENDROOT
BRANCH   1   2
ATOM      2  O   UNL A   1      37.440  22.935  25.378  1.00  0.00    -0.458 OA
BRANCH   2   3
ATOM      3  C   UNL A   1      38.565  22.900  26.127  1.00  0.00     0.338 C 
ATOM      4  O   UNL A   1      39.099  21.828  26.392  1.00  0.00    -0.246 OA
BRANCH   3   5
ATOM      5  C   UNL A   1      39.072  24.137  26.776  1.00  0.00     0.060 A 
ATOM      6  C   UNL A   1      38.860  24.500  28.116  1.00  0.00     0.016 A 
ATOM      7  C   UNL A   1      39.826  24.980  25.959  1.00  0.00     0.016 A 
ATOM      8  C   UNL A   1      39.475  25.628  28.667  1.00  0.00     0.010 A 
ATOM      9  C   UNL A   1      40.397  26.128  26.492  1.00  0.00     0.010 A 
ATOM     10  C   UNL A   1      40.227  26.464  27.850  1.00  0.00    -0.014 A 
BRANCH  10  11
ATOM     11  C   UNL A   1      40.585  27.834  28.291  1.00  0.00     0.031 A 
ATOM     12  C   UNL A   1      42.051  28.071  28.521  1.00  0.00     0.074 A 
ATOM     13  C   UNL A   1      39.675  28.791  28.563  1.00  0.00     0.049 A 
ATOM     14  N   UNL A   1      42.655  29.128  28.984  1.00  0.00    -0.248 NA
ATOM     15  C   UNL A   1      42.958  26.949  28.201  1.00  0.00     0.031 C 
ATOM     16  C   UNL A   1      38.226  28.681  28.386  1.00  0.00     0.029 A 
ATOM     17  N   UNL A   1      39.832  30.030  29.133  1.00  0.00    -0.354 N 
ATOM     18  C   UNL A   1      44.003  28.798  28.993  1.00  0.00     0.074 A 
ATOM     19  C   UNL A   1      44.118  27.407  28.633  1.00  0.00     0.031 C 
ATOM     20  C   UNL A   1      37.623  29.735  28.971  1.00  0.00     0.029 A 
ATOM     21  C   UNL A   1      38.645  30.635  29.487  1.00  0.00     0.049 A 
ATOM     22  H   UNL A   1      40.712  30.447  29.276  1.00  0.00     0.167 HD
ATOM     23  C   UNL A   1      45.066  29.610  29.175  1.00  0.00     0.034 A 
ATOM     24  C   UNL A   1      38.424  31.795  30.140  1.00  0.00     0.034 A 
ATOM     25  C   UNL A   1      44.931  30.999  29.486  1.00  0.00     0.049 A 
ATOM     26  C   UNL A   1      39.617  32.681  30.406  1.00  0.00     0.074 A 
ATOM     27  C   UNL A   1      45.913  31.960  29.599  1.00  0.00     0.029 A 
ATOM     28  N   UNL A   1      43.717  31.618  29.743  1.00  0.00    -0.354 N 
ATOM     29  N   UNL A   1      40.889  32.428  30.204  1.00  0.00    -0.248 NA
ATOM     30  C   UNL A   1      39.344  34.042  30.884  1.00  0.00     0.031 C 
ATOM     31  C   UNL A   1      45.291  33.163  29.949  1.00  0.00     0.029 A 
ATOM     32  C   UNL A   1      43.921  32.953  30.025  1.00  0.00     0.049 A 
ATOM     33  H   UNL A   1      42.840  31.172  29.727  1.00  0.00     0.167 HD
ATOM     34  C   UNL A   1      41.559  33.621  30.443  1.00  0.00     0.074 A 
ATOM     35  C   UNL A   1      40.551  34.590  30.827  1.00  0.00     0.031 C 
ATOM     36  C   UNL A   1      42.882  33.900  30.340  1.00  0.00     0.034 A 
BRANCH  23  37
ATOM     37  C   UNL A   1      46.422  29.004  28.949  1.00  0.00     0.023 A 
ATOM     38  C   UNL A   1      47.176  28.564  30.062  1.00  0.00     0.012 A 
ATOM     39  C   UNL A   1      46.978  28.922  27.662  1.00  0.00     0.148 A 
ATOM     40  C   UNL A   1      48.486  28.119  29.904  1.00  0.00     0.002 A 
ATOM     41  C   UNL A   1      48.266  28.427  27.507  1.00  0.00     0.091 A 
ATOM     42  F   UNL A   1      46.255  29.367  26.625  1.00  0.00    -0.205 F 
ATOM     43  C   UNL A   1      49.029  28.045  28.625  1.00  0.00     0.022 A 
BRANCH  41  44
ATOM     44  S   UNL A   1      49.040  28.228  25.900  1.00  0.00     0.127 S 
ATOM     45  O   UNL A   1      49.899  29.408  25.837  1.00  0.00    -0.237 OA
ATOM     46  O   UNL A   1      49.753  26.961  26.064  1.00  0.00    -0.237 OA
ATOM     47  O   UNL A   1      47.953  28.196  24.930  1.00  0.00    -0.744 OA
ENDBRANCH  41  44
ENDBRANCH  23  37
BRANCH  24  48
ATOM     48  C   UNL A   1      37.040  32.259  30.449  1.00  0.00     0.023 A 
ATOM     49  C   UNL A   1      36.490  31.997  31.721  1.00  0.00     0.012 A 
ATOM     50  C   UNL A   1      36.252  32.933  29.493  1.00  0.00     0.148 A 
ATOM     51  C   UNL A   1      35.174  32.354  32.021  1.00  0.00     0.002 A 
ATOM     52  C   UNL A   1      34.949  33.312  29.808  1.00  0.00     0.091 A 
ATOM     53  F   UNL A   1      36.789  33.178  28.289  1.00  0.00    -0.205 F 
ATOM     54  C   UNL A   1      34.404  33.012  31.067  1.00  0.00     0.022 A 
BRANCH  52  55
ATOM     55  S   UNL A   1      33.891  34.226  28.677  1.00  0.00     0.127 S 
ATOM     56  O   UNL A   1      32.808  34.655  29.559  1.00  0.00    -0.237 OA
ATOM     57  O   UNL A   1      34.782  35.296  28.230  1.00  0.00    -0.237 OA
ATOM     58  O   UNL A   1      33.515  33.276  27.638  1.00  0.00    -0.744 OA
ENDBRANCH  52  55
ENDBRANCH  24  48
BRANCH  36  59
ATOM     59  C   UNL A   1      43.318  35.318  30.572  1.00  0.00     0.023 A 
ATOM     60  C   UNL A   1      43.811  35.706  31.831  1.00  0.00     0.012 A 
ATOM     61  C   UNL A   1      43.353  36.227  29.496  1.00  0.00     0.148 A 
ATOM     62  C   UNL A   1      44.316  36.991  32.022  1.00  0.00     0.002 A 
ATOM     63  C   UNL A   1      43.912  37.483  29.679  1.00  0.00     0.091 A 
ATOM     64  F   UNL A   1      42.858  35.837  28.312  1.00  0.00    -0.205 F 
ATOM     65  C   UNL A   1      44.382  37.872  30.943  1.00  0.00     0.022 A 
BRANCH  63  66
ATOM     66  S   UNL A   1      44.152  38.631  28.318  1.00  0.00     0.127 S 
ATOM     67  O   UNL A   1      42.830  38.634  27.696  1.00  0.00    -0.237 OA
ATOM     68  O   UNL A   1      44.502  39.868  29.017  1.00  0.00    -0.237 OA
ATOM     69  O   UNL A   1      45.224  38.073  27.506  1.00  0.00    -0.744 OA
ENDBRANCH  63  66
ENDBRANCH  36  59
ENDBRANCH  10  11
ENDBRANCH   3   5
ENDBRANCH   2   3
ENDBRANCH   1   2
BRANCH   1  70
ATOM     70  C   UNL A   1      35.041  23.400  26.000  1.00  0.00     0.274 C 
BRANCH  70  71
ATOM     71  O   UNL A   1      35.104  24.711  25.378  1.00  0.00    -0.460 OA
BRANCH  71  72
ATOM     72  C   UNL A   1      34.328  24.821  24.259  1.00  0.00     0.336 C 
ATOM     73  O   UNL A   1      34.713  24.338  23.191  1.00  0.00    -0.249 OA
BRANCH  72  74
ATOM     74  C   UNL A   1      33.060  25.805  24.351  1.00  0.00     0.164 C 
ATOM     75  C   UNL A   1      33.197  27.162  25.108  1.00  0.00     0.046 C 
ATOM     76  C   UNL A   1      31.889  24.928  24.926  1.00  0.00    -0.008 A 
ATOM     77  C   UNL A   1      32.319  27.464  26.318  1.00  0.00     0.008 C 
ATOM     78  C   UNL A   1      31.081  25.362  25.999  1.00  0.00    -0.042 A 
ATOM     79  C   UNL A   1      31.741  23.575  24.550  1.00  0.00     0.007 A 
ATOM     80  C   UNL A   1      30.964  26.813  26.339  1.00  0.00     0.036 C 
ATOM     81  C   UNL A   1      30.345  24.439  26.773  1.00  0.00     0.004 A 
ATOM     82  C   UNL A   1      31.030  22.659  25.336  1.00  0.00     0.000 A 
ATOM     83  C   UNL A   1      30.364  23.084  26.474  1.00  0.00     0.000 A 
BRANCH  74  84
ATOM     84  N   UNL A   1      32.829  26.235  22.920  1.00  0.00    -0.336 N 
ATOM     85  C   UNL A   1      31.649  26.717  22.362  1.00  0.00     0.224 C 
ATOM     86  H   UNL A   1      33.602  26.166  22.314  1.00  0.00     0.164 HD
ATOM     87  O   UNL A   1      31.387  26.440  21.191  1.00  0.00    -0.275 OA
BRANCH  85  88
ATOM     88  C   UNL A   1      30.737  27.683  23.140  1.00  0.00     0.082 C 
ATOM     89  C   UNL A   1      29.264  27.273  23.361  1.00  0.00     0.035 C 
ATOM     90  C   UNL A   1      30.957  29.139  22.702  1.00  0.00     0.035 C 
ATOM     91  C   UNL A   1      28.213  28.081  22.594  1.00  0.00     0.120 C 
ATOM     92  C   UNL A   1      29.838  29.687  21.839  1.00  0.00     0.120 C 
ATOM     93  N   UNL A   1      28.577  29.494  22.533  1.00  0.00    -0.342 N 
ATOM     94  C   UNL A   1      27.827  30.415  23.272  1.00  0.00     0.225 C 
ATOM     95  O   UNL A   1      26.909  30.039  23.999  1.00  0.00    -0.275 OA
BRANCH  94  96
ATOM     96  C   UNL A   1      28.047  31.898  23.260  1.00  0.00     0.079 C 
ATOM     97  C   UNL A   1      29.364  32.582  23.505  1.00  0.00     0.014 C 
ATOM     98  C   UNL A   1      28.684  32.704  22.163  1.00  0.00     0.014 C 
ENDBRANCH  94  96
ENDBRANCH  85  88
ENDBRANCH  74  84
ENDBRANCH  72  74
ENDBRANCH  71  72
ENDBRANCH  70  71
ENDBRANCH   1  70
TORSDOF 17
ENDMDL
MODEL 2
REMARK VINA RESULT:     -12.4      4.519      9.796
REMARK SMILES O=C(OCCOC(=O)[C@]1(NC(=O)C2CCN(C(=O)C3CC3)CC2)CCCc2ccccc21)c1ccc(-c2c3nc(c(-c4cccc(S(=O)(=O)[O-])c4F)c4ccc([nH]4)c(-c4cccc(S(=O)(=O)[O-])c4F)c4nc(c(-c5cccc(S(=O)(=O)[O-])c5F)c5ccc2[nH]5)C=C4)C=C3)cc1
REMARK SMILES IDX 4 1 3 2 2 3 1 4 33 5 34 6 95 7 35 8 94 9 36 10 37 11 38 12
REMARK SMILES IDX 88 13 39 14 93 15 87 16 89 17 40 18 92 19 86 20 85 21 41 23
REMARK SMILES IDX 73 24 53 25 72 26 54 27 57 28 71 29 90 30 55 31 56 32 70 34
REMARK SMILES IDX 91 35 58 36 42 37 43 38 51 39 44 40 46 41 52 42 45 43 47 44
REMARK SMILES IDX 48 45 49 46 50 47 74 48 75 49 83 50 76 51 78 52 84 53 77 54
REMARK SMILES IDX 79 55 80 56 81 57 82 58 59 59 60 60 68 61 61 62 63 63 69 64
REMARK SMILES IDX 62 65 64 66 65 67 66 68 67 69 5 70 6 71 7 72 8 73 9 74 24 75
REMARK SMILES IDX 32 76 25 77 27 78 31 79 26 80 28 81 30 82 29 83 10 84 11 85
REMARK SMILES IDX 12 87 13 88 14 89 23 90 15 91 22 92 16 93 17 94 18 95 19 96
REMARK SMILES IDX 20 97 21 98
REMARK H PARENT 89 22 57 33 10 86
REMARK Flexibility Score: inf
ROOT
ATOM      1  C   UNL A   1      33.333  29.639  27.220  1.00  0.00     0.275 C 
ENDROOT
BRANCH   1   2
ATOM      2  O   UNL A   1      33.606  30.912  27.811  1.00  0.00    -0.458 OA
BRANCH   2   3
ATOM      3  C   UNL A   1      34.822  31.480  27.976  1.00  0.00     0.338 C 
ATOM      4  O   UNL A   1      35.025  32.627  27.592  1.00  0.00    -0.246 OA
BRANCH   3   5
ATOM      5  C   UNL A   1      35.967  30.670  28.465  1.00  0.00     0.060 A 
ATOM      6  C   UNL A   1      36.039  30.030  29.713  1.00  0.00     0.016 A 
ATOM      7  C   UNL A   1      37.040  30.548  27.581  1.00  0.00     0.016 A 
ATOM      8  C   UNL A   1      37.111  29.193  30.038  1.00  0.00     0.010 A 
ATOM      9  C   UNL A   1      38.130  29.757  27.922  1.00  0.00     0.010 A 
ATOM     10  C   UNL A   1      38.176  29.073  29.154  1.00  0.00    -0.014 A 
BRANCH  10  11
ATOM     11  C   UNL A   1      39.472  28.505  29.599  1.00  0.00     0.031 A 
ATOM     12  C   UNL A   1      40.230  29.339  30.592  1.00  0.00     0.074 A 
ATOM     13  C   UNL A   1      40.000  27.371  29.096  1.00  0.00     0.049 A 
ATOM     14  N   UNL A   1      41.416  29.150  31.097  1.00  0.00    -0.248 NA
ATOM     15  C   UNL A   1      39.561  30.568  31.067  1.00  0.00     0.031 C 
ATOM     16  C   UNL A   1      39.366  26.478  28.124  1.00  0.00     0.029 A 
ATOM     17  N   UNL A   1      41.243  26.815  29.274  1.00  0.00    -0.354 N 
ATOM     18  C   UNL A   1      41.619  30.224  31.952  1.00  0.00     0.074 A 
ATOM     19  C   UNL A   1      40.510  31.131  31.792  1.00  0.00     0.031 C 
ATOM     20  C   UNL A   1      40.270  25.582  27.684  1.00  0.00     0.029 A 
ATOM     21  C   UNL A   1      41.520  25.782  28.405  1.00  0.00     0.049 A 
ATOM     22  H   UNL A   1      41.878  27.127  29.959  1.00  0.00     0.167 HD
ATOM     23  C   UNL A   1      42.589  30.390  32.876  1.00  0.00     0.034 A 
ATOM     24  C   UNL A   1      42.657  25.074  28.234  1.00  0.00     0.034 A 
ATOM     25  C   UNL A   1      43.656  29.455  33.052  1.00  0.00     0.049 A 
ATOM     26  C   UNL A   1      43.772  25.301  29.225  1.00  0.00     0.074 A 
ATOM     27  C   UNL A   1      44.648  29.443  34.009  1.00  0.00     0.029 A 
ATOM     28  N   UNL A   1      43.866  28.360  32.227  1.00  0.00    -0.354 N 
ATOM     29  N   UNL A   1      43.853  26.198  30.180  1.00  0.00    -0.248 NA
ATOM     30  C   UNL A   1      44.898  24.358  29.190  1.00  0.00     0.031 C 
ATOM     31  C   UNL A   1      45.476  28.345  33.748  1.00  0.00     0.029 A 
ATOM     32  C   UNL A   1      44.980  27.663  32.646  1.00  0.00     0.049 A 
ATOM     33  H   UNL A   1      43.304  28.116  31.457  1.00  0.00     0.167 HD
ATOM     34  C   UNL A   1      44.988  25.875  30.913  1.00  0.00     0.074 A 
ATOM     35  C   UNL A   1      45.574  24.711  30.275  1.00  0.00     0.031 C 
ATOM     36  C   UNL A   1      45.494  26.470  32.021  1.00  0.00     0.034 A 
BRANCH  23  37
ATOM     37  C   UNL A   1      42.452  31.577  33.789  1.00  0.00     0.023 A 
ATOM     38  C   UNL A   1      42.963  32.829  33.375  1.00  0.00     0.012 A 
ATOM     39  C   UNL A   1      41.883  31.450  35.066  1.00  0.00     0.148 A 
ATOM     40  C   UNL A   1      42.972  33.917  34.243  1.00  0.00     0.002 A 
ATOM     41  C   UNL A   1      41.847  32.555  35.908  1.00  0.00     0.091 A 
ATOM     42  F   UNL A   1      41.428  30.249  35.447  1.00  0.00    -0.205 F 
ATOM     43  C   UNL A   1      42.409  33.781  35.508  1.00  0.00     0.022 A 
BRANCH  41  44
ATOM     44  S   UNL A   1      41.088  32.510  37.533  1.00  0.00     0.127 S 
ATOM     45  O   UNL A   1      41.136  33.919  37.921  1.00  0.00    -0.237 OA
ATOM     46  O   UNL A   1      39.749  32.006  37.226  1.00  0.00    -0.237 OA
ATOM     47  O   UNL A   1      41.909  31.615  38.337  1.00  0.00    -0.744 OA
ENDBRANCH  41  44
ENDBRANCH  23  37
BRANCH  24  48
ATOM     48  C   UNL A   1      42.753  23.999  27.203  1.00  0.00     0.023 A 
ATOM     49  C   UNL A   1      43.399  24.269  25.979  1.00  0.00     0.012 A 
ATOM     50  C   UNL A   1      42.190  22.722  27.408  1.00  0.00     0.148 A 
ATOM     51  C   UNL A   1      43.446  23.311  24.966  1.00  0.00     0.002 A 
ATOM     52  C   UNL A   1      42.266  21.759  26.403  1.00  0.00     0.091 A 
ATOM     53  F   UNL A   1      41.581  22.478  28.578  1.00  0.00    -0.205 F 
ATOM     54  C   UNL A   1      42.881  22.056  25.177  1.00  0.00     0.022 A 
BRANCH  52  55
ATOM     55  S   UNL A   1      41.632  20.087  26.595  1.00  0.00     0.127 S 
ATOM     56  O   UNL A   1      40.191  20.317  26.652  1.00  0.00    -0.237 OA
ATOM     57  O   UNL A   1      42.106  19.444  25.370  1.00  0.00    -0.237 OA
ATOM     58  O   UNL A   1      42.236  19.577  27.820  1.00  0.00    -0.744 OA
ENDBRANCH  52  55
ENDBRANCH  24  48
BRANCH  36  59
ATOM     59  C   UNL A   1      46.697  25.844  32.665  1.00  0.00     0.023 A 
ATOM     60  C   UNL A   1      46.536  24.949  33.738  1.00  0.00     0.012 A 
ATOM     61  C   UNL A   1      47.977  26.052  32.113  1.00  0.00     0.148 A 
ATOM     62  C   UNL A   1      47.640  24.284  34.270  1.00  0.00     0.002 A 
ATOM     63  C   UNL A   1      49.060  25.341  32.608  1.00  0.00     0.091 A 
ATOM     64  F   UNL A   1      48.104  26.926  31.103  1.00  0.00    -0.205 F 
ATOM     65  C   UNL A   1      48.896  24.467  33.694  1.00  0.00     0.022 A 
BRANCH  63  66
ATOM     66  S   UNL A   1      50.684  25.421  31.846  1.00  0.00     0.127 S 
ATOM     67  O   UNL A   1      50.498  24.584  30.662  1.00  0.00    -0.237 OA
ATOM     68  O   UNL A   1      50.824  26.851  31.569  1.00  0.00    -0.237 OA
ATOM     69  O   UNL A   1      51.619  24.904  32.837  1.00  0.00    -0.744 OA
ENDBRANCH  63  66
ENDBRANCH  36  59
ENDBRANCH  10  11
ENDBRANCH   3   5
ENDBRANCH   2   3
ENDBRANCH   1   2
BRANCH   1  70
ATOM     70  C   UNL A   1      33.907  29.386  25.826  1.00  0.00     0.274 C 
BRANCH  70  71
ATOM     71  O   UNL A   1      34.266  28.031  25.447  1.00  0.00    -0.460 OA
BRANCH  71  72
ATOM     72  C   UNL A   1      33.773  27.657  24.228  1.00  0.00     0.336 C 
ATOM     73  O   UNL A   1      33.315  28.507  23.461  1.00  0.00    -0.249 OA
BRANCH  72  74
ATOM     74  C   UNL A   1      33.592  26.080  23.973  1.00  0.00     0.164 C 
ATOM     75  C   UNL A   1      33.686  25.525  22.519  1.00  0.00     0.046 C 
ATOM     76  C   UNL A   1      32.231  25.697  24.661  1.00  0.00    -0.008 A 
ATOM     77  C   UNL A   1      32.500  24.797  21.891  1.00  0.00     0.008 C 
ATOM     78  C   UNL A   1      31.243  24.936  24.002  1.00  0.00    -0.042 A 
ATOM     79  C   UNL A   1      31.840  26.292  25.880  1.00  0.00     0.007 A 
ATOM     80  C   UNL A   1      31.590  24.065  22.836  1.00  0.00     0.036 C 
ATOM     81  C   UNL A   1      29.900  24.959  24.434  1.00  0.00     0.004 A 
ATOM     82  C   UNL A   1      30.502  26.334  26.291  1.00  0.00     0.000 A 
ATOM     83  C   UNL A   1      29.522  25.701  25.543  1.00  0.00     0.000 A 
BRANCH  74  84
ATOM     84  N   UNL A   1      34.793  25.462  24.652  1.00  0.00    -0.336 N 
ATOM     85  C   UNL A   1      34.835  24.274  25.376  1.00  0.00     0.224 C 
ATOM     86  H   UNL A   1      35.641  25.955  24.572  1.00  0.00     0.164 HD
ATOM     87  O   UNL A   1      35.593  24.194  26.344  1.00  0.00    -0.275 OA
BRANCH  85  88
ATOM     88  C   UNL A   1      34.049  23.033  24.917  1.00  0.00     0.082 C 
ATOM     89  C   UNL A   1      33.053  22.395  25.912  1.00  0.00     0.035 C 
ATOM     90  C   UNL A   1      34.950  22.044  24.162  1.00  0.00     0.035 C 
ATOM     91  C   UNL A   1      33.439  21.023  26.472  1.00  0.00     0.120 C 
ATOM     92  C   UNL A   1      35.308  20.812  24.970  1.00  0.00     0.120 C 
ATOM     93  N   UNL A   1      34.081  20.199  25.451  1.00  0.00    -0.342 N 
ATOM     94  C   UNL A   1      33.390  19.094  24.945  1.00  0.00     0.225 C 
ATOM     95  O   UNL A   1      32.244  18.846  25.314  1.00  0.00    -0.275 OA
BRANCH  94  96
ATOM     96  C   UNL A   1      33.946  18.128  23.940  1.00  0.00     0.079 C 
ATOM     97  C   UNL A   1      33.784  16.634  23.992  1.00  0.00     0.014 C 
ATOM     98  C   UNL A   1      33.184  17.423  22.854  1.00  0.00     0.014 C 
ENDBRANCH  94  96
ENDBRANCH  85  88
ENDBRANCH  74  84
ENDBRANCH  72  74
ENDBRANCH  71  72
ENDBRANCH  70  71
ENDBRANCH   1  70
TORSDOF 17
ENDMDL
MODEL 3
REMARK VINA RESULT:     -12.4      4.607      9.111
REMARK SMILES O=C(OCCOC(=O)[C@]1(NC(=O)C2CCN(C(=O)C3CC3)CC2)CCCc2ccccc21)c1ccc(-c2c3nc(c(-c4cccc(S(=O)(=O)[O-])c4F)c4ccc([nH]4)c(-c4cccc(S(=O)(=O)[O-])c4F)c4nc(c(-c5cccc(S(=O)(=O)[O-])c5F)c5ccc2[nH]5)C=C4)C=C3)cc1
REMARK SMILES IDX 4 1 3 2 2 3 1 4 33 5 34 6 95 7 35 8 94 9 36 10 37 11 38 12
REMARK SMILES IDX 88 13 39 14 93 15 87 16 89 17 40 18 92 19 86 20 85 21 41 23
REMARK SMILES IDX 73 24 53 25 72 26 54 27 57 28 71 29 90 30 55 31 56 32 70 34
REMARK SMILES IDX 91 35 58 36 42 37 43 38 51 39 44 40 46 41 52 42 45 43 47 44
REMARK SMILES IDX 48 45 49 46 50 47 74 48 75 49 83 50 76 51 78 52 84 53 77 54
REMARK SMILES IDX 79 55 80 56 81 57 82 58 59 59 60 60 68 61 61 62 63 63 69 64
REMARK SMILES IDX 62 65 64 66 65 67 66 68 67 69 5 70 6 71 7 72 8 73 9 74 24 75
REMARK SMILES IDX 32 76 25 77 27 78 31 79 26 80 28 81 30 82 29 83 10 84 11 85
REMARK SMILES IDX 12 87 13 88 14 89 23 90 15 91 22 92 16 93 17 94 18 95 19 96
REMARK SMILES IDX 20 97 21 98
REMARK H PARENT 89 22 57 33 10 86
REMARK Flexibility Score: inf
ROOT
ATOM      1  C   UNL A   1      33.268  30.107  26.597  1.00  0.00     0.275 C 
ENDROOT
BRANCH   1   2
ATOM      2  O   UNL A   1      33.608  30.953  27.698  1.00  0.00    -0.458 OA
BRANCH   2   3
ATOM      3  C   UNL A   1      34.810  31.528  27.931  1.00  0.00     0.338 C 
ATOM      4  O   UNL A   1      35.006  32.698  27.616  1.00  0.00    -0.246 OA
BRANCH   3   5
ATOM      5  C   UNL A   1      35.953  30.709  28.411  1.00  0.00     0.060 A 
ATOM      6  C   UNL A   1      35.994  29.997  29.620  1.00  0.00     0.016 A 
ATOM      7  C   UNL A   1      37.057  30.659  27.559  1.00  0.00     0.016 A 
ATOM      8  C   UNL A   1      37.070  29.160  29.931  1.00  0.00     0.010 A 
ATOM      9  C   UNL A   1      38.149  29.868  27.890  1.00  0.00     0.010 A 
ATOM     10  C   UNL A   1      38.167  29.111  29.079  1.00  0.00    -0.014 A 
BRANCH  10  11
ATOM     11  C   UNL A   1      39.458  28.539  29.534  1.00  0.00     0.031 A 
ATOM     12  C   UNL A   1      40.204  29.364  30.544  1.00  0.00     0.074 A 
ATOM     13  C   UNL A   1      39.992  27.409  29.027  1.00  0.00     0.049 A 
ATOM     14  N   UNL A   1      41.383  29.171  31.061  1.00  0.00    -0.248 NA
ATOM     15  C   UNL A   1      39.529  30.589  31.022  1.00  0.00     0.031 C 
ATOM     16  C   UNL A   1      39.369  26.525  28.040  1.00  0.00     0.029 A 
ATOM     17  N   UNL A   1      41.233  26.852  29.215  1.00  0.00    -0.354 N 
ATOM     18  C   UNL A   1      41.576  30.237  31.929  1.00  0.00     0.074 A 
ATOM     19  C   UNL A   1      40.469  31.145  31.763  1.00  0.00     0.031 C 
ATOM     20  C   UNL A   1      40.278  25.633  27.603  1.00  0.00     0.029 A 
ATOM     21  C   UNL A   1      41.520  25.827  28.340  1.00  0.00     0.049 A 
ATOM     22  H   UNL A   1      41.859  27.158  29.910  1.00  0.00     0.167 HD
ATOM     23  C   UNL A   1      42.536  30.394  32.865  1.00  0.00     0.034 A 
ATOM     24  C   UNL A   1      42.658  25.120  28.176  1.00  0.00     0.034 A 
ATOM     25  C   UNL A   1      43.600  29.457  33.045  1.00  0.00     0.049 A 
ATOM     26  C   UNL A   1      43.762  25.338  29.182  1.00  0.00     0.074 A 
ATOM     27  C   UNL A   1      44.580  29.437  34.014  1.00  0.00     0.029 A 
ATOM     28  N   UNL A   1      43.820  28.370  32.213  1.00  0.00    -0.354 N 
ATOM     29  N   UNL A   1      43.832  26.227  30.146  1.00  0.00    -0.248 NA
ATOM     30  C   UNL A   1      44.888  24.396  29.152  1.00  0.00     0.031 C 
ATOM     31  C   UNL A   1      45.412  28.342  33.753  1.00  0.00     0.029 A 
ATOM     32  C   UNL A   1      44.929  27.669  32.639  1.00  0.00     0.049 A 
ATOM     33  H   UNL A   1      43.267  28.133  31.434  1.00  0.00     0.167 HD
ATOM     34  C   UNL A   1      44.957  25.897  30.890  1.00  0.00     0.074 A 
ATOM     35  C   UNL A   1      45.551  24.739  30.249  1.00  0.00     0.031 C 
ATOM     36  C   UNL A   1      45.450  26.482  32.009  1.00  0.00     0.034 A 
BRANCH  23  37
ATOM     37  C   UNL A   1      42.388  31.572  33.787  1.00  0.00     0.023 A 
ATOM     38  C   UNL A   1      42.928  32.822  33.403  1.00  0.00     0.012 A 
ATOM     39  C   UNL A   1      41.779  31.440  35.045  1.00  0.00     0.148 A 
ATOM     40  C   UNL A   1      42.926  33.899  34.284  1.00  0.00     0.002 A 
ATOM     41  C   UNL A   1      41.733  32.536  35.898  1.00  0.00     0.091 A 
ATOM     42  F   UNL A   1      41.295  30.242  35.398  1.00  0.00    -0.205 F 
ATOM     43  C   UNL A   1      42.324  33.758  35.529  1.00  0.00     0.022 A 
BRANCH  41  44
ATOM     44  S   UNL A   1      40.924  32.484  37.499  1.00  0.00     0.127 S 
ATOM     45  O   UNL A   1      41.784  31.560  38.235  1.00  0.00    -0.237 OA
ATOM     46  O   UNL A   1      41.017  33.880  37.928  1.00  0.00    -0.237 OA
ATOM     47  O   UNL A   1      39.569  32.009  37.251  1.00  0.00    -0.744 OA
ENDBRANCH  41  44
ENDBRANCH  23  37
BRANCH  24  48
ATOM     48  C   UNL A   1      42.767  24.054  27.137  1.00  0.00     0.023 A 
ATOM     49  C   UNL A   1      43.427  24.336  25.924  1.00  0.00     0.012 A 
ATOM     50  C   UNL A   1      42.202  22.776  27.324  1.00  0.00     0.148 A 
ATOM     51  C   UNL A   1      43.486  23.386  24.902  1.00  0.00     0.002 A 
ATOM     52  C   UNL A   1      42.289  21.823  26.311  1.00  0.00     0.091 A 
ATOM     53  F   UNL A   1      41.579  22.522  28.484  1.00  0.00    -0.205 F 
ATOM     54  C   UNL A   1      42.919  22.130  25.095  1.00  0.00     0.022 A 
BRANCH  52  55
ATOM     55  S   UNL A   1      41.653  20.149  26.480  1.00  0.00     0.127 S 
ATOM     56  O   UNL A   1      42.172  19.761  27.789  1.00  0.00    -0.237 OA
ATOM     57  O   UNL A   1      40.208  20.371  26.430  1.00  0.00    -0.237 OA
ATOM     58  O   UNL A   1      42.192  19.408  25.346  1.00  0.00    -0.744 OA
ENDBRANCH  52  55
ENDBRANCH  24  48
BRANCH  36  59
ATOM     59  C   UNL A   1      46.645  25.850  32.661  1.00  0.00     0.023 A 
ATOM     60  C   UNL A   1      47.931  26.376  32.439  1.00  0.00     0.012 A 
ATOM     61  C   UNL A   1      46.467  24.810  33.596  1.00  0.00     0.148 A 
ATOM     62  C   UNL A   1      49.030  25.860  33.124  1.00  0.00     0.002 A 
ATOM     63  C   UNL A   1      47.556  24.343  34.317  1.00  0.00     0.091 A 
ATOM     64  F   UNL A   1      45.233  24.313  33.773  1.00  0.00    -0.205 F 
ATOM     65  C   UNL A   1      48.839  24.857  34.074  1.00  0.00     0.022 A 
BRANCH  63  66
ATOM     66  S   UNL A   1      47.381  23.146  35.645  1.00  0.00     0.127 S 
ATOM     67  O   UNL A   1      48.772  22.770  35.891  1.00  0.00    -0.237 OA
ATOM     68  O   UNL A   1      46.769  23.950  36.704  1.00  0.00    -0.237 OA
ATOM     69  O   UNL A   1      46.529  22.087  35.123  1.00  0.00    -0.744 OA
ENDBRANCH  63  66
ENDBRANCH  36  59
ENDBRANCH  10  11
ENDBRANCH   3   5
ENDBRANCH   2   3
ENDBRANCH   1   2
BRANCH   1  70
ATOM     70  C   UNL A   1      32.675  28.739  26.932  1.00  0.00     0.274 C 
BRANCH  70  71
ATOM     71  O   UNL A   1      33.462  27.546  26.669  1.00  0.00    -0.460 OA
BRANCH  71  72
ATOM     72  C   UNL A   1      33.456  27.169  25.356  1.00  0.00     0.336 C 
ATOM     73  O   UNL A   1      33.942  27.911  24.498  1.00  0.00    -0.249 OA
BRANCH  72  74
ATOM     74  C   UNL A   1      32.580  25.875  24.978  1.00  0.00     0.164 C 
ATOM     75  C   UNL A   1      31.128  25.746  25.532  1.00  0.00     0.046 C 
ATOM     76  C   UNL A   1      33.469  24.638  25.366  1.00  0.00    -0.008 A 
ATOM     77  C   UNL A   1      30.743  24.569  26.424  1.00  0.00     0.008 C 
ATOM     78  C   UNL A   1      32.967  23.560  26.124  1.00  0.00    -0.042 A 
ATOM     79  C   UNL A   1      34.867  24.658  25.172  1.00  0.00     0.007 A 
ATOM     80  C   UNL A   1      31.498  23.289  26.203  1.00  0.00     0.036 C 
ATOM     81  C   UNL A   1      33.837  22.692  26.818  1.00  0.00     0.004 A 
ATOM     82  C   UNL A   1      35.728  23.812  25.882  1.00  0.00     0.000 A 
ATOM     83  C   UNL A   1      35.213  22.853  26.740  1.00  0.00     0.000 A 
BRANCH  74  84
ATOM     84  N   UNL A   1      32.365  26.005  23.487  1.00  0.00    -0.336 N 
ATOM     85  C   UNL A   1      31.268  26.563  22.838  1.00  0.00     0.224 C 
ATOM     86  H   UNL A   1      33.082  25.655  22.910  1.00  0.00     0.164 HD
ATOM     87  O   UNL A   1      30.903  26.081  21.764  1.00  0.00    -0.275 OA
BRANCH  85  88
ATOM     88  C   UNL A   1      30.586  27.835  23.374  1.00  0.00     0.082 C 
ATOM     89  C   UNL A   1      29.064  27.789  23.635  1.00  0.00     0.035 C 
ATOM     90  C   UNL A   1      31.093  29.092  22.651  1.00  0.00     0.035 C 
ATOM     91  C   UNL A   1      28.189  28.617  22.689  1.00  0.00     0.120 C 
ATOM     92  C   UNL A   1      30.097  29.664  21.662  1.00  0.00     0.120 C 
ATOM     93  N   UNL A   1      28.835  29.882  22.348  1.00  0.00    -0.342 N 
ATOM     94  C   UNL A   1      28.302  31.070  22.859  1.00  0.00     0.225 C 
ATOM     95  O   UNL A   1      27.338  31.049  23.623  1.00  0.00    -0.275 OA
BRANCH  94  96
ATOM     96  C   UNL A   1      28.822  32.441  22.547  1.00  0.00     0.079 C 
ATOM     97  C   UNL A   1      28.198  33.731  23.004  1.00  0.00     0.014 C 
ATOM     98  C   UNL A   1      29.579  33.348  23.475  1.00  0.00     0.014 C 
ENDBRANCH  94  96
ENDBRANCH  85  88
ENDBRANCH  74  84
ENDBRANCH  72  74
ENDBRANCH  71  72
ENDBRANCH  70  71
ENDBRANCH   1  70
TORSDOF 17
ENDMDL
