MODEL 1
REMARK VINA RESULT:     -12.7      0.000      0.000
REMARK SMILES CO[C@@H]1C[NH2+][C@@H](O[C@@H]2C[C@@H](C(=O)OCCOC(=O)c3ccc(-c4c5nc(c(-c6cccc(S(=O)(=O)[O-])c6F)c6ccc([nH]6)c(-c6cccc(S(=O)(=O)[O-])c6F)c6nc(c(-c7cccc(S(=O)(=O)[O-])c7F)c7ccc4[nH]7)C=C6)C=C5)cc3)N(C(=O)OC(C)(C)C)C2)c2cc(Cl)ccc21
REMARK SMILES IDX 14 1 13 2 11 3 12 4 10 5 8 6 9 7 90 8 82 9 7 10 6 11 3 12
REMARK SMILES IDX 4 13 97 14 5 15 91 16 96 17 92 20 95 21 93 22 94 23 2 24
REMARK SMILES IDX 1 25 83 26 84 27 85 28 86 29 87 30 88 31 89 32 15 33 16 34
REMARK SMILES IDX 17 35 18 36 19 37 20 38 81 39 21 40 80 41 22 42 23 43 24 44
REMARK SMILES IDX 74 45 25 46 79 47 73 48 75 49 26 50 78 51 72 52 71 53 27 55
REMARK SMILES IDX 59 56 39 57 58 58 40 59 43 60 57 61 76 62 41 63 42 64 56 66
REMARK SMILES IDX 77 67 44 68 28 69 29 70 37 71 30 72 32 73 38 74 31 75 33 76
REMARK SMILES IDX 34 77 35 78 36 79 60 80 61 81 69 82 62 83 64 84 70 85 63 86
REMARK SMILES IDX 65 87 66 88 67 89 68 90 45 91 46 92 54 93 47 94 49 95 55 96
REMARK SMILES IDX 48 97 50 98 51 99 52 100 53 101
REMARK H PARENT 5 18 5 19 75 54 43 65
REMARK Flexibility Score: inf
ROOT
ATOM      1  C   UNL A   1      31.613  29.203  26.013  1.00  0.00     0.274 C 
ENDROOT
BRANCH   1   2
ATOM      2  O   UNL A   1      32.705  28.473  25.430  1.00  0.00    -0.461 OA
BRANCH   2   3
ATOM      3  C   UNL A   1      32.771  28.515  24.070  1.00  0.00     0.329 C 
ATOM      4  O   UNL A   1      33.024  29.528  23.430  1.00  0.00    -0.250 OA
BRANCH   3   5
ATOM      5  C   UNL A   1      32.427  27.139  23.471  1.00  0.00     0.201 C 
ATOM      6  C   UNL A   1      32.752  25.331  21.905  1.00  0.00     0.147 C 
ATOM      7  C   UNL A   1      33.518  26.352  22.740  1.00  0.00     0.071 C 
ATOM      8  C   UNL A   1      31.424  26.046  21.571  1.00  0.00     0.156 C 
ATOM      9  N   UNL A   1      31.260  27.069  22.598  1.00  0.00    -0.292 N 
BRANCH   6  10
ATOM     10  O   UNL A   1      32.680  23.983  22.349  1.00  0.00    -0.320 OA
BRANCH  10  11
ATOM     11  C   UNL A   1      31.715  23.352  23.179  1.00  0.00     0.354 C 
ATOM     12  C   UNL A   1      32.268  22.808  26.044  1.00  0.00     0.203 C 
ATOM     13  C   UNL A   1      32.022  24.213  25.416  1.00  0.00     0.300 C 
ATOM     14  C   UNL A   1      32.182  21.661  25.031  1.00  0.00    -0.002 A 
ATOM     15  N   UNL A   1      31.218  24.250  24.204  1.00  0.00    -0.315 N 
ATOM     16  C   UNL A   1      31.936  21.934  23.665  1.00  0.00     0.046 A 
ATOM     17  C   UNL A   1      32.554  20.355  25.400  1.00  0.00     0.009 A 
ATOM     18  H   UNL A   1      31.224  25.202  23.836  1.00  0.00     0.349 HD
ATOM     19  H   UNL A   1      30.274  23.950  24.448  1.00  0.00     0.349 HD
ATOM     20  C   UNL A   1      31.966  20.884  22.722  1.00  0.00     0.033 A 
ATOM     21  C   UNL A   1      32.664  19.341  24.440  1.00  0.00     0.021 A 
ATOM     22  C   UNL A   1      32.351  19.603  23.110  1.00  0.00     0.041 A 
ATOM     23  Cl  UNL A   1      32.513  18.362  21.928  1.00  0.00    -0.084 Cl
BRANCH  12  24
ATOM     24  O   UNL A   1      31.482  22.576  27.218  1.00  0.00    -0.371 OA
ATOM     25  C   UNL A   1      30.115  22.939  26.994  1.00  0.00     0.196 C 
ENDBRANCH  12  24
ENDBRANCH  10  11
ENDBRANCH   6  10
BRANCH   9  26
ATOM     26  C   UNL A   1      30.031  27.624  22.900  1.00  0.00     0.411 C 
ATOM     27  O   UNL A   1      29.308  27.238  23.799  1.00  0.00    -0.224 OA
BRANCH  26  28
ATOM     28  O   UNL A   1      29.755  28.669  22.077  1.00  0.00    -0.444 OA
BRANCH  28  29
ATOM     29  C   UNL A   1      28.910  29.778  22.469  1.00  0.00     0.106 C 
ATOM     30  C   UNL A   1      27.475  29.331  22.764  1.00  0.00     0.056 C 
ATOM     31  C   UNL A   1      29.523  30.551  23.635  1.00  0.00     0.056 C 
ATOM     32  C   UNL A   1      28.882  30.698  21.233  1.00  0.00     0.056 C 
ENDBRANCH  28  29
ENDBRANCH  26  28
ENDBRANCH   9  26
ENDBRANCH   3   5
ENDBRANCH   2   3
ENDBRANCH   1   2
BRANCH   1  33
ATOM     33  C   UNL A   1      32.079  30.560  26.548  1.00  0.00     0.275 C 
BRANCH  33  34
ATOM     34  O   UNL A   1      33.513  30.616  26.691  1.00  0.00    -0.458 OA
BRANCH  34  35
ATOM     35  C   UNL A   1      33.970  31.619  27.480  1.00  0.00     0.338 C 
ATOM     36  O   UNL A   1      33.330  32.581  27.876  1.00  0.00    -0.246 OA
BRANCH  35  37
ATOM     37  C   UNL A   1      35.308  31.292  27.998  1.00  0.00     0.060 A 
ATOM     38  C   UNL A   1      36.294  32.248  28.175  1.00  0.00     0.016 A 
ATOM     39  C   UNL A   1      35.542  29.986  28.428  1.00  0.00     0.016 A 
ATOM     40  C   UNL A   1      37.506  31.855  28.753  1.00  0.00     0.010 A 
ATOM     41  C   UNL A   1      36.674  29.614  29.101  1.00  0.00     0.010 A 
ATOM     42  C   UNL A   1      37.694  30.535  29.218  1.00  0.00    -0.014 A 
BRANCH  42  43
ATOM     43  C   UNL A   1      38.913  30.078  29.893  1.00  0.00     0.031 A 
ATOM     44  C   UNL A   1      39.270  30.586  31.265  1.00  0.00     0.074 A 
ATOM     45  C   UNL A   1      39.753  29.308  29.183  1.00  0.00     0.049 A 
ATOM     46  N   UNL A   1      40.260  30.215  32.030  1.00  0.00    -0.248 NA
ATOM     47  C   UNL A   1      38.449  31.671  31.844  1.00  0.00     0.031 C 
ATOM     48  C   UNL A   1      39.575  28.948  27.771  1.00  0.00     0.029 A 
ATOM     49  N   UNL A   1      40.912  28.686  29.543  1.00  0.00    -0.354 N 
ATOM     50  C   UNL A   1      40.181  31.013  33.165  1.00  0.00     0.074 A 
ATOM     51  C   UNL A   1      39.094  31.938  32.970  1.00  0.00     0.031 C 
ATOM     52  C   UNL A   1      40.545  28.095  27.412  1.00  0.00     0.029 A 
ATOM     53  C   UNL A   1      41.413  27.869  28.560  1.00  0.00     0.049 A 
ATOM     54  H   UNL A   1      41.346  28.811  30.419  1.00  0.00     0.167 HD
ATOM     55  C   UNL A   1      40.923  30.931  34.291  1.00  0.00     0.034 A 
ATOM     56  C   UNL A   1      42.435  26.997  28.607  1.00  0.00     0.034 A 
ATOM     57  C   UNL A   1      41.962  29.956  34.469  1.00  0.00     0.049 A 
ATOM     58  C   UNL A   1      43.167  26.840  29.904  1.00  0.00     0.074 A 
ATOM     59  C   UNL A   1      42.704  29.689  35.603  1.00  0.00     0.029 A 
ATOM     60  N   UNL A   1      42.397  29.087  33.480  1.00  0.00    -0.354 N 
ATOM     61  N   UNL A   1      42.965  27.467  31.038  1.00  0.00    -0.248 NA
ATOM     62  C   UNL A   1      44.241  25.843  29.944  1.00  0.00     0.031 C 
ATOM     63  C   UNL A   1      43.600  28.663  35.294  1.00  0.00     0.029 A 
ATOM     64  C   UNL A   1      43.401  28.281  33.975  1.00  0.00     0.049 A 
ATOM     65  H   UNL A   1      42.042  29.052  32.562  1.00  0.00     0.167 HD
ATOM     66  C   UNL A   1      43.875  26.931  31.936  1.00  0.00     0.074 A 
ATOM     67  C   UNL A   1      44.618  25.914  31.215  1.00  0.00     0.031 C 
ATOM     68  C   UNL A   1      44.089  27.258  33.233  1.00  0.00     0.034 A 
BRANCH  55  69
ATOM     69  C   UNL A   1      40.578  31.821  35.453  1.00  0.00     0.023 A 
ATOM     70  C   UNL A   1      41.354  32.978  35.677  1.00  0.00     0.012 A 
ATOM     71  C   UNL A   1      39.428  31.596  36.233  1.00  0.00     0.148 A 
ATOM     72  C   UNL A   1      40.990  33.899  36.657  1.00  0.00     0.002 A 
ATOM     73  C   UNL A   1      39.055  32.534  37.189  1.00  0.00     0.091 A 
ATOM     74  F   UNL A   1      38.714  30.485  36.010  1.00  0.00    -0.205 F 
ATOM     75  C   UNL A   1      39.833  33.684  37.403  1.00  0.00     0.022 A 
BRANCH  73  76
ATOM     76  S   UNL A   1      37.558  32.387  38.172  1.00  0.00     0.127 S 
ATOM     77  O   UNL A   1      37.919  33.136  39.376  1.00  0.00    -0.237 OA
ATOM     78  O   UNL A   1      36.568  33.043  37.320  1.00  0.00    -0.237 OA
ATOM     79  O   UNL A   1      37.346  30.960  38.378  1.00  0.00    -0.744 OA
ENDBRANCH  73  76
ENDBRANCH  55  69
BRANCH  56  80
ATOM     80  C   UNL A   1      42.696  26.135  27.428  1.00  0.00     0.023 A 
ATOM     81  C   UNL A   1      43.575  26.590  26.426  1.00  0.00     0.012 A 
ATOM     82  C   UNL A   1      42.183  24.827  27.357  1.00  0.00     0.148 A 
ATOM     83  C   UNL A   1      43.932  25.757  25.366  1.00  0.00     0.002 A 
ATOM     84  C   UNL A   1      42.570  23.991  26.318  1.00  0.00     0.091 A 
ATOM     85  F   UNL A   1      41.364  24.416  28.336  1.00  0.00    -0.205 F 
ATOM     86  C   UNL A   1      43.439  24.456  25.317  1.00  0.00     0.022 A 
BRANCH  84  87
ATOM     87  S   UNL A   1      42.067  22.269  26.224  1.00  0.00     0.127 S 
ATOM     88  O   UNL A   1      42.747  21.828  25.010  1.00  0.00    -0.237 OA
ATOM     89  O   UNL A   1      42.615  21.730  27.469  1.00  0.00    -0.237 OA
ATOM     90  O   UNL A   1      40.612  22.284  26.158  1.00  0.00    -0.744 OA
ENDBRANCH  84  87
ENDBRANCH  56  80
BRANCH  68  91
ATOM     91  C   UNL A   1      45.163  26.514  33.965  1.00  0.00     0.023 A 
ATOM     92  C   UNL A   1      46.483  26.999  33.929  1.00  0.00     0.012 A 
ATOM     93  C   UNL A   1      44.834  25.425  34.795  1.00  0.00     0.148 A 
ATOM     94  C   UNL A   1      47.470  26.402  34.708  1.00  0.00     0.002 A 
ATOM     95  C   UNL A   1      45.815  24.860  35.595  1.00  0.00     0.091 A 
ATOM     96  F   UNL A   1      43.566  24.989  34.803  1.00  0.00    -0.205 F 
ATOM     97  C   UNL A   1      47.133  25.343  35.550  1.00  0.00     0.022 A 
BRANCH  95  98
ATOM     98  S   UNL A   1      45.465  23.542  36.764  1.00  0.00     0.127 S 
ATOM     99  O   UNL A   1      44.516  24.194  37.666  1.00  0.00    -0.237 OA
ATOM    100  O   UNL A   1      44.883  22.515  35.903  1.00  0.00    -0.237 OA
ATOM    101  O   UNL A   1      46.741  23.183  37.366  1.00  0.00    -0.744 OA
ENDBRANCH  95  98
ENDBRANCH  68  91
ENDBRANCH  42  43
ENDBRANCH  35  37
ENDBRANCH  34  35
ENDBRANCH  33  34
ENDBRANCH   1  33
TORSDOF 20
ENDMDL
MODEL 2
REMARK VINA RESULT:     -11.7      2.028      2.412
REMARK SMILES CO[C@@H]1C[NH2+][C@@H](O[C@@H]2C[C@@H](C(=O)OCCOC(=O)c3ccc(-c4c5nc(c(-c6cccc(S(=O)(=O)[O-])c6F)c6ccc([nH]6)c(-c6cccc(S(=O)(=O)[O-])c6F)c6nc(c(-c7cccc(S(=O)(=O)[O-])c7F)c7ccc4[nH]7)C=C6)C=C5)cc3)N(C(=O)OC(C)(C)C)C2)c2cc(Cl)ccc21
REMARK SMILES IDX 14 1 13 2 11 3 12 4 10 5 8 6 9 7 90 8 82 9 7 10 6 11 3 12
REMARK SMILES IDX 4 13 97 14 5 15 91 16 96 17 92 20 95 21 93 22 94 23 2 24
REMARK SMILES IDX 1 25 83 26 84 27 85 28 86 29 87 30 88 31 89 32 15 33 16 34
REMARK SMILES IDX 17 35 18 36 19 37 20 38 81 39 21 40 80 41 22 42 23 43 24 44
REMARK SMILES IDX 74 45 25 46 79 47 73 48 75 49 26 50 78 51 72 52 71 53 27 55
REMARK SMILES IDX 59 56 39 57 58 58 40 59 43 60 57 61 76 62 41 63 42 64 56 66
REMARK SMILES IDX 77 67 44 68 28 69 29 70 37 71 30 72 32 73 38 74 31 75 33 76
REMARK SMILES IDX 34 77 35 78 36 79 60 80 61 81 69 82 62 83 64 84 70 85 63 86
REMARK SMILES IDX 65 87 66 88 67 89 68 90 45 91 46 92 54 93 47 94 49 95 55 96
REMARK SMILES IDX 48 97 50 98 51 99 52 100 53 101
REMARK H PARENT 5 18 5 19 75 54 43 65
REMARK Flexibility Score: inf
ROOT
ATOM      1  C   UNL A   1      32.036  30.212  25.950  1.00  0.00     0.274 C 
ENDROOT
BRANCH   1   2
ATOM      2  O   UNL A   1      31.896  28.880  25.429  1.00  0.00    -0.461 OA
BRANCH   2   3
ATOM      3  C   UNL A   1      32.442  28.677  24.197  1.00  0.00     0.329 C 
ATOM      4  O   UNL A   1      33.029  29.542  23.560  1.00  0.00    -0.250 OA
BRANCH   3   5
ATOM      5  C   UNL A   1      32.159  27.243  23.713  1.00  0.00     0.201 C 
ATOM      6  C   UNL A   1      32.602  25.310  22.337  1.00  0.00     0.147 C 
ATOM      7  C   UNL A   1      33.302  26.424  23.108  1.00  0.00     0.071 C 
ATOM      8  C   UNL A   1      31.275  25.954  21.878  1.00  0.00     0.156 C 
ATOM      9  N   UNL A   1      31.038  27.061  22.797  1.00  0.00    -0.292 N 
BRANCH   6  10
ATOM     10  O   UNL A   1      32.541  24.007  22.900  1.00  0.00    -0.320 OA
BRANCH  10  11
ATOM     11  C   UNL A   1      33.342  22.864  22.633  1.00  0.00     0.354 C 
ATOM     12  C   UNL A   1      32.894  20.302  24.063  1.00  0.00     0.203 C 
ATOM     13  C   UNL A   1      31.953  20.919  22.985  1.00  0.00     0.300 C 
ATOM     14  C   UNL A   1      34.145  21.145  24.337  1.00  0.00    -0.002 A 
ATOM     15  N   UNL A   1      32.574  21.803  22.010  1.00  0.00    -0.315 N 
ATOM     16  C   UNL A   1      34.338  22.373  23.663  1.00  0.00     0.046 A 
ATOM     17  C   UNL A   1      35.002  20.821  25.406  1.00  0.00     0.009 A 
ATOM     18  H   UNL A   1      31.842  22.222  21.436  1.00  0.00     0.349 HD
ATOM     19  H   UNL A   1      33.216  21.244  21.449  1.00  0.00     0.349 HD
ATOM     20  C   UNL A   1      35.437  23.194  23.999  1.00  0.00     0.033 A 
ATOM     21  C   UNL A   1      36.036  21.687  25.785  1.00  0.00     0.021 A 
ATOM     22  C   UNL A   1      36.261  22.859  25.070  1.00  0.00     0.041 A 
ATOM     23  Cl  UNL A   1      37.515  23.934  25.555  1.00  0.00    -0.084 Cl
BRANCH  12  24
ATOM     24  O   UNL A   1      33.193  18.923  23.821  1.00  0.00    -0.371 OA
ATOM     25  C   UNL A   1      32.277  18.363  22.874  1.00  0.00     0.196 C 
ENDBRANCH  12  24
ENDBRANCH  10  11
ENDBRANCH   6  10
BRANCH   9  26
ATOM     26  C   UNL A   1      29.783  27.607  22.991  1.00  0.00     0.411 C 
ATOM     27  O   UNL A   1      28.970  27.188  23.792  1.00  0.00    -0.224 OA
BRANCH  26  28
ATOM     28  O   UNL A   1      29.594  28.684  22.185  1.00  0.00    -0.444 OA
BRANCH  28  29
ATOM     29  C   UNL A   1      28.663  29.750  22.501  1.00  0.00     0.106 C 
ATOM     30  C   UNL A   1      27.297  29.209  22.935  1.00  0.00     0.056 C 
ATOM     31  C   UNL A   1      29.256  30.709  23.531  1.00  0.00     0.056 C 
ATOM     32  C   UNL A   1      28.481  30.509  21.173  1.00  0.00     0.056 C 
ENDBRANCH  28  29
ENDBRANCH  26  28
ENDBRANCH   9  26
ENDBRANCH   3   5
ENDBRANCH   2   3
ENDBRANCH   1   2
BRANCH   1  33
ATOM     33  C   UNL A   1      33.355  30.372  26.711  1.00  0.00     0.275 C 
BRANCH  33  34
ATOM     34  O   UNL A   1      33.198  31.195  27.885  1.00  0.00    -0.458 OA
BRANCH  34  35
ATOM     35  C   UNL A   1      34.041  32.254  27.957  1.00  0.00     0.338 C 
ATOM     36  O   UNL A   1      33.735  33.434  27.880  1.00  0.00    -0.246 OA
BRANCH  35  37
ATOM     37  C   UNL A   1      35.383  31.811  28.369  1.00  0.00     0.060 A 
ATOM     38  C   UNL A   1      36.515  32.586  28.178  1.00  0.00     0.016 A 
ATOM     39  C   UNL A   1      35.488  30.615  29.077  1.00  0.00     0.016 A 
ATOM     40  C   UNL A   1      37.735  32.117  28.680  1.00  0.00     0.010 A 
ATOM     41  C   UNL A   1      36.649  30.202  29.676  1.00  0.00     0.010 A 
ATOM     42  C   UNL A   1      37.799  30.923  29.431  1.00  0.00    -0.014 A 
BRANCH  42  43
ATOM     43  C   UNL A   1      39.031  30.413  30.041  1.00  0.00     0.031 A 
ATOM     44  C   UNL A   1      39.520  30.956  31.358  1.00  0.00     0.074 A 
ATOM     45  C   UNL A   1      39.764  29.555  29.313  1.00  0.00     0.049 A 
ATOM     46  N   UNL A   1      40.537  30.551  32.069  1.00  0.00    -0.248 NA
ATOM     47  C   UNL A   1      38.817  32.119  31.938  1.00  0.00     0.031 C 
ATOM     48  C   UNL A   1      39.460  29.146  27.937  1.00  0.00     0.029 A 
ATOM     49  N   UNL A   1      40.903  28.871  29.621  1.00  0.00    -0.354 N 
ATOM     50  C   UNL A   1      40.594  31.402  33.166  1.00  0.00     0.074 A 
ATOM     51  C   UNL A   1      39.559  32.391  33.003  1.00  0.00     0.031 C 
ATOM     52  C   UNL A   1      40.342  28.213  27.553  1.00  0.00     0.029 A 
ATOM     53  C   UNL A   1      41.276  27.979  28.647  1.00  0.00     0.049 A 
ATOM     54  H   UNL A   1      41.407  29.005  30.458  1.00  0.00     0.167 HD
ATOM     55  C   UNL A   1      41.409  31.319  34.240  1.00  0.00     0.034 A 
ATOM     56  C   UNL A   1      42.238  27.041  28.665  1.00  0.00     0.034 A 
ATOM     57  C   UNL A   1      42.391  30.284  34.393  1.00  0.00     0.049 A 
ATOM     58  C   UNL A   1      43.051  26.892  29.914  1.00  0.00     0.074 A 
ATOM     59  C   UNL A   1      43.195  30.016  35.484  1.00  0.00     0.029 A 
ATOM     60  N   UNL A   1      42.695  29.344  33.420  1.00  0.00    -0.354 N 
ATOM     61  N   UNL A   1      42.974  27.581  31.028  1.00  0.00    -0.248 NA
ATOM     62  C   UNL A   1      44.057  25.825  29.928  1.00  0.00     0.031 C 
ATOM     63  C   UNL A   1      43.997  28.918  35.164  1.00  0.00     0.029 A 
ATOM     64  C   UNL A   1      43.677  28.493  33.883  1.00  0.00     0.049 A 
ATOM     65  H   UNL A   1      42.272  29.292  32.532  1.00  0.00     0.167 HD
ATOM     66  C   UNL A   1      43.910  27.023  31.885  1.00  0.00     0.074 A 
ATOM     67  C   UNL A   1      44.530  25.926  31.165  1.00  0.00     0.031 C 
ATOM     68  C   UNL A   1      44.240  27.392  33.146  1.00  0.00     0.034 A 
BRANCH  55  69
ATOM     69  C   UNL A   1      41.210  32.282  35.379  1.00  0.00     0.023 A 
ATOM     70  C   UNL A   1      40.339  31.922  36.429  1.00  0.00     0.012 A 
ATOM     71  C   UNL A   1      41.969  33.463  35.482  1.00  0.00     0.148 A 
ATOM     72  C   UNL A   1      40.228  32.722  37.565  1.00  0.00     0.002 A 
ATOM     73  C   UNL A   1      41.874  34.240  36.630  1.00  0.00     0.091 A 
ATOM     74  F   UNL A   1      42.781  33.790  34.467  1.00  0.00    -0.205 F 
ATOM     75  C   UNL A   1      41.005  33.872  37.672  1.00  0.00     0.022 A 
BRANCH  73  76
ATOM     76  S   UNL A   1      42.866  35.714  36.899  1.00  0.00     0.127 S 
ATOM     77  O   UNL A   1      42.049  36.448  37.866  1.00  0.00    -0.237 OA
ATOM     78  O   UNL A   1      44.101  35.155  37.446  1.00  0.00    -0.237 OA
ATOM     79  O   UNL A   1      43.002  36.355  35.598  1.00  0.00    -0.744 OA
ENDBRANCH  73  76
ENDBRANCH  55  69
BRANCH  56  80
ATOM     80  C   UNL A   1      42.355  26.111  27.515  1.00  0.00     0.023 A 
ATOM     81  C   UNL A   1      43.065  26.522  26.370  1.00  0.00     0.012 A 
ATOM     82  C   UNL A   1      41.881  24.789  27.599  1.00  0.00     0.148 A 
ATOM     83  C   UNL A   1      43.292  25.631  25.322  1.00  0.00     0.002 A 
ATOM     84  C   UNL A   1      42.142  23.897  26.567  1.00  0.00     0.091 A 
ATOM     85  F   UNL A   1      41.226  24.423  28.710  1.00  0.00    -0.205 F 
ATOM     86  C   UNL A   1      42.841  24.318  25.424  1.00  0.00     0.022 A 
BRANCH  84  87
ATOM     87  S   UNL A   1      41.688  22.162  26.652  1.00  0.00     0.127 S 
ATOM     88  O   UNL A   1      42.211  21.657  25.385  1.00  0.00    -0.237 OA
ATOM     89  O   UNL A   1      42.417  21.720  27.841  1.00  0.00    -0.237 OA
ATOM     90  O   UNL A   1      40.238  22.136  26.786  1.00  0.00    -0.744 OA
ENDBRANCH  84  87
ENDBRANCH  56  80
BRANCH  68  91
ATOM     91  C   UNL A   1      45.313  26.609  33.837  1.00  0.00     0.023 A 
ATOM     92  C   UNL A   1      46.660  26.961  33.636  1.00  0.00     0.012 A 
ATOM     93  C   UNL A   1      44.976  25.625  34.786  1.00  0.00     0.148 A 
ATOM     94  C   UNL A   1      47.664  26.336  34.369  1.00  0.00     0.002 A 
ATOM     95  C   UNL A   1      45.979  25.033  35.538  1.00  0.00     0.091 A 
ATOM     96  F   UNL A   1      43.682  25.314  34.951  1.00  0.00    -0.205 F 
ATOM     97  C   UNL A   1      47.324  25.384  35.328  1.00  0.00     0.022 A 
BRANCH  95  98
ATOM     98  S   UNL A   1      45.635  23.852  36.846  1.00  0.00     0.127 S 
ATOM     99  O   UNL A   1      44.939  22.795  36.112  1.00  0.00    -0.237 OA
ATOM    100  O   UNL A   1      46.979  23.497  37.300  1.00  0.00    -0.237 OA
ATOM    101  O   UNL A   1      44.825  24.557  37.828  1.00  0.00    -0.744 OA
ENDBRANCH  95  98
ENDBRANCH  68  91
ENDBRANCH  42  43
ENDBRANCH  35  37
ENDBRANCH  34  35
ENDBRANCH  33  34
ENDBRANCH   1  33
TORSDOF 20
ENDMDL
MODEL 3
REMARK VINA RESULT:     -10.7      2.636      3.161
REMARK SMILES CO[C@@H]1C[NH2+][C@@H](O[C@@H]2C[C@@H](C(=O)OCCOC(=O)c3ccc(-c4c5nc(c(-c6cccc(S(=O)(=O)[O-])c6F)c6ccc([nH]6)c(-c6cccc(S(=O)(=O)[O-])c6F)c6nc(c(-c7cccc(S(=O)(=O)[O-])c7F)c7ccc4[nH]7)C=C6)C=C5)cc3)N(C(=O)OC(C)(C)C)C2)c2cc(Cl)ccc21
REMARK SMILES IDX 14 1 13 2 11 3 12 4 10 5 8 6 9 7 90 8 82 9 7 10 6 11 3 12
REMARK SMILES IDX 4 13 97 14 5 15 91 16 96 17 92 20 95 21 93 22 94 23 2 24
REMARK SMILES IDX 1 25 83 26 84 27 85 28 86 29 87 30 88 31 89 32 15 33 16 34
REMARK SMILES IDX 17 35 18 36 19 37 20 38 81 39 21 40 80 41 22 42 23 43 24 44
REMARK SMILES IDX 74 45 25 46 79 47 73 48 75 49 26 50 78 51 72 52 71 53 27 55
REMARK SMILES IDX 59 56 39 57 58 58 40 59 43 60 57 61 76 62 41 63 42 64 56 66
REMARK SMILES IDX 77 67 44 68 28 69 29 70 37 71 30 72 32 73 38 74 31 75 33 76
REMARK SMILES IDX 34 77 35 78 36 79 60 80 61 81 69 82 62 83 64 84 70 85 63 86
REMARK SMILES IDX 65 87 66 88 67 89 68 90 45 91 46 92 54 93 47 94 49 95 55 96
REMARK SMILES IDX 48 97 50 98 51 99 52 100 53 101
REMARK H PARENT 5 18 5 19 75 54 43 65
REMARK Flexibility Score: inf
ROOT
ATOM      1  C   UNL A   1      32.306  30.149  26.000  1.00  0.00     0.274 C 
ENDROOT
BRANCH   1   2
ATOM      2  O   UNL A   1      31.970  28.896  25.382  1.00  0.00    -0.461 OA
BRANCH   2   3
ATOM      3  C   UNL A   1      32.503  28.699  24.143  1.00  0.00     0.329 C 
ATOM      4  O   UNL A   1      33.108  29.559  23.514  1.00  0.00    -0.250 OA
BRANCH   3   5
ATOM      5  C   UNL A   1      32.183  27.279  23.640  1.00  0.00     0.201 C 
ATOM      6  C   UNL A   1      32.582  25.349  22.246  1.00  0.00     0.147 C 
ATOM      7  C   UNL A   1      33.307  26.433  23.036  1.00  0.00     0.071 C 
ATOM      8  C   UNL A   1      31.279  26.038  21.781  1.00  0.00     0.156 C 
ATOM      9  N   UNL A   1      31.066  27.141  22.711  1.00  0.00    -0.292 N 
BRANCH   6  10
ATOM     10  O   UNL A   1      32.476  24.042  22.793  1.00  0.00    -0.320 OA
BRANCH  10  11
ATOM     11  C   UNL A   1      33.289  22.898  22.576  1.00  0.00     0.354 C 
ATOM     12  C   UNL A   1      32.763  20.343  23.992  1.00  0.00     0.203 C 
ATOM     13  C   UNL A   1      31.882  20.955  22.861  1.00  0.00     0.300 C 
ATOM     14  C   UNL A   1      33.998  21.186  24.329  1.00  0.00    -0.002 A 
ATOM     15  N   UNL A   1      32.555  21.834  21.918  1.00  0.00    -0.315 N 
ATOM     16  C   UNL A   1      34.228  22.411  23.660  1.00  0.00     0.046 A 
ATOM     17  C   UNL A   1      34.797  20.867  25.443  1.00  0.00     0.009 A 
ATOM     18  H   UNL A   1      31.855  22.251  21.303  1.00  0.00     0.349 HD
ATOM     19  H   UNL A   1      33.226  21.272  21.394  1.00  0.00     0.349 HD
ATOM     20  C   UNL A   1      35.307  23.233  24.051  1.00  0.00     0.033 A 
ATOM     21  C   UNL A   1      35.809  21.735  25.873  1.00  0.00     0.021 A 
ATOM     22  C   UNL A   1      36.073  22.904  25.166  1.00  0.00     0.041 A 
ATOM     23  Cl  UNL A   1      37.300  23.981  25.713  1.00  0.00    -0.084 Cl
BRANCH  12  24
ATOM     24  O   UNL A   1      33.074  18.963  23.773  1.00  0.00    -0.371 OA
ATOM     25  C   UNL A   1      32.276  18.424  22.713  1.00  0.00     0.196 C 
ENDBRANCH  12  24
ENDBRANCH  10  11
ENDBRANCH   6  10
BRANCH   9  26
ATOM     26  C   UNL A   1      29.826  27.723  22.898  1.00  0.00     0.411 C 
ATOM     27  O   UNL A   1      29.017  27.357  23.729  1.00  0.00    -0.224 OA
BRANCH  26  28
ATOM     28  O   UNL A   1      29.647  28.767  22.048  1.00  0.00    -0.444 OA
BRANCH  28  29
ATOM     29  C   UNL A   1      28.832  29.919  22.377  1.00  0.00     0.106 C 
ATOM     30  C   UNL A   1      29.369  30.673  23.599  1.00  0.00     0.056 C 
ATOM     31  C   UNL A   1      28.661  30.835  21.167  1.00  0.00     0.056 C 
ATOM     32  C   UNL A   1      27.458  29.328  22.743  1.00  0.00     0.056 C 
ENDBRANCH  28  29
ENDBRANCH  26  28
ENDBRANCH   9  26
ENDBRANCH   3   5
ENDBRANCH   2   3
ENDBRANCH   1   2
BRANCH   1  33
ATOM     33  C   UNL A   1      33.648  30.064  26.731  1.00  0.00     0.275 C 
BRANCH  33  34
ATOM     34  O   UNL A   1      33.673  30.902  27.904  1.00  0.00    -0.458 OA
BRANCH  34  35
ATOM     35  C   UNL A   1      34.512  31.964  27.830  1.00  0.00     0.338 C 
ATOM     36  O   UNL A   1      34.223  33.094  27.467  1.00  0.00    -0.246 OA
BRANCH  35  37
ATOM     37  C   UNL A   1      35.801  31.642  28.463  1.00  0.00     0.060 A 
ATOM     38  C   UNL A   1      36.861  32.532  28.491  1.00  0.00     0.016 A 
ATOM     39  C   UNL A   1      35.907  30.435  29.154  1.00  0.00     0.016 A 
ATOM     40  C   UNL A   1      38.017  32.168  29.191  1.00  0.00     0.010 A 
ATOM     41  C   UNL A   1      36.983  30.118  29.939  1.00  0.00     0.010 A 
ATOM     42  C   UNL A   1      38.075  30.958  29.917  1.00  0.00    -0.014 A 
BRANCH  42  43
ATOM     43  C   UNL A   1      39.230  30.551  30.724  1.00  0.00     0.031 A 
ATOM     44  C   UNL A   1      39.462  31.143  32.089  1.00  0.00     0.074 A 
ATOM     45  C   UNL A   1      40.131  29.746  30.139  1.00  0.00     0.049 A 
ATOM     46  N   UNL A   1      40.380  30.825  32.961  1.00  0.00    -0.248 NA
ATOM     47  C   UNL A   1      38.591  32.254  32.526  1.00  0.00     0.031 C 
ATOM     48  C   UNL A   1      40.081  29.301  28.741  1.00  0.00     0.029 A 
ATOM     49  N   UNL A   1      41.255  29.155  30.638  1.00  0.00    -0.354 N 
ATOM     50  C   UNL A   1      40.199  31.688  34.034  1.00  0.00     0.074 A 
ATOM     51  C   UNL A   1      39.132  32.593  33.688  1.00  0.00     0.031 C 
ATOM     52  C   UNL A   1      41.080  28.435  28.522  1.00  0.00     0.029 A 
ATOM     53  C   UNL A   1      41.843  28.284  29.754  1.00  0.00     0.049 A 
ATOM     54  H   UNL A   1      41.608  29.334  31.540  1.00  0.00     0.167 HD
ATOM     55  C   UNL A   1      40.838  31.679  35.224  1.00  0.00     0.034 A 
ATOM     56  C   UNL A   1      42.858  27.424  29.944  1.00  0.00     0.034 A 
ATOM     57  C   UNL A   1      41.858  30.724  35.552  1.00  0.00     0.049 A 
ATOM     58  C   UNL A   1      43.471  27.349  31.308  1.00  0.00     0.074 A 
ATOM     59  C   UNL A   1      42.496  30.530  36.762  1.00  0.00     0.029 A 
ATOM     60  N   UNL A   1      42.381  29.800  34.660  1.00  0.00    -0.354 N 
ATOM     61  N   UNL A   1      43.167  28.041  32.380  1.00  0.00    -0.248 NA
ATOM     62  C   UNL A   1      44.539  26.363  31.504  1.00  0.00     0.031 C 
ATOM     63  C   UNL A   1      43.418  29.494  36.596  1.00  0.00     0.029 A 
ATOM     64  C   UNL A   1      43.338  29.033  35.290  1.00  0.00     0.049 A 
ATOM     65  H   UNL A   1      42.109  29.708  33.718  1.00  0.00     0.167 HD
ATOM     66  C   UNL A   1      43.994  27.566  33.386  1.00  0.00     0.074 A 
ATOM     67  C   UNL A   1      44.800  26.513  32.797  1.00  0.00     0.031 C 
ATOM     68  C   UNL A   1      44.091  27.971  34.675  1.00  0.00     0.034 A 
BRANCH  55  69
ATOM     69  C   UNL A   1      40.389  32.634  36.296  1.00  0.00     0.023 A 
ATOM     70  C   UNL A   1      39.243  32.316  37.054  1.00  0.00     0.012 A 
ATOM     71  C   UNL A   1      41.158  33.760  36.643  1.00  0.00     0.148 A 
ATOM     72  C   UNL A   1      38.869  33.103  38.142  1.00  0.00     0.002 A 
ATOM     73  C   UNL A   1      40.796  34.524  37.747  1.00  0.00     0.091 A 
ATOM     74  F   UNL A   1      42.236  34.050  35.901  1.00  0.00    -0.205 F 
ATOM     75  C   UNL A   1      39.653  34.197  38.497  1.00  0.00     0.022 A 
BRANCH  73  76
ATOM     76  S   UNL A   1      41.760  35.925  38.327  1.00  0.00     0.127 S 
ATOM     77  O   UNL A   1      40.957  36.389  39.458  1.00  0.00    -0.237 OA
ATOM     78  O   UNL A   1      43.025  35.292  38.697  1.00  0.00    -0.237 OA
ATOM     79  O   UNL A   1      41.839  36.854  37.208  1.00  0.00    -0.744 OA
ENDBRANCH  73  76
ENDBRANCH  55  69
BRANCH  56  80
ATOM     80  C   UNL A   1      43.224  26.494  28.847  1.00  0.00     0.023 A 
ATOM     81  C   UNL A   1      42.472  25.318  28.665  1.00  0.00     0.012 A 
ATOM     82  C   UNL A   1      44.224  26.829  27.915  1.00  0.00     0.148 A 
ATOM     83  C   UNL A   1      42.716  24.484  27.575  1.00  0.00     0.002 A 
ATOM     84  C   UNL A   1      44.438  26.012  26.813  1.00  0.00     0.091 A 
ATOM     85  F   UNL A   1      44.910  27.965  28.105  1.00  0.00    -0.205 F 
ATOM     86  C   UNL A   1      43.690  24.835  26.645  1.00  0.00     0.022 A 
BRANCH  84  87
ATOM     87  S   UNL A   1      45.600  26.432  25.510  1.00  0.00     0.127 S 
ATOM     88  O   UNL A   1      45.038  27.682  25.005  1.00  0.00    -0.237 OA
ATOM     89  O   UNL A   1      46.849  26.576  26.259  1.00  0.00    -0.237 OA
ATOM     90  O   UNL A   1      45.577  25.313  24.579  1.00  0.00    -0.744 OA
ENDBRANCH  84  87
ENDBRANCH  56  80
BRANCH  68  91
ATOM     91  C   UNL A   1      45.097  27.280  35.544  1.00  0.00     0.023 A 
ATOM     92  C   UNL A   1      44.716  26.125  36.250  1.00  0.00     0.012 A 
ATOM     93  C   UNL A   1      46.441  27.695  35.543  1.00  0.00     0.148 A 
ATOM     94  C   UNL A   1      45.665  25.391  36.956  1.00  0.00     0.002 A 
ATOM     95  C   UNL A   1      47.387  26.938  36.218  1.00  0.00     0.091 A 
ATOM     96  F   UNL A   1      46.768  28.801  34.859  1.00  0.00    -0.205 F 
ATOM     97  C   UNL A   1      47.001  25.789  36.928  1.00  0.00     0.022 A 
BRANCH  95  98
ATOM     98  S   UNL A   1      49.140  27.328  36.182  1.00  0.00     0.127 S 
ATOM     99  O   UNL A   1      49.739  25.996  36.247  1.00  0.00    -0.237 OA
ATOM    100  O   UNL A   1      49.278  27.998  34.889  1.00  0.00    -0.237 OA
ATOM    101  O   UNL A   1      49.391  28.176  37.338  1.00  0.00    -0.744 OA
ENDBRANCH  95  98
ENDBRANCH  68  91
ENDBRANCH  42  43
ENDBRANCH  35  37
ENDBRANCH  34  35
ENDBRANCH  33  34
ENDBRANCH   1  33
TORSDOF 20
ENDMDL
