MODEL 1
REMARK VINA RESULT:     -12.7      0.000      0.000
REMARK SMILES Cn1cc(-c2cc(C(F)(F)F)c3c(C4CC4)nn(CC(=O)OCCOC(=O)c4ccc(-c5c6nc(c(-c7cccc(S(=O)(=O)[O-])c7F)c7ccc([nH]7)c(-c7cccc(S(=O)(=O)[O-])c7F)c7nc(c(-c8cccc(S(=O)(=O)[O-])c8F)c8ccc5[nH]8)C=C7)C=C6)cc4)c3n2)cn1
REMARK SMILES IDX 24 1 23 2 22 3 20 4 21 5 19 6 18 7 5 8 6 9 92 10 7 11 91 12
REMARK SMILES IDX 12 13 13 14 17 15 4 16 1 17 2 18 3 19 94 20 93 21 8 22 9 23
REMARK SMILES IDX 10 24 11 25 14 26 15 27 16 28 25 29 26 30 27 31 28 32 29 33
REMARK SMILES IDX 90 34 30 35 89 36 31 37 32 38 33 39 83 40 34 41 88 42 82 43
REMARK SMILES IDX 84 44 35 45 87 46 81 47 80 48 36 50 68 51 48 52 67 53 49 54
REMARK SMILES IDX 52 55 66 56 85 57 50 58 51 59 65 61 86 62 53 63 37 64 38 65
REMARK SMILES IDX 46 66 39 67 41 68 47 69 40 70 42 71 43 72 44 73 45 74 69 75
REMARK SMILES IDX 70 76 78 77 71 78 73 79 79 80 72 81 74 82 75 83 76 84 77 85
REMARK SMILES IDX 54 86 55 87 63 88 56 89 58 90 64 91 57 92 59 93 60 94 61 95
REMARK SMILES IDX 62 96
REMARK H PARENT 84 49 52 60
REMARK Flexibility Score: inf
ROOT
ATOM      1  C   UNL A   1      35.849  20.651  25.119  1.00  0.00     0.275 C 
ENDROOT
BRANCH   1   2
ATOM      2  C   UNL A   1      34.819  21.696  25.525  1.00  0.00     0.274 C 
BRANCH   2   3
ATOM      3  O   UNL A   1      34.065  21.196  26.644  1.00  0.00    -0.461 OA
BRANCH   3   4
ATOM      4  C   UNL A   1      33.117  22.029  27.130  1.00  0.00     0.327 C 
ATOM      5  O   UNL A   1      32.933  22.232  28.331  1.00  0.00    -0.250 OA
BRANCH   4   6
ATOM      6  C   UNL A   1      32.216  22.623  26.105  1.00  0.00     0.269 C 
BRANCH   6   7
ATOM      7  N   UNL A   1      31.600  23.938  26.276  1.00  0.00    -0.236 N 
ATOM      8  C   UNL A   1      34.104  26.116  25.294  1.00  0.00     0.077 A 
ATOM      9  C   UNL A   1      33.517  27.355  25.511  1.00  0.00     0.043 A 
ATOM     10  N   UNL A   1      33.728  25.046  26.029  1.00  0.00    -0.228 NA
ATOM     11  C   UNL A   1      32.254  27.407  26.148  1.00  0.00     0.071 A 
ATOM     12  C   UNL A   1      32.394  25.057  26.218  1.00  0.00     0.159 A 
ATOM     13  C   UNL A   1      31.574  26.169  26.145  1.00  0.00     0.055 A 
ATOM     14  C   UNL A   1      30.310  25.586  25.841  1.00  0.00     0.076 A 
ATOM     15  N   UNL A   1      30.302  24.247  26.032  1.00  0.00    -0.174 NA
BRANCH   8  16
ATOM     16  C   UNL A   1      34.359  25.659  23.918  1.00  0.00     0.038 A 
ATOM     17  C   UNL A   1      32.188  25.775  21.145  1.00  0.00     0.173 C 
ATOM     18  N   UNL A   1      33.351  25.517  21.967  1.00  0.00    -0.275 N 
ATOM     19  C   UNL A   1      33.876  26.417  22.858  1.00  0.00     0.118 A 
ATOM     20  N   UNL A   1      33.768  24.256  22.195  1.00  0.00    -0.181 NA
ATOM     21  C   UNL A   1      34.300  24.331  23.423  1.00  0.00     0.145 A 
ENDBRANCH   8  16
BRANCH  11  22
ATOM     22  C   UNL A   1      31.863  28.605  26.967  1.00  0.00     0.417 C 
ATOM     23  F   UNL A   1      32.859  29.222  27.642  1.00  0.00    -0.166 F 
ATOM     24  F   UNL A   1      31.284  29.570  26.193  1.00  0.00    -0.166 F 
ATOM     25  F   UNL A   1      30.922  28.305  27.912  1.00  0.00    -0.166 F 
ENDBRANCH  11  22
BRANCH  14  26
ATOM     26  C   UNL A   1      29.132  26.207  25.065  1.00  0.00     0.041 C 
ATOM     27  C   UNL A   1      29.217  27.334  24.067  1.00  0.00     0.011 C 
ATOM     28  C   UNL A   1      29.070  25.946  23.559  1.00  0.00     0.011 C 
ENDBRANCH  14  26
ENDBRANCH   6   7
ENDBRANCH   4   6
ENDBRANCH   3   4
ENDBRANCH   2   3
ENDBRANCH   1   2
BRANCH   1  29
ATOM     29  O   UNL A   1      37.096  21.225  24.695  1.00  0.00    -0.458 OA
BRANCH  29  30
ATOM     30  C   UNL A   1      38.198  20.610  25.175  1.00  0.00     0.338 C 
ATOM     31  O   UNL A   1      38.537  19.457  24.993  1.00  0.00    -0.246 OA
BRANCH  30  32
ATOM     32  C   UNL A   1      38.922  21.480  26.107  1.00  0.00     0.060 A 
ATOM     33  C   UNL A   1      38.534  22.825  26.123  1.00  0.00     0.016 A 
ATOM     34  C   UNL A   1      40.058  21.037  26.794  1.00  0.00     0.016 A 
ATOM     35  C   UNL A   1      39.343  23.754  26.731  1.00  0.00     0.010 A 
ATOM     36  C   UNL A   1      40.865  21.968  27.417  1.00  0.00     0.010 A 
ATOM     37  C   UNL A   1      40.522  23.320  27.337  1.00  0.00    -0.014 A 
BRANCH  37  38
ATOM     38  C   UNL A   1      41.313  24.327  28.016  1.00  0.00     0.031 A 
ATOM     39  C   UNL A   1      40.657  25.660  28.093  1.00  0.00     0.074 A 
ATOM     40  C   UNL A   1      42.465  24.027  28.639  1.00  0.00     0.049 A 
ATOM     41  N   UNL A   1      41.093  26.799  27.661  1.00  0.00    -0.248 NA
ATOM     42  C   UNL A   1      39.275  25.692  28.604  1.00  0.00     0.031 C 
ATOM     43  C   UNL A   1      43.032  22.697  28.879  1.00  0.00     0.029 A 
ATOM     44  N   UNL A   1      43.282  24.851  29.349  1.00  0.00    -0.354 N 
ATOM     45  C   UNL A   1      40.121  27.724  28.037  1.00  0.00     0.074 A 
ATOM     46  C   UNL A   1      38.965  26.978  28.460  1.00  0.00     0.031 C 
ATOM     47  C   UNL A   1      43.919  22.783  29.894  1.00  0.00     0.029 A 
ATOM     48  C   UNL A   1      44.056  24.175  30.284  1.00  0.00     0.049 A 
ATOM     49  H   UNL A   1      43.320  25.826  29.213  1.00  0.00     0.167 HD
ATOM     50  C   UNL A   1      40.389  29.045  28.208  1.00  0.00     0.034 A 
ATOM     51  C   UNL A   1      44.643  24.730  31.371  1.00  0.00     0.034 A 
ATOM     52  C   UNL A   1      41.618  29.454  27.601  1.00  0.00     0.049 A 
ATOM     53  C   UNL A   1      44.719  26.192  31.127  1.00  0.00     0.074 A 
ATOM     54  C   UNL A   1      42.113  29.479  26.313  1.00  0.00     0.029 A 
ATOM     55  N   UNL A   1      42.698  29.619  28.430  1.00  0.00    -0.354 N 
ATOM     56  N   UNL A   1      45.451  26.746  30.201  1.00  0.00    -0.248 NA
ATOM     57  C   UNL A   1      43.680  27.041  31.691  1.00  0.00     0.031 C 
ATOM     58  C   UNL A   1      43.504  29.200  26.448  1.00  0.00     0.029 A 
ATOM     59  C   UNL A   1      43.772  29.039  27.809  1.00  0.00     0.049 A 
ATOM     60  H   UNL A   1      42.701  30.068  29.306  1.00  0.00     0.167 HD
ATOM     61  C   UNL A   1      44.716  27.847  29.781  1.00  0.00     0.074 A 
ATOM     62  C   UNL A   1      43.705  28.046  30.814  1.00  0.00     0.031 C 
ATOM     63  C   UNL A   1      44.814  28.314  28.502  1.00  0.00     0.034 A 
BRANCH  50  64
ATOM     64  C   UNL A   1      39.682  29.886  29.231  1.00  0.00     0.023 A 
ATOM     65  C   UNL A   1      40.096  29.815  30.573  1.00  0.00     0.012 A 
ATOM     66  C   UNL A   1      38.472  30.562  28.955  1.00  0.00     0.148 A 
ATOM     67  C   UNL A   1      39.344  30.407  31.594  1.00  0.00     0.002 A 
ATOM     68  C   UNL A   1      37.777  31.223  29.956  1.00  0.00     0.091 A 
ATOM     69  F   UNL A   1      37.917  30.459  27.739  1.00  0.00    -0.205 F 
ATOM     70  C   UNL A   1      38.196  31.131  31.284  1.00  0.00     0.022 A 
BRANCH  68  71
ATOM     71  S   UNL A   1      36.341  32.226  29.568  1.00  0.00     0.127 S 
ATOM     72  O   UNL A   1      35.400  31.219  29.089  1.00  0.00    -0.237 OA
ATOM     73  O   UNL A   1      36.016  32.811  30.869  1.00  0.00    -0.237 OA
ATOM     74  O   UNL A   1      36.816  33.194  28.586  1.00  0.00    -0.744 OA
ENDBRANCH  68  71
ENDBRANCH  50  64
BRANCH  51  75
ATOM     75  C   UNL A   1      44.881  24.150  32.717  1.00  0.00     0.023 A 
ATOM     76  C   UNL A   1      43.922  23.267  33.252  1.00  0.00     0.012 A 
ATOM     77  C   UNL A   1      46.137  24.229  33.362  1.00  0.00     0.148 A 
ATOM     78  C   UNL A   1      44.216  22.456  34.355  1.00  0.00     0.002 A 
ATOM     79  C   UNL A   1      46.416  23.441  34.476  1.00  0.00     0.091 A 
ATOM     80  F   UNL A   1      47.099  24.997  32.835  1.00  0.00    -0.205 F 
ATOM     81  C   UNL A   1      45.463  22.539  34.964  1.00  0.00     0.022 A 
BRANCH  79  82
ATOM     82  S   UNL A   1      48.007  23.517  35.311  1.00  0.00     0.127 S 
ATOM     83  O   UNL A   1      48.931  23.096  34.257  1.00  0.00    -0.237 OA
ATOM     84  O   UNL A   1      48.094  24.928  35.674  1.00  0.00    -0.237 OA
ATOM     85  O   UNL A   1      47.907  22.577  36.421  1.00  0.00    -0.744 OA
ENDBRANCH  79  82
ENDBRANCH  51  75
BRANCH  63  86
ATOM     86  C   UNL A   1      45.927  27.785  27.637  1.00  0.00     0.023 A 
ATOM     87  C   UNL A   1      47.260  28.213  27.808  1.00  0.00     0.012 A 
ATOM     88  C   UNL A   1      45.661  26.691  26.797  1.00  0.00     0.148 A 
ATOM     89  C   UNL A   1      48.307  27.569  27.144  1.00  0.00     0.002 A 
ATOM     90  C   UNL A   1      46.709  26.027  26.172  1.00  0.00     0.091 A 
ATOM     91  F   UNL A   1      44.387  26.290  26.666  1.00  0.00    -0.205 F 
ATOM     92  C   UNL A   1      48.032  26.467  26.338  1.00  0.00     0.022 A 
BRANCH  90  93
ATOM     93  S   UNL A   1      46.450  24.527  25.221  1.00  0.00     0.127 S 
ATOM     94  O   UNL A   1      47.482  24.637  24.192  1.00  0.00    -0.237 OA
ATOM     95  O   UNL A   1      46.691  23.484  26.219  1.00  0.00    -0.237 OA
ATOM     96  O   UNL A   1      45.078  24.586  24.736  1.00  0.00    -0.744 OA
ENDBRANCH  90  93
ENDBRANCH  63  86
ENDBRANCH  37  38
ENDBRANCH  30  32
ENDBRANCH  29  30
ENDBRANCH   1  29
TORSDOF 18
ENDMDL
MODEL 2
REMARK VINA RESULT:     -12.7      3.613      7.851
REMARK SMILES Cn1cc(-c2cc(C(F)(F)F)c3c(C4CC4)nn(CC(=O)OCCOC(=O)c4ccc(-c5c6nc(c(-c7cccc(S(=O)(=O)[O-])c7F)c7ccc([nH]7)c(-c7cccc(S(=O)(=O)[O-])c7F)c7nc(c(-c8cccc(S(=O)(=O)[O-])c8F)c8ccc5[nH]8)C=C7)C=C6)cc4)c3n2)cn1
REMARK SMILES IDX 24 1 23 2 22 3 20 4 21 5 19 6 18 7 5 8 6 9 92 10 7 11 91 12
REMARK SMILES IDX 12 13 13 14 17 15 4 16 1 17 2 18 3 19 94 20 93 21 8 22 9 23
REMARK SMILES IDX 10 24 11 25 14 26 15 27 16 28 25 29 26 30 27 31 28 32 29 33
REMARK SMILES IDX 90 34 30 35 89 36 31 37 32 38 33 39 83 40 34 41 88 42 82 43
REMARK SMILES IDX 84 44 35 45 87 46 81 47 80 48 36 50 68 51 48 52 67 53 49 54
REMARK SMILES IDX 52 55 66 56 85 57 50 58 51 59 65 61 86 62 53 63 37 64 38 65
REMARK SMILES IDX 46 66 39 67 41 68 47 69 40 70 42 71 43 72 44 73 45 74 69 75
REMARK SMILES IDX 70 76 78 77 71 78 73 79 79 80 72 81 74 82 75 83 76 84 77 85
REMARK SMILES IDX 54 86 55 87 63 88 56 89 58 90 64 91 57 92 59 93 60 94 61 95
REMARK SMILES IDX 62 96
REMARK H PARENT 84 49 52 60
REMARK Flexibility Score: inf
ROOT
ATOM      1  C   UNL A   1      38.204  21.891  25.386  1.00  0.00     0.275 C 
ENDROOT
BRANCH   1   2
ATOM      2  C   UNL A   1      36.713  21.582  25.378  1.00  0.00     0.274 C 
BRANCH   2   3
ATOM      3  O   UNL A   1      36.078  22.379  24.362  1.00  0.00    -0.461 OA
BRANCH   3   4
ATOM      4  C   UNL A   1      35.413  23.469  24.806  1.00  0.00     0.327 C 
ATOM      5  O   UNL A   1      35.052  23.624  25.974  1.00  0.00    -0.250 OA
BRANCH   4   6
ATOM      6  C   UNL A   1      35.042  24.453  23.754  1.00  0.00     0.269 C 
BRANCH   6   7
ATOM      7  N   UNL A   1      34.096  25.542  24.000  1.00  0.00    -0.236 N 
ATOM      8  C   UNL A   1      31.026  24.078  23.362  1.00  0.00     0.077 A 
ATOM      9  C   UNL A   1      30.150  25.138  23.552  1.00  0.00     0.043 A 
ATOM     10  N   UNL A   1      32.298  24.308  22.969  1.00  0.00    -0.228 NA
ATOM     11  C   UNL A   1      30.684  26.429  23.778  1.00  0.00     0.071 A 
ATOM     12  C   UNL A   1      32.791  25.392  23.600  1.00  0.00     0.159 A 
ATOM     13  C   UNL A   1      32.044  26.413  24.159  1.00  0.00     0.055 A 
ATOM     14  C   UNL A   1      32.940  26.934  25.137  1.00  0.00     0.076 A 
ATOM     15  N   UNL A   1      34.205  26.488  24.965  1.00  0.00    -0.174 NA
BRANCH   8  16
ATOM     16  C   UNL A   1      31.037  22.958  24.318  1.00  0.00     0.038 A 
ATOM     17  C   UNL A   1      32.257  22.927  27.624  1.00  0.00     0.173 C 
ATOM     18  N   UNL A   1      31.679  22.491  26.370  1.00  0.00    -0.275 N 
ATOM     19  C   UNL A   1      30.761  23.215  25.656  1.00  0.00     0.118 A 
ATOM     20  N   UNL A   1      32.277  21.536  25.631  1.00  0.00    -0.181 NA
ATOM     21  C   UNL A   1      31.956  21.880  24.377  1.00  0.00     0.145 A 
ENDBRANCH   8  16
BRANCH  11  22
ATOM     22  C   UNL A   1      29.917  27.654  23.366  1.00  0.00     0.417 C 
ATOM     23  F   UNL A   1      28.569  27.570  23.438  1.00  0.00    -0.166 F 
ATOM     24  F   UNL A   1      30.265  28.737  24.121  1.00  0.00    -0.166 F 
ATOM     25  F   UNL A   1      30.185  28.027  22.078  1.00  0.00    -0.166 F 
ENDBRANCH  11  22
BRANCH  14  26
ATOM     26  C   UNL A   1      32.601  27.635  26.467  1.00  0.00     0.041 C 
ATOM     27  C   UNL A   1      33.496  28.571  27.237  1.00  0.00     0.011 C 
ATOM     28  C   UNL A   1      32.393  29.149  26.428  1.00  0.00     0.011 C 
ENDBRANCH  14  26
ENDBRANCH   6   7
ENDBRANCH   4   6
ENDBRANCH   3   4
ENDBRANCH   2   3
ENDBRANCH   1   2
BRANCH   1  29
ATOM     29  O   UNL A   1      38.539  23.026  26.200  1.00  0.00    -0.458 OA
BRANCH  29  30
ATOM     30  C   UNL A   1      39.819  23.064  26.627  1.00  0.00     0.338 C 
ATOM     31  O   UNL A   1      40.689  22.241  26.418  1.00  0.00    -0.246 OA
BRANCH  30  32
ATOM     32  C   UNL A   1      40.039  24.192  27.536  1.00  0.00     0.060 A 
ATOM     33  C   UNL A   1      38.995  25.122  27.627  1.00  0.00     0.016 A 
ATOM     34  C   UNL A   1      41.284  24.430  28.126  1.00  0.00     0.016 A 
ATOM     35  C   UNL A   1      39.229  26.344  28.210  1.00  0.00     0.010 A 
ATOM     36  C   UNL A   1      41.517  25.652  28.724  1.00  0.00     0.010 A 
ATOM     37  C   UNL A   1      40.501  26.612  28.716  1.00  0.00    -0.014 A 
BRANCH  37  38
ATOM     38  C   UNL A   1      40.684  27.890  29.374  1.00  0.00     0.031 A 
ATOM     39  C   UNL A   1      41.698  28.763  28.724  1.00  0.00     0.074 A 
ATOM     40  C   UNL A   1      39.898  28.288  30.388  1.00  0.00     0.049 A 
ATOM     41  N   UNL A   1      42.765  29.282  29.241  1.00  0.00    -0.248 NA
ATOM     42  C   UNL A   1      41.562  28.972  27.272  1.00  0.00     0.031 C 
ATOM     43  C   UNL A   1      38.687  27.634  30.891  1.00  0.00     0.029 A 
ATOM     44  N   UNL A   1      39.924  29.468  31.064  1.00  0.00    -0.354 N 
ATOM     45  C   UNL A   1      43.322  30.053  28.222  1.00  0.00     0.074 A 
ATOM     46  C   UNL A   1      42.643  29.700  27.003  1.00  0.00     0.031 C 
ATOM     47  C   UNL A   1      37.958  28.542  31.576  1.00  0.00     0.029 A 
ATOM     48  C   UNL A   1      38.703  29.787  31.646  1.00  0.00     0.049 A 
ATOM     49  H   UNL A   1      40.725  30.037  31.134  1.00  0.00     0.167 HD
ATOM     50  C   UNL A   1      44.142  31.109  28.462  1.00  0.00     0.034 A 
ATOM     51  C   UNL A   1      38.310  31.026  32.025  1.00  0.00     0.034 A 
ATOM     52  C   UNL A   1      44.686  31.110  29.786  1.00  0.00     0.049 A 
ATOM     53  C   UNL A   1      39.536  31.853  32.155  1.00  0.00     0.074 A 
ATOM     54  C   UNL A   1      45.497  30.262  30.512  1.00  0.00     0.029 A 
ATOM     55  N   UNL A   1      44.114  31.963  30.694  1.00  0.00    -0.354 N 
ATOM     56  N   UNL A   1      40.464  31.656  33.050  1.00  0.00    -0.248 NA
ATOM     57  C   UNL A   1      39.919  32.699  31.035  1.00  0.00     0.031 C 
ATOM     58  C   UNL A   1      45.021  30.353  31.851  1.00  0.00     0.029 A 
ATOM     59  C   UNL A   1      43.960  31.263  31.861  1.00  0.00     0.049 A 
ATOM     60  H   UNL A   1      43.859  32.901  30.537  1.00  0.00     0.167 HD
ATOM     61  C   UNL A   1      41.648  32.003  32.414  1.00  0.00     0.074 A 
ATOM     62  C   UNL A   1      41.239  32.751  31.230  1.00  0.00     0.031 C 
ATOM     63  C   UNL A   1      42.830  31.409  32.750  1.00  0.00     0.034 A 
BRANCH  50  64
ATOM     64  C   UNL A   1      44.171  32.325  27.584  1.00  0.00     0.023 A 
ATOM     65  C   UNL A   1      45.042  32.345  26.479  1.00  0.00     0.012 A 
ATOM     66  C   UNL A   1      43.547  33.541  27.947  1.00  0.00     0.148 A 
ATOM     67  C   UNL A   1      45.266  33.523  25.757  1.00  0.00     0.002 A 
ATOM     68  C   UNL A   1      43.703  34.683  27.176  1.00  0.00     0.091 A 
ATOM     69  F   UNL A   1      42.901  33.630  29.117  1.00  0.00    -0.205 F 
ATOM     70  C   UNL A   1      44.579  34.687  26.091  1.00  0.00     0.022 A 
BRANCH  68  71
ATOM     71  S   UNL A   1      42.767  36.170  27.542  1.00  0.00     0.127 S 
ATOM     72  O   UNL A   1      43.239  37.077  26.501  1.00  0.00    -0.237 OA
ATOM     73  O   UNL A   1      41.388  35.709  27.386  1.00  0.00    -0.237 OA
ATOM     74  O   UNL A   1      43.127  36.509  28.914  1.00  0.00    -0.744 OA
ENDBRANCH  68  71
ENDBRANCH  50  64
BRANCH  51  75
ATOM     75  C   UNL A   1      36.957  31.637  32.005  1.00  0.00     0.023 A 
ATOM     76  C   UNL A   1      36.383  32.052  33.224  1.00  0.00     0.012 A 
ATOM     77  C   UNL A   1      36.339  32.064  30.807  1.00  0.00     0.148 A 
ATOM     78  C   UNL A   1      35.270  32.899  33.252  1.00  0.00     0.002 A 
ATOM     79  C   UNL A   1      35.214  32.885  30.839  1.00  0.00     0.091 A 
ATOM     80  F   UNL A   1      36.901  31.756  29.631  1.00  0.00    -0.205 F 
ATOM     81  C   UNL A   1      34.688  33.320  32.060  1.00  0.00     0.022 A 
BRANCH  79  82
ATOM     82  S   UNL A   1      34.414  33.449  29.330  1.00  0.00     0.127 S 
ATOM     83  O   UNL A   1      33.283  34.220  29.847  1.00  0.00    -0.237 OA
ATOM     84  O   UNL A   1      35.465  34.247  28.706  1.00  0.00    -0.237 OA
ATOM     85  O   UNL A   1      34.028  32.235  28.620  1.00  0.00    -0.744 OA
ENDBRANCH  79  82
ENDBRANCH  51  75
BRANCH  63  86
ATOM     86  C   UNL A   1      42.872  30.571  34.001  1.00  0.00     0.023 A 
ATOM     87  C   UNL A   1      43.105  31.149  35.267  1.00  0.00     0.012 A 
ATOM     88  C   UNL A   1      42.457  29.232  33.925  1.00  0.00     0.148 A 
ATOM     89  C   UNL A   1      42.937  30.400  36.435  1.00  0.00     0.002 A 
ATOM     90  C   UNL A   1      42.253  28.503  35.090  1.00  0.00     0.091 A 
ATOM     91  F   UNL A   1      42.224  28.711  32.711  1.00  0.00    -0.205 F 
ATOM     92  C   UNL A   1      42.498  29.082  36.346  1.00  0.00     0.022 A 
BRANCH  90  93
ATOM     93  S   UNL A   1      41.568  26.844  35.065  1.00  0.00     0.127 S 
ATOM     94  O   UNL A   1      41.151  26.665  36.453  1.00  0.00    -0.237 OA
ATOM     95  O   UNL A   1      40.468  26.979  34.108  1.00  0.00    -0.237 OA
ATOM     96  O   UNL A   1      42.644  25.968  34.619  1.00  0.00    -0.744 OA
ENDBRANCH  90  93
ENDBRANCH  63  86
ENDBRANCH  37  38
ENDBRANCH  30  32
ENDBRANCH  29  30
ENDBRANCH   1  29
TORSDOF 18
ENDMDL
MODEL 3
REMARK VINA RESULT:     -12.6      3.721      8.028
REMARK SMILES Cn1cc(-c2cc(C(F)(F)F)c3c(C4CC4)nn(CC(=O)OCCOC(=O)c4ccc(-c5c6nc(c(-c7cccc(S(=O)(=O)[O-])c7F)c7ccc([nH]7)c(-c7cccc(S(=O)(=O)[O-])c7F)c7nc(c(-c8cccc(S(=O)(=O)[O-])c8F)c8ccc5[nH]8)C=C7)C=C6)cc4)c3n2)cn1
REMARK SMILES IDX 24 1 23 2 22 3 20 4 21 5 19 6 18 7 5 8 6 9 92 10 7 11 91 12
REMARK SMILES IDX 12 13 13 14 17 15 4 16 1 17 2 18 3 19 94 20 93 21 8 22 9 23
REMARK SMILES IDX 10 24 11 25 14 26 15 27 16 28 25 29 26 30 27 31 28 32 29 33
REMARK SMILES IDX 90 34 30 35 89 36 31 37 32 38 33 39 83 40 34 41 88 42 82 43
REMARK SMILES IDX 84 44 35 45 87 46 81 47 80 48 36 50 68 51 48 52 67 53 49 54
REMARK SMILES IDX 52 55 66 56 85 57 50 58 51 59 65 61 86 62 53 63 37 64 38 65
REMARK SMILES IDX 46 66 39 67 41 68 47 69 40 70 42 71 43 72 44 73 45 74 69 75
REMARK SMILES IDX 70 76 78 77 71 78 73 79 79 80 72 81 74 82 75 83 76 84 77 85
REMARK SMILES IDX 54 86 55 87 63 88 56 89 58 90 64 91 57 92 59 93 60 94 61 95
REMARK SMILES IDX 62 96
REMARK H PARENT 84 49 52 60
REMARK Flexibility Score: inf
ROOT
ATOM      1  C   UNL A   1      39.547  21.463  26.160  1.00  0.00     0.275 C 
ENDROOT
BRANCH   1   2
ATOM      2  C   UNL A   1      38.132  21.670  25.636  1.00  0.00     0.274 C 
BRANCH   2   3
ATOM      3  O   UNL A   1      37.944  23.066  25.343  1.00  0.00    -0.461 OA
BRANCH   3   4
ATOM      4  C   UNL A   1      36.875  23.361  24.568  1.00  0.00     0.327 C 
ATOM      5  O   UNL A   1      36.857  23.222  23.344  1.00  0.00    -0.250 OA
BRANCH   4   6
ATOM      6  C   UNL A   1      35.727  23.978  25.286  1.00  0.00     0.269 C 
BRANCH   6   7
ATOM      7  N   UNL A   1      34.515  23.227  25.613  1.00  0.00    -0.236 N 
ATOM      8  C   UNL A   1      31.987  25.516  25.023  1.00  0.00     0.077 A 
ATOM      9  C   UNL A   1      30.854  24.802  25.386  1.00  0.00     0.043 A 
ATOM     10  N   UNL A   1      33.181  25.236  25.592  1.00  0.00    -0.228 NA
ATOM     11  C   UNL A   1      31.015  23.528  25.981  1.00  0.00     0.071 A 
ATOM     12  C   UNL A   1      33.327  23.904  25.735  1.00  0.00     0.159 A 
ATOM     13  C   UNL A   1      32.301  22.977  25.786  1.00  0.00     0.055 A 
ATOM     14  C   UNL A   1      32.958  21.786  25.363  1.00  0.00     0.076 A 
ATOM     15  N   UNL A   1      34.304  21.910  25.369  1.00  0.00    -0.174 NA
BRANCH   8  16
ATOM     16  C   UNL A   1      32.222  25.844  23.607  1.00  0.00     0.038 A 
ATOM     17  C   UNL A   1      33.237  23.691  21.009  1.00  0.00     0.173 C 
ATOM     18  N   UNL A   1      32.850  24.886  21.728  1.00  0.00    -0.275 N 
ATOM     19  C   UNL A   1      31.821  24.938  22.632  1.00  0.00     0.118 A 
ATOM     20  N   UNL A   1      33.702  25.923  21.849  1.00  0.00    -0.181 NA
ATOM     21  C   UNL A   1      33.373  26.447  23.037  1.00  0.00     0.145 A 
ENDBRANCH   8  16
BRANCH  11  22
ATOM     22  C   UNL A   1      29.987  22.999  26.941  1.00  0.00     0.417 C 
ATOM     23  F   UNL A   1      29.268  21.933  26.523  1.00  0.00    -0.166 F 
ATOM     24  F   UNL A   1      30.556  22.625  28.124  1.00  0.00    -0.166 F 
ATOM     25  F   UNL A   1      29.060  23.944  27.283  1.00  0.00    -0.166 F 
ENDBRANCH  11  22
BRANCH  14  26
ATOM     26  C   UNL A   1      32.353  20.567  24.638  1.00  0.00     0.041 C 
ATOM     27  C   UNL A   1      33.117  19.497  23.901  1.00  0.00     0.011 C 
ATOM     28  C   UNL A   1      32.598  19.191  25.258  1.00  0.00     0.011 C 
ENDBRANCH  14  26
ENDBRANCH   6   7
ENDBRANCH   4   6
ENDBRANCH   3   4
ENDBRANCH   2   3
ENDBRANCH   1   2
BRANCH   1  29
ATOM     29  O   UNL A   1      39.987  22.523  27.024  1.00  0.00    -0.458 OA
BRANCH  29  30
ATOM     30  C   UNL A   1      41.181  23.064  26.701  1.00  0.00     0.338 C 
ATOM     31  O   UNL A   1      42.143  22.494  26.223  1.00  0.00    -0.246 OA
BRANCH  30  32
ATOM     32  C   UNL A   1      41.260  24.462  27.134  1.00  0.00     0.060 A 
ATOM     33  C   UNL A   1      42.227  24.752  28.104  1.00  0.00     0.016 A 
ATOM     34  C   UNL A   1      40.304  25.407  26.748  1.00  0.00     0.016 A 
ATOM     35  C   UNL A   1      42.172  25.950  28.776  1.00  0.00     0.010 A 
ATOM     36  C   UNL A   1      40.254  26.615  27.413  1.00  0.00     0.010 A 
ATOM     37  C   UNL A   1      41.159  26.853  28.451  1.00  0.00    -0.014 A 
BRANCH  37  38
ATOM     38  C   UNL A   1      41.175  28.125  29.144  1.00  0.00     0.031 A 
ATOM     39  C   UNL A   1      42.191  29.081  28.626  1.00  0.00     0.074 A 
ATOM     40  C   UNL A   1      40.253  28.446  30.067  1.00  0.00     0.049 A 
ATOM     41  N   UNL A   1      43.154  29.661  29.269  1.00  0.00    -0.248 NA
ATOM     42  C   UNL A   1      42.206  29.312  27.171  1.00  0.00     0.031 C 
ATOM     43  C   UNL A   1      39.043  27.698  30.419  1.00  0.00     0.029 A 
ATOM     44  N   UNL A   1      40.119  29.609  30.758  1.00  0.00    -0.354 N 
ATOM     45  C   UNL A   1      43.766  30.491  28.332  1.00  0.00     0.074 A 
ATOM     46  C   UNL A   1      43.256  30.119  27.038  1.00  0.00     0.031 C 
ATOM     47  C   UNL A   1      38.179  28.539  31.028  1.00  0.00     0.029 A 
ATOM     48  C   UNL A   1      38.820  29.830  31.201  1.00  0.00     0.049 A 
ATOM     49  H   UNL A   1      40.864  30.231  30.927  1.00  0.00     0.167 HD
ATOM     50  C   UNL A   1      44.477  31.595  28.680  1.00  0.00     0.034 A 
ATOM     51  C   UNL A   1      38.299  31.030  31.550  1.00  0.00     0.034 A 
ATOM     52  C   UNL A   1      44.866  31.604  30.056  1.00  0.00     0.049 A 
ATOM     53  C   UNL A   1      39.441  31.937  31.831  1.00  0.00     0.074 A 
ATOM     54  C   UNL A   1      45.648  30.798  30.858  1.00  0.00     0.029 A 
ATOM     55  N   UNL A   1      44.135  32.395  30.905  1.00  0.00    -0.354 N 
ATOM     56  N   UNL A   1      40.273  31.785  32.824  1.00  0.00    -0.248 NA
ATOM     57  C   UNL A   1      39.887  32.832  30.775  1.00  0.00     0.031 C 
ATOM     58  C   UNL A   1      45.017  30.827  32.135  1.00  0.00     0.029 A 
ATOM     59  C   UNL A   1      43.901  31.661  32.037  1.00  0.00     0.049 A 
ATOM     60  H   UNL A   1      43.834  33.317  30.733  1.00  0.00     0.167 HD
ATOM     61  C   UNL A   1      41.494  32.226  32.332  1.00  0.00     0.074 A 
ATOM     62  C   UNL A   1      41.169  32.971  31.120  1.00  0.00     0.031 C 
ATOM     63  C   UNL A   1      42.669  31.708  32.793  1.00  0.00     0.034 A 
BRANCH  50  64
ATOM     64  C   UNL A   1      44.518  32.830  27.828  1.00  0.00     0.023 A 
ATOM     65  C   UNL A   1      45.586  32.999  26.927  1.00  0.00     0.012 A 
ATOM     66  C   UNL A   1      43.672  33.940  28.055  1.00  0.00     0.148 A 
ATOM     67  C   UNL A   1      45.790  34.217  26.269  1.00  0.00     0.002 A 
ATOM     68  C   UNL A   1      43.824  35.114  27.334  1.00  0.00     0.091 A 
ATOM     69  F   UNL A   1      42.793  33.906  29.065  1.00  0.00    -0.205 F 
ATOM     70  C   UNL A   1      44.896  35.268  26.454  1.00  0.00     0.022 A 
BRANCH  68  71
ATOM     71  S   UNL A   1      42.639  36.451  27.499  1.00  0.00     0.127 S 
ATOM     72  O   UNL A   1      43.124  37.400  26.503  1.00  0.00    -0.237 OA
ATOM     73  O   UNL A   1      41.380  35.786  27.162  1.00  0.00    -0.237 OA
ATOM     74  O   UNL A   1      42.734  36.864  28.894  1.00  0.00    -0.744 OA
ENDBRANCH  68  71
ENDBRANCH  50  64
BRANCH  51  75
ATOM     75  C   UNL A   1      36.917  31.546  31.384  1.00  0.00     0.023 A 
ATOM     76  C   UNL A   1      36.250  32.071  32.510  1.00  0.00     0.012 A 
ATOM     77  C   UNL A   1      36.347  31.783  30.111  1.00  0.00     0.148 A 
ATOM     78  C   UNL A   1      35.091  32.843  32.373  1.00  0.00     0.002 A 
ATOM     79  C   UNL A   1      35.178  32.529  29.982  1.00  0.00     0.091 A 
ATOM     80  F   UNL A   1      36.994  31.369  29.014  1.00  0.00    -0.205 F 
ATOM     81  C   UNL A   1      34.557  33.076  31.110  1.00  0.00     0.022 A 
BRANCH  79  82
ATOM     82  S   UNL A   1      34.436  32.850  28.375  1.00  0.00     0.127 S 
ATOM     83  O   UNL A   1      33.393  33.822  28.703  1.00  0.00    -0.237 OA
ATOM     84  O   UNL A   1      35.563  33.392  27.622  1.00  0.00    -0.237 OA
ATOM     85  O   UNL A   1      33.925  31.562  27.920  1.00  0.00    -0.744 OA
ENDBRANCH  79  82
ENDBRANCH  51  75
BRANCH  63  86
ATOM     86  C   UNL A   1      42.629  30.848  34.029  1.00  0.00     0.023 A 
ATOM     87  C   UNL A   1      42.636  31.414  35.321  1.00  0.00     0.012 A 
ATOM     88  C   UNL A   1      42.362  29.477  33.883  1.00  0.00     0.148 A 
ATOM     89  C   UNL A   1      42.392  30.624  36.447  1.00  0.00     0.002 A 
ATOM     90  C   UNL A   1      42.078  28.703  35.001  1.00  0.00     0.091 A 
ATOM     91  F   UNL A   1      42.341  28.966  32.641  1.00  0.00    -0.205 F 
ATOM     92  C   UNL A   1      42.099  29.272  36.285  1.00  0.00     0.022 A 
BRANCH  90  93
ATOM     93  S   UNL A   1      41.569  26.988  34.865  1.00  0.00     0.127 S 
ATOM     94  O   UNL A   1      41.220  26.663  36.246  1.00  0.00    -0.237 OA
ATOM     95  O   UNL A   1      40.429  27.076  33.951  1.00  0.00    -0.237 OA
ATOM     96  O   UNL A   1      42.714  26.266  34.327  1.00  0.00    -0.744 OA
ENDBRANCH  90  93
ENDBRANCH  63  86
ENDBRANCH  37  38
ENDBRANCH  30  32
ENDBRANCH  29  30
ENDBRANCH   1  29
TORSDOF 18
ENDMDL
