MODEL 1
REMARK VINA RESULT:     -10.9      0.000      0.000
REMARK SMILES CC(C)[C@@H]1CN(C(=O)Cc2ccsc2)C[C@H]1C(=O)OCCOC(=O)c1ccc(-c2c3nc(c(-c4cccc(S(=O)(=O)[O-])c4F)c4ccc([nH]4)c(-c4cccc(S(=O)(=O)[O-])c4F)c4nc(c(-c5cccc(S(=O)(=O)[O-])c5F)c5ccc2[nH]5)C=C4)C=C3)cc1
REMARK SMILES IDX 20 1 19 2 17 3 18 4 16 5 4 6 5 7 6 8 15 9 2 10 1 11 3 12
REMARK SMILES IDX 7 13 8 14 9 15 10 16 11 17 14 18 12 19 13 20 21 21 22 22
REMARK SMILES IDX 23 23 24 24 25 25 26 26 87 27 27 28 86 29 28 30 29 31 30 32
REMARK SMILES IDX 80 33 31 34 85 35 79 36 81 37 32 38 84 39 78 40 77 41 33 43
REMARK SMILES IDX 65 44 45 45 64 46 46 47 49 48 63 49 82 50 47 51 48 52 62 54
REMARK SMILES IDX 83 55 50 56 34 57 35 58 43 59 36 60 38 61 44 62 37 63 39 64
REMARK SMILES IDX 40 65 41 66 42 67 66 68 67 69 75 70 68 71 70 72 76 73 69 74
REMARK SMILES IDX 71 75 72 76 73 77 74 78 51 79 52 80 60 81 53 82 55 83 61 84
REMARK SMILES IDX 54 85 56 86 57 87 58 88 59 89
REMARK H PARENT 81 42 49 53
REMARK Flexibility Score: inf
ROOT
ATOM      1  C   UNL A   1      31.875  27.801  25.687  1.00  0.00     0.274 C 
ENDROOT
BRANCH   1   2
ATOM      2  O   UNL A   1      31.845  26.882  24.575  1.00  0.00    -0.462 OA
BRANCH   2   3
ATOM      3  C   UNL A   1      32.839  25.957  24.585  1.00  0.00     0.311 C 
ATOM      4  O   UNL A   1      33.872  26.044  23.930  1.00  0.00    -0.252 OA
BRANCH   3   5
ATOM      5  C   UNL A   1      32.532  24.716  25.392  1.00  0.00     0.124 C 
ATOM      6  C   UNL A   1      31.120  24.093  25.330  1.00  0.00     0.027 C 
ATOM      7  C   UNL A   1      31.357  22.591  25.128  1.00  0.00     0.124 C 
ATOM      8  N   UNL A   1      32.739  22.436  24.733  1.00  0.00    -0.341 N 
ATOM      9  C   UNL A   1      33.482  23.665  24.829  1.00  0.00     0.135 C 
BRANCH   6  10
ATOM     10  C   UNL A   1      30.190  24.339  26.556  1.00  0.00    -0.012 C 
ATOM     11  C   UNL A   1      29.024  25.310  26.311  1.00  0.00     0.008 C 
ATOM     12  C   UNL A   1      29.643  23.035  27.128  1.00  0.00     0.008 C 
ENDBRANCH   6  10
BRANCH   8  13
ATOM     13  C   UNL A   1      33.378  21.269  24.365  1.00  0.00     0.227 C 
ATOM     14  O   UNL A   1      34.569  21.077  24.610  1.00  0.00    -0.275 OA
BRANCH  13  15
ATOM     15  C   UNL A   1      32.545  20.203  23.676  1.00  0.00     0.136 C 
BRANCH  15  16
ATOM     16  C   UNL A   1      32.830  18.806  24.164  1.00  0.00    -0.028 A 
ATOM     17  C   UNL A   1      32.508  18.360  25.490  1.00  0.00     0.016 A 
ATOM     18  C   UNL A   1      33.418  17.779  23.443  1.00  0.00     0.069 A 
ATOM     19  C   UNL A   1      32.870  17.051  25.718  1.00  0.00     0.065 A 
ATOM     20  S   UNL A   1      33.601  16.341  24.348  1.00  0.00    -0.152 S 
ENDBRANCH  15  16
ENDBRANCH  13  15
ENDBRANCH   8  13
ENDBRANCH   3   5
ENDBRANCH   2   3
ENDBRANCH   1   2
BRANCH   1  21
ATOM     21  C   UNL A   1      31.810  29.253  25.224  1.00  0.00     0.275 C 
BRANCH  21  22
ATOM     22  O   UNL A   1      33.027  29.941  25.555  1.00  0.00    -0.458 OA
BRANCH  22  23
ATOM     23  C   UNL A   1      32.953  30.782  26.607  1.00  0.00     0.338 C 
ATOM     24  O   UNL A   1      32.022  31.530  26.888  1.00  0.00    -0.246 OA
BRANCH  23  25
ATOM     25  C   UNL A   1      34.173  30.694  27.427  1.00  0.00     0.060 A 
ATOM     26  C   UNL A   1      34.950  31.826  27.688  1.00  0.00     0.016 A 
ATOM     27  C   UNL A   1      34.611  29.435  27.834  1.00  0.00     0.016 A 
ATOM     28  C   UNL A   1      36.196  31.694  28.297  1.00  0.00     0.010 A 
ATOM     29  C   UNL A   1      35.819  29.314  28.520  1.00  0.00     0.010 A 
ATOM     30  C   UNL A   1      36.635  30.438  28.737  1.00  0.00    -0.014 A 
BRANCH  30  31
ATOM     31  C   UNL A   1      37.930  30.280  29.445  1.00  0.00     0.031 A 
ATOM     32  C   UNL A   1      39.007  29.405  28.866  1.00  0.00     0.074 A 
ATOM     33  C   UNL A   1      38.107  30.865  30.645  1.00  0.00     0.049 A 
ATOM     34  N   UNL A   1      40.108  28.975  29.424  1.00  0.00    -0.248 NA
ATOM     35  C   UNL A   1      38.816  28.944  27.480  1.00  0.00     0.031 C 
ATOM     36  C   UNL A   1      37.139  31.743  31.308  1.00  0.00     0.029 A 
ATOM     37  N   UNL A   1      39.148  30.785  31.534  1.00  0.00    -0.354 N 
ATOM     38  C   UNL A   1      40.710  28.146  28.487  1.00  0.00     0.074 A 
ATOM     39  C   UNL A   1      39.859  28.141  27.316  1.00  0.00     0.031 C 
ATOM     40  C   UNL A   1      37.630  32.116  32.500  1.00  0.00     0.029 A 
ATOM     41  C   UNL A   1      38.911  31.453  32.713  1.00  0.00     0.049 A 
ATOM     42  H   UNL A   1      39.983  30.298  31.347  1.00  0.00     0.167 HD
ATOM     43  C   UNL A   1      41.874  27.459  28.590  1.00  0.00     0.034 A 
ATOM     44  C   UNL A   1      39.622  31.494  33.856  1.00  0.00     0.034 A 
ATOM     45  C   UNL A   1      42.745  27.514  29.733  1.00  0.00     0.049 A 
ATOM     46  C   UNL A   1      40.904  30.719  33.947  1.00  0.00     0.074 A 
ATOM     47  C   UNL A   1      43.965  26.888  29.916  1.00  0.00     0.029 A 
ATOM     48  N   UNL A   1      42.494  28.245  30.884  1.00  0.00    -0.354 N 
ATOM     49  N   UNL A   1      41.490  29.986  33.030  1.00  0.00    -0.248 NA
ATOM     50  C   UNL A   1      41.631  30.783  35.223  1.00  0.00     0.031 C 
ATOM     51  C   UNL A   1      44.453  27.240  31.179  1.00  0.00     0.029 A 
ATOM     52  C   UNL A   1      43.536  28.087  31.783  1.00  0.00     0.049 A 
ATOM     53  H   UNL A   1      41.693  28.795  31.040  1.00  0.00     0.167 HD
ATOM     54  C   UNL A   1      42.661  29.517  33.610  1.00  0.00     0.074 A 
ATOM     55  C   UNL A   1      42.714  30.068  34.950  1.00  0.00     0.031 C 
ATOM     56  C   UNL A   1      43.597  28.686  33.090  1.00  0.00     0.034 A 
BRANCH  43  57
ATOM     57  C   UNL A   1      42.299  26.622  27.415  1.00  0.00     0.023 A 
ATOM     58  C   UNL A   1      43.045  27.214  26.377  1.00  0.00     0.012 A 
ATOM     59  C   UNL A   1      42.018  25.242  27.365  1.00  0.00     0.148 A 
ATOM     60  C   UNL A   1      43.490  26.451  25.298  1.00  0.00     0.002 A 
ATOM     61  C   UNL A   1      42.492  24.481  26.302  1.00  0.00     0.091 A 
ATOM     62  F   UNL A   1      41.280  24.701  28.346  1.00  0.00    -0.205 F 
ATOM     63  C   UNL A   1      43.223  25.084  25.266  1.00  0.00     0.022 A 
BRANCH  61  64
ATOM     64  S   UNL A   1      42.247  22.702  26.220  1.00  0.00     0.127 S 
ATOM     65  O   UNL A   1      42.893  22.258  27.454  1.00  0.00    -0.237 OA
ATOM     66  O   UNL A   1      40.788  22.582  26.221  1.00  0.00    -0.237 OA
ATOM     67  O   UNL A   1      42.882  22.277  24.981  1.00  0.00    -0.744 OA
ENDBRANCH  61  64
ENDBRANCH  43  57
BRANCH  44  68
ATOM     68  C   UNL A   1      39.140  32.331  34.989  1.00  0.00     0.023 A 
ATOM     69  C   UNL A   1      38.164  31.811  35.858  1.00  0.00     0.012 A 
ATOM     70  C   UNL A   1      39.691  33.601  35.254  1.00  0.00     0.148 A 
ATOM     71  C   UNL A   1      37.737  32.543  36.967  1.00  0.00     0.002 A 
ATOM     72  C   UNL A   1      39.303  34.300  36.391  1.00  0.00     0.091 A 
ATOM     73  F   UNL A   1      40.600  34.092  34.400  1.00  0.00    -0.205 F 
ATOM     74  C   UNL A   1      38.318  33.779  37.242  1.00  0.00     0.022 A 
BRANCH  72  75
ATOM     75  S   UNL A   1      40.113  35.826  36.886  1.00  0.00     0.127 S 
ATOM     76  O   UNL A   1      39.714  36.739  35.819  1.00  0.00    -0.237 OA
ATOM     77  O   UNL A   1      39.502  36.096  38.188  1.00  0.00    -0.237 OA
ATOM     78  O   UNL A   1      41.531  35.499  36.954  1.00  0.00    -0.744 OA
ENDBRANCH  72  75
ENDBRANCH  44  68
BRANCH  56  79
ATOM     79  C   UNL A   1      44.767  28.330  33.964  1.00  0.00     0.023 A 
ATOM     80  C   UNL A   1      45.893  29.177  33.986  1.00  0.00     0.012 A 
ATOM     81  C   UNL A   1      44.726  27.207  34.812  1.00  0.00     0.148 A 
ATOM     82  C   UNL A   1      46.971  28.899  34.824  1.00  0.00     0.002 A 
ATOM     83  C   UNL A   1      45.790  26.956  35.671  1.00  0.00     0.091 A 
ATOM     84  F   UNL A   1      43.656  26.400  34.757  1.00  0.00    -0.205 F 
ATOM     85  C   UNL A   1      46.915  27.797  35.675  1.00  0.00     0.022 A 
BRANCH  83  86
ATOM     86  S   UNL A   1      45.759  25.601  36.852  1.00  0.00     0.127 S 
ATOM     87  O   UNL A   1      47.003  25.818  37.587  1.00  0.00    -0.237 OA
ATOM     88  O   UNL A   1      44.543  25.877  37.618  1.00  0.00    -0.237 OA
ATOM     89  O   UNL A   1      45.701  24.384  36.052  1.00  0.00    -0.744 OA
ENDBRANCH  83  86
ENDBRANCH  56  79
ENDBRANCH  30  31
ENDBRANCH  23  25
ENDBRANCH  22  23
ENDBRANCH  21  22
ENDBRANCH   1  21
TORSDOF 18
ENDMDL
MODEL 2
REMARK VINA RESULT:     -10.9      1.669      2.243
REMARK SMILES CC(C)[C@@H]1CN(C(=O)Cc2ccsc2)C[C@H]1C(=O)OCCOC(=O)c1ccc(-c2c3nc(c(-c4cccc(S(=O)(=O)[O-])c4F)c4ccc([nH]4)c(-c4cccc(S(=O)(=O)[O-])c4F)c4nc(c(-c5cccc(S(=O)(=O)[O-])c5F)c5ccc2[nH]5)C=C4)C=C3)cc1
REMARK SMILES IDX 20 1 19 2 17 3 18 4 16 5 4 6 5 7 6 8 15 9 2 10 1 11 3 12
REMARK SMILES IDX 7 13 8 14 9 15 10 16 11 17 14 18 12 19 13 20 21 21 22 22
REMARK SMILES IDX 23 23 24 24 25 25 26 26 87 27 27 28 86 29 28 30 29 31 30 32
REMARK SMILES IDX 80 33 31 34 85 35 79 36 81 37 32 38 84 39 78 40 77 41 33 43
REMARK SMILES IDX 65 44 45 45 64 46 46 47 49 48 63 49 82 50 47 51 48 52 62 54
REMARK SMILES IDX 83 55 50 56 34 57 35 58 43 59 36 60 38 61 44 62 37 63 39 64
REMARK SMILES IDX 40 65 41 66 42 67 66 68 67 69 75 70 68 71 70 72 76 73 69 74
REMARK SMILES IDX 71 75 72 76 73 77 74 78 51 79 52 80 60 81 53 82 55 83 61 84
REMARK SMILES IDX 54 85 56 86 57 87 58 88 59 89
REMARK H PARENT 81 42 49 53
REMARK Flexibility Score: inf
ROOT
ATOM      1  C   UNL A   1      31.868  28.732  25.588  1.00  0.00     0.274 C 
ENDROOT
BRANCH   1   2
ATOM      2  O   UNL A   1      32.554  27.545  26.038  1.00  0.00    -0.462 OA
BRANCH   2   3
ATOM      3  C   UNL A   1      31.773  26.437  26.102  1.00  0.00     0.311 C 
ATOM      4  O   UNL A   1      30.820  26.303  26.863  1.00  0.00    -0.252 OA
BRANCH   3   5
ATOM      5  C   UNL A   1      32.236  25.292  25.230  1.00  0.00     0.124 C 
ATOM      6  C   UNL A   1      33.601  25.382  24.511  1.00  0.00     0.027 C 
ATOM      7  C   UNL A   1      34.278  24.031  24.776  1.00  0.00     0.124 C 
ATOM      8  N   UNL A   1      33.543  23.397  25.846  1.00  0.00    -0.341 N 
ATOM      9  C   UNL A   1      32.342  24.114  26.191  1.00  0.00     0.135 C 
BRANCH   6  10
ATOM     10  C   UNL A   1      33.571  25.688  22.984  1.00  0.00    -0.012 C 
ATOM     11  C   UNL A   1      32.443  24.999  22.198  1.00  0.00     0.008 C 
ATOM     12  C   UNL A   1      33.533  27.187  22.702  1.00  0.00     0.008 C 
ENDBRANCH   6  10
BRANCH   8  13
ATOM     13  C   UNL A   1      33.840  22.205  26.474  1.00  0.00     0.227 C 
ATOM     14  O   UNL A   1      33.458  21.962  27.620  1.00  0.00    -0.275 OA
BRANCH  13  15
ATOM     15  C   UNL A   1      34.625  21.175  25.684  1.00  0.00     0.136 C 
BRANCH  15  16
ATOM     16  C   UNL A   1      33.762  20.274  24.839  1.00  0.00    -0.028 A 
ATOM     17  C   UNL A   1      32.982  20.752  23.732  1.00  0.00     0.016 A 
ATOM     18  C   UNL A   1      33.594  18.907  24.988  1.00  0.00     0.069 A 
ATOM     19  C   UNL A   1      32.261  19.754  23.114  1.00  0.00     0.065 A 
ATOM     20  S   UNL A   1      32.508  18.235  23.852  1.00  0.00    -0.152 S 
ENDBRANCH  15  16
ENDBRANCH  13  15
ENDBRANCH   8  13
ENDBRANCH   3   5
ENDBRANCH   2   3
ENDBRANCH   1   2
BRANCH   1  21
ATOM     21  C   UNL A   1      32.048  29.894  26.560  1.00  0.00     0.275 C 
BRANCH  21  22
ATOM     22  O   UNL A   1      33.366  30.452  26.437  1.00  0.00    -0.458 OA
BRANCH  22  23
ATOM     23  C   UNL A   1      33.641  31.484  27.262  1.00  0.00     0.338 C 
ATOM     24  O   UNL A   1      32.982  32.508  27.405  1.00  0.00    -0.246 OA
BRANCH  23  25
ATOM     25  C   UNL A   1      34.881  31.228  28.015  1.00  0.00     0.060 A 
ATOM     26  C   UNL A   1      35.894  32.188  28.083  1.00  0.00     0.016 A 
ATOM     27  C   UNL A   1      35.081  29.958  28.555  1.00  0.00     0.016 A 
ATOM     28  C   UNL A   1      37.132  31.860  28.632  1.00  0.00     0.010 A 
ATOM     29  C   UNL A   1      36.291  29.659  29.180  1.00  0.00     0.010 A 
ATOM     30  C   UNL A   1      37.337  30.598  29.203  1.00  0.00    -0.014 A 
BRANCH  30  31
ATOM     31  C   UNL A   1      38.626  30.245  29.851  1.00  0.00     0.031 A 
ATOM     32  C   UNL A   1      39.547  29.245  29.208  1.00  0.00     0.074 A 
ATOM     33  C   UNL A   1      38.931  30.770  31.053  1.00  0.00     0.049 A 
ATOM     34  N   UNL A   1      40.600  28.654  29.708  1.00  0.00    -0.248 NA
ATOM     35  C   UNL A   1      39.237  28.850  27.823  1.00  0.00     0.031 C 
ATOM     36  C   UNL A   1      38.122  31.755  31.775  1.00  0.00     0.029 A 
ATOM     37  N   UNL A   1      39.987  30.525  31.893  1.00  0.00    -0.354 N 
ATOM     38  C   UNL A   1      41.042  27.774  28.729  1.00  0.00     0.074 A 
ATOM     39  C   UNL A   1      40.152  27.916  27.597  1.00  0.00     0.031 C 
ATOM     40  C   UNL A   1      38.708  32.027  32.951  1.00  0.00     0.029 A 
ATOM     41  C   UNL A   1      39.893  31.190  33.094  1.00  0.00     0.049 A 
ATOM     42  H   UNL A   1      40.738  29.933  31.660  1.00  0.00     0.167 HD
ATOM     43  C   UNL A   1      42.103  26.932  28.767  1.00  0.00     0.034 A 
ATOM     44  C   UNL A   1      40.649  31.103  34.205  1.00  0.00     0.034 A 
ATOM     45  C   UNL A   1      43.020  26.838  29.872  1.00  0.00     0.049 A 
ATOM     46  C   UNL A   1      41.815  30.157  34.224  1.00  0.00     0.074 A 
ATOM     47  C   UNL A   1      44.148  26.046  29.989  1.00  0.00     0.029 A 
ATOM     48  N   UNL A   1      42.920  27.567  31.047  1.00  0.00    -0.354 N 
ATOM     49  N   UNL A   1      42.255  29.375  33.269  1.00  0.00    -0.248 NA
ATOM     50  C   UNL A   1      42.595  30.089  35.468  1.00  0.00     0.031 C 
ATOM     51  C   UNL A   1      44.731  26.296  31.236  1.00  0.00     0.029 A 
ATOM     52  C   UNL A   1      43.966  27.245  31.895  1.00  0.00     0.049 A 
ATOM     53  H   UNL A   1      42.209  28.218  31.249  1.00  0.00     0.167 HD
ATOM     54  C   UNL A   1      43.373  28.735  33.787  1.00  0.00     0.074 A 
ATOM     55  C   UNL A   1      43.557  29.239  35.134  1.00  0.00     0.031 C 
ATOM     56  C   UNL A   1      44.163  27.796  33.210  1.00  0.00     0.034 A 
BRANCH  43  57
ATOM     57  C   UNL A   1      42.360  26.074  27.559  1.00  0.00     0.023 A 
ATOM     58  C   UNL A   1      43.072  26.611  26.468  1.00  0.00     0.012 A 
ATOM     59  C   UNL A   1      41.956  24.725  27.525  1.00  0.00     0.148 A 
ATOM     60  C   UNL A   1      43.362  25.824  25.355  1.00  0.00     0.002 A 
ATOM     61  C   UNL A   1      42.275  23.938  26.424  1.00  0.00     0.091 A 
ATOM     62  F   UNL A   1      41.251  24.240  28.558  1.00  0.00    -0.205 F 
ATOM     63  C   UNL A   1      42.974  24.486  25.337  1.00  0.00     0.022 A 
BRANCH  61  64
ATOM     64  S   UNL A   1      41.869  22.188  26.354  1.00  0.00     0.127 S 
ATOM     65  O   UNL A   1      42.361  21.718  27.647  1.00  0.00    -0.237 OA
ATOM     66  O   UNL A   1      40.410  22.206  26.229  1.00  0.00    -0.237 OA
ATOM     67  O   UNL A   1      42.564  21.673  25.183  1.00  0.00    -0.744 OA
ENDBRANCH  61  64
ENDBRANCH  43  57
BRANCH  44  68
ATOM     68  C   UNL A   1      40.334  31.970  35.375  1.00  0.00     0.023 A 
ATOM     69  C   UNL A   1      41.061  33.160  35.561  1.00  0.00     0.012 A 
ATOM     70  C   UNL A   1      39.279  31.663  36.256  1.00  0.00     0.148 A 
ATOM     71  C   UNL A   1      40.748  34.026  36.609  1.00  0.00     0.002 A 
ATOM     72  C   UNL A   1      38.935  32.558  37.263  1.00  0.00     0.091 A 
ATOM     73  F   UNL A   1      38.615  30.512  36.080  1.00  0.00    -0.205 F 
ATOM     74  C   UNL A   1      39.676  33.734  37.449  1.00  0.00     0.022 A 
BRANCH  72  75
ATOM     75  S   UNL A   1      37.478  32.317  38.287  1.00  0.00     0.127 S 
ATOM     76  O   UNL A   1      36.457  33.039  37.533  1.00  0.00    -0.237 OA
ATOM     77  O   UNL A   1      37.332  30.861  38.284  1.00  0.00    -0.237 OA
ATOM     78  O   UNL A   1      37.830  32.874  39.586  1.00  0.00    -0.744 OA
ENDBRANCH  72  75
ENDBRANCH  44  68
BRANCH  56  79
ATOM     79  C   UNL A   1      45.308  27.262  34.025  1.00  0.00     0.023 A 
ATOM     80  C   UNL A   1      46.550  27.924  33.985  1.00  0.00     0.012 A 
ATOM     81  C   UNL A   1      45.138  26.156  34.878  1.00  0.00     0.148 A 
ATOM     82  C   UNL A   1      47.614  27.480  34.768  1.00  0.00     0.002 A 
ATOM     83  C   UNL A   1      46.192  25.740  35.684  1.00  0.00     0.091 A 
ATOM     84  F   UNL A   1      43.954  25.524  34.883  1.00  0.00    -0.205 F 
ATOM     85  C   UNL A   1      47.432  26.397  35.625  1.00  0.00     0.022 A 
BRANCH  83  86
ATOM     86  S   UNL A   1      46.014  24.403  36.870  1.00  0.00     0.127 S 
ATOM     87  O   UNL A   1      47.355  24.335  37.447  1.00  0.00    -0.237 OA
ATOM     88  O   UNL A   1      44.986  24.918  37.776  1.00  0.00    -0.237 OA
ATOM     89  O   UNL A   1      45.600  23.241  36.094  1.00  0.00    -0.744 OA
ENDBRANCH  83  86
ENDBRANCH  56  79
ENDBRANCH  30  31
ENDBRANCH  23  25
ENDBRANCH  22  23
ENDBRANCH  21  22
ENDBRANCH   1  21
TORSDOF 18
ENDMDL
MODEL 3
REMARK VINA RESULT:     -10.6      5.305      9.950
REMARK SMILES CC(C)[C@@H]1CN(C(=O)Cc2ccsc2)C[C@H]1C(=O)OCCOC(=O)c1ccc(-c2c3nc(c(-c4cccc(S(=O)(=O)[O-])c4F)c4ccc([nH]4)c(-c4cccc(S(=O)(=O)[O-])c4F)c4nc(c(-c5cccc(S(=O)(=O)[O-])c5F)c5ccc2[nH]5)C=C4)C=C3)cc1
REMARK SMILES IDX 20 1 19 2 17 3 18 4 16 5 4 6 5 7 6 8 15 9 2 10 1 11 3 12
REMARK SMILES IDX 7 13 8 14 9 15 10 16 11 17 14 18 12 19 13 20 21 21 22 22
REMARK SMILES IDX 23 23 24 24 25 25 26 26 87 27 27 28 86 29 28 30 29 31 30 32
REMARK SMILES IDX 80 33 31 34 85 35 79 36 81 37 32 38 84 39 78 40 77 41 33 43
REMARK SMILES IDX 65 44 45 45 64 46 46 47 49 48 63 49 82 50 47 51 48 52 62 54
REMARK SMILES IDX 83 55 50 56 34 57 35 58 43 59 36 60 38 61 44 62 37 63 39 64
REMARK SMILES IDX 40 65 41 66 42 67 66 68 67 69 75 70 68 71 70 72 76 73 69 74
REMARK SMILES IDX 71 75 72 76 73 77 74 78 51 79 52 80 60 81 53 82 55 83 61 84
REMARK SMILES IDX 54 85 56 86 57 87 58 88 59 89
REMARK H PARENT 81 42 49 53
REMARK Flexibility Score: inf
ROOT
ATOM      1  C   UNL A   1      36.473  22.947  24.332  1.00  0.00     0.274 C 
ENDROOT
BRANCH   1   2
ATOM      2  O   UNL A   1      35.037  22.905  24.465  1.00  0.00    -0.462 OA
BRANCH   2   3
ATOM      3  C   UNL A   1      34.558  23.538  25.565  1.00  0.00     0.311 C 
ATOM      4  O   UNL A   1      34.880  23.266  26.717  1.00  0.00    -0.252 OA
BRANCH   3   5
ATOM      5  C   UNL A   1      33.479  24.558  25.281  1.00  0.00     0.124 C 
ATOM      6  C   UNL A   1      32.257  24.661  26.221  1.00  0.00     0.027 C 
ATOM      7  C   UNL A   1      32.094  26.163  26.495  1.00  0.00     0.124 C 
ATOM      8  N   UNL A   1      33.318  26.801  26.069  1.00  0.00    -0.341 N 
ATOM      9  C   UNL A   1      34.200  25.897  25.377  1.00  0.00     0.135 C 
BRANCH   6  10
ATOM     10  C   UNL A   1      30.920  24.052  25.704  1.00  0.00    -0.012 C 
ATOM     11  C   UNL A   1      30.989  23.401  24.314  1.00  0.00     0.008 C 
ATOM     12  C   UNL A   1      30.327  23.054  26.695  1.00  0.00     0.008 C 
ENDBRANCH   6  10
BRANCH   8  13
ATOM     13  C   UNL A   1      33.657  28.132  26.200  1.00  0.00     0.227 C 
ATOM     14  O   UNL A   1      34.387  28.530  27.109  1.00  0.00    -0.275 OA
BRANCH  13  15
ATOM     15  C   UNL A   1      33.130  29.095  25.152  1.00  0.00     0.136 C 
BRANCH  15  16
ATOM     16  C   UNL A   1      32.177  28.460  24.173  1.00  0.00    -0.028 A 
ATOM     17  C   UNL A   1      30.749  28.554  24.297  1.00  0.00     0.016 A 
ATOM     18  C   UNL A   1      32.512  27.720  23.049  1.00  0.00     0.069 A 
ATOM     19  C   UNL A   1      30.079  27.886  23.297  1.00  0.00     0.065 A 
ATOM     20  S   UNL A   1      31.149  27.137  22.198  1.00  0.00    -0.152 S 
ENDBRANCH  15  16
ENDBRANCH  13  15
ENDBRANCH   8  13
ENDBRANCH   3   5
ENDBRANCH   2   3
ENDBRANCH   1   2
BRANCH   1  21
ATOM     21  C   UNL A   1      37.113  21.600  24.658  1.00  0.00     0.275 C 
BRANCH  21  22
ATOM     22  O   UNL A   1      37.644  21.607  25.993  1.00  0.00    -0.458 OA
BRANCH  22  23
ATOM     23  C   UNL A   1      38.989  21.538  26.085  1.00  0.00     0.338 C 
ATOM     24  O   UNL A   1      39.701  20.594  25.760  1.00  0.00    -0.246 OA
BRANCH  23  25
ATOM     25  C   UNL A   1      39.534  22.787  26.643  1.00  0.00     0.060 A 
ATOM     26  C   UNL A   1      39.141  24.032  26.143  1.00  0.00     0.016 A 
ATOM     27  C   UNL A   1      40.548  22.703  27.595  1.00  0.00     0.016 A 
ATOM     28  C   UNL A   1      39.805  25.189  26.546  1.00  0.00     0.010 A 
ATOM     29  C   UNL A   1      41.155  23.870  28.061  1.00  0.00     0.010 A 
ATOM     30  C   UNL A   1      40.807  25.121  27.523  1.00  0.00    -0.014 A 
BRANCH  30  31
ATOM     31  C   UNL A   1      41.486  26.346  28.015  1.00  0.00     0.031 A 
ATOM     32  C   UNL A   1      40.710  27.391  28.769  1.00  0.00     0.074 A 
ATOM     33  C   UNL A   1      42.784  26.551  27.719  1.00  0.00     0.049 A 
ATOM     34  N   UNL A   1      41.065  28.607  29.092  1.00  0.00    -0.248 NA
ATOM     35  C   UNL A   1      39.353  27.023  29.207  1.00  0.00     0.031 C 
ATOM     36  C   UNL A   1      43.645  25.609  27.000  1.00  0.00     0.029 A 
ATOM     37  N   UNL A   1      43.596  27.630  27.957  1.00  0.00    -0.354 N 
ATOM     38  C   UNL A   1      39.959  29.171  29.715  1.00  0.00     0.074 A 
ATOM     39  C   UNL A   1      38.923  28.161  29.737  1.00  0.00     0.031 C 
ATOM     40  C   UNL A   1      44.863  26.153  26.852  1.00  0.00     0.029 A 
ATOM     41  C   UNL A   1      44.849  27.502  27.403  1.00  0.00     0.049 A 
ATOM     42  H   UNL A   1      43.311  28.418  28.474  1.00  0.00     0.167 HD
ATOM     43  C   UNL A   1      39.825  30.417  30.232  1.00  0.00     0.034 A 
ATOM     44  C   UNL A   1      45.860  28.387  27.309  1.00  0.00     0.034 A 
ATOM     45  C   UNL A   1      40.878  31.396  30.260  1.00  0.00     0.049 A 
ATOM     46  C   UNL A   1      45.683  29.762  27.884  1.00  0.00     0.074 A 
ATOM     47  C   UNL A   1      40.853  32.671  30.799  1.00  0.00     0.029 A 
ATOM     48  N   UNL A   1      42.148  31.209  29.737  1.00  0.00    -0.354 N 
ATOM     49  N   UNL A   1      44.653  30.262  28.521  1.00  0.00    -0.248 NA
ATOM     50  C   UNL A   1      46.811  30.694  27.737  1.00  0.00     0.031 C 
ATOM     51  C   UNL A   1      42.109  33.254  30.600  1.00  0.00     0.029 A 
ATOM     52  C   UNL A   1      42.917  32.342  29.939  1.00  0.00     0.049 A 
ATOM     53  H   UNL A   1      42.457  30.389  29.287  1.00  0.00     0.167 HD
ATOM     54  C   UNL A   1      45.012  31.557  28.869  1.00  0.00     0.074 A 
ATOM     55  C   UNL A   1      46.365  31.758  28.391  1.00  0.00     0.031 C 
ATOM     56  C   UNL A   1      44.279  32.504  29.504  1.00  0.00     0.034 A 
BRANCH  43  57
ATOM     57  C   UNL A   1      38.504  30.779  30.852  1.00  0.00     0.023 A 
ATOM     58  C   UNL A   1      38.271  30.478  32.209  1.00  0.00     0.012 A 
ATOM     59  C   UNL A   1      37.520  31.469  30.118  1.00  0.00     0.148 A 
ATOM     60  C   UNL A   1      37.073  30.843  32.821  1.00  0.00     0.002 A 
ATOM     61  C   UNL A   1      36.339  31.856  30.743  1.00  0.00     0.091 A 
ATOM     62  F   UNL A   1      37.744  31.718  28.820  1.00  0.00    -0.205 F 
ATOM     63  C   UNL A   1      36.112  31.540  32.093  1.00  0.00     0.022 A 
BRANCH  61  64
ATOM     64  S   UNL A   1      35.080  32.815  29.892  1.00  0.00     0.127 S 
ATOM     65  O   UNL A   1      34.560  31.838  28.937  1.00  0.00    -0.237 OA
ATOM     66  O   UNL A   1      34.156  33.159  30.974  1.00  0.00    -0.237 OA
ATOM     67  O   UNL A   1      35.780  33.955  29.316  1.00  0.00    -0.744 OA
ENDBRANCH  61  64
ENDBRANCH  43  57
BRANCH  44  68
ATOM     68  C   UNL A   1      47.139  27.971  26.669  1.00  0.00     0.023 A 
ATOM     69  C   UNL A   1      48.186  27.493  27.478  1.00  0.00     0.012 A 
ATOM     70  C   UNL A   1      47.298  27.977  25.269  1.00  0.00     0.148 A 
ATOM     71  C   UNL A   1      49.373  27.036  26.906  1.00  0.00     0.002 A 
ATOM     72  C   UNL A   1      48.461  27.467  24.703  1.00  0.00     0.091 A 
ATOM     73  F   UNL A   1      46.301  28.461  24.515  1.00  0.00    -0.205 F 
ATOM     74  C   UNL A   1      49.505  27.007  25.519  1.00  0.00     0.022 A 
BRANCH  72  75
ATOM     75  S   UNL A   1      48.638  27.264  22.926  1.00  0.00     0.127 S 
ATOM     76  O   UNL A   1      50.045  27.600  22.723  1.00  0.00    -0.237 OA
ATOM     77  O   UNL A   1      48.309  25.850  22.739  1.00  0.00    -0.237 OA
ATOM     78  O   UNL A   1      47.668  28.180  22.341  1.00  0.00    -0.744 OA
ENDBRANCH  72  75
ENDBRANCH  44  68
BRANCH  56  79
ATOM     79  C   UNL A   1      44.929  33.841  29.734  1.00  0.00     0.023 A 
ATOM     80  C   UNL A   1      45.661  34.056  30.918  1.00  0.00     0.012 A 
ATOM     81  C   UNL A   1      44.876  34.852  28.756  1.00  0.00     0.148 A 
ATOM     82  C   UNL A   1      46.315  35.267  31.134  1.00  0.00     0.002 A 
ATOM     83  C   UNL A   1      45.561  36.044  28.963  1.00  0.00     0.091 A 
ATOM     84  F   UNL A   1      44.153  34.635  27.647  1.00  0.00    -0.205 F 
ATOM     85  C   UNL A   1      46.275  36.256  30.153  1.00  0.00     0.022 A 
BRANCH  83  86
ATOM     86  S   UNL A   1      45.623  37.335  27.714  1.00  0.00     0.127 S 
ATOM     87  O   UNL A   1      44.206  37.641  27.532  1.00  0.00    -0.237 OA
ATOM     88  O   UNL A   1      46.392  38.385  28.383  1.00  0.00    -0.237 OA
ATOM     89  O   UNL A   1      46.294  36.740  26.566  1.00  0.00    -0.744 OA
ENDBRANCH  83  86
ENDBRANCH  56  79
ENDBRANCH  30  31
ENDBRANCH  23  25
ENDBRANCH  22  23
ENDBRANCH  21  22
ENDBRANCH   1  21
TORSDOF 18
ENDMDL
