MODEL 1
REMARK VINA RESULT:     -10.3      0.000      0.000
REMARK SMILES O=C(OCCOC(=O)c1cccc2c1cc(Br)c1ccccc12)c1ccc(-c2c3nc(c(-c4cccc(S(=O)(=O)[O-])c4F)c4ccc([nH]4)c(-c4cccc(S(=O)(=O)[O-])c4F)c4nc(c(-c5cccc(S(=O)(=O)[O-])c5F)c5ccc2[nH]5)C=C4)C=C3)cc1
REMARK SMILES IDX 3 1 2 2 1 3 24 4 25 5 86 6 26 7 85 8 27 9 28 10 29 11 79 12
REMARK SMILES IDX 30 13 84 14 78 15 80 16 31 17 83 18 77 19 76 20 32 22 64 23
REMARK SMILES IDX 44 24 63 25 45 26 48 27 62 28 81 29 46 30 47 31 61 33 82 34
REMARK SMILES IDX 49 35 33 36 34 37 42 38 35 39 37 40 43 41 36 42 38 43 39 44
REMARK SMILES IDX 40 45 41 46 65 47 66 48 74 49 67 50 69 51 75 52 68 53 70 54
REMARK SMILES IDX 71 55 72 56 73 57 50 58 51 59 59 60 52 61 54 62 60 63 53 64
REMARK SMILES IDX 55 65 56 66 57 67 58 68 4 69 5 70 6 71 7 72 8 73 9 74 10 75
REMARK SMILES IDX 14 76 11 77 13 78 15 79 12 80 23 81 16 82 18 83 22 84 17 85
REMARK SMILES IDX 19 86 21 87 20 88
REMARK H PARENT 80 21 48 32
REMARK Flexibility Score: inf
ROOT
ATOM      1  O   UNL A   1      34.453  32.243  27.339  1.00  0.00    -0.458 OA
ENDROOT
BRANCH   1   2
ATOM      2  C   UNL A   1      34.558  30.906  27.568  1.00  0.00     0.338 C 
ATOM      3  O   UNL A   1      33.562  30.195  27.630  1.00  0.00    -0.246 OA
BRANCH   2   4
ATOM      4  C   UNL A   1      35.863  30.384  28.049  1.00  0.00     0.060 A 
ATOM      5  C   UNL A   1      35.865  29.754  29.298  1.00  0.00     0.016 A 
ATOM      6  C   UNL A   1      37.053  30.454  27.321  1.00  0.00     0.016 A 
ATOM      7  C   UNL A   1      37.064  29.326  29.872  1.00  0.00     0.010 A 
ATOM      8  C   UNL A   1      38.254  30.015  27.887  1.00  0.00     0.010 A 
ATOM      9  C   UNL A   1      38.272  29.467  29.175  1.00  0.00    -0.014 A 
BRANCH   9  10
ATOM     10  C   UNL A   1      39.500  28.822  29.691  1.00  0.00     0.031 A 
ATOM     11  C   UNL A   1      40.077  27.574  29.094  1.00  0.00     0.074 A 
ATOM     12  C   UNL A   1      40.068  29.376  30.779  1.00  0.00     0.049 A 
ATOM     13  N   UNL A   1      41.233  27.015  29.342  1.00  0.00    -0.248 NA
ATOM     14  C   UNL A   1      39.277  26.862  28.087  1.00  0.00     0.031 C 
ATOM     15  C   UNL A   1      39.536  30.539  31.494  1.00  0.00     0.029 A 
ATOM     16  N   UNL A   1      41.183  29.024  31.489  1.00  0.00    -0.354 N 
ATOM     17  C   UNL A   1      41.329  25.929  28.482  1.00  0.00     0.074 A 
ATOM     18  C   UNL A   1      40.095  25.876  27.731  1.00  0.00     0.031 C 
ATOM     19  C   UNL A   1      40.309  30.788  32.559  1.00  0.00     0.029 A 
ATOM     20  C   UNL A   1      41.382  29.802  32.603  1.00  0.00     0.049 A 
ATOM     21  H   UNL A   1      41.782  28.289  31.227  1.00  0.00     0.167 HD
ATOM     22  C   UNL A   1      42.368  25.076  28.330  1.00  0.00     0.034 A 
ATOM     23  C   UNL A   1      42.318  29.724  33.567  1.00  0.00     0.034 A 
ATOM     24  C   UNL A   1      43.540  25.081  29.165  1.00  0.00     0.049 A 
ATOM     25  C   UNL A   1      43.403  28.702  33.443  1.00  0.00     0.074 A 
ATOM     26  C   UNL A   1      44.663  24.277  29.071  1.00  0.00     0.029 A 
ATOM     27  N   UNL A   1      43.712  25.882  30.282  1.00  0.00    -0.354 N 
ATOM     28  N   UNL A   1      43.594  27.829  32.484  1.00  0.00    -0.248 NA
ATOM     29  C   UNL A   1      44.416  28.667  34.504  1.00  0.00     0.031 C 
ATOM     30  C   UNL A   1      45.495  24.565  30.156  1.00  0.00     0.029 A 
ATOM     31  C   UNL A   1      44.900  25.562  30.913  1.00  0.00     0.049 A 
ATOM     32  H   UNL A   1      43.082  26.577  30.581  1.00  0.00     0.167 HD
ATOM     33  C   UNL A   1      44.760  27.154  32.811  1.00  0.00     0.074 A 
ATOM     34  C   UNL A   1      45.236  27.722  34.057  1.00  0.00     0.031 C 
ATOM     35  C   UNL A   1      45.373  26.151  32.139  1.00  0.00     0.034 A 
BRANCH  22  36
ATOM     36  C   UNL A   1      42.350  24.102  27.186  1.00  0.00     0.023 A 
ATOM     37  C   UNL A   1      43.048  24.446  26.011  1.00  0.00     0.012 A 
ATOM     38  C   UNL A   1      41.824  22.803  27.327  1.00  0.00     0.148 A 
ATOM     39  C   UNL A   1      43.237  23.509  24.995  1.00  0.00     0.002 A 
ATOM     40  C   UNL A   1      42.028  21.870  26.315  1.00  0.00     0.091 A 
ATOM     41  F   UNL A   1      41.166  22.502  28.453  1.00  0.00    -0.205 F 
ATOM     42  C   UNL A   1      42.737  22.220  25.153  1.00  0.00     0.022 A 
BRANCH  40  43
ATOM     43  S   UNL A   1      41.462  20.168  26.425  1.00  0.00     0.127 S 
ATOM     44  O   UNL A   1      41.855  19.814  27.788  1.00  0.00    -0.237 OA
ATOM     45  O   UNL A   1      40.020  20.311  26.222  1.00  0.00    -0.237 OA
ATOM     46  O   UNL A   1      42.166  19.441  25.377  1.00  0.00    -0.744 OA
ENDBRANCH  40  43
ENDBRANCH  22  36
BRANCH  23  47
ATOM     47  C   UNL A   1      42.256  30.700  34.683  1.00  0.00     0.023 A 
ATOM     48  C   UNL A   1      41.358  30.481  35.743  1.00  0.00     0.012 A 
ATOM     49  C   UNL A   1      43.198  31.744  34.773  1.00  0.00     0.148 A 
ATOM     50  C   UNL A   1      41.406  31.286  36.883  1.00  0.00     0.002 A 
ATOM     51  C   UNL A   1      43.270  32.511  35.928  1.00  0.00     0.091 A 
ATOM     52  F   UNL A   1      44.038  31.930  33.744  1.00  0.00    -0.205 F 
ATOM     53  C   UNL A   1      42.371  32.287  36.983  1.00  0.00     0.022 A 
BRANCH  51  54
ATOM     54  S   UNL A   1      44.570  33.722  36.195  1.00  0.00     0.127 S 
ATOM     55  O   UNL A   1      44.059  34.458  37.349  1.00  0.00    -0.237 OA
ATOM     56  O   UNL A   1      45.728  32.871  36.472  1.00  0.00    -0.237 OA
ATOM     57  O   UNL A   1      44.665  34.477  34.953  1.00  0.00    -0.744 OA
ENDBRANCH  51  54
ENDBRANCH  23  47
BRANCH  35  58
ATOM     58  C   UNL A   1      46.630  25.575  32.722  1.00  0.00     0.023 A 
ATOM     59  C   UNL A   1      47.859  26.211  32.466  1.00  0.00     0.012 A 
ATOM     60  C   UNL A   1      46.569  24.509  33.639  1.00  0.00     0.148 A 
ATOM     61  C   UNL A   1      49.016  25.794  33.122  1.00  0.00     0.002 A 
ATOM     62  C   UNL A   1      47.719  24.122  34.315  1.00  0.00     0.091 A 
ATOM     63  F   UNL A   1      45.383  23.925  33.859  1.00  0.00    -0.205 F 
ATOM     64  C   UNL A   1      48.943  24.761  34.054  1.00  0.00     0.022 A 
BRANCH  62  65
ATOM     65  S   UNL A   1      47.714  22.860  35.591  1.00  0.00     0.127 S 
ATOM     66  O   UNL A   1      49.123  22.831  35.986  1.00  0.00    -0.237 OA
ATOM     67  O   UNL A   1      46.812  23.436  36.588  1.00  0.00    -0.237 OA
ATOM     68  O   UNL A   1      47.230  21.642  34.957  1.00  0.00    -0.744 OA
ENDBRANCH  62  65
ENDBRANCH  35  58
ENDBRANCH   9  10
ENDBRANCH   2   4
ENDBRANCH   1   2
BRANCH   1  69
ATOM     69  C   UNL A   1      33.493  33.090  27.990  1.00  0.00     0.275 C 
BRANCH  69  70
ATOM     70  C   UNL A   1      34.072  34.401  28.527  1.00  0.00     0.275 C 
BRANCH  70  71
ATOM     71  O   UNL A   1      34.225  34.419  29.953  1.00  0.00    -0.458 OA
BRANCH  71  72
ATOM     72  C   UNL A   1      34.893  33.354  30.479  1.00  0.00     0.338 C 
ATOM     73  O   UNL A   1      34.403  32.326  30.900  1.00  0.00    -0.246 OA
BRANCH  72  74
ATOM     74  C   UNL A   1      36.351  33.633  30.443  1.00  0.00     0.067 A 
ATOM     75  C   UNL A   1      36.970  33.604  29.191  1.00  0.00     0.016 A 
ATOM     76  C   UNL A   1      37.088  33.912  31.631  1.00  0.00    -0.002 A 
ATOM     77  C   UNL A   1      38.331  33.829  29.099  1.00  0.00     0.002 A 
ATOM     78  C   UNL A   1      38.492  34.124  31.548  1.00  0.00    -0.010 A 
ATOM     79  C   UNL A   1      36.491  33.937  32.905  1.00  0.00     0.026 A 
ATOM     80  C   UNL A   1      39.073  34.070  30.254  1.00  0.00     0.009 A 
ATOM     81  C   UNL A   1      39.266  34.354  32.748  1.00  0.00    -0.009 A 
ATOM     82  C   UNL A   1      37.237  34.141  34.068  1.00  0.00     0.026 A 
ATOM     83  C   UNL A   1      38.629  34.355  34.019  1.00  0.00    -0.004 A 
ATOM     84  C   UNL A   1      40.670  34.576  32.733  1.00  0.00     0.009 A 
ATOM     85  Br  UNL A   1      36.255  34.079  35.705  1.00  0.00    -0.050 Br
ATOM     86  C   UNL A   1      39.415  34.568  35.182  1.00  0.00     0.010 A 
ATOM     87  C   UNL A   1      41.418  34.791  33.892  1.00  0.00     0.001 A 
ATOM     88  C   UNL A   1      40.789  34.785  35.121  1.00  0.00     0.001 A 
ENDBRANCH  72  74
ENDBRANCH  71  72
ENDBRANCH  70  71
ENDBRANCH  69  70
ENDBRANCH   1  69
TORSDOF 14
ENDMDL
MODEL 2
REMARK VINA RESULT:     -10.3      4.357      7.199
REMARK SMILES O=C(OCCOC(=O)c1cccc2c1cc(Br)c1ccccc12)c1ccc(-c2c3nc(c(-c4cccc(S(=O)(=O)[O-])c4F)c4ccc([nH]4)c(-c4cccc(S(=O)(=O)[O-])c4F)c4nc(c(-c5cccc(S(=O)(=O)[O-])c5F)c5ccc2[nH]5)C=C4)C=C3)cc1
REMARK SMILES IDX 3 1 2 2 1 3 24 4 25 5 86 6 26 7 85 8 27 9 28 10 29 11 79 12
REMARK SMILES IDX 30 13 84 14 78 15 80 16 31 17 83 18 77 19 76 20 32 22 64 23
REMARK SMILES IDX 44 24 63 25 45 26 48 27 62 28 81 29 46 30 47 31 61 33 82 34
REMARK SMILES IDX 49 35 33 36 34 37 42 38 35 39 37 40 43 41 36 42 38 43 39 44
REMARK SMILES IDX 40 45 41 46 65 47 66 48 74 49 67 50 69 51 75 52 68 53 70 54
REMARK SMILES IDX 71 55 72 56 73 57 50 58 51 59 59 60 52 61 54 62 60 63 53 64
REMARK SMILES IDX 55 65 56 66 57 67 58 68 4 69 5 70 6 71 7 72 8 73 9 74 10 75
REMARK SMILES IDX 14 76 11 77 13 78 15 79 12 80 23 81 16 82 18 83 22 84 17 85
REMARK SMILES IDX 19 86 21 87 20 88
REMARK H PARENT 80 21 48 32
REMARK Flexibility Score: inf
ROOT
ATOM      1  O   UNL A   1      33.612  30.023  27.618  1.00  0.00    -0.458 OA
ENDROOT
BRANCH   1   2
ATOM      2  C   UNL A   1      34.604  30.882  27.977  1.00  0.00     0.338 C 
ATOM      3  O   UNL A   1      34.525  32.080  27.728  1.00  0.00    -0.246 OA
BRANCH   2   4
ATOM      4  C   UNL A   1      35.909  30.303  28.388  1.00  0.00     0.060 A 
ATOM      5  C   UNL A   1      36.958  30.404  27.468  1.00  0.00     0.016 A 
ATOM      6  C   UNL A   1      36.149  29.711  29.630  1.00  0.00     0.016 A 
ATOM      7  C   UNL A   1      38.187  29.797  27.729  1.00  0.00     0.010 A 
ATOM      8  C   UNL A   1      37.383  29.114  29.901  1.00  0.00     0.010 A 
ATOM      9  C   UNL A   1      38.405  29.133  28.945  1.00  0.00    -0.014 A 
BRANCH   9  10
ATOM     10  C   UNL A   1      39.768  28.681  29.304  1.00  0.00     0.031 A 
ATOM     11  C   UNL A   1      40.388  27.437  28.742  1.00  0.00     0.074 A 
ATOM     12  C   UNL A   1      40.431  29.414  30.218  1.00  0.00     0.049 A 
ATOM     13  N   UNL A   1      41.628  27.032  28.842  1.00  0.00    -0.248 NA
ATOM     14  C   UNL A   1      39.529  26.534  27.962  1.00  0.00     0.031 C 
ATOM     15  C   UNL A   1      39.883  30.592  30.897  1.00  0.00     0.029 A 
ATOM     16  N   UNL A   1      41.679  29.263  30.758  1.00  0.00    -0.354 N 
ATOM     17  C   UNL A   1      41.716  25.868  28.090  1.00  0.00     0.074 A 
ATOM     18  C   UNL A   1      40.393  25.602  27.569  1.00  0.00     0.031 C 
ATOM     19  C   UNL A   1      40.781  31.041  31.783  1.00  0.00     0.029 A 
ATOM     20  C   UNL A   1      41.958  30.181  31.740  1.00  0.00     0.049 A 
ATOM     21  H   UNL A   1      42.313  28.567  30.470  1.00  0.00     0.167 HD
ATOM     22  C   UNL A   1      42.812  25.115  27.846  1.00  0.00     0.034 A 
ATOM     23  C   UNL A   1      43.038  30.313  32.531  1.00  0.00     0.034 A 
ATOM     24  C   UNL A   1      44.093  25.337  28.463  1.00  0.00     0.049 A 
ATOM     25  C   UNL A   1      44.204  29.400  32.325  1.00  0.00     0.074 A 
ATOM     26  C   UNL A   1      45.275  24.646  28.257  1.00  0.00     0.029 A 
ATOM     27  N   UNL A   1      44.343  26.277  29.449  1.00  0.00    -0.354 N 
ATOM     28  N   UNL A   1      44.344  28.445  31.437  1.00  0.00    -0.248 NA
ATOM     29  C   UNL A   1      45.371  29.593  33.195  1.00  0.00     0.031 C 
ATOM     30  C   UNL A   1      46.229  25.143  29.150  1.00  0.00     0.029 A 
ATOM     31  C   UNL A   1      45.646  26.156  29.896  1.00  0.00     0.049 A 
ATOM     32  H   UNL A   1      43.690  26.934  29.783  1.00  0.00     0.167 HD
ATOM     33  C   UNL A   1      45.620  27.936  31.624  1.00  0.00     0.074 A 
ATOM     34  C   UNL A   1      46.217  28.691  32.709  1.00  0.00     0.031 C 
ATOM     35  C   UNL A   1      46.234  26.929  30.959  1.00  0.00     0.034 A 
BRANCH  22  36
ATOM     36  C   UNL A   1      42.729  24.017  26.823  1.00  0.00     0.023 A 
ATOM     37  C   UNL A   1      43.386  24.208  25.591  1.00  0.00     0.012 A 
ATOM     38  C   UNL A   1      42.185  22.755  27.132  1.00  0.00     0.148 A 
ATOM     39  C   UNL A   1      43.516  23.156  24.684  1.00  0.00     0.002 A 
ATOM     40  C   UNL A   1      42.330  21.708  26.228  1.00  0.00     0.091 A 
ATOM     41  F   UNL A   1      41.566  22.601  28.310  1.00  0.00    -0.205 F 
ATOM     42  C   UNL A   1      42.998  21.906  25.007  1.00  0.00     0.022 A 
BRANCH  40  43
ATOM     43  S   UNL A   1      41.736  20.044  26.554  1.00  0.00     0.127 S 
ATOM     44  O   UNL A   1      40.290  20.256  26.621  1.00  0.00    -0.237 OA
ATOM     45  O   UNL A   1      42.193  19.317  25.370  1.00  0.00    -0.237 OA
ATOM     46  O   UNL A   1      42.353  19.634  27.809  1.00  0.00    -0.744 OA
ENDBRANCH  40  43
ENDBRANCH  22  36
BRANCH  23  47
ATOM     47  C   UNL A   1      43.038  31.401  33.541  1.00  0.00     0.023 A 
ATOM     48  C   UNL A   1      43.450  32.692  33.167  1.00  0.00     0.012 A 
ATOM     49  C   UNL A   1      42.474  31.192  34.815  1.00  0.00     0.148 A 
ATOM     50  C   UNL A   1      43.291  33.764  34.046  1.00  0.00     0.002 A 
ATOM     51  C   UNL A   1      42.277  32.271  35.667  1.00  0.00     0.091 A 
ATOM     52  F   UNL A   1      42.094  29.949  35.145  1.00  0.00    -0.205 F 
ATOM     53  C   UNL A   1      42.690  33.558  35.287  1.00  0.00     0.022 A 
BRANCH  51  54
ATOM     54  S   UNL A   1      41.384  32.116  37.220  1.00  0.00     0.127 S 
ATOM     55  O   UNL A   1      40.111  31.554  36.776  1.00  0.00    -0.237 OA
ATOM     56  O   UNL A   1      42.237  31.193  37.970  1.00  0.00    -0.237 OA
ATOM     57  O   UNL A   1      41.324  33.461  37.775  1.00  0.00    -0.744 OA
ENDBRANCH  51  54
ENDBRANCH  23  47
BRANCH  35  58
ATOM     58  C   UNL A   1      47.628  26.557  31.372  1.00  0.00     0.023 A 
ATOM     59  C   UNL A   1      47.808  25.651  32.434  1.00  0.00     0.012 A 
ATOM     60  C   UNL A   1      48.736  26.978  30.613  1.00  0.00     0.148 A 
ATOM     61  C   UNL A   1      49.080  25.165  32.734  1.00  0.00     0.002 A 
ATOM     62  C   UNL A   1      49.994  26.463  30.895  1.00  0.00     0.091 A 
ATOM     63  F   UNL A   1      48.528  27.842  29.609  1.00  0.00    -0.205 F 
ATOM     64  C   UNL A   1      50.168  25.559  31.958  1.00  0.00     0.022 A 
BRANCH  62  65
ATOM     65  S   UNL A   1      51.441  26.845  29.905  1.00  0.00     0.127 S 
ATOM     66  O   UNL A   1      52.473  26.042  30.563  1.00  0.00    -0.237 OA
ATOM     67  O   UNL A   1      51.043  26.364  28.583  1.00  0.00    -0.237 OA
ATOM     68  O   UNL A   1      51.632  28.285  30.001  1.00  0.00    -0.744 OA
ENDBRANCH  62  65
ENDBRANCH  35  58
ENDBRANCH   9  10
ENDBRANCH   2   4
ENDBRANCH   1   2
BRANCH   1  69
ATOM     69  C   UNL A   1      33.348  29.633  26.261  1.00  0.00     0.275 C 
BRANCH  69  70
ATOM     70  C   UNL A   1      34.030  28.331  25.837  1.00  0.00     0.275 C 
BRANCH  70  71
ATOM     71  O   UNL A   1      33.114  27.321  25.394  1.00  0.00    -0.458 OA
BRANCH  71  72
ATOM     72  C   UNL A   1      33.221  26.975  24.081  1.00  0.00     0.338 C 
ATOM     73  O   UNL A   1      33.766  27.615  23.204  1.00  0.00    -0.246 OA
BRANCH  72  74
ATOM     74  C   UNL A   1      32.575  25.654  23.875  1.00  0.00     0.067 A 
ATOM     75  C   UNL A   1      31.242  25.661  23.456  1.00  0.00     0.016 A 
ATOM     76  C   UNL A   1      33.278  24.434  24.099  1.00  0.00    -0.002 A 
ATOM     77  C   UNL A   1      30.579  24.460  23.274  1.00  0.00     0.002 A 
ATOM     78  C   UNL A   1      32.598  23.196  23.935  1.00  0.00    -0.010 A 
ATOM     79  C   UNL A   1      34.617  24.399  24.532  1.00  0.00     0.026 A 
ATOM     80  C   UNL A   1      31.242  23.259  23.522  1.00  0.00     0.009 A 
ATOM     81  C   UNL A   1      33.278  21.950  24.211  1.00  0.00    -0.009 A 
ATOM     82  C   UNL A   1      35.272  23.200  24.817  1.00  0.00     0.026 A 
ATOM     83  C   UNL A   1      34.627  21.957  24.662  1.00  0.00    -0.004 A 
ATOM     84  C   UNL A   1      32.657  20.679  24.063  1.00  0.00     0.009 A 
ATOM     85  Br  UNL A   1      37.066  23.364  25.449  1.00  0.00    -0.050 Br
ATOM     86  C   UNL A   1      35.265  20.720  24.940  1.00  0.00     0.010 A 
ATOM     87  C   UNL A   1      33.311  19.477  24.336  1.00  0.00     0.001 A 
ATOM     88  C   UNL A   1      34.620  19.497  24.778  1.00  0.00     0.001 A 
ENDBRANCH  72  74
ENDBRANCH  71  72
ENDBRANCH  70  71
ENDBRANCH  69  70
ENDBRANCH   1  69
TORSDOF 14
ENDMDL
MODEL 3
REMARK VINA RESULT:     -10.3      0.317      7.883
REMARK SMILES O=C(OCCOC(=O)c1cccc2c1cc(Br)c1ccccc12)c1ccc(-c2c3nc(c(-c4cccc(S(=O)(=O)[O-])c4F)c4ccc([nH]4)c(-c4cccc(S(=O)(=O)[O-])c4F)c4nc(c(-c5cccc(S(=O)(=O)[O-])c5F)c5ccc2[nH]5)C=C4)C=C3)cc1
REMARK SMILES IDX 3 1 2 2 1 3 24 4 25 5 86 6 26 7 85 8 27 9 28 10 29 11 79 12
REMARK SMILES IDX 30 13 84 14 78 15 80 16 31 17 83 18 77 19 76 20 32 22 64 23
REMARK SMILES IDX 44 24 63 25 45 26 48 27 62 28 81 29 46 30 47 31 61 33 82 34
REMARK SMILES IDX 49 35 33 36 34 37 42 38 35 39 37 40 43 41 36 42 38 43 39 44
REMARK SMILES IDX 40 45 41 46 65 47 66 48 74 49 67 50 69 51 75 52 68 53 70 54
REMARK SMILES IDX 71 55 72 56 73 57 50 58 51 59 59 60 52 61 54 62 60 63 53 64
REMARK SMILES IDX 55 65 56 66 57 67 58 68 4 69 5 70 6 71 7 72 8 73 9 74 10 75
REMARK SMILES IDX 14 76 11 77 13 78 15 79 12 80 23 81 16 82 18 83 22 84 17 85
REMARK SMILES IDX 19 86 21 87 20 88
REMARK H PARENT 80 21 48 32
REMARK Flexibility Score: inf
ROOT
ATOM      1  O   UNL A   1      34.488  32.124  27.347  1.00  0.00    -0.458 OA
ENDROOT
BRANCH   1   2
ATOM      2  C   UNL A   1      34.653  30.792  27.570  1.00  0.00     0.338 C 
ATOM      3  O   UNL A   1      33.692  30.031  27.596  1.00  0.00    -0.246 OA
BRANCH   2   4
ATOM      4  C   UNL A   1      35.967  30.331  28.090  1.00  0.00     0.060 A 
ATOM      5  C   UNL A   1      35.961  29.699  29.337  1.00  0.00     0.016 A 
ATOM      6  C   UNL A   1      37.173  30.460  27.398  1.00  0.00     0.016 A 
ATOM      7  C   UNL A   1      37.161  29.327  29.946  1.00  0.00     0.010 A 
ATOM      8  C   UNL A   1      38.376  30.077  27.998  1.00  0.00     0.010 A 
ATOM      9  C   UNL A   1      38.382  29.528  29.286  1.00  0.00    -0.014 A 
BRANCH   9  10
ATOM     10  C   UNL A   1      39.623  28.941  29.838  1.00  0.00     0.031 A 
ATOM     11  C   UNL A   1      40.354  29.531  31.007  1.00  0.00     0.074 A 
ATOM     12  C   UNL A   1      40.120  27.862  29.206  1.00  0.00     0.049 A 
ATOM     13  N   UNL A   1      41.345  29.018  31.688  1.00  0.00    -0.248 NA
ATOM     14  C   UNL A   1      39.924  30.852  31.488  1.00  0.00     0.031 C 
ATOM     15  C   UNL A   1      39.538  27.261  28.002  1.00  0.00     0.029 A 
ATOM     16  N   UNL A   1      41.231  27.104  29.458  1.00  0.00    -0.354 N 
ATOM     17  C   UNL A   1      41.615  29.915  32.713  1.00  0.00     0.074 A 
ATOM     18  C   UNL A   1      40.713  31.032  32.544  1.00  0.00     0.031 C 
ATOM     19  C   UNL A   1      40.313  26.244  27.603  1.00  0.00     0.029 A 
ATOM     20  C   UNL A   1      41.445  26.128  28.516  1.00  0.00     0.049 A 
ATOM     21  H   UNL A   1      41.817  27.244  30.236  1.00  0.00     0.167 HD
ATOM     22  C   UNL A   1      42.522  29.793  33.709  1.00  0.00     0.034 A 
ATOM     23  C   UNL A   1      42.449  25.240  28.389  1.00  0.00     0.034 A 
ATOM     24  C   UNL A   1      43.483  28.725  33.794  1.00  0.00     0.049 A 
ATOM     25  C   UNL A   1      43.508  25.189  29.443  1.00  0.00     0.074 A 
ATOM     26  C   UNL A   1      44.425  28.497  34.783  1.00  0.00     0.029 A 
ATOM     27  N   UNL A   1      43.671  27.752  32.827  1.00  0.00    -0.354 N 
ATOM     28  N   UNL A   1      43.608  25.910  30.534  1.00  0.00    -0.248 NA
ATOM     29  C   UNL A   1      44.572  24.192  29.278  1.00  0.00     0.031 C 
ATOM     30  C   UNL A   1      45.208  27.407  34.392  1.00  0.00     0.029 A 
ATOM     31  C   UNL A   1      44.741  26.946  33.171  1.00  0.00     0.049 A 
ATOM     32  H   UNL A   1      43.124  27.648  32.015  1.00  0.00     0.167 HD
ATOM     33  C   UNL A   1      44.731  25.442  31.198  1.00  0.00     0.074 A 
ATOM     34  C   UNL A   1      45.279  24.370  30.389  1.00  0.00     0.031 C 
ATOM     35  C   UNL A   1      45.260  25.869  32.369  1.00  0.00     0.034 A 
BRANCH  22  36
ATOM     36  C   UNL A   1      42.498  30.781  34.841  1.00  0.00     0.023 A 
ATOM     37  C   UNL A   1      41.577  30.568  35.887  1.00  0.00     0.012 A 
ATOM     38  C   UNL A   1      43.479  31.782  34.972  1.00  0.00     0.148 A 
ATOM     39  C   UNL A   1      41.640  31.328  37.055  1.00  0.00     0.002 A 
ATOM     40  C   UNL A   1      43.544  32.527  36.145  1.00  0.00     0.091 A 
ATOM     41  F   UNL A   1      44.342  31.963  33.964  1.00  0.00    -0.205 F 
ATOM     42  C   UNL A   1      42.628  32.298  37.188  1.00  0.00     0.022 A 
BRANCH  40  43
ATOM     43  S   UNL A   1      44.799  33.779  36.443  1.00  0.00     0.127 S 
ATOM     44  O   UNL A   1      44.510  34.742  35.381  1.00  0.00    -0.237 OA
ATOM     45  O   UNL A   1      44.462  34.235  37.791  1.00  0.00    -0.237 OA
ATOM     46  O   UNL A   1      46.081  33.100  36.321  1.00  0.00    -0.744 OA
ENDBRANCH  40  43
ENDBRANCH  22  36
BRANCH  23  47
ATOM     47  C   UNL A   1      42.423  24.316  27.229  1.00  0.00     0.023 A 
ATOM     48  C   UNL A   1      43.131  24.652  26.061  1.00  0.00     0.012 A 
ATOM     49  C   UNL A   1      41.840  23.039  27.346  1.00  0.00     0.148 A 
ATOM     50  C   UNL A   1      43.266  23.723  25.028  1.00  0.00     0.002 A 
ATOM     51  C   UNL A   1      42.018  22.104  26.334  1.00  0.00     0.091 A 
ATOM     52  F   UNL A   1      41.168  22.749  28.469  1.00  0.00    -0.205 F 
ATOM     53  C   UNL A   1      42.726  22.447  25.171  1.00  0.00     0.022 A 
BRANCH  51  54
ATOM     54  S   UNL A   1      41.477  20.398  26.499  1.00  0.00     0.127 S 
ATOM     55  O   UNL A   1      40.030  20.528  26.349  1.00  0.00    -0.237 OA
ATOM     56  O   UNL A   1      42.158  19.753  25.374  1.00  0.00    -0.237 OA
ATOM     57  O   UNL A   1      41.942  19.963  27.809  1.00  0.00    -0.744 OA
ENDBRANCH  51  54
ENDBRANCH  23  47
BRANCH  35  58
ATOM     58  C   UNL A   1      46.505  25.197  32.868  1.00  0.00     0.023 A 
ATOM     59  C   UNL A   1      47.759  25.751  32.546  1.00  0.00     0.012 A 
ATOM     60  C   UNL A   1      46.425  24.122  33.774  1.00  0.00     0.148 A 
ATOM     61  C   UNL A   1      48.920  25.244  33.125  1.00  0.00     0.002 A 
ATOM     62  C   UNL A   1      47.583  23.646  34.374  1.00  0.00     0.091 A 
ATOM     63  F   UNL A   1      45.216  23.619  34.058  1.00  0.00    -0.205 F 
ATOM     64  C   UNL A   1      48.832  24.203  34.047  1.00  0.00     0.022 A 
BRANCH  62  65
ATOM     65  S   UNL A   1      47.566  22.366  35.632  1.00  0.00     0.127 S 
ATOM     66  O   UNL A   1      46.685  22.953  36.642  1.00  0.00    -0.237 OA
ATOM     67  O   UNL A   1      46.993  21.232  34.907  1.00  0.00    -0.237 OA
ATOM     68  O   UNL A   1      48.949  22.189  36.051  1.00  0.00    -0.744 OA
ENDBRANCH  62  65
ENDBRANCH  35  58
ENDBRANCH   9  10
ENDBRANCH   2   4
ENDBRANCH   1   2
BRANCH   1  69
ATOM     69  C   UNL A   1      33.491  32.924  28.002  1.00  0.00     0.275 C 
BRANCH  69  70
ATOM     70  C   UNL A   1      33.983  34.303  28.446  1.00  0.00     0.275 C 
BRANCH  70  71
ATOM     71  O   UNL A   1      34.202  34.405  29.859  1.00  0.00    -0.458 OA
BRANCH  71  72
ATOM     72  C   UNL A   1      34.880  33.365  30.419  1.00  0.00     0.338 C 
ATOM     73  O   UNL A   1      34.403  32.334  30.848  1.00  0.00    -0.246 OA
BRANCH  72  74
ATOM     74  C   UNL A   1      36.332  33.675  30.411  1.00  0.00     0.067 A 
ATOM     75  C   UNL A   1      36.961  33.727  29.164  1.00  0.00     0.016 A 
ATOM     76  C   UNL A   1      37.056  33.903  31.618  1.00  0.00    -0.002 A 
ATOM     77  C   UNL A   1      38.318  33.984  29.095  1.00  0.00     0.002 A 
ATOM     78  C   UNL A   1      38.455  34.147  31.558  1.00  0.00    -0.010 A 
ATOM     79  C   UNL A   1      36.450  33.845  32.887  1.00  0.00     0.026 A 
ATOM     80  C   UNL A   1      39.047  34.176  30.268  1.00  0.00     0.009 A 
ATOM     81  C   UNL A   1      39.216  34.327  32.775  1.00  0.00    -0.009 A 
ATOM     82  C   UNL A   1      37.184  34.001  34.065  1.00  0.00     0.026 A 
ATOM     83  C   UNL A   1      38.571  34.246  34.039  1.00  0.00    -0.004 A 
ATOM     84  C   UNL A   1      40.616  34.577  32.783  1.00  0.00     0.009 A 
ATOM     85  Br  UNL A   1      36.192  33.829  35.688  1.00  0.00    -0.050 Br
ATOM     86  C   UNL A   1      39.344  34.410  35.218  1.00  0.00     0.010 A 
ATOM     87  C   UNL A   1      41.351  34.744  33.958  1.00  0.00     0.001 A 
ATOM     88  C   UNL A   1      40.714  34.658  35.180  1.00  0.00     0.001 A 
ENDBRANCH  72  74
ENDBRANCH  71  72
ENDBRANCH  70  71
ENDBRANCH  69  70
ENDBRANCH   1  69
TORSDOF 14
ENDMDL
