MODEL 1
REMARK VINA RESULT:     -11.8      0.000      0.000
REMARK SMILES O=C(OCCOC(=O)c1nccnc1C(=O)Nc1ccc2c(c1)OCO2)c1ccc(-c2c3nc(c(-c4cccc(S(=O)(=O)[O-])c4F)c4ccc([nH]4)c(-c4cccc(S(=O)(=O)[O-])c4F)c4nc(c(-c5cccc(S(=O)(=O)[O-])c5F)c5ccc2[nH]5)C=C4)C=C3)cc1
REMARK SMILES IDX 4 1 3 2 2 3 1 4 27 5 28 6 89 7 29 8 88 9 30 10 31 11 32 12
REMARK SMILES IDX 82 13 33 14 87 15 81 16 83 17 34 18 86 19 80 20 79 21 35 23
REMARK SMILES IDX 67 24 47 25 66 26 48 27 51 28 65 29 84 30 49 31 50 32 64 34
REMARK SMILES IDX 85 35 52 36 36 37 37 38 45 39 38 40 40 41 46 42 39 43 41 44
REMARK SMILES IDX 42 45 43 46 44 47 68 48 69 49 77 50 70 51 72 52 78 53 71 54
REMARK SMILES IDX 73 55 74 56 75 57 76 58 53 59 54 60 62 61 55 62 57 63 63 64
REMARK SMILES IDX 56 65 58 66 59 67 60 68 61 69 5 70 6 71 7 72 8 73 9 74 10 75
REMARK SMILES IDX 14 76 11 77 13 78 12 79 15 80 16 81 17 82 18 84 19 85 23 86
REMARK SMILES IDX 20 87 22 88 21 89 24 90 26 91 25 92
REMARK H PARENT 83 22 51 33 17 83
REMARK Flexibility Score: inf
ROOT
ATOM      1  C   UNL A   1      35.336  33.343  28.084  1.00  0.00     0.275 C 
ENDROOT
BRANCH   1   2
ATOM      2  O   UNL A   1      34.502  32.166  28.228  1.00  0.00    -0.458 OA
BRANCH   2   3
ATOM      3  C   UNL A   1      34.803  30.893  27.860  1.00  0.00     0.338 C 
ATOM      4  O   UNL A   1      33.970  30.167  27.325  1.00  0.00    -0.246 OA
BRANCH   3   5
ATOM      5  C   UNL A   1      36.113  30.345  28.263  1.00  0.00     0.060 A 
ATOM      6  C   UNL A   1      36.283  29.730  29.502  1.00  0.00     0.016 A 
ATOM      7  C   UNL A   1      37.177  30.392  27.350  1.00  0.00     0.016 A 
ATOM      8  C   UNL A   1      37.442  29.008  29.755  1.00  0.00     0.010 A 
ATOM      9  C   UNL A   1      38.366  29.709  27.624  1.00  0.00     0.010 A 
ATOM     10  C   UNL A   1      38.487  28.989  28.820  1.00  0.00    -0.014 A 
BRANCH  10  11
ATOM     11  C   UNL A   1      39.781  28.444  29.279  1.00  0.00     0.031 A 
ATOM     12  C   UNL A   1      40.388  29.121  30.461  1.00  0.00     0.074 A 
ATOM     13  C   UNL A   1      40.313  27.307  28.797  1.00  0.00     0.049 A 
ATOM     14  N   UNL A   1      41.279  28.656  31.286  1.00  0.00    -0.248 NA
ATOM     15  C   UNL A   1      39.824  30.431  30.833  1.00  0.00     0.031 C 
ATOM     16  C   UNL A   1      39.725  26.484  27.755  1.00  0.00     0.029 A 
ATOM     17  N   UNL A   1      41.463  26.639  29.123  1.00  0.00    -0.354 N 
ATOM     18  C   UNL A   1      41.300  29.556  32.334  1.00  0.00     0.074 A 
ATOM     19  C   UNL A   1      40.372  30.621  32.022  1.00  0.00     0.031 C 
ATOM     20  C   UNL A   1      40.562  25.485  27.432  1.00  0.00     0.029 A 
ATOM     21  C   UNL A   1      41.719  25.555  28.312  1.00  0.00     0.049 A 
ATOM     22  H   UNL A   1      42.051  26.907  29.865  1.00  0.00     0.167 HD
ATOM     23  C   UNL A   1      42.010  29.474  33.477  1.00  0.00     0.034 A 
ATOM     24  C   UNL A   1      42.761  24.704  28.306  1.00  0.00     0.034 A 
ATOM     25  C   UNL A   1      43.034  28.498  33.690  1.00  0.00     0.049 A 
ATOM     26  C   UNL A   1      43.731  24.801  29.451  1.00  0.00     0.074 A 
ATOM     27  C   UNL A   1      43.927  28.400  34.738  1.00  0.00     0.029 A 
ATOM     28  N   UNL A   1      43.348  27.488  32.790  1.00  0.00    -0.354 N 
ATOM     29  N   UNL A   1      43.672  25.583  30.503  1.00  0.00    -0.248 NA
ATOM     30  C   UNL A   1      44.861  23.864  29.459  1.00  0.00     0.031 C 
ATOM     31  C   UNL A   1      44.816  27.361  34.442  1.00  0.00     0.029 A 
ATOM     32  C   UNL A   1      44.451  26.785  33.232  1.00  0.00     0.049 A 
ATOM     33  H   UNL A   1      42.855  27.300  31.958  1.00  0.00     0.167 HD
ATOM     34  C   UNL A   1      44.718  25.196  31.327  1.00  0.00     0.074 A 
ATOM     35  C   UNL A   1      45.400  24.111  30.646  1.00  0.00     0.031 C 
ATOM     36  C   UNL A   1      45.077  25.687  32.539  1.00  0.00     0.034 A 
BRANCH  23  37
ATOM     37  C   UNL A   1      41.701  30.510  34.511  1.00  0.00     0.023 A 
ATOM     38  C   UNL A   1      40.587  30.327  35.358  1.00  0.00     0.012 A 
ATOM     39  C   UNL A   1      42.432  31.706  34.567  1.00  0.00     0.148 A 
ATOM     40  C   UNL A   1      40.188  31.340  36.228  1.00  0.00     0.002 A 
ATOM     41  C   UNL A   1      42.041  32.703  35.450  1.00  0.00     0.091 A 
ATOM     42  F   UNL A   1      43.453  31.868  33.714  1.00  0.00    -0.205 F 
ATOM     43  C   UNL A   1      40.916  32.527  36.274  1.00  0.00     0.022 A 
BRANCH  41  44
ATOM     44  S   UNL A   1      42.909  34.267  35.580  1.00  0.00     0.127 S 
ATOM     45  O   UNL A   1      42.109  34.966  36.585  1.00  0.00    -0.237 OA
ATOM     46  O   UNL A   1      44.232  33.843  36.037  1.00  0.00    -0.237 OA
ATOM     47  O   UNL A   1      42.882  34.855  34.248  1.00  0.00    -0.744 OA
ENDBRANCH  41  44
ENDBRANCH  23  37
BRANCH  24  48
ATOM     48  C   UNL A   1      42.911  23.677  27.234  1.00  0.00     0.023 A 
ATOM     49  C   UNL A   1      43.656  23.955  26.073  1.00  0.00     0.012 A 
ATOM     50  C   UNL A   1      42.287  22.418  27.358  1.00  0.00     0.148 A 
ATOM     51  C   UNL A   1      43.745  23.017  25.041  1.00  0.00     0.002 A 
ATOM     52  C   UNL A   1      42.407  21.475  26.342  1.00  0.00     0.091 A 
ATOM     53  F   UNL A   1      41.566  22.171  28.462  1.00  0.00    -0.205 F 
ATOM     54  C   UNL A   1      43.125  21.776  25.176  1.00  0.00     0.022 A 
BRANCH  52  55
ATOM     55  S   UNL A   1      41.696  19.829  26.480  1.00  0.00     0.127 S 
ATOM     56  O   UNL A   1      40.265  20.119  26.462  1.00  0.00    -0.237 OA
ATOM     57  O   UNL A   1      42.206  19.169  25.278  1.00  0.00    -0.237 OA
ATOM     58  O   UNL A   1      42.222  19.285  27.727  1.00  0.00    -0.744 OA
ENDBRANCH  52  55
ENDBRANCH  24  48
BRANCH  36  59
ATOM     59  C   UNL A   1      46.249  25.042  33.221  1.00  0.00     0.023 A 
ATOM     60  C   UNL A   1      47.530  25.609  33.094  1.00  0.00     0.012 A 
ATOM     61  C   UNL A   1      46.049  23.946  34.081  1.00  0.00     0.148 A 
ATOM     62  C   UNL A   1      48.605  25.082  33.807  1.00  0.00     0.002 A 
ATOM     63  C   UNL A   1      47.111  23.462  34.829  1.00  0.00     0.091 A 
ATOM     64  F   UNL A   1      44.821  23.409  34.161  1.00  0.00    -0.205 F 
ATOM     65  C   UNL A   1      48.392  24.021  34.685  1.00  0.00     0.022 A 
BRANCH  63  66
ATOM     66  S   UNL A   1      46.895  22.182  36.069  1.00  0.00     0.127 S 
ATOM     67  O   UNL A   1      46.484  21.042  35.252  1.00  0.00    -0.237 OA
ATOM     68  O   UNL A   1      48.237  22.072  36.639  1.00  0.00    -0.237 OA
ATOM     69  O   UNL A   1      45.889  22.688  36.993  1.00  0.00    -0.744 OA
ENDBRANCH  63  66
ENDBRANCH  36  59
ENDBRANCH  10  11
ENDBRANCH   3   5
ENDBRANCH   2   3
ENDBRANCH   1   2
BRANCH   1  70
ATOM     70  C   UNL A   1      35.804  34.034  29.365  1.00  0.00     0.275 C 
BRANCH  70  71
ATOM     71  O   UNL A   1      36.750  33.223  30.061  1.00  0.00    -0.457 OA
BRANCH  71  72
ATOM     72  C   UNL A   1      36.451  33.025  31.362  1.00  0.00     0.359 C 
ATOM     73  O   UNL A   1      35.551  32.299  31.761  1.00  0.00    -0.244 OA
BRANCH  72  74
ATOM     74  C   UNL A   1      37.371  33.789  32.250  1.00  0.00     0.179 A 
ATOM     75  N   UNL A   1      38.596  34.009  31.678  1.00  0.00    -0.245 NA
ATOM     76  C   UNL A   1      37.105  34.195  33.544  1.00  0.00     0.161 A 
ATOM     77  C   UNL A   1      39.587  34.465  32.472  1.00  0.00     0.132 A 
ATOM     78  N   UNL A   1      38.123  34.668  34.342  1.00  0.00    -0.247 NA
ATOM     79  C   UNL A   1      39.358  34.756  33.796  1.00  0.00     0.132 A 
BRANCH  76  80
ATOM     80  C   UNL A   1      35.840  34.058  34.309  1.00  0.00     0.276 C 
ATOM     81  O   UNL A   1      35.855  33.275  35.270  1.00  0.00    -0.267 OA
ATOM     82  N   UNL A   1      34.679  34.788  34.180  1.00  0.00    -0.320 N 
ATOM     83  H   UNL A   1      34.145  34.741  35.006  1.00  0.00     0.170 HD
BRANCH  82  84
ATOM     84  C   UNL A   1      34.033  35.582  33.219  1.00  0.00     0.045 A 
ATOM     85  C   UNL A   1      33.979  36.977  33.224  1.00  0.00     0.030 A 
ATOM     86  C   UNL A   1      33.541  34.902  32.092  1.00  0.00     0.076 A 
ATOM     87  C   UNL A   1      33.719  37.700  32.053  1.00  0.00     0.053 A 
ATOM     88  C   UNL A   1      33.185  35.636  30.978  1.00  0.00     0.167 A 
ATOM     89  C   UNL A   1      33.330  36.998  30.941  1.00  0.00     0.165 A 
ATOM     90  O   UNL A   1      32.713  35.136  29.805  1.00  0.00    -0.454 OA
ATOM     91  O   UNL A   1      33.031  37.526  29.727  1.00  0.00    -0.454 OA
ATOM     92  C   UNL A   1      32.625  36.341  29.014  1.00  0.00     0.468 C 
ENDBRANCH  82  84
ENDBRANCH  76  80
ENDBRANCH  72  74
ENDBRANCH  71  72
ENDBRANCH  70  71
ENDBRANCH   1  70
TORSDOF 16
ENDMDL
MODEL 2
REMARK VINA RESULT:     -11.5      6.217     12.757
REMARK SMILES O=C(OCCOC(=O)c1nccnc1C(=O)Nc1ccc2c(c1)OCO2)c1ccc(-c2c3nc(c(-c4cccc(S(=O)(=O)[O-])c4F)c4ccc([nH]4)c(-c4cccc(S(=O)(=O)[O-])c4F)c4nc(c(-c5cccc(S(=O)(=O)[O-])c5F)c5ccc2[nH]5)C=C4)C=C3)cc1
REMARK SMILES IDX 4 1 3 2 2 3 1 4 27 5 28 6 89 7 29 8 88 9 30 10 31 11 32 12
REMARK SMILES IDX 82 13 33 14 87 15 81 16 83 17 34 18 86 19 80 20 79 21 35 23
REMARK SMILES IDX 67 24 47 25 66 26 48 27 51 28 65 29 84 30 49 31 50 32 64 34
REMARK SMILES IDX 85 35 52 36 36 37 37 38 45 39 38 40 40 41 46 42 39 43 41 44
REMARK SMILES IDX 42 45 43 46 44 47 68 48 69 49 77 50 70 51 72 52 78 53 71 54
REMARK SMILES IDX 73 55 74 56 75 57 76 58 53 59 54 60 62 61 55 62 57 63 63 64
REMARK SMILES IDX 56 65 58 66 59 67 60 68 61 69 5 70 6 71 7 72 8 73 9 74 10 75
REMARK SMILES IDX 14 76 11 77 13 78 12 79 15 80 16 81 17 82 18 84 19 85 23 86
REMARK SMILES IDX 20 87 22 88 21 89 24 90 26 91 25 92
REMARK H PARENT 83 22 51 33 17 83
REMARK Flexibility Score: inf
ROOT
ATOM      1  C   UNL A   1      38.501  21.325  25.589  1.00  0.00     0.275 C 
ENDROOT
BRANCH   1   2
ATOM      2  O   UNL A   1      39.503  20.287  25.738  1.00  0.00    -0.458 OA
BRANCH   2   3
ATOM      3  C   UNL A   1      40.787  20.435  26.157  1.00  0.00     0.338 C 
ATOM      4  O   UNL A   1      41.554  19.479  26.222  1.00  0.00    -0.246 OA
BRANCH   3   5
ATOM      5  C   UNL A   1      41.197  21.751  26.688  1.00  0.00     0.060 A 
ATOM      6  C   UNL A   1      41.531  22.796  25.830  1.00  0.00     0.016 A 
ATOM      7  C   UNL A   1      41.181  21.957  28.075  1.00  0.00     0.016 A 
ATOM      8  C   UNL A   1      41.669  24.082  26.338  1.00  0.00     0.010 A 
ATOM      9  C   UNL A   1      41.372  23.241  28.594  1.00  0.00     0.010 A 
ATOM     10  C   UNL A   1      41.587  24.314  27.719  1.00  0.00    -0.014 A 
BRANCH  10  11
ATOM     11  C   UNL A   1      42.023  25.641  28.198  1.00  0.00     0.031 A 
ATOM     12  C   UNL A   1      43.457  25.977  27.961  1.00  0.00     0.074 A 
ATOM     13  C   UNL A   1      41.172  26.573  28.659  1.00  0.00     0.049 A 
ATOM     14  N   UNL A   1      44.013  27.152  27.926  1.00  0.00    -0.248 NA
ATOM     15  C   UNL A   1      44.344  24.861  27.589  1.00  0.00     0.031 C 
ATOM     16  C   UNL A   1      39.734  26.405  28.783  1.00  0.00     0.029 A 
ATOM     17  N   UNL A   1      41.384  27.851  29.102  1.00  0.00    -0.354 N 
ATOM     18  C   UNL A   1      45.279  26.933  27.416  1.00  0.00     0.074 A 
ATOM     19  C   UNL A   1      45.430  25.511  27.204  1.00  0.00     0.031 C 
ATOM     20  C   UNL A   1      39.197  27.482  29.379  1.00  0.00     0.029 A 
ATOM     21  C   UNL A   1      40.254  28.456  29.605  1.00  0.00     0.049 A 
ATOM     22  H   UNL A   1      42.262  28.296  29.065  1.00  0.00     0.167 HD
ATOM     23  C   UNL A   1      46.218  27.853  27.118  1.00  0.00     0.034 A 
ATOM     24  C   UNL A   1      40.094  29.672  30.160  1.00  0.00     0.034 A 
ATOM     25  C   UNL A   1      46.103  29.231  27.485  1.00  0.00     0.049 A 
ATOM     26  C   UNL A   1      41.259  30.619  30.080  1.00  0.00     0.074 A 
ATOM     27  C   UNL A   1      47.045  30.233  27.376  1.00  0.00     0.029 A 
ATOM     28  N   UNL A   1      44.989  29.783  28.104  1.00  0.00    -0.354 N 
ATOM     29  N   UNL A   1      42.416  30.438  29.487  1.00  0.00    -0.248 NA
ATOM     30  C   UNL A   1      41.085  31.952  30.669  1.00  0.00     0.031 C 
ATOM     31  C   UNL A   1      46.518  31.380  27.981  1.00  0.00     0.029 A 
ATOM     32  C   UNL A   1      45.233  31.103  28.429  1.00  0.00     0.049 A 
ATOM     33  H   UNL A   1      44.148  29.303  28.286  1.00  0.00     0.167 HD
ATOM     34  C   UNL A   1      43.086  31.648  29.577  1.00  0.00     0.074 A 
ATOM     35  C   UNL A   1      42.205  32.555  30.290  1.00  0.00     0.031 C 
ATOM     36  C   UNL A   1      44.313  31.982  29.107  1.00  0.00     0.034 A 
BRANCH  23  37
ATOM     37  C   UNL A   1      47.434  27.338  26.416  1.00  0.00     0.023 A 
ATOM     38  C   UNL A   1      47.473  27.353  25.006  1.00  0.00     0.012 A 
ATOM     39  C   UNL A   1      48.476  26.736  27.137  1.00  0.00     0.148 A 
ATOM     40  C   UNL A   1      48.526  26.746  24.322  1.00  0.00     0.002 A 
ATOM     41  C   UNL A   1      49.531  26.152  26.451  1.00  0.00     0.091 A 
ATOM     42  F   UNL A   1      48.383  26.694  28.474  1.00  0.00    -0.205 F 
ATOM     43  C   UNL A   1      49.555  26.147  25.045  1.00  0.00     0.022 A 
BRANCH  41  44
ATOM     44  S   UNL A   1      50.899  25.351  27.290  1.00  0.00     0.127 S 
ATOM     45  O   UNL A   1      50.216  24.273  28.005  1.00  0.00    -0.237 OA
ATOM     46  O   UNL A   1      51.728  24.912  26.168  1.00  0.00    -0.237 OA
ATOM     47  O   UNL A   1      51.505  26.370  28.136  1.00  0.00    -0.744 OA
ENDBRANCH  41  44
ENDBRANCH  23  37
BRANCH  24  48
ATOM     48  C   UNL A   1      38.797  30.072  30.778  1.00  0.00     0.023 A 
ATOM     49  C   UNL A   1      38.462  29.653  32.080  1.00  0.00     0.012 A 
ATOM     50  C   UNL A   1      37.873  30.857  30.058  1.00  0.00     0.148 A 
ATOM     51  C   UNL A   1      37.221  29.975  32.636  1.00  0.00     0.002 A 
ATOM     52  C   UNL A   1      36.653  31.203  30.629  1.00  0.00     0.091 A 
ATOM     53  F   UNL A   1      38.196  31.236  28.811  1.00  0.00    -0.205 F 
ATOM     54  C   UNL A   1      36.319  30.753  31.913  1.00  0.00     0.022 A 
BRANCH  52  55
ATOM     55  S   UNL A   1      35.472  32.265  29.785  1.00  0.00     0.127 S 
ATOM     56  O   UNL A   1      35.064  31.424  28.663  1.00  0.00    -0.237 OA
ATOM     57  O   UNL A   1      34.446  32.464  30.810  1.00  0.00    -0.237 OA
ATOM     58  O   UNL A   1      36.214  33.473  29.442  1.00  0.00    -0.744 OA
ENDBRANCH  52  55
ENDBRANCH  24  48
BRANCH  36  59
ATOM     59  C   UNL A   1      44.772  33.394  29.328  1.00  0.00     0.023 A 
ATOM     60  C   UNL A   1      45.461  33.728  30.508  1.00  0.00     0.012 A 
ATOM     61  C   UNL A   1      44.620  34.352  28.308  1.00  0.00     0.148 A 
ATOM     62  C   UNL A   1      45.984  35.009  30.676  1.00  0.00     0.002 A 
ATOM     63  C   UNL A   1      45.191  35.607  28.459  1.00  0.00     0.091 A 
ATOM     64  F   UNL A   1      43.935  34.013  27.205  1.00  0.00    -0.205 F 
ATOM     65  C   UNL A   1      45.863  35.941  29.647  1.00  0.00     0.022 A 
BRANCH  63  66
ATOM     66  S   UNL A   1      45.185  36.820  27.136  1.00  0.00     0.127 S 
ATOM     67  O   UNL A   1      45.873  37.947  27.762  1.00  0.00    -0.237 OA
ATOM     68  O   UNL A   1      45.950  36.142  26.090  1.00  0.00    -0.237 OA
ATOM     69  O   UNL A   1      43.784  37.043  26.806  1.00  0.00    -0.744 OA
ENDBRANCH  63  66
ENDBRANCH  36  59
ENDBRANCH  10  11
ENDBRANCH   3   5
ENDBRANCH   2   3
ENDBRANCH   1   2
BRANCH   1  70
ATOM     70  C   UNL A   1      37.225  20.966  24.829  1.00  0.00     0.275 C 
BRANCH  70  71
ATOM     71  O   UNL A   1      36.872  22.001  23.913  1.00  0.00    -0.457 OA
BRANCH  71  72
ATOM     72  C   UNL A   1      36.095  22.966  24.449  1.00  0.00     0.359 C 
ATOM     73  O   UNL A   1      36.482  23.791  25.265  1.00  0.00    -0.244 OA
BRANCH  72  74
ATOM     74  C   UNL A   1      34.710  22.909  23.902  1.00  0.00     0.179 A 
ATOM     75  N   UNL A   1      34.606  23.484  22.664  1.00  0.00    -0.245 NA
ATOM     76  C   UNL A   1      33.597  22.412  24.554  1.00  0.00     0.161 A 
ATOM     77  C   UNL A   1      33.368  23.715  22.180  1.00  0.00     0.132 A 
ATOM     78  N   UNL A   1      32.338  22.647  24.046  1.00  0.00    -0.247 NA
ATOM     79  C   UNL A   1      32.250  23.333  22.882  1.00  0.00     0.132 A 
BRANCH  76  80
ATOM     80  C   UNL A   1      33.528  21.746  25.879  1.00  0.00     0.276 C 
ATOM     81  O   UNL A   1      33.550  22.486  26.873  1.00  0.00    -0.267 OA
ATOM     82  N   UNL A   1      33.304  20.415  26.156  1.00  0.00    -0.320 N 
ATOM     83  H   UNL A   1      32.965  20.304  27.073  1.00  0.00     0.170 HD
BRANCH  82  84
ATOM     84  C   UNL A   1      33.414  19.171  25.516  1.00  0.00     0.045 A 
ATOM     85  C   UNL A   1      34.387  18.826  24.577  1.00  0.00     0.030 A 
ATOM     86  C   UNL A   1      32.560  18.161  25.989  1.00  0.00     0.076 A 
ATOM     87  C   UNL A   1      34.708  17.488  24.317  1.00  0.00     0.053 A 
ATOM     88  C   UNL A   1      32.823  16.851  25.637  1.00  0.00     0.167 A 
ATOM     89  C   UNL A   1      33.909  16.520  24.870  1.00  0.00     0.165 A 
ATOM     90  O   UNL A   1      32.112  15.758  26.023  1.00  0.00    -0.454 OA
ATOM     91  O   UNL A   1      34.060  15.179  24.724  1.00  0.00    -0.454 OA
ATOM     92  C   UNL A   1      32.908  14.701  25.445  1.00  0.00     0.468 C 
ENDBRANCH  82  84
ENDBRANCH  76  80
ENDBRANCH  72  74
ENDBRANCH  71  72
ENDBRANCH  70  71
ENDBRANCH   1  70
TORSDOF 16
ENDMDL
MODEL 3
REMARK VINA RESULT:     -11.3      4.320      6.525
REMARK SMILES O=C(OCCOC(=O)c1nccnc1C(=O)Nc1ccc2c(c1)OCO2)c1ccc(-c2c3nc(c(-c4cccc(S(=O)(=O)[O-])c4F)c4ccc([nH]4)c(-c4cccc(S(=O)(=O)[O-])c4F)c4nc(c(-c5cccc(S(=O)(=O)[O-])c5F)c5ccc2[nH]5)C=C4)C=C3)cc1
REMARK SMILES IDX 4 1 3 2 2 3 1 4 27 5 28 6 89 7 29 8 88 9 30 10 31 11 32 12
REMARK SMILES IDX 82 13 33 14 87 15 81 16 83 17 34 18 86 19 80 20 79 21 35 23
REMARK SMILES IDX 67 24 47 25 66 26 48 27 51 28 65 29 84 30 49 31 50 32 64 34
REMARK SMILES IDX 85 35 52 36 36 37 37 38 45 39 38 40 40 41 46 42 39 43 41 44
REMARK SMILES IDX 42 45 43 46 44 47 68 48 69 49 77 50 70 51 72 52 78 53 71 54
REMARK SMILES IDX 73 55 74 56 75 57 76 58 53 59 54 60 62 61 55 62 57 63 63 64
REMARK SMILES IDX 56 65 58 66 59 67 60 68 61 69 5 70 6 71 7 72 8 73 9 74 10 75
REMARK SMILES IDX 14 76 11 77 13 78 12 79 15 80 16 81 17 82 18 84 19 85 23 86
REMARK SMILES IDX 20 87 22 88 21 89 24 90 26 91 25 92
REMARK H PARENT 83 22 51 33 17 83
REMARK Flexibility Score: inf
ROOT
ATOM      1  C   UNL A   1      33.001  31.170  26.690  1.00  0.00     0.275 C 
ENDROOT
BRANCH   1   2
ATOM      2  O   UNL A   1      32.668  32.323  27.503  1.00  0.00    -0.458 OA
BRANCH   2   3
ATOM      3  C   UNL A   1      33.529  33.195  28.089  1.00  0.00     0.338 C 
ATOM      4  O   UNL A   1      33.319  34.405  28.084  1.00  0.00    -0.246 OA
BRANCH   3   5
ATOM      5  C   UNL A   1      34.812  32.668  28.597  1.00  0.00     0.060 A 
ATOM      6  C   UNL A   1      34.842  31.646  29.544  1.00  0.00     0.016 A 
ATOM      7  C   UNL A   1      36.009  33.167  28.062  1.00  0.00     0.016 A 
ATOM      8  C   UNL A   1      36.041  31.001  29.818  1.00  0.00     0.010 A 
ATOM      9  C   UNL A   1      37.225  32.553  28.376  1.00  0.00     0.010 A 
ATOM     10  C   UNL A   1      37.237  31.446  29.234  1.00  0.00    -0.014 A 
BRANCH  10  11
ATOM     11  C   UNL A   1      38.491  30.899  29.790  1.00  0.00     0.031 A 
ATOM     12  C   UNL A   1      38.896  31.427  31.125  1.00  0.00     0.074 A 
ATOM     13  C   UNL A   1      39.152  29.866  29.238  1.00  0.00     0.049 A 
ATOM     14  N   UNL A   1      39.699  30.889  31.995  1.00  0.00    -0.248 NA
ATOM     15  C   UNL A   1      38.207  32.645  31.589  1.00  0.00     0.031 C 
ATOM     16  C   UNL A   1      38.757  29.174  28.023  1.00  0.00     0.029 A 
ATOM     17  N   UNL A   1      40.289  29.209  29.626  1.00  0.00    -0.354 N 
ATOM     18  C   UNL A   1      39.526  31.632  33.148  1.00  0.00     0.074 A 
ATOM     19  C   UNL A   1      38.583  32.688  32.857  1.00  0.00     0.031 C 
ATOM     20  C   UNL A   1      39.691  28.269  27.688  1.00  0.00     0.029 A 
ATOM     21  C   UNL A   1      40.716  28.264  28.720  1.00  0.00     0.049 A 
ATOM     22  H   UNL A   1      40.758  29.394  30.472  1.00  0.00     0.167 HD
ATOM     23  C   UNL A   1      40.084  31.419  34.356  1.00  0.00     0.034 A 
ATOM     24  C   UNL A   1      41.801  27.468  28.743  1.00  0.00     0.034 A 
ATOM     25  C   UNL A   1      41.131  30.468  34.575  1.00  0.00     0.049 A 
ATOM     26  C   UNL A   1      42.605  27.444  30.014  1.00  0.00     0.074 A 
ATOM     27  C   UNL A   1      41.884  30.262  35.712  1.00  0.00     0.029 A 
ATOM     28  N   UNL A   1      41.622  29.610  33.598  1.00  0.00    -0.354 N 
ATOM     29  N   UNL A   1      42.361  28.065  31.143  1.00  0.00    -0.248 NA
ATOM     30  C   UNL A   1      43.781  26.566  30.051  1.00  0.00     0.031 C 
ATOM     31  C   UNL A   1      42.868  29.315  35.405  1.00  0.00     0.029 A 
ATOM     32  C   UNL A   1      42.701  28.902  34.090  1.00  0.00     0.049 A 
ATOM     33  H   UNL A   1      41.255  29.521  32.689  1.00  0.00     0.167 HD
ATOM     34  C   UNL A   1      43.312  27.612  32.044  1.00  0.00     0.074 A 
ATOM     35  C   UNL A   1      44.144  26.665  31.323  1.00  0.00     0.031 C 
ATOM     36  C   UNL A   1      43.479  27.941  33.348  1.00  0.00     0.034 A 
BRANCH  23  37
ATOM     37  C   UNL A   1      39.579  32.283  35.467  1.00  0.00     0.023 A 
ATOM     38  C   UNL A   1      38.488  31.839  36.243  1.00  0.00     0.012 A 
ATOM     39  C   UNL A   1      40.100  33.571  35.666  1.00  0.00     0.148 A 
ATOM     40  C   UNL A   1      37.902  32.682  37.186  1.00  0.00     0.002 A 
ATOM     41  C   UNL A   1      39.525  34.398  36.620  1.00  0.00     0.091 A 
ATOM     42  F   UNL A   1      41.103  33.981  34.878  1.00  0.00    -0.205 F 
ATOM     43  C   UNL A   1      38.422  33.961  37.375  1.00  0.00     0.022 A 
BRANCH  41  44
ATOM     44  S   UNL A   1      40.117  36.062  36.934  1.00  0.00     0.127 S 
ATOM     45  O   UNL A   1      39.267  36.472  38.050  1.00  0.00    -0.237 OA
ATOM     46  O   UNL A   1      41.516  35.824  37.285  1.00  0.00    -0.237 OA
ATOM     47  O   UNL A   1      39.915  36.802  35.696  1.00  0.00    -0.744 OA
ENDBRANCH  41  44
ENDBRANCH  23  37
BRANCH  24  48
ATOM     48  C   UNL A   1      42.153  26.611  27.574  1.00  0.00     0.023 A 
ATOM     49  C   UNL A   1      42.805  27.159  26.453  1.00  0.00     0.012 A 
ATOM     50  C   UNL A   1      41.816  25.242  27.563  1.00  0.00     0.148 A 
ATOM     51  C   UNL A   1      43.080  26.371  25.332  1.00  0.00     0.002 A 
ATOM     52  C   UNL A   1      42.122  24.454  26.457  1.00  0.00     0.091 A 
ATOM     53  F   UNL A   1      41.179  24.735  28.630  1.00  0.00    -0.205 F 
ATOM     54  C   UNL A   1      42.743  25.019  25.335  1.00  0.00     0.022 A 
BRANCH  52  55
ATOM     55  S   UNL A   1      41.783  22.689  26.422  1.00  0.00     0.127 S 
ATOM     56  O   UNL A   1      42.441  22.234  27.643  1.00  0.00    -0.237 OA
ATOM     57  O   UNL A   1      40.321  22.653  26.460  1.00  0.00    -0.237 OA
ATOM     58  O   UNL A   1      42.358  22.210  25.170  1.00  0.00    -0.744 OA
ENDBRANCH  52  55
ENDBRANCH  24  48
BRANCH  36  59
ATOM     59  C   UNL A   1      44.589  27.258  34.092  1.00  0.00     0.023 A 
ATOM     60  C   UNL A   1      45.851  27.874  34.184  1.00  0.00     0.012 A 
ATOM     61  C   UNL A   1      44.338  26.066  34.796  1.00  0.00     0.148 A 
ATOM     62  C   UNL A   1      46.857  27.301  34.959  1.00  0.00     0.002 A 
ATOM     63  C   UNL A   1      45.325  25.531  35.610  1.00  0.00     0.091 A 
ATOM     64  F   UNL A   1      43.133  25.487  34.668  1.00  0.00    -0.205 F 
ATOM     65  C   UNL A   1      46.589  26.140  35.685  1.00  0.00     0.022 A 
BRANCH  63  66
ATOM     66  S   UNL A   1      45.021  24.112  36.667  1.00  0.00     0.127 S 
ATOM     67  O   UNL A   1      44.172  23.283  35.815  1.00  0.00    -0.237 OA
ATOM     68  O   UNL A   1      46.370  23.590  36.881  1.00  0.00    -0.237 OA
ATOM     69  O   UNL A   1      44.384  24.639  37.867  1.00  0.00    -0.744 OA
ENDBRANCH  63  66
ENDBRANCH  36  59
ENDBRANCH  10  11
ENDBRANCH   3   5
ENDBRANCH   2   3
ENDBRANCH   1   2
BRANCH   1  70
ATOM     70  C   UNL A   1      31.947  30.069  26.567  1.00  0.00     0.275 C 
BRANCH  70  71
ATOM     71  O   UNL A   1      32.144  29.310  25.375  1.00  0.00    -0.457 OA
BRANCH  71  72
ATOM     72  C   UNL A   1      31.757  28.021  25.475  1.00  0.00     0.359 C 
ATOM     73  O   UNL A   1      31.261  27.524  26.477  1.00  0.00    -0.244 OA
BRANCH  72  74
ATOM     74  C   UNL A   1      31.992  27.287  24.200  1.00  0.00     0.179 A 
ATOM     75  N   UNL A   1      33.322  27.102  23.933  1.00  0.00    -0.245 NA
ATOM     76  C   UNL A   1      31.021  26.877  23.305  1.00  0.00     0.161 A 
ATOM     77  C   UNL A   1      33.663  26.678  22.699  1.00  0.00     0.132 A 
ATOM     78  N   UNL A   1      31.382  26.436  22.050  1.00  0.00    -0.247 NA
ATOM     79  C   UNL A   1      32.702  26.384  21.760  1.00  0.00     0.132 A 
BRANCH  76  80
ATOM     80  C   UNL A   1      29.546  26.978  23.437  1.00  0.00     0.276 C 
ATOM     81  O   UNL A   1      28.949  25.951  23.791  1.00  0.00    -0.267 OA
ATOM     82  N   UNL A   1      28.755  28.103  23.353  1.00  0.00    -0.320 N 
ATOM     83  H   UNL A   1      27.897  27.959  23.812  1.00  0.00     0.170 HD
BRANCH  82  84
ATOM     84  C   UNL A   1      28.812  29.395  22.807  1.00  0.00     0.045 A 
ATOM     85  C   UNL A   1      28.240  29.790  21.596  1.00  0.00     0.030 A 
ATOM     86  C   UNL A   1      29.363  30.387  23.637  1.00  0.00     0.076 A 
ATOM     87  C   UNL A   1      27.955  31.135  21.330  1.00  0.00     0.053 A 
ATOM     88  C   UNL A   1      29.167  31.713  23.304  1.00  0.00     0.167 A 
ATOM     89  C   UNL A   1      28.427  32.075  22.209  1.00  0.00     0.165 A 
ATOM     90  O   UNL A   1      29.612  32.790  24.005  1.00  0.00    -0.454 OA
ATOM     91  O   UNL A   1      28.256  33.418  22.111  1.00  0.00    -0.454 OA
ATOM     92  C   UNL A   1      29.023  33.868  23.245  1.00  0.00     0.468 C 
ENDBRANCH  82  84
ENDBRANCH  76  80
ENDBRANCH  72  74
ENDBRANCH  71  72
ENDBRANCH  70  71
ENDBRANCH   1  70
TORSDOF 16
ENDMDL
