MODEL 1
REMARK VINA RESULT:     -12.3      0.000      0.000
REMARK SMILES COC(=O)c1ccc2c(c1)=N[C@H](c1cn(CCC(=O)OCCOC(=O)c3ccc(-c4c5nc(c(-c6cccc(S(=O)(=O)[O-])c6F)c6ccc([nH]6)c(-c6cccc(S(=O)(=O)[O-])c6F)c6nc(c(-c7cccc(S(=O)(=O)[O-])c7F)c7ccc4[nH]7)C=C6)C=C5)cc3)c3ccccc13)N=2
REMARK SMILES IDX 21 1 20 2 18 3 19 4 17 5 16 6 15 7 13 8 14 9 94 10 89 11
REMARK SMILES IDX 93 12 90 13 92 14 91 15 12 16 5 17 6 18 10 19 7 20 9 21 8 22
REMARK SMILES IDX 11 23 95 24 3 25 4 26 2 27 1 28 22 29 23 30 24 31 25 32
REMARK SMILES IDX 26 33 27 34 88 35 28 36 87 37 29 38 30 39 31 40 81 41 32 42
REMARK SMILES IDX 86 43 80 44 82 45 33 46 85 47 79 48 78 49 34 51 66 52 46 53
REMARK SMILES IDX 65 54 47 55 50 56 64 57 83 58 48 59 49 60 63 62 84 63 51 64
REMARK SMILES IDX 35 65 36 66 44 67 37 68 39 69 45 70 38 71 40 72 41 73 42 74
REMARK SMILES IDX 43 75 67 76 68 77 76 78 69 79 71 80 77 81 70 82 72 83 73 84
REMARK SMILES IDX 74 85 75 86 52 87 53 88 61 89 54 90 56 91 62 92 55 93 57 94
REMARK SMILES IDX 58 95 59 96 60 97
REMARK H PARENT 82 50 50 61
REMARK Flexibility Score: inf
ROOT
ATOM      1  C   UNL A   1      34.683  32.615  27.998  1.00  0.00     0.274 C 
ENDROOT
BRANCH   1   2
ATOM      2  O   UNL A   1      34.176  31.268  27.936  1.00  0.00    -0.462 OA
BRANCH   2   3
ATOM      3  C   UNL A   1      35.000  30.280  27.525  1.00  0.00     0.307 C 
ATOM      4  O   UNL A   1      36.207  30.408  27.371  1.00  0.00    -0.252 OA
BRANCH   3   5
ATOM      5  C   UNL A   1      34.266  28.985  27.239  1.00  0.00     0.144 C 
BRANCH   5   6
ATOM      6  C   UNL A   1      33.773  28.782  25.799  1.00  0.00     0.134 C 
BRANCH   6   7
ATOM      7  N   UNL A   1      32.560  27.977  25.784  1.00  0.00    -0.346 N 
ATOM      8  C   UNL A   1      31.564  26.026  25.502  1.00  0.00     0.024 A 
ATOM      9  C   UNL A   1      32.479  26.708  26.290  1.00  0.00     0.094 A 
ATOM     10  C   UNL A   1      31.233  26.915  24.430  1.00  0.00     0.007 A 
ATOM     11  C   UNL A   1      31.500  28.182  24.933  1.00  0.00     0.048 A 
ATOM     12  C   UNL A   1      30.561  26.814  23.201  1.00  0.00     0.011 A 
ATOM     13  C   UNL A   1      30.827  29.322  24.489  1.00  0.00     0.027 A 
ATOM     14  C   UNL A   1      29.966  27.960  22.667  1.00  0.00     0.001 A 
ATOM     15  C   UNL A   1      30.015  29.170  23.360  1.00  0.00     0.002 A 
BRANCH   8  16
ATOM     16  C   UNL A   1      30.887  24.726  25.845  1.00  0.00     0.255 C 
ATOM     17  C   UNL A   1      33.749  21.240  25.648  1.00  0.00     0.062 A 
ATOM     18  C   UNL A   1      33.797  21.518  27.080  1.00  0.00     0.018 A 
ATOM     19  C   UNL A   1      32.998  21.962  24.798  1.00  0.00     0.046 A 
ATOM     20  C   UNL A   1      33.086  22.492  27.667  1.00  0.00     0.031 A 
ATOM     21  C   UNL A   1      32.161  23.024  25.365  1.00  0.00     0.087 A 
ATOM     22  C   UNL A   1      32.206  23.297  26.815  1.00  0.00     0.086 A 
ATOM     23  N   UNL A   1      31.289  23.759  24.772  1.00  0.00    -0.252 NA
ATOM     24  N   UNL A   1      31.378  24.218  27.163  1.00  0.00    -0.252 NA
BRANCH  17  25
ATOM     25  C   UNL A   1      34.530  20.118  25.038  1.00  0.00     0.337 C 
ATOM     26  O   UNL A   1      35.732  20.102  24.906  1.00  0.00    -0.246 OA
BRANCH  25  27
ATOM     27  O   UNL A   1      33.666  19.153  24.609  1.00  0.00    -0.465 OA
ATOM     28  C   UNL A   1      34.296  17.917  24.267  1.00  0.00     0.282 C 
ENDBRANCH  25  27
ENDBRANCH  17  25
ENDBRANCH   8  16
ENDBRANCH   6   7
ENDBRANCH   5   6
ENDBRANCH   3   5
ENDBRANCH   2   3
ENDBRANCH   1   2
BRANCH   1  29
ATOM     29  C   UNL A   1      34.166  33.263  29.288  1.00  0.00     0.275 C 
BRANCH  29  30
ATOM     30  O   UNL A   1      35.268  33.423  30.196  1.00  0.00    -0.458 OA
BRANCH  30  31
ATOM     31  C   UNL A   1      35.412  32.414  31.093  1.00  0.00     0.338 C 
ATOM     32  O   UNL A   1      34.609  32.094  31.954  1.00  0.00    -0.246 OA
BRANCH  31  33
ATOM     33  C   UNL A   1      36.537  31.565  30.634  1.00  0.00     0.060 A 
ATOM     34  C   UNL A   1      36.525  30.179  30.828  1.00  0.00     0.016 A 
ATOM     35  C   UNL A   1      37.708  32.213  30.223  1.00  0.00     0.016 A 
ATOM     36  C   UNL A   1      37.712  29.469  30.734  1.00  0.00     0.010 A 
ATOM     37  C   UNL A   1      38.901  31.504  30.154  1.00  0.00     0.010 A 
ATOM     38  C   UNL A   1      38.907  30.141  30.454  1.00  0.00    -0.014 A 
BRANCH  38  39
ATOM     39  C   UNL A   1      40.092  29.331  30.193  1.00  0.00     0.031 A 
ATOM     40  C   UNL A   1      40.829  29.025  31.442  1.00  0.00     0.074 A 
ATOM     41  C   UNL A   1      40.488  28.798  29.021  1.00  0.00     0.049 A 
ATOM     42  N   UNL A   1      41.930  29.564  31.851  1.00  0.00    -0.248 NA
ATOM     43  C   UNL A   1      40.174  28.149  32.425  1.00  0.00     0.031 C 
ATOM     44  C   UNL A   1      39.751  28.724  27.761  1.00  0.00     0.029 A 
ATOM     45  N   UNL A   1      41.630  28.095  28.753  1.00  0.00    -0.354 N 
ATOM     46  C   UNL A   1      42.217  28.919  33.046  1.00  0.00     0.074 A 
ATOM     47  C   UNL A   1      41.023  28.223  33.449  1.00  0.00     0.031 C 
ATOM     48  C   UNL A   1      40.345  27.815  26.951  1.00  0.00     0.029 A 
ATOM     49  C   UNL A   1      41.586  27.372  27.565  1.00  0.00     0.049 A 
ATOM     50  H   UNL A   1      42.415  28.100  29.347  1.00  0.00     0.167 HD
ATOM     51  C   UNL A   1      43.494  28.754  33.480  1.00  0.00     0.034 A 
ATOM     52  C   UNL A   1      42.490  26.447  27.160  1.00  0.00     0.034 A 
ATOM     53  C   UNL A   1      44.438  29.523  32.722  1.00  0.00     0.049 A 
ATOM     54  C   UNL A   1      43.767  26.752  27.845  1.00  0.00     0.074 A 
ATOM     55  C   UNL A   1      44.779  30.850  32.587  1.00  0.00     0.029 A 
ATOM     56  N   UNL A   1      44.952  28.852  31.645  1.00  0.00    -0.354 N 
ATOM     57  N   UNL A   1      44.473  27.826  27.624  1.00  0.00    -0.248 NA
ATOM     58  C   UNL A   1      44.178  25.959  28.998  1.00  0.00     0.031 C 
ATOM     59  C   UNL A   1      45.317  30.983  31.273  1.00  0.00     0.029 A 
ATOM     60  C   UNL A   1      45.293  29.733  30.654  1.00  0.00     0.049 A 
ATOM     61  H   UNL A   1      45.060  27.876  31.590  1.00  0.00     0.167 HD
ATOM     62  C   UNL A   1      45.110  28.064  28.827  1.00  0.00     0.074 A 
ATOM     63  C   UNL A   1      45.052  26.803  29.549  1.00  0.00     0.031 C 
ATOM     64  C   UNL A   1      45.326  29.336  29.262  1.00  0.00     0.034 A 
BRANCH  51  65
ATOM     65  C   UNL A   1      43.933  27.560  34.280  1.00  0.00     0.023 A 
ATOM     66  C   UNL A   1      44.584  27.774  35.508  1.00  0.00     0.012 A 
ATOM     67  C   UNL A   1      43.951  26.250  33.751  1.00  0.00     0.148 A 
ATOM     68  C   UNL A   1      45.196  26.720  36.194  1.00  0.00     0.002 A 
ATOM     69  C   UNL A   1      44.474  25.192  34.479  1.00  0.00     0.091 A 
ATOM     70  F   UNL A   1      43.584  26.046  32.479  1.00  0.00    -0.205 F 
ATOM     71  C   UNL A   1      45.117  25.423  35.695  1.00  0.00     0.022 A 
BRANCH  69  72
ATOM     72  S   UNL A   1      44.324  23.500  33.896  1.00  0.00     0.127 S 
ATOM     73  O   UNL A   1      42.925  23.210  34.194  1.00  0.00    -0.237 OA
ATOM     74  O   UNL A   1      44.642  23.642  32.476  1.00  0.00    -0.237 OA
ATOM     75  O   UNL A   1      45.318  22.751  34.656  1.00  0.00    -0.744 OA
ENDBRANCH  69  72
ENDBRANCH  51  65
BRANCH  52  76
ATOM     76  C   UNL A   1      42.337  25.196  26.373  1.00  0.00     0.023 A 
ATOM     77  C   UNL A   1      43.315  24.879  25.404  1.00  0.00     0.012 A 
ATOM     78  C   UNL A   1      41.456  24.172  26.780  1.00  0.00     0.148 A 
ATOM     79  C   UNL A   1      43.473  23.572  24.928  1.00  0.00     0.002 A 
ATOM     80  C   UNL A   1      41.608  22.875  26.294  1.00  0.00     0.091 A 
ATOM     81  F   UNL A   1      40.537  24.441  27.717  1.00  0.00    -0.205 F 
ATOM     82  C   UNL A   1      42.631  22.566  25.386  1.00  0.00     0.022 A 
BRANCH  80  83
ATOM     83  S   UNL A   1      40.559  21.522  26.843  1.00  0.00     0.127 S 
ATOM     84  O   UNL A   1      40.804  21.508  28.286  1.00  0.00    -0.237 OA
ATOM     85  O   UNL A   1      39.233  21.987  26.452  1.00  0.00    -0.237 OA
ATOM     86  O   UNL A   1      41.052  20.340  26.146  1.00  0.00    -0.744 OA
ENDBRANCH  80  83
ENDBRANCH  52  76
BRANCH  64  87
ATOM     87  C   UNL A   1      45.375  30.424  28.229  1.00  0.00     0.023 A 
ATOM     88  C   UNL A   1      44.219  30.949  27.620  1.00  0.00     0.012 A 
ATOM     89  C   UNL A   1      46.625  30.999  27.943  1.00  0.00     0.148 A 
ATOM     90  C   UNL A   1      44.313  32.020  26.728  1.00  0.00     0.002 A 
ATOM     91  C   UNL A   1      46.710  32.086  27.086  1.00  0.00     0.091 A 
ATOM     92  F   UNL A   1      47.711  30.478  28.535  1.00  0.00    -0.205 F 
ATOM     93  C   UNL A   1      45.557  32.597  26.470  1.00  0.00     0.022 A 
BRANCH  91  94
ATOM     94  S   UNL A   1      48.263  32.934  26.788  1.00  0.00     0.127 S 
ATOM     95  O   UNL A   1      47.896  33.889  25.744  1.00  0.00    -0.237 OA
ATOM     96  O   UNL A   1      48.547  33.532  28.093  1.00  0.00    -0.237 OA
ATOM     97  O   UNL A   1      49.215  31.906  26.385  1.00  0.00    -0.744 OA
ENDBRANCH  91  94
ENDBRANCH  64  87
ENDBRANCH  38  39
ENDBRANCH  31  33
ENDBRANCH  30  31
ENDBRANCH  29  30
ENDBRANCH   1  29
TORSDOF 19
ENDMDL
MODEL 2
REMARK VINA RESULT:     -12.0      2.748      8.795
REMARK SMILES COC(=O)c1ccc2c(c1)=N[C@H](c1cn(CCC(=O)OCCOC(=O)c3ccc(-c4c5nc(c(-c6cccc(S(=O)(=O)[O-])c6F)c6ccc([nH]6)c(-c6cccc(S(=O)(=O)[O-])c6F)c6nc(c(-c7cccc(S(=O)(=O)[O-])c7F)c7ccc4[nH]7)C=C6)C=C5)cc3)c3ccccc13)N=2
REMARK SMILES IDX 21 1 20 2 18 3 19 4 17 5 16 6 15 7 13 8 14 9 94 10 89 11
REMARK SMILES IDX 93 12 90 13 92 14 91 15 12 16 5 17 6 18 10 19 7 20 9 21 8 22
REMARK SMILES IDX 11 23 95 24 3 25 4 26 2 27 1 28 22 29 23 30 24 31 25 32
REMARK SMILES IDX 26 33 27 34 88 35 28 36 87 37 29 38 30 39 31 40 81 41 32 42
REMARK SMILES IDX 86 43 80 44 82 45 33 46 85 47 79 48 78 49 34 51 66 52 46 53
REMARK SMILES IDX 65 54 47 55 50 56 64 57 83 58 48 59 49 60 63 62 84 63 51 64
REMARK SMILES IDX 35 65 36 66 44 67 37 68 39 69 45 70 38 71 40 72 41 73 42 74
REMARK SMILES IDX 43 75 67 76 68 77 76 78 69 79 71 80 77 81 70 82 72 83 73 84
REMARK SMILES IDX 74 85 75 86 52 87 53 88 61 89 54 90 56 91 62 92 55 93 57 94
REMARK SMILES IDX 58 95 59 96 60 97
REMARK H PARENT 82 50 50 61
REMARK Flexibility Score: inf
ROOT
ATOM      1  C   UNL A   1      36.534  20.406  25.040  1.00  0.00     0.274 C 
ENDROOT
BRANCH   1   2
ATOM      2  O   UNL A   1      35.214  20.941  24.825  1.00  0.00    -0.462 OA
BRANCH   2   3
ATOM      3  C   UNL A   1      34.396  21.108  25.886  1.00  0.00     0.307 C 
ATOM      4  O   UNL A   1      34.739  21.613  26.948  1.00  0.00    -0.252 OA
BRANCH   3   5
ATOM      5  C   UNL A   1      32.999  20.574  25.642  1.00  0.00     0.144 C 
BRANCH   5   6
ATOM      6  C   UNL A   1      32.218  21.208  24.483  1.00  0.00     0.134 C 
BRANCH   6   7
ATOM      7  N   UNL A   1      32.072  22.641  24.691  1.00  0.00    -0.346 N 
ATOM      8  C   UNL A   1      30.780  24.420  24.913  1.00  0.00     0.024 A 
ATOM      9  C   UNL A   1      31.115  23.204  25.491  1.00  0.00     0.094 A 
ATOM     10  C   UNL A   1      31.480  24.464  23.665  1.00  0.00     0.007 A 
ATOM     11  C   UNL A   1      32.558  23.606  23.840  1.00  0.00     0.048 A 
ATOM     12  C   UNL A   1      31.447  25.266  22.513  1.00  0.00     0.011 A 
ATOM     13  C   UNL A   1      33.760  23.762  23.147  1.00  0.00     0.027 A 
ATOM     14  C   UNL A   1      32.600  25.362  21.731  1.00  0.00     0.001 A 
ATOM     15  C   UNL A   1      33.767  24.698  22.108  1.00  0.00     0.002 A 
BRANCH   8  16
ATOM     16  C   UNL A   1      30.035  25.546  25.576  1.00  0.00     0.255 C 
ATOM     17  C   UNL A   1      32.732  29.059  26.454  1.00  0.00     0.062 A 
ATOM     18  C   UNL A   1      32.150  29.503  25.191  1.00  0.00     0.018 A 
ATOM     19  C   UNL A   1      32.418  27.878  27.016  1.00  0.00     0.046 A 
ATOM     20  C   UNL A   1      31.245  28.791  24.504  1.00  0.00     0.031 A 
ATOM     21  C   UNL A   1      31.407  27.054  26.346  1.00  0.00     0.087 A 
ATOM     22  C   UNL A   1      30.815  27.511  25.075  1.00  0.00     0.086 A 
ATOM     23  N   UNL A   1      30.873  25.957  26.751  1.00  0.00    -0.252 NA
ATOM     24  N   UNL A   1      29.909  26.707  24.642  1.00  0.00    -0.252 NA
BRANCH  17  25
ATOM     25  C   UNL A   1      33.712  29.901  27.209  1.00  0.00     0.337 C 
ATOM     26  O   UNL A   1      33.654  31.105  27.315  1.00  0.00    -0.246 OA
BRANCH  25  27
ATOM     27  O   UNL A   1      34.700  29.102  27.705  1.00  0.00    -0.465 OA
ATOM     28  C   UNL A   1      35.976  29.739  27.795  1.00  0.00     0.282 C 
ENDBRANCH  25  27
ENDBRANCH  17  25
ENDBRANCH   8  16
ENDBRANCH   6   7
ENDBRANCH   5   6
ENDBRANCH   3   5
ENDBRANCH   2   3
ENDBRANCH   1   2
BRANCH   1  29
ATOM     29  C   UNL A   1      37.555  21.502  24.717  1.00  0.00     0.275 C 
BRANCH  29  30
ATOM     30  O   UNL A   1      37.928  22.159  25.940  1.00  0.00    -0.458 OA
BRANCH  30  31
ATOM     31  C   UNL A   1      39.200  21.916  26.346  1.00  0.00     0.338 C 
ATOM     32  O   UNL A   1      39.843  20.900  26.138  1.00  0.00    -0.246 OA
BRANCH  31  33
ATOM     33  C   UNL A   1      39.786  23.207  26.781  1.00  0.00     0.060 A 
ATOM     34  C   UNL A   1      40.931  23.249  27.583  1.00  0.00     0.016 A 
ATOM     35  C   UNL A   1      39.026  24.364  26.566  1.00  0.00     0.016 A 
ATOM     36  C   UNL A   1      41.239  24.415  28.268  1.00  0.00     0.010 A 
ATOM     37  C   UNL A   1      39.322  25.523  27.273  1.00  0.00     0.010 A 
ATOM     38  C   UNL A   1      40.401  25.532  28.157  1.00  0.00    -0.014 A 
BRANCH  38  39
ATOM     39  C   UNL A   1      40.860  26.781  28.754  1.00  0.00     0.031 A 
ATOM     40  C   UNL A   1      42.208  27.156  28.266  1.00  0.00     0.074 A 
ATOM     41  C   UNL A   1      40.177  27.607  29.571  1.00  0.00     0.049 A 
ATOM     42  N   UNL A   1      43.327  27.050  28.904  1.00  0.00    -0.248 NA
ATOM     43  C   UNL A   1      42.343  27.526  26.850  1.00  0.00     0.031 C 
ATOM     44  C   UNL A   1      38.757  27.575  29.915  1.00  0.00     0.029 A 
ATOM     45  N   UNL A   1      40.620  28.744  30.190  1.00  0.00    -0.354 N 
ATOM     46  C   UNL A   1      44.281  27.558  28.033  1.00  0.00     0.074 A 
ATOM     47  C   UNL A   1      43.665  27.640  26.734  1.00  0.00     0.031 C 
ATOM     48  C   UNL A   1      38.406  28.762  30.466  1.00  0.00     0.029 A 
ATOM     49  C   UNL A   1      39.602  29.565  30.663  1.00  0.00     0.049 A 
ATOM     50  H   UNL A   1      41.574  28.961  30.291  1.00  0.00     0.167 HD
ATOM     51  C   UNL A   1      45.415  28.153  28.484  1.00  0.00     0.034 A 
ATOM     52  C   UNL A   1      39.749  30.827  31.134  1.00  0.00     0.034 A 
ATOM     53  C   UNL A   1      45.617  27.961  29.890  1.00  0.00     0.049 A 
ATOM     54  C   UNL A   1      41.147  30.959  31.605  1.00  0.00     0.074 A 
ATOM     55  C   UNL A   1      45.969  26.924  30.725  1.00  0.00     0.029 A 
ATOM     56  N   UNL A   1      45.059  28.943  30.664  1.00  0.00    -0.354 N 
ATOM     57  N   UNL A   1      41.634  30.311  32.627  1.00  0.00    -0.248 NA
ATOM     58  C   UNL A   1      42.126  31.658  30.781  1.00  0.00     0.031 C 
ATOM     59  C   UNL A   1      45.388  27.229  31.992  1.00  0.00     0.029 A 
ATOM     60  C   UNL A   1      44.711  28.444  31.890  1.00  0.00     0.049 A 
ATOM     61  H   UNL A   1      44.925  29.875  30.379  1.00  0.00     0.167 HD
ATOM     62  C   UNL A   1      42.975  30.163  32.323  1.00  0.00     0.074 A 
ATOM     63  C   UNL A   1      43.250  31.163  31.304  1.00  0.00     0.031 C 
ATOM     64  C   UNL A   1      43.650  29.035  32.679  1.00  0.00     0.034 A 
BRANCH  51  65
ATOM     65  C   UNL A   1      46.089  29.280  27.752  1.00  0.00     0.023 A 
ATOM     66  C   UNL A   1      47.483  29.230  27.575  1.00  0.00     0.012 A 
ATOM     67  C   UNL A   1      45.435  30.497  27.455  1.00  0.00     0.148 A 
ATOM     68  C   UNL A   1      48.189  30.337  27.090  1.00  0.00     0.002 A 
ATOM     69  C   UNL A   1      46.124  31.558  26.885  1.00  0.00     0.091 A 
ATOM     70  F   UNL A   1      44.169  30.681  27.851  1.00  0.00    -0.205 F 
ATOM     71  C   UNL A   1      47.506  31.492  26.718  1.00  0.00     0.022 A 
BRANCH  69  72
ATOM     72  S   UNL A   1      45.262  33.031  26.327  1.00  0.00     0.127 S 
ATOM     73  O   UNL A   1      44.826  33.613  27.593  1.00  0.00    -0.237 OA
ATOM     74  O   UNL A   1      46.328  33.760  25.641  1.00  0.00    -0.237 OA
ATOM     75  O   UNL A   1      44.212  32.541  25.443  1.00  0.00    -0.744 OA
ENDBRANCH  69  72
ENDBRANCH  51  65
BRANCH  52  76
ATOM     76  C   UNL A   1      38.863  32.017  31.061  1.00  0.00     0.023 A 
ATOM     77  C   UNL A   1      38.339  32.399  29.804  1.00  0.00     0.012 A 
ATOM     78  C   UNL A   1      38.269  32.566  32.216  1.00  0.00     0.148 A 
ATOM     79  C   UNL A   1      37.211  33.219  29.704  1.00  0.00     0.002 A 
ATOM     80  C   UNL A   1      37.152  33.394  32.111  1.00  0.00     0.091 A 
ATOM     81  F   UNL A   1      38.729  32.199  33.420  1.00  0.00    -0.205 F 
ATOM     82  C   UNL A   1      36.606  33.703  30.858  1.00  0.00     0.022 A 
BRANCH  80  83
ATOM     83  S   UNL A   1      36.314  34.053  33.559  1.00  0.00     0.127 S 
ATOM     84  O   UNL A   1      37.325  34.953  34.116  1.00  0.00    -0.237 OA
ATOM     85  O   UNL A   1      35.161  34.721  32.965  1.00  0.00    -0.237 OA
ATOM     86  O   UNL A   1      36.020  32.898  34.399  1.00  0.00    -0.744 OA
ENDBRANCH  80  83
ENDBRANCH  52  76
BRANCH  64  87
ATOM     87  C   UNL A   1      43.112  28.238  33.831  1.00  0.00     0.023 A 
ATOM     88  C   UNL A   1      41.994  27.389  33.714  1.00  0.00     0.012 A 
ATOM     89  C   UNL A   1      43.825  28.275  35.041  1.00  0.00     0.148 A 
ATOM     90  C   UNL A   1      41.586  26.604  34.795  1.00  0.00     0.002 A 
ATOM     91  C   UNL A   1      43.439  27.465  36.100  1.00  0.00     0.091 A 
ATOM     92  F   UNL A   1      44.885  29.094  35.126  1.00  0.00    -0.205 F 
ATOM     93  C   UNL A   1      42.315  26.632  35.984  1.00  0.00     0.022 A 
BRANCH  91  94
ATOM     94  S   UNL A   1      44.389  27.382  37.619  1.00  0.00     0.127 S 
ATOM     95  O   UNL A   1      45.678  26.878  37.148  1.00  0.00    -0.237 OA
ATOM     96  O   UNL A   1      44.400  28.779  38.057  1.00  0.00    -0.237 OA
ATOM     97  O   UNL A   1      43.657  26.486  38.507  1.00  0.00    -0.744 OA
ENDBRANCH  91  94
ENDBRANCH  64  87
ENDBRANCH  38  39
ENDBRANCH  31  33
ENDBRANCH  30  31
ENDBRANCH  29  30
ENDBRANCH   1  29
TORSDOF 19
ENDMDL
MODEL 3
REMARK VINA RESULT:     -11.8      1.322      1.642
REMARK SMILES COC(=O)c1ccc2c(c1)=N[C@H](c1cn(CCC(=O)OCCOC(=O)c3ccc(-c4c5nc(c(-c6cccc(S(=O)(=O)[O-])c6F)c6ccc([nH]6)c(-c6cccc(S(=O)(=O)[O-])c6F)c6nc(c(-c7cccc(S(=O)(=O)[O-])c7F)c7ccc4[nH]7)C=C6)C=C5)cc3)c3ccccc13)N=2
REMARK SMILES IDX 21 1 20 2 18 3 19 4 17 5 16 6 15 7 13 8 14 9 94 10 89 11
REMARK SMILES IDX 93 12 90 13 92 14 91 15 12 16 5 17 6 18 10 19 7 20 9 21 8 22
REMARK SMILES IDX 11 23 95 24 3 25 4 26 2 27 1 28 22 29 23 30 24 31 25 32
REMARK SMILES IDX 26 33 27 34 88 35 28 36 87 37 29 38 30 39 31 40 81 41 32 42
REMARK SMILES IDX 86 43 80 44 82 45 33 46 85 47 79 48 78 49 34 51 66 52 46 53
REMARK SMILES IDX 65 54 47 55 50 56 64 57 83 58 48 59 49 60 63 62 84 63 51 64
REMARK SMILES IDX 35 65 36 66 44 67 37 68 39 69 45 70 38 71 40 72 41 73 42 74
REMARK SMILES IDX 43 75 67 76 68 77 76 78 69 79 71 80 77 81 70 82 72 83 73 84
REMARK SMILES IDX 74 85 75 86 52 87 53 88 61 89 54 90 56 91 62 92 55 93 57 94
REMARK SMILES IDX 58 95 59 96 60 97
REMARK H PARENT 82 50 50 61
REMARK Flexibility Score: inf
ROOT
ATOM      1  C   UNL A   1      34.262  32.826  28.049  1.00  0.00     0.274 C 
ENDROOT
BRANCH   1   2
ATOM      2  O   UNL A   1      33.749  31.501  28.285  1.00  0.00    -0.462 OA
BRANCH   2   3
ATOM      3  C   UNL A   1      33.290  30.784  27.237  1.00  0.00     0.307 C 
ATOM      4  O   UNL A   1      32.401  31.157  26.482  1.00  0.00    -0.252 OA
BRANCH   3   5
ATOM      5  C   UNL A   1      33.972  29.436  27.104  1.00  0.00     0.144 C 
BRANCH   5   6
ATOM      6  C   UNL A   1      33.806  28.717  25.759  1.00  0.00     0.134 C 
BRANCH   6   7
ATOM      7  N   UNL A   1      32.598  27.905  25.760  1.00  0.00    -0.346 N 
ATOM      8  C   UNL A   1      31.607  25.950  25.484  1.00  0.00     0.024 A 
ATOM      9  C   UNL A   1      32.532  26.633  26.260  1.00  0.00     0.094 A 
ATOM     10  C   UNL A   1      31.253  26.843  24.423  1.00  0.00     0.007 A 
ATOM     11  C   UNL A   1      31.522  28.109  24.929  1.00  0.00     0.048 A 
ATOM     12  C   UNL A   1      30.560  26.746  23.205  1.00  0.00     0.011 A 
ATOM     13  C   UNL A   1      30.835  29.247  24.502  1.00  0.00     0.027 A 
ATOM     14  C   UNL A   1      29.950  27.891  22.689  1.00  0.00     0.001 A 
ATOM     15  C   UNL A   1      30.004  29.097  23.387  1.00  0.00     0.002 A 
BRANCH   8  16
ATOM     16  C   UNL A   1      30.944  24.645  25.831  1.00  0.00     0.255 C 
ATOM     17  C   UNL A   1      33.828  21.179  25.592  1.00  0.00     0.062 A 
ATOM     18  C   UNL A   1      33.891  21.454  27.024  1.00  0.00     0.018 A 
ATOM     19  C   UNL A   1      33.062  21.898  24.753  1.00  0.00     0.046 A 
ATOM     20  C   UNL A   1      33.179  22.422  27.621  1.00  0.00     0.031 A 
ATOM     21  C   UNL A   1      32.224  22.953  25.332  1.00  0.00     0.087 A 
ATOM     22  C   UNL A   1      32.284  23.222  26.782  1.00  0.00     0.086 A 
ATOM     23  N   UNL A   1      31.340  23.683  24.751  1.00  0.00    -0.252 NA
ATOM     24  N   UNL A   1      31.453  24.136  27.142  1.00  0.00    -0.252 NA
BRANCH  17  25
ATOM     25  C   UNL A   1      34.610  20.065  24.969  1.00  0.00     0.337 C 
ATOM     26  O   UNL A   1      35.816  20.021  24.896  1.00  0.00    -0.246 OA
BRANCH  25  27
ATOM     27  O   UNL A   1      33.744  19.144  24.456  1.00  0.00    -0.465 OA
ATOM     28  C   UNL A   1      32.768  18.676  25.389  1.00  0.00     0.282 C 
ENDBRANCH  25  27
ENDBRANCH  17  25
ENDBRANCH   8  16
ENDBRANCH   6   7
ENDBRANCH   5   6
ENDBRANCH   3   5
ENDBRANCH   2   3
ENDBRANCH   1   2
BRANCH   1  29
ATOM     29  C   UNL A   1      34.108  33.638  29.340  1.00  0.00     0.275 C 
BRANCH  29  30
ATOM     30  O   UNL A   1      35.342  33.576  30.073  1.00  0.00    -0.458 OA
BRANCH  30  31
ATOM     31  C   UNL A   1      35.431  32.539  30.945  1.00  0.00     0.338 C 
ATOM     32  O   UNL A   1      34.578  32.197  31.748  1.00  0.00    -0.246 OA
BRANCH  31  33
ATOM     33  C   UNL A   1      36.577  31.698  30.525  1.00  0.00     0.060 A 
ATOM     34  C   UNL A   1      36.437  30.316  30.355  1.00  0.00     0.016 A 
ATOM     35  C   UNL A   1      37.848  32.286  30.540  1.00  0.00     0.016 A 
ATOM     36  C   UNL A   1      37.569  29.516  30.327  1.00  0.00     0.010 A 
ATOM     37  C   UNL A   1      38.980  31.481  30.538  1.00  0.00     0.010 A 
ATOM     38  C   UNL A   1      38.836  30.094  30.476  1.00  0.00    -0.014 A 
BRANCH  38  39
ATOM     39  C   UNL A   1      39.997  29.238  30.266  1.00  0.00     0.031 A 
ATOM     40  C   UNL A   1      40.636  28.861  31.549  1.00  0.00     0.074 A 
ATOM     41  C   UNL A   1      40.445  28.721  29.105  1.00  0.00     0.049 A 
ATOM     42  N   UNL A   1      41.732  29.336  32.045  1.00  0.00    -0.248 NA
ATOM     43  C   UNL A   1      39.881  27.989  32.459  1.00  0.00     0.031 C 
ATOM     44  C   UNL A   1      39.789  28.718  27.799  1.00  0.00     0.029 A 
ATOM     45  N   UNL A   1      41.569  27.973  28.888  1.00  0.00    -0.354 N 
ATOM     46  C   UNL A   1      41.911  28.644  33.235  1.00  0.00     0.074 A 
ATOM     47  C   UNL A   1      40.663  27.993  33.537  1.00  0.00     0.031 C 
ATOM     48  C   UNL A   1      40.393  27.807  27.000  1.00  0.00     0.029 A 
ATOM     49  C   UNL A   1      41.570  27.288  27.677  1.00  0.00     0.049 A 
ATOM     50  H   UNL A   1      42.313  27.925  29.531  1.00  0.00     0.167 HD
ATOM     51  C   UNL A   1      43.148  28.407  33.743  1.00  0.00     0.034 A 
ATOM     52  C   UNL A   1      42.456  26.334  27.301  1.00  0.00     0.034 A 
ATOM     53  C   UNL A   1      44.173  29.152  33.073  1.00  0.00     0.049 A 
ATOM     54  C   UNL A   1      43.698  26.559  28.076  1.00  0.00     0.074 A 
ATOM     55  C   UNL A   1      44.582  30.465  33.002  1.00  0.00     0.029 A 
ATOM     56  N   UNL A   1      44.726  28.490  32.009  1.00  0.00    -0.354 N 
ATOM     57  N   UNL A   1      44.464  27.604  27.934  1.00  0.00    -0.248 NA
ATOM     58  C   UNL A   1      43.997  25.714  29.226  1.00  0.00     0.031 C 
ATOM     59  C   UNL A   1      45.210  30.611  31.729  1.00  0.00     0.029 A 
ATOM     60  C   UNL A   1      45.170  29.382  31.071  1.00  0.00     0.049 A 
ATOM     61  H   UNL A   1      44.793  27.512  31.929  1.00  0.00     0.167 HD
ATOM     62  C   UNL A   1      45.032  27.777  29.183  1.00  0.00     0.074 A 
ATOM     63  C   UNL A   1      44.871  26.499  29.859  1.00  0.00     0.031 C 
ATOM     64  C   UNL A   1      45.276  29.025  29.672  1.00  0.00     0.034 A 
BRANCH  51  65
ATOM     65  C   UNL A   1      43.480  27.171  34.531  1.00  0.00     0.023 A 
ATOM     66  C   UNL A   1      43.087  25.920  34.020  1.00  0.00     0.012 A 
ATOM     67  C   UNL A   1      43.938  27.216  35.867  1.00  0.00     0.148 A 
ATOM     68  C   UNL A   1      43.180  24.761  34.798  1.00  0.00     0.002 A 
ATOM     69  C   UNL A   1      44.120  26.052  36.601  1.00  0.00     0.091 A 
ATOM     70  F   UNL A   1      44.071  28.399  36.480  1.00  0.00    -0.205 F 
ATOM     71  C   UNL A   1      43.723  24.821  36.078  1.00  0.00     0.022 A 
BRANCH  69  72
ATOM     72  S   UNL A   1      44.884  26.089  38.224  1.00  0.00     0.127 S 
ATOM     73  O   UNL A   1      45.013  24.665  38.521  1.00  0.00    -0.237 OA
ATOM     74  O   UNL A   1      46.141  26.784  37.949  1.00  0.00    -0.237 OA
ATOM     75  O   UNL A   1      43.958  26.844  39.059  1.00  0.00    -0.744 OA
ENDBRANCH  69  72
ENDBRANCH  51  65
BRANCH  52  76
ATOM     76  C   UNL A   1      42.298  25.115  26.467  1.00  0.00     0.023 A 
ATOM     77  C   UNL A   1      43.260  24.847  25.466  1.00  0.00     0.012 A 
ATOM     78  C   UNL A   1      41.435  24.067  26.848  1.00  0.00     0.148 A 
ATOM     79  C   UNL A   1      43.420  23.564  24.933  1.00  0.00     0.002 A 
ATOM     80  C   UNL A   1      41.590  22.792  26.305  1.00  0.00     0.091 A 
ATOM     81  F   UNL A   1      40.533  24.287  27.813  1.00  0.00    -0.205 F 
ATOM     82  C   UNL A   1      42.597  22.531  25.365  1.00  0.00     0.022 A 
BRANCH  80  83
ATOM     83  S   UNL A   1      40.564  21.407  26.818  1.00  0.00     0.127 S 
ATOM     84  O   UNL A   1      39.234  21.829  26.378  1.00  0.00    -0.237 OA
ATOM     85  O   UNL A   1      41.139  20.304  26.056  1.00  0.00    -0.237 OA
ATOM     86  O   UNL A   1      40.714  21.327  28.267  1.00  0.00    -0.744 OA
ENDBRANCH  80  83
ENDBRANCH  52  76
BRANCH  64  87
ATOM     87  C   UNL A   1      45.441  30.139  28.679  1.00  0.00     0.023 A 
ATOM     88  C   UNL A   1      44.357  30.899  28.200  1.00  0.00     0.012 A 
ATOM     89  C   UNL A   1      46.748  30.489  28.300  1.00  0.00     0.148 A 
ATOM     90  C   UNL A   1      44.575  31.980  27.343  1.00  0.00     0.002 A 
ATOM     91  C   UNL A   1      46.963  31.587  27.479  1.00  0.00     0.091 A 
ATOM     92  F   UNL A   1      47.763  29.747  28.770  1.00  0.00    -0.205 F 
ATOM     93  C   UNL A   1      45.878  32.332  26.992  1.00  0.00     0.022 A 
BRANCH  91  94
ATOM     94  S   UNL A   1      48.616  32.150  27.070  1.00  0.00     0.127 S 
ATOM     95  O   UNL A   1      49.259  30.916  26.622  1.00  0.00    -0.237 OA
ATOM     96  O   UNL A   1      48.359  33.127  26.011  1.00  0.00    -0.237 OA
ATOM     97  O   UNL A   1      49.162  32.728  28.293  1.00  0.00    -0.744 OA
ENDBRANCH  91  94
ENDBRANCH  64  87
ENDBRANCH  38  39
ENDBRANCH  31  33
ENDBRANCH  30  31
ENDBRANCH  29  30
ENDBRANCH   1  29
TORSDOF 19
ENDMDL
