MODEL 1
REMARK VINA RESULT:     -12.4      0.000      0.000
REMARK SMILES O=C(OCCOC(=O)[C@@H]1CCCN(C(=O)Nc2ccccc2)C1)c1ccc(-c2c3nc(c(-c4cccc(S(=O)(=O)[O-])c4F)c4ccc([nH]4)c(-c4cccc(S(=O)(=O)[O-])c4F)c4nc(c(-c5cccc(S(=O)(=O)[O-])c5F)c5ccc2[nH]5)C=C4)C=C3)cc1
REMARK SMILES IDX 4 1 3 2 2 3 1 4 24 5 25 6 86 7 26 8 85 9 27 10 28 11 29 12
REMARK SMILES IDX 79 13 30 14 84 15 78 16 80 17 31 18 83 19 77 20 76 21 32 23
REMARK SMILES IDX 64 24 44 25 63 26 45 27 48 28 62 29 81 30 46 31 47 32 61 34
REMARK SMILES IDX 82 35 49 36 33 37 34 38 42 39 35 40 37 41 43 42 36 43 38 44
REMARK SMILES IDX 39 45 40 46 41 47 65 48 66 49 74 50 67 51 69 52 75 53 68 54
REMARK SMILES IDX 70 55 71 56 72 57 73 58 50 59 51 60 59 61 52 62 54 63 60 64
REMARK SMILES IDX 53 65 55 66 56 67 57 68 58 69 5 70 6 71 7 72 8 73 9 74 10 75
REMARK SMILES IDX 23 76 11 77 13 78 12 79 14 80 15 81 16 82 17 84 18 85 22 86
REMARK SMILES IDX 19 87 21 88 20 89
REMARK H PARENT 80 22 48 33 16 83
REMARK Flexibility Score: inf
ROOT
ATOM      1  C   UNL A   1      31.637  29.972  26.298  1.00  0.00     0.275 C 
ENDROOT
BRANCH   1   2
ATOM      2  O   UNL A   1      32.440  31.178  26.251  1.00  0.00    -0.458 OA
BRANCH   2   3
ATOM      3  C   UNL A   1      33.161  31.850  27.184  1.00  0.00     0.338 C 
ATOM      4  O   UNL A   1      32.693  32.902  27.623  1.00  0.00    -0.246 OA
BRANCH   3   5
ATOM      5  C   UNL A   1      34.529  31.466  27.668  1.00  0.00     0.060 A 
ATOM      6  C   UNL A   1      35.572  32.350  27.909  1.00  0.00     0.016 A 
ATOM      7  C   UNL A   1      34.794  30.089  27.877  1.00  0.00     0.016 A 
ATOM      8  C   UNL A   1      36.766  31.896  28.503  1.00  0.00     0.010 A 
ATOM      9  C   UNL A   1      36.004  29.630  28.450  1.00  0.00     0.010 A 
ATOM     10  C   UNL A   1      36.985  30.542  28.839  1.00  0.00    -0.014 A 
BRANCH  10  11
ATOM     11  C   UNL A   1      38.302  30.192  29.472  1.00  0.00     0.031 A 
ATOM     12  C   UNL A   1      38.449  30.524  30.923  1.00  0.00     0.074 A 
ATOM     13  C   UNL A   1      39.312  29.525  28.867  1.00  0.00     0.049 A 
ATOM     14  N   UNL A   1      39.307  30.081  31.799  1.00  0.00    -0.248 NA
ATOM     15  C   UNL A   1      37.501  31.526  31.439  1.00  0.00     0.031 C 
ATOM     16  C   UNL A   1      39.439  29.290  27.441  1.00  0.00     0.029 A 
ATOM     17  N   UNL A   1      40.416  28.867  29.382  1.00  0.00    -0.354 N 
ATOM     18  C   UNL A   1      39.047  30.798  32.955  1.00  0.00     0.074 A 
ATOM     19  C   UNL A   1      37.898  31.640  32.693  1.00  0.00     0.031 C 
ATOM     20  C   UNL A   1      40.409  28.390  27.204  1.00  0.00     0.029 A 
ATOM     21  C   UNL A   1      41.061  28.050  28.463  1.00  0.00     0.049 A 
ATOM     22  H   UNL A   1      40.717  28.971  30.314  1.00  0.00     0.167 HD
ATOM     23  C   UNL A   1      39.747  30.823  34.111  1.00  0.00     0.034 A 
ATOM     24  C   UNL A   1      42.050  27.138  28.630  1.00  0.00     0.034 A 
ATOM     25  C   UNL A   1      40.951  30.084  34.343  1.00  0.00     0.049 A 
ATOM     26  C   UNL A   1      42.726  27.078  29.982  1.00  0.00     0.074 A 
ATOM     27  C   UNL A   1      41.779  30.116  35.451  1.00  0.00     0.029 A 
ATOM     28  N   UNL A   1      41.530  29.215  33.432  1.00  0.00    -0.354 N 
ATOM     29  N   UNL A   1      42.391  27.664  31.104  1.00  0.00    -0.248 NA
ATOM     30  C   UNL A   1      43.947  26.257  30.081  1.00  0.00     0.031 C 
ATOM     31  C   UNL A   1      42.881  29.294  35.192  1.00  0.00     0.029 A 
ATOM     32  C   UNL A   1      42.706  28.706  33.951  1.00  0.00     0.049 A 
ATOM     33  H   UNL A   1      41.160  28.995  32.547  1.00  0.00     0.167 HD
ATOM     34  C   UNL A   1      43.362  27.297  32.028  1.00  0.00     0.074 A 
ATOM     35  C   UNL A   1      44.246  26.364  31.366  1.00  0.00     0.031 C 
ATOM     36  C   UNL A   1      43.544  27.739  33.294  1.00  0.00     0.034 A 
BRANCH  23  37
ATOM     37  C   UNL A   1      39.272  31.808  35.135  1.00  0.00     0.023 A 
ATOM     38  C   UNL A   1      39.651  33.162  35.049  1.00  0.00     0.012 A 
ATOM     39  C   UNL A   1      38.536  31.354  36.245  1.00  0.00     0.148 A 
ATOM     40  C   UNL A   1      39.355  34.039  36.090  1.00  0.00     0.002 A 
ATOM     41  C   UNL A   1      38.201  32.245  37.251  1.00  0.00     0.091 A 
ATOM     42  F   UNL A   1      38.224  30.053  36.316  1.00  0.00    -0.205 F 
ATOM     43  C   UNL A   1      38.628  33.582  37.188  1.00  0.00     0.022 A 
BRANCH  41  44
ATOM     44  S   UNL A   1      37.221  31.764  38.674  1.00  0.00     0.127 S 
ATOM     45  O   UNL A   1      38.145  32.034  39.775  1.00  0.00    -0.237 OA
ATOM     46  O   UNL A   1      36.090  32.688  38.585  1.00  0.00    -0.237 OA
ATOM     47  O   UNL A   1      36.881  30.362  38.477  1.00  0.00    -0.744 OA
ENDBRANCH  41  44
ENDBRANCH  23  37
BRANCH  24  48
ATOM     48  C   UNL A   1      42.489  26.159  27.570  1.00  0.00     0.023 A 
ATOM     49  C   UNL A   1      43.420  26.601  26.596  1.00  0.00     0.012 A 
ATOM     50  C   UNL A   1      41.983  24.853  27.444  1.00  0.00     0.148 A 
ATOM     51  C   UNL A   1      43.783  25.804  25.506  1.00  0.00     0.002 A 
ATOM     52  C   UNL A   1      42.427  24.024  26.412  1.00  0.00     0.091 A 
ATOM     53  F   UNL A   1      41.050  24.440  28.312  1.00  0.00    -0.205 F 
ATOM     54  C   UNL A   1      43.299  24.505  25.423  1.00  0.00     0.022 A 
BRANCH  52  55
ATOM     55  S   UNL A   1      42.033  22.271  26.357  1.00  0.00     0.127 S 
ATOM     56  O   UNL A   1      42.533  21.807  27.646  1.00  0.00    -0.237 OA
ATOM     57  O   UNL A   1      40.574  22.297  26.231  1.00  0.00    -0.237 OA
ATOM     58  O   UNL A   1      42.722  21.763  25.177  1.00  0.00    -0.744 OA
ENDBRANCH  52  55
ENDBRANCH  24  48
BRANCH  36  59
ATOM     59  C   UNL A   1      44.728  27.213  34.058  1.00  0.00     0.023 A 
ATOM     60  C   UNL A   1      45.944  27.928  34.060  1.00  0.00     0.012 A 
ATOM     61  C   UNL A   1      44.602  26.056  34.847  1.00  0.00     0.148 A 
ATOM     62  C   UNL A   1      47.026  27.478  34.816  1.00  0.00     0.002 A 
ATOM     63  C   UNL A   1      45.665  25.647  35.641  1.00  0.00     0.091 A 
ATOM     64  F   UNL A   1      43.445  25.380  34.809  1.00  0.00    -0.205 F 
ATOM     65  C   UNL A   1      46.882  26.348  35.617  1.00  0.00     0.022 A 
BRANCH  63  66
ATOM     66  S   UNL A   1      45.528  24.271  36.784  1.00  0.00     0.127 S 
ATOM     67  O   UNL A   1      46.912  24.117  37.230  1.00  0.00    -0.237 OA
ATOM     68  O   UNL A   1      44.615  24.799  37.798  1.00  0.00    -0.237 OA
ATOM     69  O   UNL A   1      44.993  23.157  36.011  1.00  0.00    -0.744 OA
ENDBRANCH  63  66
ENDBRANCH  36  59
ENDBRANCH  10  11
ENDBRANCH   3   5
ENDBRANCH   2   3
ENDBRANCH   1   2
BRANCH   1  70
ATOM     70  C   UNL A   1      31.627  29.183  24.996  1.00  0.00     0.274 C 
BRANCH  70  71
ATOM     71  O   UNL A   1      30.857  28.000  25.161  1.00  0.00    -0.462 OA
BRANCH  71  72
ATOM     72  C   UNL A   1      31.444  26.933  25.749  1.00  0.00     0.310 C 
ATOM     73  O   UNL A   1      31.254  26.577  26.909  1.00  0.00    -0.252 OA
BRANCH  72  74
ATOM     74  C   UNL A   1      32.317  26.178  24.772  1.00  0.00     0.119 C 
ATOM     75  C   UNL A   1      31.651  25.985  23.415  1.00  0.00     0.019 C 
ATOM     76  C   UNL A   1      32.754  24.817  25.288  1.00  0.00     0.136 C 
ATOM     77  C   UNL A   1      30.526  24.960  23.505  1.00  0.00     0.023 C 
ATOM     78  N   UNL A   1      31.700  23.818  25.388  1.00  0.00    -0.324 N 
ATOM     79  C   UNL A   1      30.956  23.639  24.144  1.00  0.00     0.121 C 
BRANCH  78  80
ATOM     80  C   UNL A   1      31.556  23.162  26.595  1.00  0.00     0.321 C 
ATOM     81  O   UNL A   1      30.713  23.495  27.437  1.00  0.00    -0.248 OA
ATOM     82  N   UNL A   1      32.210  22.019  26.902  1.00  0.00    -0.308 N 
ATOM     83  H   UNL A   1      31.792  21.508  27.631  1.00  0.00     0.171 HD
BRANCH  82  84
ATOM     84  C   UNL A   1      33.357  21.425  26.393  1.00  0.00     0.042 A 
ATOM     85  C   UNL A   1      33.186  20.365  25.502  1.00  0.00     0.026 A 
ATOM     86  C   UNL A   1      34.627  21.908  26.676  1.00  0.00     0.026 A 
ATOM     87  C   UNL A   1      34.278  19.899  24.773  1.00  0.00     0.002 A 
ATOM     88  C   UNL A   1      35.705  21.468  25.920  1.00  0.00     0.002 A 
ATOM     89  C   UNL A   1      35.534  20.471  24.963  1.00  0.00     0.000 A 
ENDBRANCH  82  84
ENDBRANCH  78  80
ENDBRANCH  72  74
ENDBRANCH  71  72
ENDBRANCH  70  71
ENDBRANCH   1  70
TORSDOF 16
ENDMDL
MODEL 2
REMARK VINA RESULT:     -12.4      5.190     10.416
REMARK SMILES O=C(OCCOC(=O)[C@@H]1CCCN(C(=O)Nc2ccccc2)C1)c1ccc(-c2c3nc(c(-c4cccc(S(=O)(=O)[O-])c4F)c4ccc([nH]4)c(-c4cccc(S(=O)(=O)[O-])c4F)c4nc(c(-c5cccc(S(=O)(=O)[O-])c5F)c5ccc2[nH]5)C=C4)C=C3)cc1
REMARK SMILES IDX 4 1 3 2 2 3 1 4 24 5 25 6 86 7 26 8 85 9 27 10 28 11 29 12
REMARK SMILES IDX 79 13 30 14 84 15 78 16 80 17 31 18 83 19 77 20 76 21 32 23
REMARK SMILES IDX 64 24 44 25 63 26 45 27 48 28 62 29 81 30 46 31 47 32 61 34
REMARK SMILES IDX 82 35 49 36 33 37 34 38 42 39 35 40 37 41 43 42 36 43 38 44
REMARK SMILES IDX 39 45 40 46 41 47 65 48 66 49 74 50 67 51 69 52 75 53 68 54
REMARK SMILES IDX 70 55 71 56 72 57 73 58 50 59 51 60 59 61 52 62 54 63 60 64
REMARK SMILES IDX 53 65 55 66 56 67 57 68 58 69 5 70 6 71 7 72 8 73 9 74 10 75
REMARK SMILES IDX 23 76 11 77 13 78 12 79 14 80 15 81 16 82 17 84 18 85 22 86
REMARK SMILES IDX 19 87 21 88 20 89
REMARK H PARENT 80 22 48 33 16 83
REMARK Flexibility Score: inf
ROOT
ATOM      1  C   UNL A   1      36.874  19.757  24.990  1.00  0.00     0.275 C 
ENDROOT
BRANCH   1   2
ATOM      2  O   UNL A   1      37.677  20.919  25.313  1.00  0.00    -0.458 OA
BRANCH   2   3
ATOM      3  C   UNL A   1      38.924  21.072  25.825  1.00  0.00     0.338 C 
ATOM      4  O   UNL A   1      39.675  20.095  25.812  1.00  0.00    -0.246 OA
BRANCH   3   5
ATOM      5  C   UNL A   1      39.444  22.313  26.493  1.00  0.00     0.060 A 
ATOM      6  C   UNL A   1      40.445  22.348  27.453  1.00  0.00     0.016 A 
ATOM      7  C   UNL A   1      38.854  23.552  26.135  1.00  0.00     0.016 A 
ATOM      8  C   UNL A   1      40.956  23.581  27.903  1.00  0.00     0.010 A 
ATOM      9  C   UNL A   1      39.351  24.791  26.607  1.00  0.00     0.010 A 
ATOM     10  C   UNL A   1      40.463  24.824  27.448  1.00  0.00    -0.014 A 
BRANCH  10  11
ATOM     11  C   UNL A   1      41.100  26.066  28.005  1.00  0.00     0.031 A 
ATOM     12  C   UNL A   1      42.439  26.432  27.447  1.00  0.00     0.074 A 
ATOM     13  C   UNL A   1      40.525  26.916  28.888  1.00  0.00     0.049 A 
ATOM     14  N   UNL A   1      43.079  27.567  27.487  1.00  0.00    -0.248 NA
ATOM     15  C   UNL A   1      43.160  25.339  26.773  1.00  0.00     0.031 C 
ATOM     16  C   UNL A   1      39.338  26.644  29.677  1.00  0.00     0.029 A 
ATOM     17  N   UNL A   1      40.833  28.219  29.241  1.00  0.00    -0.354 N 
ATOM     18  C   UNL A   1      44.308  27.309  26.903  1.00  0.00     0.074 A 
ATOM     19  C   UNL A   1      44.289  25.938  26.440  1.00  0.00     0.031 C 
ATOM     20  C   UNL A   1      38.895  27.776  30.251  1.00  0.00     0.029 A 
ATOM     21  C   UNL A   1      39.830  28.856  29.960  1.00  0.00     0.049 A 
ATOM     22  H   UNL A   1      41.684  28.652  29.005  1.00  0.00     0.167 HD
ATOM     23  C   UNL A   1      45.393  28.111  26.827  1.00  0.00     0.034 A 
ATOM     24  C   UNL A   1      39.692  30.153  30.328  1.00  0.00     0.034 A 
ATOM     25  C   UNL A   1      45.465  29.429  27.383  1.00  0.00     0.049 A 
ATOM     26  C   UNL A   1      40.869  31.075  30.099  1.00  0.00     0.074 A 
ATOM     27  C   UNL A   1      46.553  30.281  27.435  1.00  0.00     0.029 A 
ATOM     28  N   UNL A   1      44.421  30.069  28.030  1.00  0.00    -0.354 N 
ATOM     29  N   UNL A   1      41.975  30.859  29.431  1.00  0.00    -0.248 NA
ATOM     30  C   UNL A   1      40.797  32.414  30.713  1.00  0.00     0.031 C 
ATOM     31  C   UNL A   1      46.176  31.423  28.149  1.00  0.00     0.029 A 
ATOM     32  C   UNL A   1      44.838  31.305  28.487  1.00  0.00     0.049 A 
ATOM     33  H   UNL A   1      43.517  29.697  28.149  1.00  0.00     0.167 HD
ATOM     34  C   UNL A   1      42.728  32.020  29.558  1.00  0.00     0.074 A 
ATOM     35  C   UNL A   1      41.918  32.973  30.285  1.00  0.00     0.031 C 
ATOM     36  C   UNL A   1      44.001  32.258  29.164  1.00  0.00     0.034 A 
BRANCH  23  37
ATOM     37  C   UNL A   1      46.620  27.486  26.239  1.00  0.00     0.023 A 
ATOM     38  C   UNL A   1      47.510  26.760  27.054  1.00  0.00     0.012 A 
ATOM     39  C   UNL A   1      46.939  27.721  24.888  1.00  0.00     0.148 A 
ATOM     40  C   UNL A   1      48.734  26.329  26.546  1.00  0.00     0.002 A 
ATOM     41  C   UNL A   1      48.134  27.243  24.377  1.00  0.00     0.091 A 
ATOM     42  F   UNL A   1      46.091  28.448  24.149  1.00  0.00    -0.205 F 
ATOM     43  C   UNL A   1      49.043  26.567  25.208  1.00  0.00     0.022 A 
BRANCH  41  44
ATOM     44  S   UNL A   1      48.595  27.451  22.657  1.00  0.00     0.127 S 
ATOM     45  O   UNL A   1      49.901  28.099  22.776  1.00  0.00    -0.237 OA
ATOM     46  O   UNL A   1      48.641  26.065  22.189  1.00  0.00    -0.237 OA
ATOM     47  O   UNL A   1      47.550  28.265  22.052  1.00  0.00    -0.744 OA
ENDBRANCH  41  44
ENDBRANCH  23  37
BRANCH  24  48
ATOM     48  C   UNL A   1      38.431  30.740  30.910  1.00  0.00     0.023 A 
ATOM     49  C   UNL A   1      38.222  30.621  32.308  1.00  0.00     0.012 A 
ATOM     50  C   UNL A   1      37.415  31.341  30.147  1.00  0.00     0.148 A 
ATOM     51  C   UNL A   1      37.025  31.021  32.912  1.00  0.00     0.002 A 
ATOM     52  C   UNL A   1      36.265  31.832  30.770  1.00  0.00     0.091 A 
ATOM     53  F   UNL A   1      37.561  31.400  28.816  1.00  0.00    -0.205 F 
ATOM     54  C   UNL A   1      36.051  31.645  32.144  1.00  0.00     0.022 A 
BRANCH  52  55
ATOM     55  S   UNL A   1      35.065  32.848  29.897  1.00  0.00     0.127 S 
ATOM     56  O   UNL A   1      35.912  33.873  29.299  1.00  0.00    -0.237 OA
ATOM     57  O   UNL A   1      34.493  31.887  28.951  1.00  0.00    -0.237 OA
ATOM     58  O   UNL A   1      34.132  33.299  30.921  1.00  0.00    -0.744 OA
ENDBRANCH  52  55
ENDBRANCH  24  48
BRANCH  36  59
ATOM     59  C   UNL A   1      44.597  33.600  29.489  1.00  0.00     0.023 A 
ATOM     60  C   UNL A   1      45.272  33.798  30.711  1.00  0.00     0.012 A 
ATOM     61  C   UNL A   1      44.564  34.636  28.538  1.00  0.00     0.148 A 
ATOM     62  C   UNL A   1      45.881  35.021  30.992  1.00  0.00     0.002 A 
ATOM     63  C   UNL A   1      45.220  35.831  28.801  1.00  0.00     0.091 A 
ATOM     64  F   UNL A   1      43.894  34.433  27.395  1.00  0.00    -0.205 F 
ATOM     65  C   UNL A   1      45.868  36.031  30.032  1.00  0.00     0.022 A 
BRANCH  63  66
ATOM     66  S   UNL A   1      45.348  37.139  27.581  1.00  0.00     0.127 S 
ATOM     67  O   UNL A   1      43.942  37.448  27.327  1.00  0.00    -0.237 OA
ATOM     68  O   UNL A   1      46.079  38.174  28.312  1.00  0.00    -0.237 OA
ATOM     69  O   UNL A   1      46.075  36.569  26.454  1.00  0.00    -0.744 OA
ENDBRANCH  63  66
ENDBRANCH  36  59
ENDBRANCH  10  11
ENDBRANCH   3   5
ENDBRANCH   2   3
ENDBRANCH   1   2
BRANCH   1  70
ATOM     70  C   UNL A   1      35.383  20.045  24.880  1.00  0.00     0.274 C 
BRANCH  70  71
ATOM     71  O   UNL A   1      35.035  21.101  25.766  1.00  0.00    -0.462 OA
BRANCH  71  72
ATOM     72  C   UNL A   1      33.838  21.707  25.597  1.00  0.00     0.310 C 
ATOM     73  O   UNL A   1      32.856  21.536  26.317  1.00  0.00    -0.252 OA
BRANCH  72  74
ATOM     74  C   UNL A   1      33.874  22.687  24.446  1.00  0.00     0.119 C 
ATOM     75  C   UNL A   1      35.181  23.468  24.381  1.00  0.00     0.019 C 
ATOM     76  C   UNL A   1      32.724  23.680  24.470  1.00  0.00     0.136 C 
ATOM     77  C   UNL A   1      35.259  24.489  25.510  1.00  0.00     0.023 C 
ATOM     78  N   UNL A   1      32.770  24.665  25.540  1.00  0.00    -0.324 N 
ATOM     79  C   UNL A   1      34.032  25.398  25.596  1.00  0.00     0.121 C 
BRANCH  78  80
ATOM     80  C   UNL A   1      31.643  24.805  26.327  1.00  0.00     0.321 C 
ATOM     81  O   UNL A   1      31.434  24.100  27.322  1.00  0.00    -0.248 OA
ATOM     82  N   UNL A   1      30.749  25.808  26.173  1.00  0.00    -0.308 N 
ATOM     83  H   UNL A   1      30.191  25.965  26.968  1.00  0.00     0.171 HD
BRANCH  82  84
ATOM     84  C   UNL A   1      30.461  26.658  25.114  1.00  0.00     0.042 A 
ATOM     85  C   UNL A   1      29.328  26.370  24.353  1.00  0.00     0.026 A 
ATOM     86  C   UNL A   1      31.205  27.803  24.863  1.00  0.00     0.026 A 
ATOM     87  C   UNL A   1      28.851  27.316  23.448  1.00  0.00     0.002 A 
ATOM     88  C   UNL A   1      30.706  28.759  23.989  1.00  0.00     0.002 A 
ATOM     89  C   UNL A   1      29.527  28.523  23.286  1.00  0.00     0.000 A 
ENDBRANCH  82  84
ENDBRANCH  78  80
ENDBRANCH  72  74
ENDBRANCH  71  72
ENDBRANCH  70  71
ENDBRANCH   1  70
TORSDOF 16
ENDMDL
MODEL 3
REMARK VINA RESULT:     -12.3      5.148     10.253
REMARK SMILES O=C(OCCOC(=O)[C@@H]1CCCN(C(=O)Nc2ccccc2)C1)c1ccc(-c2c3nc(c(-c4cccc(S(=O)(=O)[O-])c4F)c4ccc([nH]4)c(-c4cccc(S(=O)(=O)[O-])c4F)c4nc(c(-c5cccc(S(=O)(=O)[O-])c5F)c5ccc2[nH]5)C=C4)C=C3)cc1
REMARK SMILES IDX 4 1 3 2 2 3 1 4 24 5 25 6 86 7 26 8 85 9 27 10 28 11 29 12
REMARK SMILES IDX 79 13 30 14 84 15 78 16 80 17 31 18 83 19 77 20 76 21 32 23
REMARK SMILES IDX 64 24 44 25 63 26 45 27 48 28 62 29 81 30 46 31 47 32 61 34
REMARK SMILES IDX 82 35 49 36 33 37 34 38 42 39 35 40 37 41 43 42 36 43 38 44
REMARK SMILES IDX 39 45 40 46 41 47 65 48 66 49 74 50 67 51 69 52 75 53 68 54
REMARK SMILES IDX 70 55 71 56 72 57 73 58 50 59 51 60 59 61 52 62 54 63 60 64
REMARK SMILES IDX 53 65 55 66 56 67 57 68 58 69 5 70 6 71 7 72 8 73 9 74 10 75
REMARK SMILES IDX 23 76 11 77 13 78 12 79 14 80 15 81 16 82 17 84 18 85 22 86
REMARK SMILES IDX 19 87 21 88 20 89
REMARK H PARENT 80 22 48 33 16 83
REMARK Flexibility Score: inf
ROOT
ATOM      1  C   UNL A   1      37.060  20.088  24.793  1.00  0.00     0.275 C 
ENDROOT
BRANCH   1   2
ATOM      2  O   UNL A   1      37.719  21.182  25.478  1.00  0.00    -0.458 OA
BRANCH   2   3
ATOM      3  C   UNL A   1      38.970  21.345  25.977  1.00  0.00     0.338 C 
ATOM      4  O   UNL A   1      39.725  20.371  25.965  1.00  0.00    -0.246 OA
BRANCH   3   5
ATOM      5  C   UNL A   1      39.490  22.594  26.629  1.00  0.00     0.060 A 
ATOM      6  C   UNL A   1      40.559  22.653  27.512  1.00  0.00     0.016 A 
ATOM      7  C   UNL A   1      38.827  23.814  26.341  1.00  0.00     0.016 A 
ATOM      8  C   UNL A   1      41.054  23.898  27.947  1.00  0.00     0.010 A 
ATOM      9  C   UNL A   1      39.311  25.064  26.799  1.00  0.00     0.010 A 
ATOM     10  C   UNL A   1      40.481  25.127  27.555  1.00  0.00    -0.014 A 
BRANCH  10  11
ATOM     11  C   UNL A   1      41.110  26.384  28.088  1.00  0.00     0.031 A 
ATOM     12  C   UNL A   1      42.408  26.790  27.466  1.00  0.00     0.074 A 
ATOM     13  C   UNL A   1      40.556  27.213  29.004  1.00  0.00     0.049 A 
ATOM     14  N   UNL A   1      43.017  27.943  27.482  1.00  0.00    -0.248 NA
ATOM     15  C   UNL A   1      43.125  25.722  26.750  1.00  0.00     0.031 C 
ATOM     16  C   UNL A   1      39.418  26.904  29.849  1.00  0.00     0.029 A 
ATOM     17  N   UNL A   1      40.844  28.522  29.349  1.00  0.00    -0.354 N 
ATOM     18  C   UNL A   1      44.222  27.723  26.835  1.00  0.00     0.074 A 
ATOM     19  C   UNL A   1      44.219  26.354  26.365  1.00  0.00     0.031 C 
ATOM     20  C   UNL A   1      38.972  28.020  30.452  1.00  0.00     0.029 A 
ATOM     21  C   UNL A   1      39.861  29.127  30.122  1.00  0.00     0.049 A 
ATOM     22  H   UNL A   1      41.670  28.981  29.073  1.00  0.00     0.167 HD
ATOM     23  C   UNL A   1      45.279  28.557  26.711  1.00  0.00     0.034 A 
ATOM     24  C   UNL A   1      39.705  30.418  30.504  1.00  0.00     0.034 A 
ATOM     25  C   UNL A   1      45.342  29.873  27.271  1.00  0.00     0.049 A 
ATOM     26  C   UNL A   1      40.843  31.374  30.223  1.00  0.00     0.074 A 
ATOM     27  C   UNL A   1      46.407  30.755  27.274  1.00  0.00     0.029 A 
ATOM     28  N   UNL A   1      44.314  30.480  27.973  1.00  0.00    -0.354 N 
ATOM     29  N   UNL A   1      41.919  31.193  29.499  1.00  0.00    -0.248 NA
ATOM     30  C   UNL A   1      40.763  32.707  30.847  1.00  0.00     0.031 C 
ATOM     31  C   UNL A   1      46.034  31.883  28.013  1.00  0.00     0.029 A 
ATOM     32  C   UNL A   1      44.718  31.725  28.416  1.00  0.00     0.049 A 
ATOM     33  H   UNL A   1      43.427  30.082  28.135  1.00  0.00     0.167 HD
ATOM     34  C   UNL A   1      42.645  32.374  29.596  1.00  0.00     0.074 A 
ATOM     35  C   UNL A   1      41.846  33.300  30.368  1.00  0.00     0.031 C 
ATOM     36  C   UNL A   1      43.889  32.650  29.140  1.00  0.00     0.034 A 
BRANCH  23  37
ATOM     37  C   UNL A   1      46.493  27.970  26.058  1.00  0.00     0.023 A 
ATOM     38  C   UNL A   1      46.658  28.048  24.661  1.00  0.00     0.012 A 
ATOM     39  C   UNL A   1      47.415  27.242  26.833  1.00  0.00     0.148 A 
ATOM     40  C   UNL A   1      47.693  27.355  24.038  1.00  0.00     0.002 A 
ATOM     41  C   UNL A   1      48.472  26.599  26.211  1.00  0.00     0.091 A 
ATOM     42  F   UNL A   1      47.209  27.155  28.154  1.00  0.00    -0.205 F 
ATOM     43  C   UNL A   1      48.600  26.634  24.813  1.00  0.00     0.022 A 
BRANCH  41  44
ATOM     44  S   UNL A   1      49.720  25.695  27.127  1.00  0.00     0.127 S 
ATOM     45  O   UNL A   1      48.991  24.486  27.508  1.00  0.00    -0.237 OA
ATOM     46  O   UNL A   1      50.751  25.492  26.107  1.00  0.00    -0.237 OA
ATOM     47  O   UNL A   1      50.116  26.557  28.232  1.00  0.00    -0.744 OA
ENDBRANCH  41  44
ENDBRANCH  23  37
BRANCH  24  48
ATOM     48  C   UNL A   1      38.458  30.966  31.152  1.00  0.00     0.023 A 
ATOM     49  C   UNL A   1      38.337  30.862  32.561  1.00  0.00     0.012 A 
ATOM     50  C   UNL A   1      37.376  31.514  30.442  1.00  0.00     0.148 A 
ATOM     51  C   UNL A   1      37.164  31.226  33.230  1.00  0.00     0.002 A 
ATOM     52  C   UNL A   1      36.247  31.972  31.125  1.00  0.00     0.091 A 
ATOM     53  F   UNL A   1      37.441  31.557  29.104  1.00  0.00    -0.205 F 
ATOM     54  C   UNL A   1      36.122  31.799  32.512  1.00  0.00     0.022 A 
BRANCH  52  55
ATOM     55  S   UNL A   1      34.959  32.926  30.311  1.00  0.00     0.127 S 
ATOM     56  O   UNL A   1      34.050  33.214  31.415  1.00  0.00    -0.237 OA
ATOM     57  O   UNL A   1      35.711  34.078  29.810  1.00  0.00    -0.237 OA
ATOM     58  O   UNL A   1      34.443  32.053  29.264  1.00  0.00    -0.744 OA
ENDBRANCH  52  55
ENDBRANCH  24  48
BRANCH  36  59
ATOM     59  C   UNL A   1      44.463  34.007  29.444  1.00  0.00     0.023 A 
ATOM     60  C   UNL A   1      45.109  34.244  30.674  1.00  0.00     0.012 A 
ATOM     61  C   UNL A   1      44.438  35.019  28.467  1.00  0.00     0.148 A 
ATOM     62  C   UNL A   1      45.698  35.481  30.937  1.00  0.00     0.002 A 
ATOM     63  C   UNL A   1      45.075  36.227  28.713  1.00  0.00     0.091 A 
ATOM     64  F   UNL A   1      43.795  34.779  27.315  1.00  0.00    -0.205 F 
ATOM     65  C   UNL A   1      45.694  36.465  29.952  1.00  0.00     0.022 A 
BRANCH  63  66
ATOM     66  S   UNL A   1      45.214  37.506  27.463  1.00  0.00     0.127 S 
ATOM     67  O   UNL A   1      46.000  36.831  26.432  1.00  0.00    -0.237 OA
ATOM     68  O   UNL A   1      43.815  37.744  27.106  1.00  0.00    -0.237 OA
ATOM     69  O   UNL A   1      45.871  38.634  28.112  1.00  0.00    -0.744 OA
ENDBRANCH  63  66
ENDBRANCH  36  59
ENDBRANCH  10  11
ENDBRANCH   3   5
ENDBRANCH   2   3
ENDBRANCH   1   2
BRANCH   1  70
ATOM     70  C   UNL A   1      35.554  20.040  25.007  1.00  0.00     0.274 C 
BRANCH  70  71
ATOM     71  O   UNL A   1      35.105  21.288  25.520  1.00  0.00    -0.462 OA
BRANCH  71  72
ATOM     72  C   UNL A   1      33.841  21.676  25.238  1.00  0.00     0.310 C 
ATOM     73  O   UNL A   1      32.833  21.249  25.795  1.00  0.00    -0.252 OA
BRANCH  72  74
ATOM     74  C   UNL A   1      33.822  22.768  24.191  1.00  0.00     0.119 C 
ATOM     75  C   UNL A   1      35.156  23.494  24.073  1.00  0.00     0.019 C 
ATOM     76  C   UNL A   1      32.733  23.802  24.426  1.00  0.00     0.136 C 
ATOM     77  C   UNL A   1      35.395  24.388  25.284  1.00  0.00     0.023 C 
ATOM     78  N   UNL A   1      32.932  24.669  25.577  1.00  0.00    -0.324 N 
ATOM     79  C   UNL A   1      34.232  25.336  25.580  1.00  0.00     0.121 C 
BRANCH  78  80
ATOM     80  C   UNL A   1      31.893  24.776  26.481  1.00  0.00     0.321 C 
ATOM     81  O   UNL A   1      31.660  23.910  27.332  1.00  0.00    -0.248 OA
ATOM     82  N   UNL A   1      31.138  25.890  26.617  1.00  0.00    -0.308 N 
ATOM     83  H   UNL A   1      30.665  25.944  27.478  1.00  0.00     0.171 HD
BRANCH  82  84
ATOM     84  C   UNL A   1      30.897  26.972  25.781  1.00  0.00     0.042 A 
ATOM     85  C   UNL A   1      31.478  28.191  26.130  1.00  0.00     0.026 A 
ATOM     86  C   UNL A   1      30.186  26.845  24.595  1.00  0.00     0.026 A 
ATOM     87  C   UNL A   1      31.482  29.237  25.210  1.00  0.00     0.002 A 
ATOM     88  C   UNL A   1      30.225  27.876  23.666  1.00  0.00     0.002 A 
ATOM     89  C   UNL A   1      30.877  29.069  23.966  1.00  0.00     0.000 A 
ENDBRANCH  82  84
ENDBRANCH  78  80
ENDBRANCH  72  74
ENDBRANCH  71  72
ENDBRANCH  70  71
ENDBRANCH   1  70
TORSDOF 16
ENDMDL
