MODEL 1
REMARK VINA RESULT:      -9.4      0.000      0.000
REMARK SMILES CC(C)C[C@H](NC(=O)CNC(=O)[C@@H](NC(=O)OCc1ccccc1)C(C)C)C(=O)OCCOC(=O)c1ccc(-c2c3nc(c(-c4cccc(S(=O)(=O)[O-])c4F)c4ccc([nH]4)c(-c4cccc(S(=O)(=O)[O-])c4F)c4nc(c(-c5cccc(S(=O)(=O)[O-])c5F)c5ccc2[nH]5)C=C4)C=C3)cc1
REMARK SMILES IDX 28 1 29 2 5 3 4 4 2 5 1 6 3 7 6 8 7 9 8 11 9 12 10 13 11 14
REMARK SMILES IDX 12 16 13 17 14 18 15 19 16 21 17 22 18 23 19 24 20 25 24 26
REMARK SMILES IDX 21 27 23 28 22 29 25 30 26 31 27 32 30 33 31 34 32 35 33 36
REMARK SMILES IDX 34 37 35 38 36 39 37 40 98 41 38 42 97 43 39 44 40 45 41 46
REMARK SMILES IDX 91 47 42 48 96 49 90 50 92 51 43 52 95 53 89 54 88 55 44 57
REMARK SMILES IDX 76 58 56 59 75 60 57 61 60 62 74 63 93 64 58 65 59 66 73 68
REMARK SMILES IDX 94 69 61 70 45 71 46 72 54 73 47 74 49 75 55 76 48 77 50 78
REMARK SMILES IDX 51 79 52 80 53 81 77 82 78 83 86 84 79 85 81 86 87 87 80 88
REMARK SMILES IDX 82 89 83 90 84 91 85 92 62 93 63 94 71 95 64 96 66 97 72 98
REMARK SMILES IDX 65 99 67 100 68 101 69 102 70 103
REMARK H PARENT 6 10 10 15 14 20 92 56 60 67
REMARK Flexibility Score: inf
ROOT
ATOM      1  C   UNL A   1      38.327  21.552  25.565  1.00  0.00     0.328 C 
ATOM      2  O   UNL A   1      37.648  20.748  24.943  1.00  0.00    -0.250 OA
ENDROOT
BRANCH   1   3
ATOM      3  C   UNL A   1      37.986  23.105  25.764  1.00  0.00     0.192 C 
BRANCH   3   4
ATOM      4  C   UNL A   1      39.023  24.160  26.284  1.00  0.00     0.040 C 
BRANCH   4   5
ATOM      5  C   UNL A   1      39.540  24.381  27.771  1.00  0.00    -0.015 C 
ATOM      6  C   UNL A   1      41.051  24.161  28.063  1.00  0.00     0.007 C 
ATOM      7  C   UNL A   1      39.346  25.847  28.168  1.00  0.00     0.007 C 
ENDBRANCH   4   5
ENDBRANCH   3   4
BRANCH   3   8
ATOM      8  N   UNL A   1      36.821  23.207  26.571  1.00  0.00    -0.341 N 
ATOM      9  C   UNL A   1      35.604  23.363  25.989  1.00  0.00     0.240 C 
ATOM     10  H   UNL A   1      36.896  23.164  27.552  1.00  0.00     0.164 HD
ATOM     11  O   UNL A   1      34.602  23.287  26.705  1.00  0.00    -0.273 OA
BRANCH   9  12
ATOM     12  C   UNL A   1      35.487  23.632  24.414  1.00  0.00     0.216 C 
BRANCH  12  13
ATOM     13  N   UNL A   1      34.395  24.008  23.361  1.00  0.00    -0.345 N 
ATOM     14  C   UNL A   1      33.202  24.463  22.883  1.00  0.00     0.243 C 
ATOM     15  H   UNL A   1      34.852  23.768  22.524  1.00  0.00     0.164 HD
ATOM     16  O   UNL A   1      33.385  24.749  21.673  1.00  0.00    -0.273 OA
BRANCH  14  17
ATOM     17  C   UNL A   1      31.626  24.733  23.387  1.00  0.00     0.177 C 
BRANCH  17  18
ATOM     18  N   UNL A   1      31.144  24.054  24.631  1.00  0.00    -0.309 N 
ATOM     19  C   UNL A   1      31.370  22.835  25.224  1.00  0.00     0.408 C 
ATOM     20  H   UNL A   1      30.515  24.611  25.144  1.00  0.00     0.167 HD
ATOM     21  O   UNL A   1      30.633  22.452  26.131  1.00  0.00    -0.225 OA
BRANCH  19  22
ATOM     22  O   UNL A   1      32.368  22.079  24.698  1.00  0.00    -0.445 OA
BRANCH  22  23
ATOM     23  C   UNL A   1      31.989  21.000  23.807  1.00  0.00     0.270 C 
BRANCH  23  24
ATOM     24  C   UNL A   1      32.849  19.755  23.797  1.00  0.00    -0.011 A 
ATOM     25  C   UNL A   1      33.987  19.638  24.595  1.00  0.00     0.007 A 
ATOM     26  C   UNL A   1      32.425  18.628  23.064  1.00  0.00     0.007 A 
ATOM     27  C   UNL A   1      34.694  18.435  24.656  1.00  0.00     0.000 A 
ATOM     28  C   UNL A   1      33.135  17.425  23.121  1.00  0.00     0.000 A 
ATOM     29  C   UNL A   1      34.270  17.330  23.920  1.00  0.00     0.000 A 
ENDBRANCH  23  24
ENDBRANCH  22  23
ENDBRANCH  19  22
ENDBRANCH  17  18
BRANCH  17  30
ATOM     30  C   UNL A   1      30.917  26.078  23.030  1.00  0.00     0.015 C 
ATOM     31  C   UNL A   1      29.667  26.301  23.891  1.00  0.00     0.010 C 
ATOM     32  C   UNL A   1      31.796  27.339  23.239  1.00  0.00     0.010 C 
ENDBRANCH  17  30
ENDBRANCH  14  17
ENDBRANCH  12  13
ENDBRANCH   9  12
ENDBRANCH   3   8
ENDBRANCH   1   3
BRANCH   1  33
ATOM     33  O   UNL A   1      39.514  21.242  26.194  1.00  0.00    -0.461 OA
BRANCH  33  34
ATOM     34  C   UNL A   1      40.125  19.930  26.163  1.00  0.00     0.274 C 
BRANCH  34  35
ATOM     35  C   UNL A   1      41.652  20.064  26.217  1.00  0.00     0.275 C 
BRANCH  35  36
ATOM     36  O   UNL A   1      42.038  21.329  25.666  1.00  0.00    -0.458 OA
BRANCH  36  37
ATOM     37  C   UNL A   1      43.358  21.414  25.377  1.00  0.00     0.338 C 
ATOM     38  O   UNL A   1      44.031  20.664  24.701  1.00  0.00    -0.246 OA
BRANCH  37  39
ATOM     39  C   UNL A   1      43.852  22.701  25.862  1.00  0.00     0.060 A 
ATOM     40  C   UNL A   1      43.661  23.817  25.045  1.00  0.00     0.016 A 
ATOM     41  C   UNL A   1      44.585  22.780  27.042  1.00  0.00     0.016 A 
ATOM     42  C   UNL A   1      44.270  25.016  25.370  1.00  0.00     0.010 A 
ATOM     43  C   UNL A   1      45.169  23.997  27.385  1.00  0.00     0.010 A 
ATOM     44  C   UNL A   1      45.046  25.108  26.532  1.00  0.00    -0.014 A 
BRANCH  44  45
ATOM     45  C   UNL A   1      45.775  26.363  26.806  1.00  0.00     0.031 A 
ATOM     46  C   UNL A   1      47.185  26.529  26.320  1.00  0.00     0.074 A 
ATOM     47  C   UNL A   1      45.149  27.351  27.471  1.00  0.00     0.049 A 
ATOM     48  N   UNL A   1      48.008  27.527  26.506  1.00  0.00    -0.248 NA
ATOM     49  C   UNL A   1      47.752  25.424  25.527  1.00  0.00     0.031 C 
ATOM     50  C   UNL A   1      43.779  27.288  27.984  1.00  0.00     0.029 A 
ATOM     51  N   UNL A   1      45.588  28.594  27.839  1.00  0.00    -0.354 N 
ATOM     52  C   UNL A   1      49.197  27.158  25.892  1.00  0.00     0.074 A 
ATOM     53  C   UNL A   1      48.998  25.835  25.342  1.00  0.00     0.031 C 
ATOM     54  C   UNL A   1      43.492  28.438  28.609  1.00  0.00     0.029 A 
ATOM     55  C   UNL A   1      44.672  29.295  28.585  1.00  0.00     0.049 A 
ATOM     56  H   UNL A   1      46.473  28.951  27.594  1.00  0.00     0.167 HD
ATOM     57  C   UNL A   1      50.345  27.868  25.782  1.00  0.00     0.034 A 
ATOM     58  C   UNL A   1      44.786  30.480  29.211  1.00  0.00     0.034 A 
ATOM     59  C   UNL A   1      50.518  29.194  26.315  1.00  0.00     0.049 A 
ATOM     60  C   UNL A   1      46.073  31.242  29.078  1.00  0.00     0.074 A 
ATOM     61  C   UNL A   1      51.630  30.013  26.241  1.00  0.00     0.029 A 
ATOM     62  N   UNL A   1      49.554  29.893  27.025  1.00  0.00    -0.354 N 
ATOM     63  N   UNL A   1      47.166  30.914  28.429  1.00  0.00    -0.248 NA
ATOM     64  C   UNL A   1      46.133  32.554  29.733  1.00  0.00     0.031 C 
ATOM     65  C   UNL A   1      51.347  31.197  26.930  1.00  0.00     0.029 A 
ATOM     66  C   UNL A   1      50.045  31.134  27.399  1.00  0.00     0.049 A 
ATOM     67  H   UNL A   1      48.651  29.559  27.233  1.00  0.00     0.167 HD
ATOM     68  C   UNL A   1      48.033  31.989  28.575  1.00  0.00     0.074 A 
ATOM     69  C   UNL A   1      47.321  32.993  29.343  1.00  0.00     0.031 C 
ATOM     70  C   UNL A   1      49.307  32.130  28.134  1.00  0.00     0.034 A 
BRANCH  57  71
ATOM     71  C   UNL A   1      51.494  27.234  25.040  1.00  0.00     0.023 A 
ATOM     72  C   UNL A   1      52.350  26.336  25.709  1.00  0.00     0.012 A 
ATOM     73  C   UNL A   1      51.694  27.486  23.668  1.00  0.00     0.148 A 
ATOM     74  C   UNL A   1      53.406  25.724  25.035  1.00  0.00     0.002 A 
ATOM     75  C   UNL A   1      52.720  26.835  22.991  1.00  0.00     0.091 A 
ATOM     76  F   UNL A   1      50.885  28.358  23.053  1.00  0.00    -0.205 F 
ATOM     77  C   UNL A   1      53.584  25.965  23.676  1.00  0.00     0.022 A 
BRANCH  75  78
ATOM     78  S   UNL A   1      52.987  27.014  21.224  1.00  0.00     0.127 S 
ATOM     79  O   UNL A   1      54.377  26.579  21.089  1.00  0.00    -0.237 OA
ATOM     80  O   UNL A   1      52.001  26.087  20.671  1.00  0.00    -0.237 OA
ATOM     81  O   UNL A   1      52.744  28.418  20.919  1.00  0.00    -0.744 OA
ENDBRANCH  75  78
ENDBRANCH  57  71
BRANCH  58  82
ATOM     82  C   UNL A   1      43.649  31.010  30.011  1.00  0.00     0.023 A 
ATOM     83  C   UNL A   1      42.768  31.950  29.443  1.00  0.00     0.012 A 
ATOM     84  C   UNL A   1      43.424  30.566  31.330  1.00  0.00     0.148 A 
ATOM     85  C   UNL A   1      41.709  32.470  30.189  1.00  0.00     0.002 A 
ATOM     86  C   UNL A   1      42.331  31.039  32.043  1.00  0.00     0.091 A 
ATOM     87  F   UNL A   1      44.280  29.679  31.856  1.00  0.00    -0.205 F 
ATOM     88  C   UNL A   1      41.484  32.006  31.483  1.00  0.00     0.022 A 
BRANCH  86  89
ATOM     89  S   UNL A   1      41.889  30.394  33.660  1.00  0.00     0.127 S 
ATOM     90  O   UNL A   1      42.738  31.190  34.542  1.00  0.00    -0.237 OA
ATOM     91  O   UNL A   1      40.461  30.709  33.730  1.00  0.00    -0.237 OA
ATOM     92  O   UNL A   1      42.185  28.968  33.610  1.00  0.00    -0.744 OA
ENDBRANCH  86  89
ENDBRANCH  58  82
BRANCH  70  93
ATOM     93  C   UNL A   1      49.997  33.433  28.445  1.00  0.00     0.023 A 
ATOM     94  C   UNL A   1      50.737  33.572  29.637  1.00  0.00     0.012 A 
ATOM     95  C   UNL A   1      49.930  34.513  27.543  1.00  0.00     0.148 A 
ATOM     96  C   UNL A   1      51.350  34.785  29.953  1.00  0.00     0.002 A 
ATOM     97  C   UNL A   1      50.591  35.699  27.838  1.00  0.00     0.091 A 
ATOM     98  F   UNL A   1      49.207  34.368  26.422  1.00  0.00    -0.205 F 
ATOM     99  C   UNL A   1      51.285  35.843  29.050  1.00  0.00     0.022 A 
BRANCH  97 100
ATOM    100  S   UNL A   1      50.644  37.080  26.692  1.00  0.00     0.127 S 
ATOM    101  O   UNL A   1      51.532  38.010  27.386  1.00  0.00    -0.237 OA
ATOM    102  O   UNL A   1      51.218  36.465  25.494  1.00  0.00    -0.237 OA
ATOM    103  O   UNL A   1      49.265  37.526  26.538  1.00  0.00    -0.744 OA
ENDBRANCH  97 100
ENDBRANCH  70  93
ENDBRANCH  44  45
ENDBRANCH  37  39
ENDBRANCH  36  37
ENDBRANCH  35  36
ENDBRANCH  34  35
ENDBRANCH  33  34
ENDBRANCH   1  33
TORSDOF 25
ENDMDL
MODEL 2
REMARK VINA RESULT:      -8.9      1.900      7.585
REMARK SMILES CC(C)C[C@H](NC(=O)CNC(=O)[C@@H](NC(=O)OCc1ccccc1)C(C)C)C(=O)OCCOC(=O)c1ccc(-c2c3nc(c(-c4cccc(S(=O)(=O)[O-])c4F)c4ccc([nH]4)c(-c4cccc(S(=O)(=O)[O-])c4F)c4nc(c(-c5cccc(S(=O)(=O)[O-])c5F)c5ccc2[nH]5)C=C4)C=C3)cc1
REMARK SMILES IDX 28 1 29 2 5 3 4 4 2 5 1 6 3 7 6 8 7 9 8 11 9 12 10 13 11 14
REMARK SMILES IDX 12 16 13 17 14 18 15 19 16 21 17 22 18 23 19 24 20 25 24 26
REMARK SMILES IDX 21 27 23 28 22 29 25 30 26 31 27 32 30 33 31 34 32 35 33 36
REMARK SMILES IDX 34 37 35 38 36 39 37 40 98 41 38 42 97 43 39 44 40 45 41 46
REMARK SMILES IDX 91 47 42 48 96 49 90 50 92 51 43 52 95 53 89 54 88 55 44 57
REMARK SMILES IDX 76 58 56 59 75 60 57 61 60 62 74 63 93 64 58 65 59 66 73 68
REMARK SMILES IDX 94 69 61 70 45 71 46 72 54 73 47 74 49 75 55 76 48 77 50 78
REMARK SMILES IDX 51 79 52 80 53 81 77 82 78 83 86 84 79 85 81 86 87 87 80 88
REMARK SMILES IDX 82 89 83 90 84 91 85 92 62 93 63 94 71 95 64 96 66 97 72 98
REMARK SMILES IDX 65 99 67 100 68 101 69 102 70 103
REMARK H PARENT 6 10 10 15 14 20 92 56 60 67
REMARK Flexibility Score: inf
ROOT
ATOM      1  C   UNL A   1      37.954  20.731  25.152  1.00  0.00     0.328 C 
ATOM      2  O   UNL A   1      37.247  19.856  24.671  1.00  0.00    -0.250 OA
ENDROOT
BRANCH   1   3
ATOM      3  C   UNL A   1      37.560  22.278  25.290  1.00  0.00     0.192 C 
BRANCH   3   4
ATOM      4  C   UNL A   1      38.613  23.436  25.372  1.00  0.00     0.040 C 
BRANCH   4   5
ATOM      5  C   UNL A   1      39.458  23.910  26.631  1.00  0.00    -0.015 C 
ATOM      6  C   UNL A   1      38.709  24.612  27.798  1.00  0.00     0.007 C 
ATOM      7  C   UNL A   1      40.066  22.689  27.328  1.00  0.00     0.007 C 
ENDBRANCH   4   5
ENDBRANCH   3   4
BRANCH   3   8
ATOM      8  N   UNL A   1      36.675  22.417  26.393  1.00  0.00    -0.341 N 
ATOM      9  C   UNL A   1      35.534  23.142  26.261  1.00  0.00     0.240 C 
ATOM     10  H   UNL A   1      36.889  21.987  27.253  1.00  0.00     0.164 HD
ATOM     11  O   UNL A   1      34.715  23.111  27.183  1.00  0.00    -0.273 OA
BRANCH   9  12
ATOM     12  C   UNL A   1      35.271  24.005  24.937  1.00  0.00     0.216 C 
BRANCH  12  13
ATOM     13  N   UNL A   1      34.092  24.350  23.971  1.00  0.00    -0.345 N 
ATOM     14  C   UNL A   1      32.850  24.761  23.586  1.00  0.00     0.243 C 
ATOM     15  H   UNL A   1      34.497  24.141  23.099  1.00  0.00     0.164 HD
ATOM     16  O   UNL A   1      32.933  25.071  22.372  1.00  0.00    -0.273 OA
BRANCH  14  17
ATOM     17  C   UNL A   1      31.305  24.957  24.206  1.00  0.00     0.177 C 
BRANCH  17  18
ATOM     18  N   UNL A   1      30.760  23.907  25.123  1.00  0.00    -0.309 N 
ATOM     19  C   UNL A   1      31.081  22.601  25.407  1.00  0.00     0.408 C 
ATOM     20  H   UNL A   1      29.988  24.227  25.645  1.00  0.00     0.167 HD
ATOM     21  O   UNL A   1      30.289  21.902  26.038  1.00  0.00    -0.225 OA
BRANCH  19  22
ATOM     22  O   UNL A   1      32.246  22.135  24.887  1.00  0.00    -0.445 OA
BRANCH  22  23
ATOM     23  C   UNL A   1      32.156  21.186  23.795  1.00  0.00     0.270 C 
BRANCH  23  24
ATOM     24  C   UNL A   1      32.550  19.752  24.070  1.00  0.00    -0.011 A 
ATOM     25  C   UNL A   1      32.791  19.287  25.363  1.00  0.00     0.007 A 
ATOM     26  C   UNL A   1      32.549  18.819  23.012  1.00  0.00     0.007 A 
ATOM     27  C   UNL A   1      33.035  17.932  25.600  1.00  0.00     0.000 A 
ATOM     28  C   UNL A   1      32.798  17.464  23.248  1.00  0.00     0.000 A 
ATOM     29  C   UNL A   1      33.039  17.022  24.545  1.00  0.00     0.000 A 
ENDBRANCH  23  24
ENDBRANCH  22  23
ENDBRANCH  19  22
ENDBRANCH  17  18
BRANCH  17  30
ATOM     30  C   UNL A   1      30.723  26.394  24.398  1.00  0.00     0.015 C 
ATOM     31  C   UNL A   1      29.246  26.462  23.988  1.00  0.00     0.010 C 
ATOM     32  C   UNL A   1      30.773  26.914  25.858  1.00  0.00     0.010 C 
ENDBRANCH  17  30
ENDBRANCH  14  17
ENDBRANCH  12  13
ENDBRANCH   9  12
ENDBRANCH   3   8
ENDBRANCH   1   3
BRANCH   1  33
ATOM     33  O   UNL A   1      39.221  20.517  25.650  1.00  0.00    -0.461 OA
BRANCH  33  34
ATOM     34  C   UNL A   1      39.791  19.205  25.870  1.00  0.00     0.274 C 
BRANCH  34  35
ATOM     35  C   UNL A   1      41.274  19.335  26.240  1.00  0.00     0.275 C 
BRANCH  35  36
ATOM     36  O   UNL A   1      41.894  20.300  25.383  1.00  0.00    -0.458 OA
BRANCH  36  37
ATOM     37  C   UNL A   1      43.243  20.187  25.328  1.00  0.00     0.338 C 
ATOM     38  O   UNL A   1      43.906  19.240  24.960  1.00  0.00    -0.246 OA
BRANCH  37  39
ATOM     39  C   UNL A   1      43.825  21.498  25.612  1.00  0.00     0.060 A 
ATOM     40  C   UNL A   1      44.201  21.768  26.929  1.00  0.00     0.016 A 
ATOM     41  C   UNL A   1      43.891  22.474  24.622  1.00  0.00     0.016 A 
ATOM     42  C   UNL A   1      44.580  23.050  27.284  1.00  0.00     0.010 A 
ATOM     43  C   UNL A   1      44.306  23.756  24.975  1.00  0.00     0.010 A 
ATOM     44  C   UNL A   1      44.614  24.058  26.313  1.00  0.00    -0.014 A 
BRANCH  44  45
ATOM     45  C   UNL A   1      44.917  25.442  26.730  1.00  0.00     0.031 A 
ATOM     46  C   UNL A   1      43.818  26.325  27.243  1.00  0.00     0.074 A 
ATOM     47  C   UNL A   1      46.187  25.881  26.666  1.00  0.00     0.049 A 
ATOM     48  N   UNL A   1      43.870  27.579  27.604  1.00  0.00    -0.248 NA
ATOM     49  C   UNL A   1      42.477  25.724  27.357  1.00  0.00     0.031 C 
ATOM     50  C   UNL A   1      47.327  25.100  26.184  1.00  0.00     0.029 A 
ATOM     51  N   UNL A   1      46.727  27.096  26.995  1.00  0.00    -0.354 N 
ATOM     52  C   UNL A   1      42.571  27.930  27.949  1.00  0.00     0.074 A 
ATOM     53  C   UNL A   1      41.745  26.762  27.737  1.00  0.00     0.031 C 
ATOM     54  C   UNL A   1      48.432  25.857  26.240  1.00  0.00     0.029 A 
ATOM     55  C   UNL A   1      48.068  27.188  26.711  1.00  0.00     0.049 A 
ATOM     56  H   UNL A   1      46.207  27.830  27.396  1.00  0.00     0.167 HD
ATOM     57  C   UNL A   1      42.114  29.115  28.417  1.00  0.00     0.034 A 
ATOM     58  C   UNL A   1      48.900  28.242  26.786  1.00  0.00     0.034 A 
ATOM     59  C   UNL A   1      42.954  30.261  28.646  1.00  0.00     0.049 A 
ATOM     60  C   UNL A   1      48.364  29.546  27.303  1.00  0.00     0.074 A 
ATOM     61  C   UNL A   1      42.599  31.504  29.140  1.00  0.00     0.029 A 
ATOM     62  N   UNL A   1      44.316  30.307  28.391  1.00  0.00    -0.354 N 
ATOM     63  N   UNL A   1      47.148  29.843  27.697  1.00  0.00    -0.248 NA
ATOM     64  C   UNL A   1      49.321  30.653  27.419  1.00  0.00     0.031 C 
ATOM     65  C   UNL A   1      43.743  32.309  29.158  1.00  0.00     0.029 A 
ATOM     66  C   UNL A   1      44.819  31.557  28.714  1.00  0.00     0.049 A 
ATOM     67  H   UNL A   1      44.850  29.560  28.034  1.00  0.00     0.167 HD
ATOM     68  C   UNL A   1      47.200  31.160  28.133  1.00  0.00     0.074 A 
ATOM     69  C   UNL A   1      48.577  31.590  27.988  1.00  0.00     0.031 C 
ATOM     70  C   UNL A   1      46.199  31.952  28.593  1.00  0.00     0.034 A 
BRANCH  57  71
ATOM     71  C   UNL A   1      40.644  29.224  28.734  1.00  0.00     0.023 A 
ATOM     72  C   UNL A   1      39.711  29.384  27.689  1.00  0.00     0.012 A 
ATOM     73  C   UNL A   1      40.181  29.116  30.061  1.00  0.00     0.148 A 
ATOM     74  C   UNL A   1      38.346  29.467  27.960  1.00  0.00     0.002 A 
ATOM     75  C   UNL A   1      38.816  29.152  30.319  1.00  0.00     0.091 A 
ATOM     76  F   UNL A   1      41.083  28.987  31.044  1.00  0.00    -0.205 F 
ATOM     77  C   UNL A   1      37.898  29.340  29.272  1.00  0.00     0.022 A 
BRANCH  75  78
ATOM     78  S   UNL A   1      38.129  28.919  31.962  1.00  0.00     0.127 S 
ATOM     79  O   UNL A   1      38.514  27.538  32.251  1.00  0.00    -0.237 OA
ATOM     80  O   UNL A   1      38.849  29.928  32.739  1.00  0.00    -0.237 OA
ATOM     81  O   UNL A   1      36.697  29.151  31.838  1.00  0.00    -0.744 OA
ENDBRANCH  75  78
ENDBRANCH  57  71
BRANCH  58  82
ATOM     82  C   UNL A   1      50.321  28.098  26.366  1.00  0.00     0.023 A 
ATOM     83  C   UNL A   1      51.316  27.845  27.329  1.00  0.00     0.012 A 
ATOM     84  C   UNL A   1      50.684  28.189  25.008  1.00  0.00     0.148 A 
ATOM     85  C   UNL A   1      52.654  27.727  26.951  1.00  0.00     0.002 A 
ATOM     86  C   UNL A   1      52.009  28.007  24.632  1.00  0.00     0.091 A 
ATOM     87  F   UNL A   1      49.724  28.441  24.108  1.00  0.00    -0.205 F 
ATOM     88  C   UNL A   1      52.999  27.796  25.603  1.00  0.00     0.022 A 
BRANCH  86  89
ATOM     89  S   UNL A   1      52.517  27.942  22.911  1.00  0.00     0.127 S 
ATOM     90  O   UNL A   1      52.019  29.218  22.404  1.00  0.00    -0.237 OA
ATOM     91  O   UNL A   1      53.973  27.852  23.029  1.00  0.00    -0.237 OA
ATOM     92  O   UNL A   1      51.886  26.750  22.358  1.00  0.00    -0.744 OA
ENDBRANCH  86  89
ENDBRANCH  58  82
BRANCH  70  93
ATOM     93  C   UNL A   1      46.572  33.354  29.004  1.00  0.00     0.023 A 
ATOM     94  C   UNL A   1      47.015  33.609  30.317  1.00  0.00     0.012 A 
ATOM     95  C   UNL A   1      46.505  34.413  28.078  1.00  0.00     0.148 A 
ATOM     96  C   UNL A   1      47.330  34.907  30.719  1.00  0.00     0.002 A 
ATOM     97  C   UNL A   1      46.875  35.694  28.470  1.00  0.00     0.091 A 
ATOM     98  F   UNL A   1      46.066  34.155  26.838  1.00  0.00    -0.205 F 
ATOM     99  C   UNL A   1      47.269  35.946  29.794  1.00  0.00     0.022 A 
BRANCH  97 100
ATOM    100  S   UNL A   1      46.922  37.074  27.322  1.00  0.00     0.127 S 
ATOM    101  O   UNL A   1      47.415  38.154  28.174  1.00  0.00    -0.237 OA
ATOM    102  O   UNL A   1      47.876  36.606  26.315  1.00  0.00    -0.237 OA
ATOM    103  O   UNL A   1      45.559  37.234  26.832  1.00  0.00    -0.744 OA
ENDBRANCH  97 100
ENDBRANCH  70  93
ENDBRANCH  44  45
ENDBRANCH  37  39
ENDBRANCH  36  37
ENDBRANCH  35  36
ENDBRANCH  34  35
ENDBRANCH  33  34
ENDBRANCH   1  33
TORSDOF 25
ENDMDL
MODEL 3
REMARK VINA RESULT:      -8.3      3.047      4.900
REMARK SMILES CC(C)C[C@H](NC(=O)CNC(=O)[C@@H](NC(=O)OCc1ccccc1)C(C)C)C(=O)OCCOC(=O)c1ccc(-c2c3nc(c(-c4cccc(S(=O)(=O)[O-])c4F)c4ccc([nH]4)c(-c4cccc(S(=O)(=O)[O-])c4F)c4nc(c(-c5cccc(S(=O)(=O)[O-])c5F)c5ccc2[nH]5)C=C4)C=C3)cc1
REMARK SMILES IDX 28 1 29 2 5 3 4 4 2 5 1 6 3 7 6 8 7 9 8 11 9 12 10 13 11 14
REMARK SMILES IDX 12 16 13 17 14 18 15 19 16 21 17 22 18 23 19 24 20 25 24 26
REMARK SMILES IDX 21 27 23 28 22 29 25 30 26 31 27 32 30 33 31 34 32 35 33 36
REMARK SMILES IDX 34 37 35 38 36 39 37 40 98 41 38 42 97 43 39 44 40 45 41 46
REMARK SMILES IDX 91 47 42 48 96 49 90 50 92 51 43 52 95 53 89 54 88 55 44 57
REMARK SMILES IDX 76 58 56 59 75 60 57 61 60 62 74 63 93 64 58 65 59 66 73 68
REMARK SMILES IDX 94 69 61 70 45 71 46 72 54 73 47 74 49 75 55 76 48 77 50 78
REMARK SMILES IDX 51 79 52 80 53 81 77 82 78 83 86 84 79 85 81 86 87 87 80 88
REMARK SMILES IDX 82 89 83 90 84 91 85 92 62 93 63 94 71 95 64 96 66 97 72 98
REMARK SMILES IDX 65 99 67 100 68 101 69 102 70 103
REMARK H PARENT 6 10 10 15 14 20 92 56 60 67
REMARK Flexibility Score: inf
ROOT
ATOM      1  C   UNL A   1      39.660  21.658  25.931  1.00  0.00     0.328 C 
ATOM      2  O   UNL A   1      39.528  20.445  26.016  1.00  0.00    -0.250 OA
ENDROOT
BRANCH   1   3
ATOM      3  C   UNL A   1      38.466  22.727  25.895  1.00  0.00     0.192 C 
BRANCH   3   4
ATOM      4  C   UNL A   1      38.548  24.140  26.571  1.00  0.00     0.040 C 
BRANCH   4   5
ATOM      5  C   UNL A   1      39.827  24.875  27.162  1.00  0.00    -0.015 C 
ATOM      6  C   UNL A   1      40.675  25.758  26.206  1.00  0.00     0.007 C 
ATOM      7  C   UNL A   1      39.389  25.884  28.228  1.00  0.00     0.007 C 
ENDBRANCH   4   5
ENDBRANCH   3   4
BRANCH   3   8
ATOM      8  N   UNL A   1      37.284  22.091  26.359  1.00  0.00    -0.341 N 
ATOM      9  C   UNL A   1      36.130  22.206  25.651  1.00  0.00     0.240 C 
ATOM     10  H   UNL A   1      37.301  21.568  27.193  1.00  0.00     0.164 HD
ATOM     11  O   UNL A   1      35.167  21.515  25.993  1.00  0.00    -0.273 OA
BRANCH   9  12
ATOM     12  C   UNL A   1      36.039  23.211  24.407  1.00  0.00     0.216 C 
BRANCH  12  13
ATOM     13  N   UNL A   1      35.044  24.257  23.808  1.00  0.00    -0.345 N 
ATOM     14  C   UNL A   1      33.925  25.029  23.715  1.00  0.00     0.243 C 
ATOM     15  H   UNL A   1      35.523  24.524  22.991  1.00  0.00     0.164 HD
ATOM     16  O   UNL A   1      34.198  25.966  22.923  1.00  0.00    -0.273 OA
BRANCH  14  17
ATOM     17  C   UNL A   1      32.354  25.103  24.296  1.00  0.00     0.177 C 
BRANCH  17  18
ATOM     18  N   UNL A   1      32.036  26.076  25.388  1.00  0.00    -0.309 N 
ATOM     19  C   UNL A   1      31.914  27.443  25.468  1.00  0.00     0.408 C 
ATOM     20  H   UNL A   1      31.880  25.633  26.253  1.00  0.00     0.167 HD
ATOM     21  O   UNL A   1      31.884  27.989  26.570  1.00  0.00    -0.225 OA
BRANCH  19  22
ATOM     22  O   UNL A   1      31.916  28.123  24.293  1.00  0.00    -0.445 OA
BRANCH  22  23
ATOM     23  C   UNL A   1      31.484  29.507  24.322  1.00  0.00     0.270 C 
BRANCH  23  24
ATOM     24  C   UNL A   1      30.080  29.820  23.857  1.00  0.00    -0.011 A 
ATOM     25  C   UNL A   1      29.505  31.078  24.039  1.00  0.00     0.007 A 
ATOM     26  C   UNL A   1      29.371  28.863  23.101  1.00  0.00     0.007 A 
ATOM     27  C   UNL A   1      28.254  31.376  23.495  1.00  0.00     0.000 A 
ATOM     28  C   UNL A   1      28.117  29.160  22.561  1.00  0.00     0.000 A 
ATOM     29  C   UNL A   1      27.560  30.419  22.758  1.00  0.00     0.000 A 
ENDBRANCH  23  24
ENDBRANCH  22  23
ENDBRANCH  19  22
ENDBRANCH  17  18
BRANCH  17  30
ATOM     30  C   UNL A   1      31.162  24.719  23.362  1.00  0.00     0.015 C 
ATOM     31  C   UNL A   1      30.913  23.204  23.362  1.00  0.00     0.010 C 
ATOM     32  C   UNL A   1      29.808  25.362  23.758  1.00  0.00     0.010 C 
ENDBRANCH  17  30
ENDBRANCH  14  17
ENDBRANCH  12  13
ENDBRANCH   9  12
ENDBRANCH   3   8
ENDBRANCH   1   3
BRANCH   1  33
ATOM     33  O   UNL A   1      40.877  22.301  25.845  1.00  0.00    -0.461 OA
BRANCH  33  34
ATOM     34  C   UNL A   1      42.147  21.668  26.130  1.00  0.00     0.274 C 
BRANCH  34  35
ATOM     35  C   UNL A   1      42.980  22.563  27.055  1.00  0.00     0.275 C 
BRANCH  35  36
ATOM     36  O   UNL A   1      43.860  23.372  26.267  1.00  0.00    -0.458 OA
BRANCH  36  37
ATOM     37  C   UNL A   1      45.154  22.971  26.316  1.00  0.00     0.338 C 
ATOM     38  O   UNL A   1      45.591  21.842  26.383  1.00  0.00    -0.246 OA
BRANCH  37  39
ATOM     39  C   UNL A   1      46.004  24.137  26.077  1.00  0.00     0.060 A 
ATOM     40  C   UNL A   1      46.955  24.453  27.048  1.00  0.00     0.016 A 
ATOM     41  C   UNL A   1      45.787  24.959  24.975  1.00  0.00     0.016 A 
ATOM     42  C   UNL A   1      47.653  25.645  26.961  1.00  0.00     0.010 A 
ATOM     43  C   UNL A   1      46.515  26.142  24.872  1.00  0.00     0.010 A 
ATOM     44  C   UNL A   1      47.421  26.507  25.883  1.00  0.00    -0.014 A 
BRANCH  44  45
ATOM     45  C   UNL A   1      48.095  27.822  25.862  1.00  0.00     0.031 A 
ATOM     46  C   UNL A   1      49.508  27.928  25.370  1.00  0.00     0.074 A 
ATOM     47  C   UNL A   1      47.416  28.912  26.264  1.00  0.00     0.049 A 
ATOM     48  N   UNL A   1      50.288  28.975  25.325  1.00  0.00    -0.248 NA
ATOM     49  C   UNL A   1      50.136  26.692  24.870  1.00  0.00     0.031 C 
ATOM     50  C   UNL A   1      46.038  28.913  26.759  1.00  0.00     0.029 A 
ATOM     51  N   UNL A   1      47.799  30.224  26.333  1.00  0.00    -0.354 N 
ATOM     52  C   UNL A   1      51.505  28.522  24.833  1.00  0.00     0.074 A 
ATOM     53  C   UNL A   1      51.369  27.100  24.609  1.00  0.00     0.031 C 
ATOM     54  C   UNL A   1      45.693  30.166  27.089  1.00  0.00     0.029 A 
ATOM     55  C   UNL A   1      46.840  31.041  26.878  1.00  0.00     0.049 A 
ATOM     56  H   UNL A   1      48.675  30.550  26.022  1.00  0.00     0.167 HD
ATOM     57  C   UNL A   1      52.627  29.234  24.574  1.00  0.00     0.034 A 
ATOM     58  C   UNL A   1      46.894  32.345  27.207  1.00  0.00     0.034 A 
ATOM     59  C   UNL A   1      52.737  30.654  24.779  1.00  0.00     0.049 A 
ATOM     60  C   UNL A   1      48.154  33.108  26.915  1.00  0.00     0.074 A 
ATOM     61  C   UNL A   1      53.819  31.479  24.528  1.00  0.00     0.029 A 
ATOM     62  N   UNL A   1      51.731  31.461  25.289  1.00  0.00    -0.354 N 
ATOM     63  N   UNL A   1      49.273  32.682  26.377  1.00  0.00    -0.248 NA
ATOM     64  C   UNL A   1      48.149  34.539  27.241  1.00  0.00     0.031 C 
ATOM     65  C   UNL A   1      53.475  32.780  24.912  1.00  0.00     0.029 A 
ATOM     66  C   UNL A   1      52.165  32.774  25.364  1.00  0.00     0.049 A 
ATOM     67  H   UNL A   1      50.837  31.147  25.557  1.00  0.00     0.167 HD
ATOM     68  C   UNL A   1      50.095  33.797  26.276  1.00  0.00     0.074 A 
ATOM     69  C   UNL A   1      49.328  34.923  26.774  1.00  0.00     0.031 C 
ATOM     70  C   UNL A   1      51.374  33.883  25.832  1.00  0.00     0.034 A 
BRANCH  57  71
ATOM     71  C   UNL A   1      53.816  28.492  24.019  1.00  0.00     0.023 A 
ATOM     72  C   UNL A   1      54.795  27.981  24.896  1.00  0.00     0.012 A 
ATOM     73  C   UNL A   1      53.939  28.254  22.636  1.00  0.00     0.148 A 
ATOM     74  C   UNL A   1      55.892  27.274  24.404  1.00  0.00     0.002 A 
ATOM     75  C   UNL A   1      55.010  27.508  22.157  1.00  0.00     0.091 A 
ATOM     76  F   UNL A   1      53.012  28.766  21.814  1.00  0.00    -0.205 F 
ATOM     77  C   UNL A   1      55.994  27.029  23.038  1.00  0.00     0.022 A 
BRANCH  75  78
ATOM     78  S   UNL A   1      55.193  27.068  20.426  1.00  0.00     0.127 S 
ATOM     79  O   UNL A   1      53.875  26.513  20.120  1.00  0.00    -0.237 OA
ATOM     80  O   UNL A   1      55.466  28.366  19.808  1.00  0.00    -0.237 OA
ATOM     81  O   UNL A   1      56.296  26.119  20.364  1.00  0.00    -0.744 OA
ENDBRANCH  75  78
ENDBRANCH  57  71
BRANCH  58  82
ATOM     82  C   UNL A   1      45.719  33.000  27.843  1.00  0.00     0.023 A 
ATOM     83  C   UNL A   1      45.473  32.822  29.217  1.00  0.00     0.012 A 
ATOM     84  C   UNL A   1      44.855  33.821  27.090  1.00  0.00     0.148 A 
ATOM     85  C   UNL A   1      44.364  33.415  29.822  1.00  0.00     0.002 A 
ATOM     86  C   UNL A   1      43.791  34.460  27.712  1.00  0.00     0.091 A 
ATOM     87  F   UNL A   1      45.100  33.969  25.781  1.00  0.00    -0.205 F 
ATOM     88  C   UNL A   1      43.531  34.243  29.073  1.00  0.00     0.022 A 
BRANCH  86  89
ATOM     89  S   UNL A   1      42.753  35.649  26.855  1.00  0.00     0.127 S 
ATOM     90  O   UNL A   1      41.568  35.680  27.708  1.00  0.00    -0.237 OA
ATOM     91  O   UNL A   1      43.577  36.858  26.901  1.00  0.00    -0.237 OA
ATOM     92  O   UNL A   1      42.557  35.108  25.516  1.00  0.00    -0.744 OA
ENDBRANCH  86  89
ENDBRANCH  58  82
BRANCH  70  93
ATOM     93  C   UNL A   1      52.006  35.252  25.834  1.00  0.00     0.023 A 
ATOM     94  C   UNL A   1      51.907  36.076  24.695  1.00  0.00     0.012 A 
ATOM     95  C   UNL A   1      52.678  35.728  26.976  1.00  0.00     0.148 A 
ATOM     96  C   UNL A   1      52.518  37.330  24.672  1.00  0.00     0.002 A 
ATOM     97  C   UNL A   1      53.234  37.002  26.967  1.00  0.00     0.091 A 
ATOM     98  F   UNL A   1      52.776  34.924  28.045  1.00  0.00    -0.205 F 
ATOM     99  C   UNL A   1      53.172  37.795  25.810  1.00  0.00     0.022 A 
BRANCH  97 100
ATOM    100  S   UNL A   1      54.010  37.722  28.417  1.00  0.00     0.127 S 
ATOM    101  O   UNL A   1      52.925  37.669  29.394  1.00  0.00    -0.237 OA
ATOM    102  O   UNL A   1      55.110  36.791  28.674  1.00  0.00    -0.237 OA
ATOM    103  O   UNL A   1      54.434  39.060  28.022  1.00  0.00    -0.744 OA
ENDBRANCH  97 100
ENDBRANCH  70  93
ENDBRANCH  44  45
ENDBRANCH  37  39
ENDBRANCH  36  37
ENDBRANCH  35  36
ENDBRANCH  34  35
ENDBRANCH  33  34
ENDBRANCH   1  33
TORSDOF 25
ENDMDL
