MODEL 1
REMARK VINA RESULT:     -11.6      0.000      0.000
REMARK SMILES C[C@H](Oc1ccc(C(=O)NCc2ccccc2)cc1)C(=O)OCCOC(=O)c1ccc(-c2c3nc(c(-c4cccc(S(=O)(=O)[O-])c4F)c4ccc([nH]4)c(-c4cccc(S(=O)(=O)[O-])c4F)c4nc(c(-c5cccc(S(=O)(=O)[O-])c5F)c5ccc2[nH]5)C=C4)C=C3)cc1
REMARK SMILES IDX 23 1 22 2 20 3 21 4 2 5 1 6 3 7 4 8 5 9 19 10 6 11 18 12
REMARK SMILES IDX 7 13 8 14 9 15 10 16 11 18 12 19 13 20 17 21 14 22 16 23
REMARK SMILES IDX 15 24 24 25 25 26 26 27 27 28 28 29 29 30 90 31 30 32 89 33
REMARK SMILES IDX 31 34 32 35 33 36 83 37 34 38 88 39 82 40 84 41 35 42 87 43
REMARK SMILES IDX 81 44 80 45 36 47 68 48 48 49 67 50 49 51 52 52 66 53 85 54
REMARK SMILES IDX 50 55 51 56 65 58 86 59 53 60 37 61 38 62 46 63 39 64 41 65
REMARK SMILES IDX 47 66 40 67 42 68 43 69 44 70 45 71 69 72 70 73 78 74 71 75
REMARK SMILES IDX 73 76 79 77 72 78 74 79 75 80 76 81 77 82 54 83 55 84 63 85
REMARK SMILES IDX 56 86 58 87 64 88 57 89 59 90 60 91 61 92 62 93
REMARK H PARENT 10 17 84 46 52 57
REMARK Flexibility Score: inf
ROOT
ATOM      1  C   UNL A   1      31.082  29.482  24.502  1.00  0.00     0.274 C 
ENDROOT
BRANCH   1   2
ATOM      2  O   UNL A   1      32.074  28.529  24.076  1.00  0.00    -0.459 OA
BRANCH   2   3
ATOM      3  C   UNL A   1      31.678  27.605  23.153  1.00  0.00     0.347 C 
ATOM      4  O   UNL A   1      30.778  27.774  22.338  1.00  0.00    -0.248 OA
BRANCH   3   5
ATOM      5  C   UNL A   1      32.424  26.277  23.312  1.00  0.00     0.279 C 
ATOM      6  C   UNL A   1      33.700  26.390  22.476  1.00  0.00     0.066 C 
BRANCH   5   7
ATOM      7  O   UNL A   1      31.538  25.223  22.933  1.00  0.00    -0.479 OA
BRANCH   7   8
ATOM      8  C   UNL A   1      31.603  24.003  23.533  1.00  0.00     0.120 A 
ATOM      9  C   UNL A   1      31.060  23.660  24.765  1.00  0.00     0.047 A 
ATOM     10  C   UNL A   1      32.333  23.052  22.818  1.00  0.00     0.047 A 
ATOM     11  C   UNL A   1      31.354  22.410  25.326  1.00  0.00     0.017 A 
ATOM     12  C   UNL A   1      32.629  21.803  23.376  1.00  0.00     0.017 A 
ATOM     13  C   UNL A   1      32.156  21.476  24.647  1.00  0.00     0.040 A 
BRANCH  13  14
ATOM     14  C   UNL A   1      32.558  20.257  25.400  1.00  0.00     0.251 C 
ATOM     15  O   UNL A   1      32.138  19.162  25.021  1.00  0.00    -0.269 OA
ATOM     16  N   UNL A   1      33.363  20.274  26.506  1.00  0.00    -0.348 N 
ATOM     17  H   UNL A   1      33.458  19.396  26.942  1.00  0.00     0.164 HD
BRANCH  16  18
ATOM     18  C   UNL A   1      34.100  21.334  27.159  1.00  0.00     0.152 C 
BRANCH  18  19
ATOM     19  C   UNL A   1      35.081  22.044  26.251  1.00  0.00    -0.029 A 
ATOM     20  C   UNL A   1      36.172  21.397  25.646  1.00  0.00     0.005 A 
ATOM     21  C   UNL A   1      34.906  23.415  26.010  1.00  0.00     0.005 A 
ATOM     22  C   UNL A   1      37.059  22.102  24.829  1.00  0.00     0.000 A 
ATOM     23  C   UNL A   1      35.793  24.119  25.192  1.00  0.00     0.000 A 
ATOM     24  C   UNL A   1      36.869  23.462  24.601  1.00  0.00     0.000 A 
ENDBRANCH  18  19
ENDBRANCH  16  18
ENDBRANCH  13  14
ENDBRANCH   7   8
ENDBRANCH   5   7
ENDBRANCH   3   5
ENDBRANCH   2   3
ENDBRANCH   1   2
BRANCH   1  25
ATOM     25  C   UNL A   1      31.405  30.067  25.878  1.00  0.00     0.275 C 
BRANCH  25  26
ATOM     26  O   UNL A   1      32.813  30.308  26.034  1.00  0.00    -0.458 OA
BRANCH  26  27
ATOM     27  C   UNL A   1      33.136  31.294  26.900  1.00  0.00     0.338 C 
ATOM     28  O   UNL A   1      32.434  32.239  27.234  1.00  0.00    -0.246 OA
BRANCH  27  29
ATOM     29  C   UNL A   1      34.441  31.009  27.514  1.00  0.00     0.060 A 
ATOM     30  C   UNL A   1      34.742  29.681  27.837  1.00  0.00     0.016 A 
ATOM     31  C   UNL A   1      35.331  32.038  27.826  1.00  0.00     0.016 A 
ATOM     32  C   UNL A   1      35.936  29.377  28.488  1.00  0.00     0.010 A 
ATOM     33  C   UNL A   1      36.523  31.732  28.485  1.00  0.00     0.010 A 
ATOM     34  C   UNL A   1      36.821  30.404  28.838  1.00  0.00    -0.014 A 
BRANCH  34  35
ATOM     35  C   UNL A   1      38.025  30.107  29.647  1.00  0.00     0.031 A 
ATOM     36  C   UNL A   1      39.042  29.135  29.122  1.00  0.00     0.074 A 
ATOM     37  C   UNL A   1      38.186  30.679  30.854  1.00  0.00     0.049 A 
ATOM     38  N   UNL A   1      40.114  28.666  29.703  1.00  0.00    -0.248 NA
ATOM     39  C   UNL A   1      38.816  28.617  27.762  1.00  0.00     0.031 C 
ATOM     40  C   UNL A   1      37.267  31.639  31.462  1.00  0.00     0.029 A 
ATOM     41  N   UNL A   1      39.170  30.510  31.796  1.00  0.00    -0.354 N 
ATOM     42  C   UNL A   1      40.671  27.769  28.800  1.00  0.00     0.074 A 
ATOM     43  C   UNL A   1      39.818  27.759  27.631  1.00  0.00     0.031 C 
ATOM     44  C   UNL A   1      37.714  31.952  32.690  1.00  0.00     0.029 A 
ATOM     45  C   UNL A   1      38.932  31.194  32.964  1.00  0.00     0.049 A 
ATOM     46  H   UNL A   1      39.968  29.952  31.649  1.00  0.00     0.167 HD
ATOM     47  C   UNL A   1      41.799  27.031  28.928  1.00  0.00     0.034 A 
ATOM     48  C   UNL A   1      39.606  31.185  34.131  1.00  0.00     0.034 A 
ATOM     49  C   UNL A   1      42.659  27.069  30.080  1.00  0.00     0.049 A 
ATOM     50  C   UNL A   1      40.854  30.352  34.251  1.00  0.00     0.074 A 
ATOM     51  C   UNL A   1      43.848  26.393  30.289  1.00  0.00     0.029 A 
ATOM     52  N   UNL A   1      42.420  27.821  31.220  1.00  0.00    -0.354 N 
ATOM     53  N   UNL A   1      41.427  29.590  33.349  1.00  0.00    -0.248 NA
ATOM     54  C   UNL A   1      41.565  30.396  35.537  1.00  0.00     0.031 C 
ATOM     55  C   UNL A   1      44.320  26.726  31.563  1.00  0.00     0.029 A 
ATOM     56  C   UNL A   1      43.435  27.623  32.140  1.00  0.00     0.049 A 
ATOM     57  H   UNL A   1      41.642  28.410  31.355  1.00  0.00     0.167 HD
ATOM     58  C   UNL A   1      42.580  29.092  33.945  1.00  0.00     0.074 A 
ATOM     59  C   UNL A   1      42.634  29.654  35.281  1.00  0.00     0.031 C 
ATOM     60  C   UNL A   1      43.503  28.236  33.442  1.00  0.00     0.034 A 
BRANCH  47  61
ATOM     61  C   UNL A   1      42.182  26.140  27.778  1.00  0.00     0.023 A 
ATOM     62  C   UNL A   1      43.033  26.634  26.768  1.00  0.00     0.012 A 
ATOM     63  C   UNL A   1      41.736  24.806  27.715  1.00  0.00     0.148 A 
ATOM     64  C   UNL A   1      43.410  25.824  25.698  1.00  0.00     0.002 A 
ATOM     65  C   UNL A   1      42.148  23.991  26.665  1.00  0.00     0.091 A 
ATOM     66  F   UNL A   1      40.904  24.361  28.668  1.00  0.00    -0.205 F 
ATOM     67  C   UNL A   1      42.976  24.501  25.652  1.00  0.00     0.022 A 
BRANCH  65  68
ATOM     68  S   UNL A   1      41.695  22.256  26.558  1.00  0.00     0.127 S 
ATOM     69  O   UNL A   1      42.390  21.844  25.340  1.00  0.00    -0.237 OA
ATOM     70  O   UNL A   1      42.258  21.711  27.794  1.00  0.00    -0.237 OA
ATOM     71  O   UNL A   1      40.241  22.227  26.493  1.00  0.00    -0.744 OA
ENDBRANCH  65  68
ENDBRANCH  47  61
BRANCH  48  72
ATOM     72  C   UNL A   1      39.132  32.028  35.264  1.00  0.00     0.023 A 
ATOM     73  C   UNL A   1      38.231  31.485  36.200  1.00  0.00     0.012 A 
ATOM     74  C   UNL A   1      39.596  33.347  35.441  1.00  0.00     0.148 A 
ATOM     75  C   UNL A   1      37.783  32.248  37.280  1.00  0.00     0.002 A 
ATOM     76  C   UNL A   1      39.187  34.082  36.548  1.00  0.00     0.091 A 
ATOM     77  F   UNL A   1      40.438  33.852  34.528  1.00  0.00    -0.205 F 
ATOM     78  C   UNL A   1      38.270  33.540  37.461  1.00  0.00     0.022 A 
BRANCH  76  79
ATOM     79  S   UNL A   1      39.859  35.704  36.929  1.00  0.00     0.127 S 
ATOM     80  O   UNL A   1      41.248  35.384  37.251  1.00  0.00    -0.237 OA
ATOM     81  O   UNL A   1      39.670  36.415  35.665  1.00  0.00    -0.237 OA
ATOM     82  O   UNL A   1      39.054  36.214  38.030  1.00  0.00    -0.744 OA
ENDBRANCH  76  79
ENDBRANCH  48  72
BRANCH  60  83
ATOM     83  C   UNL A   1      44.675  27.874  34.316  1.00  0.00     0.023 A 
ATOM     84  C   UNL A   1      45.845  28.656  34.272  1.00  0.00     0.012 A 
ATOM     85  C   UNL A   1      44.583  26.815  35.241  1.00  0.00     0.148 A 
ATOM     86  C   UNL A   1      46.917  28.375  35.119  1.00  0.00     0.002 A 
ATOM     87  C   UNL A   1      45.636  26.569  36.113  1.00  0.00     0.091 A 
ATOM     88  F   UNL A   1      43.468  26.070  35.252  1.00  0.00    -0.205 F 
ATOM     89  C   UNL A   1      46.808  27.341  36.047  1.00  0.00     0.022 A 
BRANCH  87  90
ATOM     90  S   UNL A   1      45.544  25.319  37.400  1.00  0.00     0.127 S 
ATOM     91  O   UNL A   1      46.851  25.453  38.041  1.00  0.00    -0.237 OA
ATOM     92  O   UNL A   1      44.417  25.785  38.209  1.00  0.00    -0.237 OA
ATOM     93  O   UNL A   1      45.309  24.056  36.713  1.00  0.00    -0.744 OA
ENDBRANCH  87  90
ENDBRANCH  60  83
ENDBRANCH  34  35
ENDBRANCH  27  29
ENDBRANCH  26  27
ENDBRANCH  25  26
ENDBRANCH   1  25
TORSDOF 19
ENDMDL
MODEL 2
REMARK VINA RESULT:     -11.6      4.375     10.680
REMARK SMILES C[C@H](Oc1ccc(C(=O)NCc2ccccc2)cc1)C(=O)OCCOC(=O)c1ccc(-c2c3nc(c(-c4cccc(S(=O)(=O)[O-])c4F)c4ccc([nH]4)c(-c4cccc(S(=O)(=O)[O-])c4F)c4nc(c(-c5cccc(S(=O)(=O)[O-])c5F)c5ccc2[nH]5)C=C4)C=C3)cc1
REMARK SMILES IDX 23 1 22 2 20 3 21 4 2 5 1 6 3 7 4 8 5 9 19 10 6 11 18 12
REMARK SMILES IDX 7 13 8 14 9 15 10 16 11 18 12 19 13 20 17 21 14 22 16 23
REMARK SMILES IDX 15 24 24 25 25 26 26 27 27 28 28 29 29 30 90 31 30 32 89 33
REMARK SMILES IDX 31 34 32 35 33 36 83 37 34 38 88 39 82 40 84 41 35 42 87 43
REMARK SMILES IDX 81 44 80 45 36 47 68 48 48 49 67 50 49 51 52 52 66 53 85 54
REMARK SMILES IDX 50 55 51 56 65 58 86 59 53 60 37 61 38 62 46 63 39 64 41 65
REMARK SMILES IDX 47 66 40 67 42 68 43 69 44 70 45 71 69 72 70 73 78 74 71 75
REMARK SMILES IDX 73 76 79 77 72 78 74 79 75 80 76 81 77 82 54 83 55 84 63 85
REMARK SMILES IDX 56 86 58 87 64 88 57 89 59 90 60 91 61 92 62 93
REMARK H PARENT 10 17 84 46 52 57
REMARK Flexibility Score: inf
ROOT
ATOM      1  C   UNL A   1      33.218  34.636  28.623  1.00  0.00     0.274 C 
ENDROOT
BRANCH   1   2
ATOM      2  O   UNL A   1      33.131  34.604  30.060  1.00  0.00    -0.459 OA
BRANCH   2   3
ATOM      3  C   UNL A   1      33.003  35.806  30.693  1.00  0.00     0.347 C 
ATOM      4  O   UNL A   1      32.898  36.887  30.123  1.00  0.00    -0.248 OA
BRANCH   3   5
ATOM      5  C   UNL A   1      33.107  35.669  32.215  1.00  0.00     0.279 C 
ATOM      6  C   UNL A   1      34.253  36.581  32.658  1.00  0.00     0.066 C 
BRANCH   5   7
ATOM      7  O   UNL A   1      33.275  34.285  32.525  1.00  0.00    -0.479 OA
BRANCH   7   8
ATOM      8  C   UNL A   1      34.343  33.853  33.249  1.00  0.00     0.120 A 
ATOM      9  C   UNL A   1      34.822  34.413  34.426  1.00  0.00     0.047 A 
ATOM     10  C   UNL A   1      35.014  32.765  32.687  1.00  0.00     0.047 A 
ATOM     11  C   UNL A   1      36.033  33.960  34.965  1.00  0.00     0.017 A 
ATOM     12  C   UNL A   1      36.224  32.310  33.222  1.00  0.00     0.017 A 
ATOM     13  C   UNL A   1      36.756  32.917  34.360  1.00  0.00     0.040 A 
BRANCH  13  14
ATOM     14  C   UNL A   1      38.112  32.631  34.902  1.00  0.00     0.251 C 
ATOM     15  O   UNL A   1      38.287  31.591  35.539  1.00  0.00    -0.269 OA
ATOM     16  N   UNL A   1      39.186  33.464  34.749  1.00  0.00    -0.348 N 
ATOM     17  H   UNL A   1      39.986  33.177  35.246  1.00  0.00     0.164 HD
BRANCH  16  18
ATOM     18  C   UNL A   1      39.371  34.688  33.999  1.00  0.00     0.152 C 
BRANCH  18  19
ATOM     19  C   UNL A   1      39.488  34.475  32.505  1.00  0.00    -0.029 A 
ATOM     20  C   UNL A   1      38.389  34.547  31.632  1.00  0.00     0.005 A 
ATOM     21  C   UNL A   1      40.747  34.178  31.963  1.00  0.00     0.005 A 
ATOM     22  C   UNL A   1      38.547  34.326  30.262  1.00  0.00     0.000 A 
ATOM     23  C   UNL A   1      40.905  33.958  30.592  1.00  0.00     0.000 A 
ATOM     24  C   UNL A   1      39.804  34.033  29.742  1.00  0.00     0.000 A 
ENDBRANCH  18  19
ENDBRANCH  16  18
ENDBRANCH  13  14
ENDBRANCH   7   8
ENDBRANCH   5   7
ENDBRANCH   3   5
ENDBRANCH   2   3
ENDBRANCH   1   2
BRANCH   1  25
ATOM     25  C   UNL A   1      34.381  33.791  28.101  1.00  0.00     0.275 C 
BRANCH  25  26
ATOM     26  O   UNL A   1      34.607  32.635  28.924  1.00  0.00    -0.458 OA
BRANCH  26  27
ATOM     27  C   UNL A   1      34.624  31.455  28.266  1.00  0.00     0.338 C 
ATOM     28  O   UNL A   1      33.819  31.066  27.430  1.00  0.00    -0.246 OA
BRANCH  27  29
ATOM     29  C   UNL A   1      35.851  30.718  28.600  1.00  0.00     0.060 A 
ATOM     30  C   UNL A   1      35.823  29.850  29.698  1.00  0.00     0.016 A 
ATOM     31  C   UNL A   1      37.033  30.924  27.884  1.00  0.00     0.016 A 
ATOM     32  C   UNL A   1      36.984  29.190  30.093  1.00  0.00     0.010 A 
ATOM     33  C   UNL A   1      38.197  30.267  28.288  1.00  0.00     0.010 A 
ATOM     34  C   UNL A   1      38.183  29.414  29.405  1.00  0.00    -0.014 A 
BRANCH  34  35
ATOM     35  C   UNL A   1      39.447  28.824  29.900  1.00  0.00     0.031 A 
ATOM     36  C   UNL A   1      40.115  29.422  31.106  1.00  0.00     0.074 A 
ATOM     37  C   UNL A   1      40.006  27.784  29.255  1.00  0.00     0.049 A 
ATOM     38  N   UNL A   1      41.265  29.120  31.648  1.00  0.00    -0.248 NA
ATOM     39  C   UNL A   1      39.392  30.508  31.787  1.00  0.00     0.031 C 
ATOM     40  C   UNL A   1      39.445  27.122  28.079  1.00  0.00     0.029 A 
ATOM     41  N   UNL A   1      41.187  27.123  29.486  1.00  0.00    -0.354 N 
ATOM     42  C   UNL A   1      41.425  30.003  32.708  1.00  0.00     0.074 A 
ATOM     43  C   UNL A   1      40.254  30.853  32.734  1.00  0.00     0.031 C 
ATOM     44  C   UNL A   1      40.298  26.166  27.670  1.00  0.00     0.029 A 
ATOM     45  C   UNL A   1      41.473  26.171  28.537  1.00  0.00     0.049 A 
ATOM     46  H   UNL A   1      41.771  27.313  30.255  1.00  0.00     0.167 HD
ATOM     47  C   UNL A   1      42.449  30.089  33.590  1.00  0.00     0.034 A 
ATOM     48  C   UNL A   1      42.573  25.409  28.372  1.00  0.00     0.034 A 
ATOM     49  C   UNL A   1      43.596  29.221  33.578  1.00  0.00     0.049 A 
ATOM     50  C   UNL A   1      43.702  25.527  29.362  1.00  0.00     0.074 A 
ATOM     51  C   UNL A   1      44.667  29.197  34.454  1.00  0.00     0.029 A 
ATOM     52  N   UNL A   1      43.824  28.226  32.640  1.00  0.00    -0.354 N 
ATOM     53  N   UNL A   1      43.792  26.294  30.423  1.00  0.00    -0.248 NA
ATOM     54  C   UNL A   1      44.868  24.658  29.150  1.00  0.00     0.031 C 
ATOM     55  C   UNL A   1      45.550  28.196  34.036  1.00  0.00     0.029 A 
ATOM     56  C   UNL A   1      45.020  27.585  32.910  1.00  0.00     0.049 A 
ATOM     57  H   UNL A   1      43.223  28.007  31.891  1.00  0.00     0.167 HD
ATOM     58  C   UNL A   1      45.005  25.976  31.022  1.00  0.00     0.074 A 
ATOM     59  C   UNL A   1      45.608  24.934  30.216  1.00  0.00     0.031 C 
ATOM     60  C   UNL A   1      45.577  26.508  32.131  1.00  0.00     0.034 A 
BRANCH  47  61
ATOM     61  C   UNL A   1      42.360  31.143  34.660  1.00  0.00     0.023 A 
ATOM     62  C   UNL A   1      41.755  30.831  35.895  1.00  0.00     0.012 A 
ATOM     63  C   UNL A   1      42.908  32.425  34.462  1.00  0.00     0.148 A 
ATOM     64  C   UNL A   1      41.671  31.787  36.905  1.00  0.00     0.002 A 
ATOM     65  C   UNL A   1      42.854  33.362  35.489  1.00  0.00     0.091 A 
ATOM     66  F   UNL A   1      43.454  32.713  33.272  1.00  0.00    -0.205 F 
ATOM     67  C   UNL A   1      42.228  33.048  36.707  1.00  0.00     0.022 A 
BRANCH  65  68
ATOM     68  S   UNL A   1      43.605  34.987  35.349  1.00  0.00     0.127 S 
ATOM     69  O   UNL A   1      43.438  35.508  36.705  1.00  0.00    -0.237 OA
ATOM     70  O   UNL A   1      44.986  34.662  34.987  1.00  0.00    -0.237 OA
ATOM     71  O   UNL A   1      42.857  35.683  34.311  1.00  0.00    -0.744 OA
ENDBRANCH  65  68
ENDBRANCH  47  61
BRANCH  48  72
ATOM     72  C   UNL A   1      42.638  24.439  27.244  1.00  0.00     0.023 A 
ATOM     73  C   UNL A   1      43.294  24.806  26.053  1.00  0.00     0.012 A 
ATOM     74  C   UNL A   1      42.089  23.146  27.356  1.00  0.00     0.148 A 
ATOM     75  C   UNL A   1      43.383  23.910  24.986  1.00  0.00     0.002 A 
ATOM     76  C   UNL A   1      42.228  22.242  26.310  1.00  0.00     0.091 A 
ATOM     77  F   UNL A   1      41.451  22.823  28.490  1.00  0.00    -0.205 F 
ATOM     78  C   UNL A   1      42.862  22.626  25.118  1.00  0.00     0.022 A 
BRANCH  76  79
ATOM     79  S   UNL A   1      41.700  20.529  26.441  1.00  0.00     0.127 S 
ATOM     80  O   UNL A   1      42.430  19.906  25.339  1.00  0.00    -0.237 OA
ATOM     81  O   UNL A   1      42.174  20.167  27.776  1.00  0.00    -0.237 OA
ATOM     82  O   UNL A   1      40.249  20.554  26.306  1.00  0.00    -0.744 OA
ENDBRANCH  76  79
ENDBRANCH  48  72
BRANCH  60  83
ATOM     83  C   UNL A   1      46.909  25.956  32.567  1.00  0.00     0.023 A 
ATOM     84  C   UNL A   1      48.096  26.533  32.076  1.00  0.00     0.012 A 
ATOM     85  C   UNL A   1      46.983  24.928  33.527  1.00  0.00     0.148 A 
ATOM     86  C   UNL A   1      49.339  26.078  32.516  1.00  0.00     0.002 A 
ATOM     87  C   UNL A   1      48.223  24.510  33.994  1.00  0.00     0.091 A 
ATOM     88  F   UNL A   1      45.841  24.378  33.966  1.00  0.00    -0.205 F 
ATOM     89  C   UNL A   1      49.403  25.077  33.483  1.00  0.00     0.022 A 
BRANCH  87  90
ATOM     90  S   UNL A   1      48.393  23.293  35.306  1.00  0.00     0.127 S 
ATOM     91  O   UNL A   1      47.646  23.921  36.394  1.00  0.00    -0.237 OA
ATOM     92  O   UNL A   1      47.750  22.114  34.725  1.00  0.00    -0.237 OA
ATOM     93  O   UNL A   1      49.825  23.149  35.530  1.00  0.00    -0.744 OA
ENDBRANCH  87  90
ENDBRANCH  60  83
ENDBRANCH  34  35
ENDBRANCH  27  29
ENDBRANCH  26  27
ENDBRANCH  25  26
ENDBRANCH   1  25
TORSDOF 19
ENDMDL
MODEL 3
REMARK VINA RESULT:     -11.5      4.776      7.912
REMARK SMILES C[C@H](Oc1ccc(C(=O)NCc2ccccc2)cc1)C(=O)OCCOC(=O)c1ccc(-c2c3nc(c(-c4cccc(S(=O)(=O)[O-])c4F)c4ccc([nH]4)c(-c4cccc(S(=O)(=O)[O-])c4F)c4nc(c(-c5cccc(S(=O)(=O)[O-])c5F)c5ccc2[nH]5)C=C4)C=C3)cc1
REMARK SMILES IDX 23 1 22 2 20 3 21 4 2 5 1 6 3 7 4 8 5 9 19 10 6 11 18 12
REMARK SMILES IDX 7 13 8 14 9 15 10 16 11 18 12 19 13 20 17 21 14 22 16 23
REMARK SMILES IDX 15 24 24 25 25 26 26 27 27 28 28 29 29 30 90 31 30 32 89 33
REMARK SMILES IDX 31 34 32 35 33 36 83 37 34 38 88 39 82 40 84 41 35 42 87 43
REMARK SMILES IDX 81 44 80 45 36 47 68 48 48 49 67 50 49 51 52 52 66 53 85 54
REMARK SMILES IDX 50 55 51 56 65 58 86 59 53 60 37 61 38 62 46 63 39 64 41 65
REMARK SMILES IDX 47 66 40 67 42 68 43 69 44 70 45 71 69 72 70 73 78 74 71 75
REMARK SMILES IDX 73 76 79 77 72 78 74 79 75 80 76 81 77 82 54 83 55 84 63 85
REMARK SMILES IDX 56 86 58 87 64 88 57 89 59 90 60 91 61 92 62 93
REMARK H PARENT 10 17 84 46 52 57
REMARK Flexibility Score: inf
ROOT
ATOM      1  C   UNL A   1      35.603  20.994  24.883  1.00  0.00     0.274 C 
ENDROOT
BRANCH   1   2
ATOM      2  O   UNL A   1      34.504  20.168  25.311  1.00  0.00    -0.459 OA
BRANCH   2   3
ATOM      3  C   UNL A   1      33.272  20.754  25.336  1.00  0.00     0.347 C 
ATOM      4  O   UNL A   1      32.227  20.197  25.018  1.00  0.00    -0.248 OA
BRANCH   3   5
ATOM      5  C   UNL A   1      33.347  22.236  25.715  1.00  0.00     0.279 C 
ATOM      6  C   UNL A   1      33.016  22.322  27.207  1.00  0.00     0.066 C 
BRANCH   5   7
ATOM      7  O   UNL A   1      32.468  22.960  24.853  1.00  0.00    -0.479 OA
BRANCH   7   8
ATOM      8  C   UNL A   1      32.872  24.105  24.239  1.00  0.00     0.120 A 
ATOM      9  C   UNL A   1      33.820  25.004  24.713  1.00  0.00     0.047 A 
ATOM     10  C   UNL A   1      32.209  24.378  23.042  1.00  0.00     0.047 A 
ATOM     11  C   UNL A   1      34.009  26.223  24.049  1.00  0.00     0.017 A 
ATOM     12  C   UNL A   1      32.394  25.596  22.377  1.00  0.00     0.017 A 
ATOM     13  C   UNL A   1      33.286  26.541  22.886  1.00  0.00     0.040 A 
BRANCH  13  14
ATOM     14  C   UNL A   1      33.423  27.926  22.361  1.00  0.00     0.251 C 
ATOM     15  O   UNL A   1      34.375  28.187  21.623  1.00  0.00    -0.269 OA
ATOM     16  N   UNL A   1      32.560  28.944  22.660  1.00  0.00    -0.348 N 
ATOM     17  H   UNL A   1      32.842  29.820  22.310  1.00  0.00     0.164 HD
BRANCH  16  18
ATOM     18  C   UNL A   1      31.313  28.981  23.392  1.00  0.00     0.152 C 
BRANCH  18  19
ATOM     19  C   UNL A   1      31.472  28.749  24.880  1.00  0.00    -0.029 A 
ATOM     20  C   UNL A   1      32.048  29.693  25.746  1.00  0.00     0.005 A 
ATOM     21  C   UNL A   1      31.039  27.529  25.421  1.00  0.00     0.005 A 
ATOM     22  C   UNL A   1      32.187  29.423  27.109  1.00  0.00     0.000 A 
ATOM     23  C   UNL A   1      31.177  27.260  26.785  1.00  0.00     0.000 A 
ATOM     24  C   UNL A   1      31.752  28.207  27.629  1.00  0.00     0.000 A 
ENDBRANCH  18  19
ENDBRANCH  16  18
ENDBRANCH  13  14
ENDBRANCH   7   8
ENDBRANCH   5   7
ENDBRANCH   3   5
ENDBRANCH   2   3
ENDBRANCH   1   2
BRANCH   1  25
ATOM     25  C   UNL A   1      36.953  20.307  25.101  1.00  0.00     0.275 C 
BRANCH  25  26
ATOM     26  O   UNL A   1      38.037  21.250  25.073  1.00  0.00    -0.458 OA
BRANCH  26  27
ATOM     27  C   UNL A   1      38.985  21.065  26.019  1.00  0.00     0.338 C 
ATOM     28  O   UNL A   1      39.469  20.000  26.377  1.00  0.00    -0.246 OA
BRANCH  27  29
ATOM     29  C   UNL A   1      39.472  22.367  26.495  1.00  0.00     0.060 A 
ATOM     30  C   UNL A   1      38.783  23.518  26.094  1.00  0.00     0.016 A 
ATOM     31  C   UNL A   1      40.628  22.463  27.273  1.00  0.00     0.016 A 
ATOM     32  C   UNL A   1      39.256  24.775  26.461  1.00  0.00     0.010 A 
ATOM     33  C   UNL A   1      41.105  23.726  27.633  1.00  0.00     0.010 A 
ATOM     34  C   UNL A   1      40.433  24.887  27.212  1.00  0.00    -0.014 A 
BRANCH  34  35
ATOM     35  C   UNL A   1      41.015  26.219  27.490  1.00  0.00     0.031 A 
ATOM     36  C   UNL A   1      42.424  26.510  27.059  1.00  0.00     0.074 A 
ATOM     37  C   UNL A   1      40.298  27.146  28.152  1.00  0.00     0.049 A 
ATOM     38  N   UNL A   1      43.154  27.571  27.281  1.00  0.00    -0.248 NA
ATOM     39  C   UNL A   1      43.103  25.463  26.277  1.00  0.00     0.031 C 
ATOM     40  C   UNL A   1      38.922  26.974  28.615  1.00  0.00     0.029 A 
ATOM     41  N   UNL A   1      40.643  28.405  28.574  1.00  0.00    -0.354 N 
ATOM     42  C   UNL A   1      44.390  27.307  26.704  1.00  0.00     0.074 A 
ATOM     43  C   UNL A   1      44.311  25.985  26.121  1.00  0.00     0.031 C 
ATOM     44  C   UNL A   1      38.549  28.078  29.285  1.00  0.00     0.029 A 
ATOM     45  C   UNL A   1      39.666  29.017  29.323  1.00  0.00     0.049 A 
ATOM     46  H   UNL A   1      41.507  28.829  28.362  1.00  0.00     0.167 HD
ATOM     47  C   UNL A   1      45.486  28.099  26.653  1.00  0.00     0.034 A 
ATOM     48  C   UNL A   1      39.685  30.190  29.986  1.00  0.00     0.034 A 
ATOM     49  C   UNL A   1      45.547  29.426  27.207  1.00  0.00     0.049 A 
ATOM     50  C   UNL A   1      40.918  31.052  29.919  1.00  0.00     0.074 A 
ATOM     51  C   UNL A   1      46.596  30.327  27.169  1.00  0.00     0.029 A 
ATOM     52  N   UNL A   1      44.517  30.038  27.904  1.00  0.00    -0.354 N 
ATOM     53  N   UNL A   1      42.042  30.834  29.279  1.00  0.00    -0.248 NA
ATOM     54  C   UNL A   1      40.877  32.332  30.640  1.00  0.00     0.031 C 
ATOM     55  C   UNL A   1      46.205  31.480  27.857  1.00  0.00     0.029 A 
ATOM     56  C   UNL A   1      44.906  31.304  28.308  1.00  0.00     0.049 A 
ATOM     57  H   UNL A   1      43.638  29.633  28.086  1.00  0.00     0.167 HD
ATOM     58  C   UNL A   1      42.828  31.961  29.492  1.00  0.00     0.074 A 
ATOM     59  C   UNL A   1      42.043  32.868  30.306  1.00  0.00     0.031 C 
ATOM     60  C   UNL A   1      44.090  32.217  29.067  1.00  0.00     0.034 A 
BRANCH  47  61
ATOM     61  C   UNL A   1      46.701  27.562  25.946  1.00  0.00     0.023 A 
ATOM     62  C   UNL A   1      46.838  27.753  24.556  1.00  0.00     0.012 A 
ATOM     63  C   UNL A   1      47.723  26.907  26.659  1.00  0.00     0.148 A 
ATOM     64  C   UNL A   1      47.960  27.274  23.882  1.00  0.00     0.002 A 
ATOM     65  C   UNL A   1      48.858  26.466  25.986  1.00  0.00     0.091 A 
ATOM     66  F   UNL A   1      47.563  26.710  27.976  1.00  0.00    -0.205 F 
ATOM     67  C   UNL A   1      48.974  26.640  24.597  1.00  0.00     0.022 A 
BRANCH  65  68
ATOM     68  S   UNL A   1      50.244  25.701  26.835  1.00  0.00     0.127 S 
ATOM     69  O   UNL A   1      49.645  24.457  27.316  1.00  0.00    -0.237 OA
ATOM     70  O   UNL A   1      51.215  25.531  25.754  1.00  0.00    -0.237 OA
ATOM     71  O   UNL A   1      50.649  26.645  27.867  1.00  0.00    -0.744 OA
ENDBRANCH  65  68
ENDBRANCH  47  61
BRANCH  48  72
ATOM     72  C   UNL A   1      38.476  30.633  30.737  1.00  0.00     0.023 A 
ATOM     73  C   UNL A   1      38.391  30.381  32.120  1.00  0.00     0.012 A 
ATOM     74  C   UNL A   1      37.433  31.334  30.100  1.00  0.00     0.148 A 
ATOM     75  C   UNL A   1      37.277  30.799  32.851  1.00  0.00     0.002 A 
ATOM     76  C   UNL A   1      36.353  31.793  30.844  1.00  0.00     0.091 A 
ATOM     77  F   UNL A   1      37.525  31.546  28.779  1.00  0.00    -0.205 F 
ATOM     78  C   UNL A   1      36.266  31.515  32.216  1.00  0.00     0.022 A 
BRANCH  76  79
ATOM     79  S   UNL A   1      35.068  32.831  30.136  1.00  0.00     0.127 S 
ATOM     80  O   UNL A   1      34.495  31.948  29.124  1.00  0.00    -0.237 OA
ATOM     81  O   UNL A   1      34.209  33.082  31.292  1.00  0.00    -0.237 OA
ATOM     82  O   UNL A   1      35.753  34.014  29.631  1.00  0.00    -0.744 OA
ENDBRANCH  76  79
ENDBRANCH  48  72
BRANCH  60  83
ATOM     83  C   UNL A   1      44.700  33.543  29.439  1.00  0.00     0.023 A 
ATOM     84  C   UNL A   1      45.474  33.649  30.611  1.00  0.00     0.012 A 
ATOM     85  C   UNL A   1      44.578  34.657  28.585  1.00  0.00     0.148 A 
ATOM     86  C   UNL A   1      46.100  34.852  30.939  1.00  0.00     0.002 A 
ATOM     87  C   UNL A   1      45.240  35.838  28.895  1.00  0.00     0.091 A 
ATOM     88  F   UNL A   1      43.819  34.541  27.485  1.00  0.00    -0.205 F 
ATOM     89  C   UNL A   1      45.994  35.941  30.077  1.00  0.00     0.022 A 
BRANCH  87  90
ATOM     90  S   UNL A   1      45.235  37.259  27.794  1.00  0.00     0.127 S 
ATOM     91  O   UNL A   1      43.817  37.615  27.775  1.00  0.00    -0.237 OA
ATOM     92  O   UNL A   1      46.093  38.208  28.504  1.00  0.00    -0.237 OA
ATOM     93  O   UNL A   1      45.779  36.783  26.530  1.00  0.00    -0.744 OA
ENDBRANCH  87  90
ENDBRANCH  60  83
ENDBRANCH  34  35
ENDBRANCH  27  29
ENDBRANCH  26  27
ENDBRANCH  25  26
ENDBRANCH   1  25
TORSDOF 19
ENDMDL
