MODEL 1
REMARK VINA RESULT:     -11.4      0.000      0.000
REMARK SMILES Nc1oc(-c2ccccc2)cc1C(=O)OCCOC(=O)c1ccc(-c2c3nc(c(-c4cccc(S(=O)(=O)[O-])c4F)c4ccc([nH]4)c(-c4cccc(S(=O)(=O)[O-])c4F)c4nc(c(-c5cccc(S(=O)(=O)[O-])c5F)c5ccc2[nH]5)C=C4)C=C3)cc1
REMARK SMILES IDX 17 1 16 2 15 3 13 4 14 5 12 6 2 7 3 8 4 9 11 10 1 11 5 14
REMARK SMILES IDX 6 15 10 16 7 17 9 18 8 19 18 20 19 21 20 22 21 23 22 24
REMARK SMILES IDX 83 25 23 26 82 27 24 28 25 29 26 30 76 31 27 32 81 33 75 34
REMARK SMILES IDX 77 35 28 36 80 37 74 38 73 39 29 41 61 42 41 43 60 44 42 45
REMARK SMILES IDX 45 46 59 47 78 48 43 49 44 50 58 52 79 53 46 54 30 55 31 56
REMARK SMILES IDX 39 57 32 58 34 59 40 60 33 61 35 62 36 63 37 64 38 65 62 66
REMARK SMILES IDX 63 67 71 68 64 69 66 70 72 71 65 72 67 73 68 74 69 75 70 76
REMARK SMILES IDX 47 77 48 78 56 79 49 80 51 81 57 82 50 83 52 84 53 85 54 86
REMARK SMILES IDX 55 87
REMARK H PARENT 1 12 1 13 77 40 45 51
REMARK Flexibility Score: inf
ROOT
ATOM      1  C   UNL A   1      34.128  33.387  28.077  1.00  0.00     0.275 C 
ENDROOT
BRANCH   1   2
ATOM      2  C   UNL A   1      33.873  34.785  28.632  1.00  0.00     0.275 C 
BRANCH   2   3
ATOM      3  O   UNL A   1      32.873  34.779  29.665  1.00  0.00    -0.458 OA
BRANCH   3   4
ATOM      4  C   UNL A   1      33.010  35.717  30.653  1.00  0.00     0.343 C 
ATOM      5  O   UNL A   1      32.433  36.802  30.659  1.00  0.00    -0.246 OA
BRANCH   4   6
ATOM      6  C   UNL A   1      33.879  35.263  31.716  1.00  0.00     0.123 A 
ATOM      7  C   UNL A   1      34.294  36.002  32.808  1.00  0.00     0.205 A 
ATOM      8  O   UNL A   1      35.111  35.265  33.606  1.00  0.00    -0.440 OA
ATOM      9  C   UNL A   1      35.235  34.038  33.026  1.00  0.00     0.137 A 
ATOM     10  C   UNL A   1      34.452  33.972  31.896  1.00  0.00     0.069 A 
BRANCH   7  11
ATOM     11  N   UNL A   1      34.059  37.249  33.220  1.00  0.00    -0.369 N 
ATOM     12  H   UNL A   1      34.389  38.013  32.693  1.00  0.00     0.159 HD
ATOM     13  H   UNL A   1      33.555  37.408  34.051  1.00  0.00     0.159 HD
ENDBRANCH   7  11
BRANCH   9  14
ATOM     14  C   UNL A   1      36.194  33.131  33.627  1.00  0.00     0.017 A 
ATOM     15  C   UNL A   1      36.826  33.419  34.841  1.00  0.00     0.012 A 
ATOM     16  C   UNL A   1      36.514  31.941  32.957  1.00  0.00     0.012 A 
ATOM     17  C   UNL A   1      37.764  32.530  35.373  1.00  0.00     0.001 A 
ATOM     18  C   UNL A   1      37.460  31.062  33.481  1.00  0.00     0.001 A 
ATOM     19  C   UNL A   1      38.085  31.357  34.690  1.00  0.00     0.000 A 
ENDBRANCH   9  14
ENDBRANCH   4   6
ENDBRANCH   3   4
ENDBRANCH   2   3
ENDBRANCH   1   2
BRANCH   1  20
ATOM     20  O   UNL A   1      35.271  32.789  28.682  1.00  0.00    -0.458 OA
BRANCH  20  21
ATOM     21  C   UNL A   1      35.535  31.534  28.256  1.00  0.00     0.338 C 
ATOM     22  O   UNL A   1      34.883  30.876  27.461  1.00  0.00    -0.246 OA
BRANCH  21  23
ATOM     23  C   UNL A   1      36.658  30.983  29.009  1.00  0.00     0.060 A 
ATOM     24  C   UNL A   1      37.730  31.838  29.290  1.00  0.00     0.016 A 
ATOM     25  C   UNL A   1      36.748  29.594  29.160  1.00  0.00     0.016 A 
ATOM     26  C   UNL A   1      38.960  31.282  29.569  1.00  0.00     0.010 A 
ATOM     27  C   UNL A   1      37.975  29.042  29.435  1.00  0.00     0.010 A 
ATOM     28  C   UNL A   1      39.079  29.890  29.556  1.00  0.00    -0.014 A 
BRANCH  28  29
ATOM     29  C   UNL A   1      40.398  29.309  29.721  1.00  0.00     0.031 A 
ATOM     30  C   UNL A   1      40.809  29.127  31.137  1.00  0.00     0.074 A 
ATOM     31  C   UNL A   1      41.050  28.813  28.649  1.00  0.00     0.049 A 
ATOM     32  N   UNL A   1      41.916  29.470  31.711  1.00  0.00    -0.248 NA
ATOM     33  C   UNL A   1      39.793  28.593  32.064  1.00  0.00     0.031 C 
ATOM     34  C   UNL A   1      40.520  28.702  27.281  1.00  0.00     0.029 A 
ATOM     35  N   UNL A   1      42.225  28.126  28.584  1.00  0.00    -0.354 N 
ATOM     36  C   UNL A   1      41.814  28.984  33.015  1.00  0.00     0.074 A 
ATOM     37  C   UNL A   1      40.438  28.635  33.226  1.00  0.00     0.031 C 
ATOM     38  C   UNL A   1      41.219  27.761  26.615  1.00  0.00     0.029 A 
ATOM     39  C   UNL A   1      42.304  27.302  27.463  1.00  0.00     0.049 A 
ATOM     40  H   UNL A   1      42.941  28.203  29.254  1.00  0.00     0.167 HD
ATOM     41  C   UNL A   1      42.914  28.636  33.732  1.00  0.00     0.034 A 
ATOM     42  C   UNL A   1      43.120  26.237  27.295  1.00  0.00     0.034 A 
ATOM     43  C   UNL A   1      44.100  29.265  33.224  1.00  0.00     0.049 A 
ATOM     44  C   UNL A   1      44.197  26.328  28.303  1.00  0.00     0.074 A 
ATOM     45  C   UNL A   1      44.541  30.564  33.079  1.00  0.00     0.029 A 
ATOM     46  N   UNL A   1      44.917  28.481  32.450  1.00  0.00    -0.354 N 
ATOM     47  N   UNL A   1      45.112  27.257  28.316  1.00  0.00    -0.248 NA
ATOM     48  C   UNL A   1      44.057  25.571  29.537  1.00  0.00     0.031 C 
ATOM     49  C   UNL A   1      45.373  30.551  31.924  1.00  0.00     0.029 A 
ATOM     50  C   UNL A   1      45.415  29.243  31.431  1.00  0.00     0.049 A 
ATOM     51  H   UNL A   1      45.112  27.528  32.603  1.00  0.00     0.167 HD
ATOM     52  C   UNL A   1      45.357  27.485  29.662  1.00  0.00     0.074 A 
ATOM     53  C   UNL A   1      44.804  26.324  30.349  1.00  0.00     0.031 C 
ATOM     54  C   UNL A   1      45.711  28.725  30.111  1.00  0.00     0.034 A 
BRANCH  41  55
ATOM     55  C   UNL A   1      42.990  27.413  34.625  1.00  0.00     0.023 A 
ATOM     56  C   UNL A   1      42.933  27.633  36.019  1.00  0.00     0.012 A 
ATOM     57  C   UNL A   1      43.410  26.129  34.199  1.00  0.00     0.148 A 
ATOM     58  C   UNL A   1      43.338  26.656  36.935  1.00  0.00     0.002 A 
ATOM     59  C   UNL A   1      43.733  25.136  35.116  1.00  0.00     0.091 A 
ATOM     60  F   UNL A   1      43.637  25.884  32.906  1.00  0.00    -0.205 F 
ATOM     61  C   UNL A   1      43.734  25.403  36.484  1.00  0.00     0.022 A 
BRANCH  59  62
ATOM     62  S   UNL A   1      44.201  23.486  34.572  1.00  0.00     0.127 S 
ATOM     63  O   UNL A   1      45.405  23.765  33.797  1.00  0.00    -0.237 OA
ATOM     64  O   UNL A   1      44.426  22.801  35.846  1.00  0.00    -0.237 OA
ATOM     65  O   UNL A   1      43.051  22.987  33.827  1.00  0.00    -0.744 OA
ENDBRANCH  59  62
ENDBRANCH  41  55
BRANCH  42  66
ATOM     66  C   UNL A   1      42.878  25.009  26.502  1.00  0.00     0.023 A 
ATOM     67  C   UNL A   1      43.745  24.678  25.444  1.00  0.00     0.012 A 
ATOM     68  C   UNL A   1      41.933  24.041  26.918  1.00  0.00     0.148 A 
ATOM     69  C   UNL A   1      43.683  23.421  24.829  1.00  0.00     0.002 A 
ATOM     70  C   UNL A   1      41.861  22.802  26.290  1.00  0.00     0.091 A 
ATOM     71  F   UNL A   1      41.165  24.305  27.984  1.00  0.00    -0.205 F 
ATOM     72  C   UNL A   1      42.744  22.484  25.251  1.00  0.00     0.022 A 
BRANCH  70  73
ATOM     73  S   UNL A   1      40.668  21.546  26.775  1.00  0.00     0.127 S 
ATOM     74  O   UNL A   1      39.405  22.145  26.339  1.00  0.00    -0.237 OA
ATOM     75  O   UNL A   1      41.103  20.395  25.988  1.00  0.00    -0.237 OA
ATOM     76  O   UNL A   1      40.797  21.410  28.221  1.00  0.00    -0.744 OA
ENDBRANCH  70  73
ENDBRANCH  42  66
BRANCH  54  77
ATOM     77  C   UNL A   1      46.181  29.740  29.101  1.00  0.00     0.023 A 
ATOM     78  C   UNL A   1      47.518  29.788  28.657  1.00  0.00     0.012 A 
ATOM     79  C   UNL A   1      45.213  30.515  28.441  1.00  0.00     0.148 A 
ATOM     80  C   UNL A   1      47.883  30.603  27.582  1.00  0.00     0.002 A 
ATOM     81  C   UNL A   1      45.569  31.282  27.339  1.00  0.00     0.091 A 
ATOM     82  F   UNL A   1      43.945  30.452  28.877  1.00  0.00    -0.205 F 
ATOM     83  C   UNL A   1      46.905  31.336  26.913  1.00  0.00     0.022 A 
BRANCH  81  84
ATOM     84  S   UNL A   1      44.335  32.124  26.345  1.00  0.00     0.127 S 
ATOM     85  O   UNL A   1      43.389  31.049  26.055  1.00  0.00    -0.237 OA
ATOM     86  O   UNL A   1      43.834  33.148  27.264  1.00  0.00    -0.237 OA
ATOM     87  O   UNL A   1      45.049  32.662  25.192  1.00  0.00    -0.744 OA
ENDBRANCH  81  84
ENDBRANCH  54  77
ENDBRANCH  28  29
ENDBRANCH  21  23
ENDBRANCH  20  21
ENDBRANCH   1  20
TORSDOF 16
ENDMDL
MODEL 2
REMARK VINA RESULT:     -11.1      2.999     11.432
REMARK SMILES Nc1oc(-c2ccccc2)cc1C(=O)OCCOC(=O)c1ccc(-c2c3nc(c(-c4cccc(S(=O)(=O)[O-])c4F)c4ccc([nH]4)c(-c4cccc(S(=O)(=O)[O-])c4F)c4nc(c(-c5cccc(S(=O)(=O)[O-])c5F)c5ccc2[nH]5)C=C4)C=C3)cc1
REMARK SMILES IDX 17 1 16 2 15 3 13 4 14 5 12 6 2 7 3 8 4 9 11 10 1 11 5 14
REMARK SMILES IDX 6 15 10 16 7 17 9 18 8 19 18 20 19 21 20 22 21 23 22 24
REMARK SMILES IDX 83 25 23 26 82 27 24 28 25 29 26 30 76 31 27 32 81 33 75 34
REMARK SMILES IDX 77 35 28 36 80 37 74 38 73 39 29 41 61 42 41 43 60 44 42 45
REMARK SMILES IDX 45 46 59 47 78 48 43 49 44 50 58 52 79 53 46 54 30 55 31 56
REMARK SMILES IDX 39 57 32 58 34 59 40 60 33 61 35 62 36 63 37 64 38 65 62 66
REMARK SMILES IDX 63 67 71 68 64 69 66 70 72 71 65 72 67 73 68 74 69 75 70 76
REMARK SMILES IDX 47 77 48 78 56 79 49 80 51 81 57 82 50 83 52 84 53 85 54 86
REMARK SMILES IDX 55 87
REMARK H PARENT 1 12 1 13 77 40 45 51
REMARK Flexibility Score: inf
ROOT
ATOM      1  C   UNL A   1      40.801  20.789  27.163  1.00  0.00     0.275 C 
ENDROOT
BRANCH   1   2
ATOM      2  C   UNL A   1      41.464  19.899  26.116  1.00  0.00     0.275 C 
BRANCH   2   3
ATOM      3  O   UNL A   1      42.802  19.530  26.494  1.00  0.00    -0.458 OA
BRANCH   3   4
ATOM      4  C   UNL A   1      43.711  19.405  25.478  1.00  0.00     0.343 C 
ATOM      5  O   UNL A   1      43.920  18.361  24.864  1.00  0.00    -0.246 OA
BRANCH   4   6
ATOM      6  C   UNL A   1      44.366  20.659  25.178  1.00  0.00     0.123 A 
ATOM      7  C   UNL A   1      45.635  20.817  24.655  1.00  0.00     0.205 A 
ATOM      8  O   UNL A   1      45.935  22.134  24.504  1.00  0.00    -0.440 OA
ATOM      9  C   UNL A   1      44.854  22.841  24.940  1.00  0.00     0.137 A 
ATOM     10  C   UNL A   1      43.846  21.979  25.309  1.00  0.00     0.069 A 
BRANCH   7  11
ATOM     11  N   UNL A   1      46.590  19.963  24.279  1.00  0.00    -0.369 N 
ATOM     12  H   UNL A   1      47.409  20.298  23.846  1.00  0.00     0.159 HD
ATOM     13  H   UNL A   1      46.477  18.997  24.435  1.00  0.00     0.159 HD
ENDBRANCH   7  11
BRANCH   9  14
ATOM     14  C   UNL A   1      45.011  24.280  25.020  1.00  0.00     0.017 A 
ATOM     15  C   UNL A   1      46.269  24.891  25.000  1.00  0.00     0.012 A 
ATOM     16  C   UNL A   1      43.866  25.081  25.145  1.00  0.00     0.012 A 
ATOM     17  C   UNL A   1      46.378  26.280  25.105  1.00  0.00     0.001 A 
ATOM     18  C   UNL A   1      43.976  26.466  25.264  1.00  0.00     0.001 A 
ATOM     19  C   UNL A   1      45.233  27.065  25.244  1.00  0.00     0.000 A 
ENDBRANCH   9  14
ENDBRANCH   4   6
ENDBRANCH   3   4
ENDBRANCH   2   3
ENDBRANCH   1   2
BRANCH   1  20
ATOM     20  O   UNL A   1      41.249  22.139  27.054  1.00  0.00    -0.458 OA
BRANCH  20  21
ATOM     21  C   UNL A   1      40.256  23.048  26.946  1.00  0.00     0.338 C 
ATOM     22  O   UNL A   1      39.111  22.845  26.575  1.00  0.00    -0.246 OA
BRANCH  21  23
ATOM     23  C   UNL A   1      40.783  24.387  27.194  1.00  0.00     0.060 A 
ATOM     24  C   UNL A   1      41.842  24.507  28.101  1.00  0.00     0.016 A 
ATOM     25  C   UNL A   1      40.045  25.491  26.755  1.00  0.00     0.016 A 
ATOM     26  C   UNL A   1      42.059  25.728  28.703  1.00  0.00     0.010 A 
ATOM     27  C   UNL A   1      40.260  26.706  27.358  1.00  0.00     0.010 A 
ATOM     28  C   UNL A   1      41.209  26.789  28.379  1.00  0.00    -0.014 A 
BRANCH  28  29
ATOM     29  C   UNL A   1      41.354  28.036  29.107  1.00  0.00     0.031 A 
ATOM     30  C   UNL A   1      42.424  28.923  28.584  1.00  0.00     0.074 A 
ATOM     31  C   UNL A   1      40.434  28.383  30.030  1.00  0.00     0.049 A 
ATOM     32  N   UNL A   1      43.370  29.522  29.231  1.00  0.00    -0.248 NA
ATOM     33  C   UNL A   1      42.518  29.064  27.118  1.00  0.00     0.031 C 
ATOM     34  C   UNL A   1      39.191  27.658  30.338  1.00  0.00     0.029 A 
ATOM     35  N   UNL A   1      40.302  29.540  30.738  1.00  0.00    -0.354 N 
ATOM     36  C   UNL A   1      44.031  30.294  28.275  1.00  0.00     0.074 A 
ATOM     37  C   UNL A   1      43.597  29.830  26.988  1.00  0.00     0.031 C 
ATOM     38  C   UNL A   1      38.323  28.505  30.926  1.00  0.00     0.029 A 
ATOM     39  C   UNL A   1      38.989  29.777  31.140  1.00  0.00     0.049 A 
ATOM     40  H   UNL A   1      41.052  30.142  30.944  1.00  0.00     0.167 HD
ATOM     41  C   UNL A   1      44.670  31.446  28.608  1.00  0.00     0.034 A 
ATOM     42  C   UNL A   1      38.454  30.965  31.503  1.00  0.00     0.034 A 
ATOM     43  C   UNL A   1      44.994  31.487  30.007  1.00  0.00     0.049 A 
ATOM     44  C   UNL A   1      39.567  31.889  31.806  1.00  0.00     0.074 A 
ATOM     45  C   UNL A   1      45.784  30.742  30.856  1.00  0.00     0.029 A 
ATOM     46  N   UNL A   1      44.172  32.249  30.797  1.00  0.00    -0.354 N 
ATOM     47  N   UNL A   1      40.387  31.746  32.809  1.00  0.00    -0.248 NA
ATOM     48  C   UNL A   1      40.004  32.812  30.769  1.00  0.00     0.031 C 
ATOM     49  C   UNL A   1      45.140  30.811  32.124  1.00  0.00     0.029 A 
ATOM     50  C   UNL A   1      44.000  31.609  31.991  1.00  0.00     0.049 A 
ATOM     51  H   UNL A   1      43.772  33.113  30.544  1.00  0.00     0.167 HD
ATOM     52  C   UNL A   1      41.604  32.212  32.333  1.00  0.00     0.074 A 
ATOM     53  C   UNL A   1      41.272  32.991  31.146  1.00  0.00     0.031 C 
ATOM     54  C   UNL A   1      42.781  31.676  32.771  1.00  0.00     0.034 A 
BRANCH  41  55
ATOM     55  C   UNL A   1      44.631  32.708  27.770  1.00  0.00     0.023 A 
ATOM     56  C   UNL A   1      45.741  32.955  26.933  1.00  0.00     0.012 A 
ATOM     57  C   UNL A   1      43.737  33.787  27.977  1.00  0.00     0.148 A 
ATOM     58  C   UNL A   1      45.987  34.222  26.391  1.00  0.00     0.002 A 
ATOM     59  C   UNL A   1      43.943  35.021  27.370  1.00  0.00     0.091 A 
ATOM     60  F   UNL A   1      42.749  33.688  28.870  1.00  0.00    -0.205 F 
ATOM     61  C   UNL A   1      45.085  35.255  26.605  1.00  0.00     0.022 A 
BRANCH  59  62
ATOM     62  S   UNL A   1      42.770  36.368  27.582  1.00  0.00     0.127 S 
ATOM     63  O   UNL A   1      43.006  36.744  28.972  1.00  0.00    -0.237 OA
ATOM     64  O   UNL A   1      43.239  37.335  26.589  1.00  0.00    -0.237 OA
ATOM     65  O   UNL A   1      41.465  35.792  27.278  1.00  0.00    -0.744 OA
ENDBRANCH  59  62
ENDBRANCH  41  55
BRANCH  42  66
ATOM     66  C   UNL A   1      37.057  31.432  31.344  1.00  0.00     0.023 A 
ATOM     67  C   UNL A   1      36.311  31.803  32.479  1.00  0.00     0.012 A 
ATOM     68  C   UNL A   1      36.523  31.729  30.068  1.00  0.00     0.148 A 
ATOM     69  C   UNL A   1      35.081  32.459  32.348  1.00  0.00     0.002 A 
ATOM     70  C   UNL A   1      35.291  32.362  29.943  1.00  0.00     0.091 A 
ATOM     71  F   UNL A   1      37.263  31.467  28.982  1.00  0.00    -0.205 F 
ATOM     72  C   UNL A   1      34.571  32.739  31.082  1.00  0.00     0.022 A 
BRANCH  70  73
ATOM     73  S   UNL A   1      34.566  32.747  28.342  1.00  0.00     0.127 S 
ATOM     74  O   UNL A   1      34.146  31.425  27.875  1.00  0.00    -0.237 OA
ATOM     75  O   UNL A   1      33.472  33.641  28.712  1.00  0.00    -0.237 OA
ATOM     76  O   UNL A   1      35.636  33.346  27.553  1.00  0.00    -0.744 OA
ENDBRANCH  70  73
ENDBRANCH  42  66
BRANCH  54  77
ATOM     77  C   UNL A   1      42.760  30.839  34.024  1.00  0.00     0.023 A 
ATOM     78  C   UNL A   1      42.815  31.416  35.309  1.00  0.00     0.012 A 
ATOM     79  C   UNL A   1      42.469  29.470  33.900  1.00  0.00     0.148 A 
ATOM     80  C   UNL A   1      42.596  30.638  36.448  1.00  0.00     0.002 A 
ATOM     81  C   UNL A   1      42.199  28.712  35.032  1.00  0.00     0.091 A 
ATOM     82  F   UNL A   1      42.417  28.941  32.668  1.00  0.00    -0.205 F 
ATOM     83  C   UNL A   1      42.271  29.290  36.309  1.00  0.00     0.022 A 
BRANCH  81  84
ATOM     84  S   UNL A   1      41.626  27.016  34.909  1.00  0.00     0.127 S 
ATOM     85  O   UNL A   1      40.522  27.133  33.959  1.00  0.00    -0.237 OA
ATOM     86  O   UNL A   1      42.807  26.320  34.393  1.00  0.00    -0.237 OA
ATOM     87  O   UNL A   1      41.251  26.621  36.262  1.00  0.00    -0.744 OA
ENDBRANCH  81  84
ENDBRANCH  54  77
ENDBRANCH  28  29
ENDBRANCH  21  23
ENDBRANCH  20  21
ENDBRANCH   1  20
TORSDOF 16
ENDMDL
MODEL 3
REMARK VINA RESULT:     -11.0      3.577      7.020
REMARK SMILES Nc1oc(-c2ccccc2)cc1C(=O)OCCOC(=O)c1ccc(-c2c3nc(c(-c4cccc(S(=O)(=O)[O-])c4F)c4ccc([nH]4)c(-c4cccc(S(=O)(=O)[O-])c4F)c4nc(c(-c5cccc(S(=O)(=O)[O-])c5F)c5ccc2[nH]5)C=C4)C=C3)cc1
REMARK SMILES IDX 17 1 16 2 15 3 13 4 14 5 12 6 2 7 3 8 4 9 11 10 1 11 5 14
REMARK SMILES IDX 6 15 10 16 7 17 9 18 8 19 18 20 19 21 20 22 21 23 22 24
REMARK SMILES IDX 83 25 23 26 82 27 24 28 25 29 26 30 76 31 27 32 81 33 75 34
REMARK SMILES IDX 77 35 28 36 80 37 74 38 73 39 29 41 61 42 41 43 60 44 42 45
REMARK SMILES IDX 45 46 59 47 78 48 43 49 44 50 58 52 79 53 46 54 30 55 31 56
REMARK SMILES IDX 39 57 32 58 34 59 40 60 33 61 35 62 36 63 37 64 38 65 62 66
REMARK SMILES IDX 63 67 71 68 64 69 66 70 72 71 65 72 67 73 68 74 69 75 70 76
REMARK SMILES IDX 47 77 48 78 56 79 49 80 51 81 57 82 50 83 52 84 53 85 54 86
REMARK SMILES IDX 55 87
REMARK H PARENT 1 12 1 13 77 40 45 51
REMARK Flexibility Score: inf
ROOT
ATOM      1  C   UNL A   1      33.201  33.395  27.783  1.00  0.00     0.275 C 
ENDROOT
BRANCH   1   2
ATOM      2  C   UNL A   1      33.598  34.570  28.672  1.00  0.00     0.275 C 
BRANCH   2   3
ATOM      3  O   UNL A   1      32.789  34.644  29.858  1.00  0.00    -0.458 OA
BRANCH   3   4
ATOM      4  C   UNL A   1      32.915  35.778  30.614  1.00  0.00     0.343 C 
ATOM      5  O   UNL A   1      32.322  36.831  30.383  1.00  0.00    -0.246 OA
BRANCH   4   6
ATOM      6  C   UNL A   1      33.793  35.582  31.746  1.00  0.00     0.123 A 
ATOM      7  C   UNL A   1      34.338  36.571  32.542  1.00  0.00     0.205 A 
ATOM      8  O   UNL A   1      35.121  36.032  33.513  1.00  0.00    -0.440 OA
ATOM      9  C   UNL A   1      35.092  34.679  33.344  1.00  0.00     0.137 A 
ATOM     10  C   UNL A   1      34.245  34.354  32.308  1.00  0.00     0.069 A 
BRANCH   7  11
ATOM     11  N   UNL A   1      34.249  37.903  32.548  1.00  0.00    -0.369 N 
ATOM     12  H   UNL A   1      33.700  38.358  33.228  1.00  0.00     0.159 HD
ATOM     13  H   UNL A   1      34.733  38.433  31.874  1.00  0.00     0.159 HD
ENDBRANCH   7  11
BRANCH   9  14
ATOM     14  C   UNL A   1      35.990  33.902  34.177  1.00  0.00     0.017 A 
ATOM     15  C   UNL A   1      36.731  32.831  33.668  1.00  0.00     0.012 A 
ATOM     16  C   UNL A   1      36.099  34.222  35.538  1.00  0.00     0.012 A 
ATOM     17  C   UNL A   1      37.565  32.090  34.510  1.00  0.00     0.001 A 
ATOM     18  C   UNL A   1      36.920  33.475  36.380  1.00  0.00     0.001 A 
ATOM     19  C   UNL A   1      37.653  32.409  35.866  1.00  0.00     0.000 A 
ENDBRANCH   9  14
ENDBRANCH   4   6
ENDBRANCH   3   4
ENDBRANCH   2   3
ENDBRANCH   1   2
BRANCH   1  20
ATOM     20  O   UNL A   1      34.339  32.628  27.397  1.00  0.00    -0.458 OA
BRANCH  20  21
ATOM     21  C   UNL A   1      34.283  31.328  27.758  1.00  0.00     0.338 C 
ATOM     22  O   UNL A   1      33.376  30.541  27.533  1.00  0.00    -0.246 OA
BRANCH  21  23
ATOM     23  C   UNL A   1      35.419  31.003  28.615  1.00  0.00     0.060 A 
ATOM     24  C   UNL A   1      35.338  31.372  29.963  1.00  0.00     0.016 A 
ATOM     25  C   UNL A   1      36.623  30.616  28.017  1.00  0.00     0.016 A 
ATOM     26  C   UNL A   1      36.507  31.511  30.679  1.00  0.00     0.010 A 
ATOM     27  C   UNL A   1      37.787  30.758  28.731  1.00  0.00     0.010 A 
ATOM     28  C   UNL A   1      37.719  31.280  30.025  1.00  0.00    -0.014 A 
BRANCH  28  29
ATOM     29  C   UNL A   1      38.953  31.552  30.740  1.00  0.00     0.031 A 
ATOM     30  C   UNL A   1      39.522  30.371  31.439  1.00  0.00     0.074 A 
ATOM     31  C   UNL A   1      39.576  32.736  30.572  1.00  0.00     0.049 A 
ATOM     32  N   UNL A   1      39.934  30.273  32.660  1.00  0.00    -0.248 NA
ATOM     33  C   UNL A   1      39.520  29.093  30.702  1.00  0.00     0.031 C 
ATOM     34  C   UNL A   1      39.187  33.801  29.635  1.00  0.00     0.029 A 
ATOM     35  N   UNL A   1      40.785  33.159  31.039  1.00  0.00    -0.354 N 
ATOM     36  C   UNL A   1      40.453  28.981  32.766  1.00  0.00     0.074 A 
ATOM     37  C   UNL A   1      40.002  28.254  31.613  1.00  0.00     0.031 C 
ATOM     38  C   UNL A   1      40.257  34.585  29.392  1.00  0.00     0.029 A 
ATOM     39  C   UNL A   1      41.352  34.150  30.240  1.00  0.00     0.049 A 
ATOM     40  H   UNL A   1      41.211  32.804  31.852  1.00  0.00     0.167 HD
ATOM     41  C   UNL A   1      41.448  28.683  33.641  1.00  0.00     0.034 A 
ATOM     42  C   UNL A   1      42.657  34.502  30.189  1.00  0.00     0.034 A 
ATOM     43  C   UNL A   1      41.523  29.644  34.706  1.00  0.00     0.049 A 
ATOM     44  C   UNL A   1      43.318  33.967  31.398  1.00  0.00     0.074 A 
ATOM     45  C   UNL A   1      40.685  30.059  35.718  1.00  0.00     0.029 A 
ATOM     46  N   UNL A   1      42.516  30.585  34.602  1.00  0.00    -0.354 N 
ATOM     47  N   UNL A   1      43.068  34.374  32.611  1.00  0.00    -0.248 NA
ATOM     48  C   UNL A   1      44.028  32.701  31.297  1.00  0.00     0.031 C 
ATOM     49  C   UNL A   1      41.003  31.431  35.929  1.00  0.00     0.029 A 
ATOM     50  C   UNL A   1      42.031  31.781  35.049  1.00  0.00     0.049 A 
ATOM     51  H   UNL A   1      43.426  30.424  34.262  1.00  0.00     0.167 HD
ATOM     52  C   UNL A   1      43.200  33.236  33.394  1.00  0.00     0.074 A 
ATOM     53  C   UNL A   1      43.937  32.291  32.564  1.00  0.00     0.031 C 
ATOM     54  C   UNL A   1      42.442  33.065  34.516  1.00  0.00     0.034 A 
BRANCH  41  55
ATOM     55  C   UNL A   1      42.613  27.769  33.319  1.00  0.00     0.023 A 
ATOM     56  C   UNL A   1      43.270  27.980  32.086  1.00  0.00     0.012 A 
ATOM     57  C   UNL A   1      42.899  26.558  33.994  1.00  0.00     0.148 A 
ATOM     58  C   UNL A   1      44.107  27.010  31.523  1.00  0.00     0.002 A 
ATOM     59  C   UNL A   1      43.794  25.633  33.468  1.00  0.00     0.091 A 
ATOM     60  F   UNL A   1      42.211  26.210  35.084  1.00  0.00    -0.205 F 
ATOM     61  C   UNL A   1      44.374  25.837  32.217  1.00  0.00     0.022 A 
BRANCH  59  62
ATOM     62  S   UNL A   1      44.205  24.126  34.360  1.00  0.00     0.127 S 
ATOM     63  O   UNL A   1      45.204  23.530  33.479  1.00  0.00    -0.237 OA
ATOM     64  O   UNL A   1      44.725  24.655  35.621  1.00  0.00    -0.237 OA
ATOM     65  O   UNL A   1      42.945  23.404  34.495  1.00  0.00    -0.744 OA
ENDBRANCH  59  62
ENDBRANCH  41  55
BRANCH  42  66
ATOM     66  C   UNL A   1      43.422  35.035  29.037  1.00  0.00     0.023 A 
ATOM     67  C   UNL A   1      43.920  36.350  29.077  1.00  0.00     0.012 A 
ATOM     68  C   UNL A   1      43.859  34.187  27.992  1.00  0.00     0.148 A 
ATOM     69  C   UNL A   1      44.832  36.804  28.116  1.00  0.00     0.002 A 
ATOM     70  C   UNL A   1      44.749  34.649  27.027  1.00  0.00     0.091 A 
ATOM     71  F   UNL A   1      43.468  32.905  27.993  1.00  0.00    -0.205 F 
ATOM     72  C   UNL A   1      45.247  35.955  27.093  1.00  0.00     0.022 A 
BRANCH  70  73
ATOM     73  S   UNL A   1      45.321  33.613  25.673  1.00  0.00     0.127 S 
ATOM     74  O   UNL A   1      44.060  33.197  25.056  1.00  0.00    -0.237 OA
ATOM     75  O   UNL A   1      46.108  34.555  24.882  1.00  0.00    -0.237 OA
ATOM     76  O   UNL A   1      46.070  32.524  26.291  1.00  0.00    -0.744 OA
ENDBRANCH  70  73
ENDBRANCH  42  66
BRANCH  54  77
ATOM     77  C   UNL A   1      41.735  34.266  35.088  1.00  0.00     0.023 A 
ATOM     78  C   UNL A   1      40.435  34.631  34.683  1.00  0.00     0.012 A 
ATOM     79  C   UNL A   1      42.311  34.907  36.198  1.00  0.00     0.148 A 
ATOM     80  C   UNL A   1      39.729  35.624  35.366  1.00  0.00     0.002 A 
ATOM     81  C   UNL A   1      41.585  35.855  36.907  1.00  0.00     0.091 A 
ATOM     82  F   UNL A   1      43.548  34.542  36.570  1.00  0.00    -0.205 F 
ATOM     83  C   UNL A   1      40.297  36.224  36.489  1.00  0.00     0.022 A 
BRANCH  81  84
ATOM     84  S   UNL A   1      42.199  36.549  38.444  1.00  0.00     0.127 S 
ATOM     85  O   UNL A   1      43.362  37.310  37.994  1.00  0.00    -0.237 OA
ATOM     86  O   UNL A   1      41.071  37.366  38.895  1.00  0.00    -0.237 OA
ATOM     87  O   UNL A   1      42.489  35.411  39.309  1.00  0.00    -0.744 OA
ENDBRANCH  81  84
ENDBRANCH  54  77
ENDBRANCH  28  29
ENDBRANCH  21  23
ENDBRANCH  20  21
ENDBRANCH   1  20
TORSDOF 16
ENDMDL
