MODEL 1
REMARK VINA RESULT:     -12.4      0.000      0.000
REMARK SMILES O=C(OCCOC(=O)[C@H]1CCCC[C@H]1C(=O)N1CCN(S(=O)(=O)c2ccc(F)cc2)CC1)c1ccc(-c2c3nc(c(-c4cccc(S(=O)(=O)[O-])c4F)c4ccc([nH]4)c(-c4cccc(S(=O)(=O)[O-])c4F)c4nc(c(-c5cccc(S(=O)(=O)[O-])c5F)c5ccc2[nH]5)C=C4)C=C3)cc1
REMARK SMILES IDX 4 1 3 2 2 3 1 4 33 5 34 6 95 7 35 8 94 9 36 10 37 11 38 12
REMARK SMILES IDX 88 13 39 14 93 15 87 16 89 17 40 18 92 19 86 20 85 21 41 23
REMARK SMILES IDX 73 24 53 25 72 26 54 27 57 28 71 29 90 30 55 31 56 32 70 34
REMARK SMILES IDX 91 35 58 36 42 37 43 38 51 39 44 40 46 41 52 42 45 43 47 44
REMARK SMILES IDX 48 45 49 46 50 47 74 48 75 49 83 50 76 51 78 52 84 53 77 54
REMARK SMILES IDX 79 55 80 56 81 57 82 58 59 59 60 60 68 61 61 62 63 63 69 64
REMARK SMILES IDX 62 65 64 66 65 67 66 68 67 69 5 70 6 71 7 72 8 73 9 74 10 75
REMARK SMILES IDX 14 76 11 77 13 78 12 79 15 80 16 81 17 82 18 83 32 84 19 85
REMARK SMILES IDX 31 86 20 87 21 88 22 89 23 90 24 91 25 92 30 93 26 94 29 95
REMARK SMILES IDX 27 96 28 97
REMARK H PARENT 89 22 57 33
REMARK Flexibility Score: inf
ROOT
ATOM      1  C   UNL A   1      31.558  29.767  26.073  1.00  0.00     0.275 C 
ENDROOT
BRANCH   1   2
ATOM      2  O   UNL A   1      32.772  30.542  26.103  1.00  0.00    -0.458 OA
BRANCH   2   3
ATOM      3  C   UNL A   1      33.183  31.426  27.050  1.00  0.00     0.338 C 
ATOM      4  O   UNL A   1      32.669  32.538  27.120  1.00  0.00    -0.246 OA
BRANCH   3   5
ATOM      5  C   UNL A   1      34.423  31.167  27.836  1.00  0.00     0.060 A 
ATOM      6  C   UNL A   1      34.744  29.937  28.399  1.00  0.00     0.016 A 
ATOM      7  C   UNL A   1      35.297  32.249  28.061  1.00  0.00     0.016 A 
ATOM      8  C   UNL A   1      35.997  29.756  29.007  1.00  0.00     0.010 A 
ATOM      9  C   UNL A   1      36.526  32.082  28.736  1.00  0.00     0.010 A 
ATOM     10  C   UNL A   1      36.928  30.816  29.164  1.00  0.00    -0.014 A 
BRANCH  10  11
ATOM     11  C   UNL A   1      38.263  30.503  29.791  1.00  0.00     0.031 A 
ATOM     12  C   UNL A   1      38.418  30.834  31.248  1.00  0.00     0.074 A 
ATOM     13  C   UNL A   1      39.255  29.807  29.181  1.00  0.00     0.049 A 
ATOM     14  N   UNL A   1      39.271  30.377  32.121  1.00  0.00    -0.248 NA
ATOM     15  C   UNL A   1      37.451  31.805  31.791  1.00  0.00     0.031 C 
ATOM     16  C   UNL A   1      39.330  29.464  27.766  1.00  0.00     0.029 A 
ATOM     17  N   UNL A   1      40.351  29.143  29.710  1.00  0.00    -0.354 N 
ATOM     18  C   UNL A   1      38.971  31.038  33.302  1.00  0.00     0.074 A 
ATOM     19  C   UNL A   1      37.775  31.819  33.071  1.00  0.00     0.031 C 
ATOM     20  C   UNL A   1      40.217  28.471  27.584  1.00  0.00     0.029 A 
ATOM     21  C   UNL A   1      40.908  28.215  28.840  1.00  0.00     0.049 A 
ATOM     22  H   UNL A   1      40.700  29.313  30.615  1.00  0.00     0.167 HD
ATOM     23  C   UNL A   1      39.685  31.097  34.448  1.00  0.00     0.034 A 
ATOM     24  C   UNL A   1      41.855  27.268  29.040  1.00  0.00     0.034 A 
ATOM     25  C   UNL A   1      40.975  30.500  34.616  1.00  0.00     0.049 A 
ATOM     26  C   UNL A   1      42.624  27.318  30.337  1.00  0.00     0.074 A 
ATOM     27  C   UNL A   1      41.898  30.714  35.621  1.00  0.00     0.029 A 
ATOM     28  N   UNL A   1      41.547  29.610  33.722  1.00  0.00    -0.354 N 
ATOM     29  N   UNL A   1      42.349  27.974  31.436  1.00  0.00    -0.248 NA
ATOM     30  C   UNL A   1      43.883  26.554  30.394  1.00  0.00     0.031 C 
ATOM     31  C   UNL A   1      43.043  29.970  35.321  1.00  0.00     0.029 A 
ATOM     32  C   UNL A   1      42.808  29.253  34.158  1.00  0.00     0.049 A 
ATOM     33  H   UNL A   1      41.119  29.281  32.898  1.00  0.00     0.167 HD
ATOM     34  C   UNL A   1      43.417  27.743  32.295  1.00  0.00     0.074 A 
ATOM     35  C   UNL A   1      44.306  26.818  31.623  1.00  0.00     0.031 C 
ATOM     36  C   UNL A   1      43.665  28.297  33.506  1.00  0.00     0.034 A 
BRANCH  23  37
ATOM     37  C   UNL A   1      39.133  32.005  35.505  1.00  0.00     0.023 A 
ATOM     38  C   UNL A   1      39.469  33.372  35.504  1.00  0.00     0.012 A 
ATOM     39  C   UNL A   1      38.397  31.463  36.576  1.00  0.00     0.148 A 
ATOM     40  C   UNL A   1      39.115  34.182  36.583  1.00  0.00     0.002 A 
ATOM     41  C   UNL A   1      38.018  32.283  37.628  1.00  0.00     0.091 A 
ATOM     42  F   UNL A   1      38.143  30.147  36.576  1.00  0.00    -0.205 F 
ATOM     43  C   UNL A   1      38.389  33.638  37.641  1.00  0.00     0.022 A 
BRANCH  41  44
ATOM     44  S   UNL A   1      37.065  31.674  39.020  1.00  0.00     0.127 S 
ATOM     45  O   UNL A   1      38.107  31.488  40.029  1.00  0.00    -0.237 OA
ATOM     46  O   UNL A   1      36.156  32.790  39.278  1.00  0.00    -0.237 OA
ATOM     47  O   UNL A   1      36.415  30.456  38.559  1.00  0.00    -0.744 OA
ENDBRANCH  41  44
ENDBRANCH  23  37
BRANCH  24  48
ATOM     48  C   UNL A   1      42.168  26.187  28.042  1.00  0.00     0.023 A 
ATOM     49  C   UNL A   1      43.284  26.362  27.188  1.00  0.00     0.012 A 
ATOM     50  C   UNL A   1      41.387  25.028  27.880  1.00  0.00     0.148 A 
ATOM     51  C   UNL A   1      43.596  25.426  26.195  1.00  0.00     0.002 A 
ATOM     52  C   UNL A   1      41.750  24.062  26.942  1.00  0.00     0.091 A 
ATOM     53  F   UNL A   1      40.282  24.895  28.626  1.00  0.00    -0.205 F 
ATOM     54  C   UNL A   1      42.840  24.267  26.084  1.00  0.00     0.022 A 
BRANCH  52  55
ATOM     55  S   UNL A   1      40.913  22.474  26.825  1.00  0.00     0.127 S 
ATOM     56  O   UNL A   1      39.546  22.879  26.511  1.00  0.00    -0.237 OA
ATOM     57  O   UNL A   1      41.634  21.833  25.724  1.00  0.00    -0.237 OA
ATOM     58  O   UNL A   1      41.106  21.843  28.123  1.00  0.00    -0.744 OA
ENDBRANCH  52  55
ENDBRANCH  24  48
BRANCH  36  59
ATOM     59  C   UNL A   1      44.943  27.941  34.210  1.00  0.00     0.023 A 
ATOM     60  C   UNL A   1      46.083  28.753  34.054  1.00  0.00     0.012 A 
ATOM     61  C   UNL A   1      44.960  26.892  35.150  1.00  0.00     0.148 A 
ATOM     62  C   UNL A   1      47.225  28.521  34.818  1.00  0.00     0.002 A 
ATOM     63  C   UNL A   1      46.083  26.700  35.943  1.00  0.00     0.091 A 
ATOM     64  F   UNL A   1      43.871  26.117  35.261  1.00  0.00    -0.205 F 
ATOM     65  C   UNL A   1      47.219  27.508  35.774  1.00  0.00     0.022 A 
BRANCH  63  66
ATOM     66  S   UNL A   1      46.110  25.496  37.275  1.00  0.00     0.127 S 
ATOM     67  O   UNL A   1      47.449  25.695  37.828  1.00  0.00    -0.237 OA
ATOM     68  O   UNL A   1      45.019  25.957  38.135  1.00  0.00    -0.237 OA
ATOM     69  O   UNL A   1      45.877  24.201  36.648  1.00  0.00    -0.744 OA
ENDBRANCH  63  66
ENDBRANCH  36  59
ENDBRANCH  10  11
ENDBRANCH   3   5
ENDBRANCH   2   3
ENDBRANCH   1   2
BRANCH   1  70
ATOM     70  C   UNL A   1      31.728  28.358  26.647  1.00  0.00     0.274 C 
BRANCH  70  71
ATOM     71  O   UNL A   1      30.653  27.457  26.334  1.00  0.00    -0.462 OA
BRANCH  71  72
ATOM     72  C   UNL A   1      30.977  26.160  26.070  1.00  0.00     0.309 C 
ATOM     73  O   UNL A   1      31.124  25.325  26.954  1.00  0.00    -0.252 OA
BRANCH  72  74
ATOM     74  C   UNL A   1      31.071  25.846  24.572  1.00  0.00     0.111 C 
ATOM     75  C   UNL A   1      29.647  25.911  24.039  1.00  0.00     0.016 C 
ATOM     76  C   UNL A   1      31.990  26.530  23.540  1.00  0.00     0.093 C 
ATOM     77  C   UNL A   1      29.125  27.227  23.497  1.00  0.00     0.001 C 
ATOM     78  C   UNL A   1      31.492  27.915  23.102  1.00  0.00     0.014 C 
ATOM     79  C   UNL A   1      30.090  27.837  22.505  1.00  0.00     0.001 C 
BRANCH  76  80
ATOM     80  C   UNL A   1      33.513  26.502  23.706  1.00  0.00     0.226 C 
ATOM     81  O   UNL A   1      34.211  27.491  23.510  1.00  0.00    -0.275 OA
ATOM     82  N   UNL A   1      34.056  25.332  24.153  1.00  0.00    -0.340 N 
ATOM     83  C   UNL A   1      34.554  25.107  25.504  1.00  0.00     0.136 C 
ATOM     84  C   UNL A   1      34.252  24.240  23.248  1.00  0.00     0.136 C 
ATOM     85  C   UNL A   1      33.981  23.787  26.095  1.00  0.00     0.124 C 
ATOM     86  C   UNL A   1      33.392  23.111  23.797  1.00  0.00     0.124 C 
ATOM     87  N   UNL A   1      33.908  22.631  25.105  1.00  0.00    -0.194 NA
BRANCH  87  88
ATOM     88  S   UNL A   1      35.240  21.577  25.054  1.00  0.00     0.243 S 
ATOM     89  O   UNL A   1      36.055  21.888  23.903  1.00  0.00    -0.207 OA
ATOM     90  O   UNL A   1      35.817  21.551  26.384  1.00  0.00    -0.207 OA
BRANCH  88  91
ATOM     91  C   UNL A   1      34.497  19.969  24.757  1.00  0.00     0.082 A 
ATOM     92  C   UNL A   1      33.100  19.835  24.688  1.00  0.00     0.025 A 
ATOM     93  C   UNL A   1      35.317  18.854  24.558  1.00  0.00     0.025 A 
ATOM     94  C   UNL A   1      32.526  18.569  24.544  1.00  0.00     0.040 A 
ATOM     95  C   UNL A   1      34.736  17.601  24.349  1.00  0.00     0.040 A 
ATOM     96  C   UNL A   1      33.350  17.466  24.370  1.00  0.00     0.123 A 
ATOM     97  F   UNL A   1      32.803  16.253  24.208  1.00  0.00    -0.207 F 
ENDBRANCH  88  91
ENDBRANCH  87  88
ENDBRANCH  76  80
ENDBRANCH  72  74
ENDBRANCH  71  72
ENDBRANCH  70  71
ENDBRANCH   1  70
TORSDOF 17
ENDMDL
MODEL 2
REMARK VINA RESULT:     -12.4      5.284     10.114
REMARK SMILES O=C(OCCOC(=O)[C@H]1CCCC[C@H]1C(=O)N1CCN(S(=O)(=O)c2ccc(F)cc2)CC1)c1ccc(-c2c3nc(c(-c4cccc(S(=O)(=O)[O-])c4F)c4ccc([nH]4)c(-c4cccc(S(=O)(=O)[O-])c4F)c4nc(c(-c5cccc(S(=O)(=O)[O-])c5F)c5ccc2[nH]5)C=C4)C=C3)cc1
REMARK SMILES IDX 4 1 3 2 2 3 1 4 33 5 34 6 95 7 35 8 94 9 36 10 37 11 38 12
REMARK SMILES IDX 88 13 39 14 93 15 87 16 89 17 40 18 92 19 86 20 85 21 41 23
REMARK SMILES IDX 73 24 53 25 72 26 54 27 57 28 71 29 90 30 55 31 56 32 70 34
REMARK SMILES IDX 91 35 58 36 42 37 43 38 51 39 44 40 46 41 52 42 45 43 47 44
REMARK SMILES IDX 48 45 49 46 50 47 74 48 75 49 83 50 76 51 78 52 84 53 77 54
REMARK SMILES IDX 79 55 80 56 81 57 82 58 59 59 60 60 68 61 61 62 63 63 69 64
REMARK SMILES IDX 62 65 64 66 65 67 66 68 67 69 5 70 6 71 7 72 8 73 9 74 10 75
REMARK SMILES IDX 14 76 11 77 13 78 12 79 15 80 16 81 17 82 18 83 32 84 19 85
REMARK SMILES IDX 31 86 20 87 21 88 22 89 23 90 24 91 25 92 30 93 26 94 29 95
REMARK SMILES IDX 27 96 28 97
REMARK H PARENT 89 22 57 33
REMARK Flexibility Score: inf
ROOT
ATOM      1  C   UNL A   1      36.858  21.578  25.261  1.00  0.00     0.275 C 
ENDROOT
BRANCH   1   2
ATOM      2  O   UNL A   1      38.273  21.386  25.071  1.00  0.00    -0.458 OA
BRANCH   2   3
ATOM      3  C   UNL A   1      39.249  21.327  26.015  1.00  0.00     0.338 C 
ATOM      4  O   UNL A   1      39.600  20.244  26.473  1.00  0.00    -0.246 OA
BRANCH   3   5
ATOM      5  C   UNL A   1      39.717  22.569  26.693  1.00  0.00     0.060 A 
ATOM      6  C   UNL A   1      40.715  22.598  27.661  1.00  0.00     0.016 A 
ATOM      7  C   UNL A   1      39.074  23.779  26.366  1.00  0.00     0.016 A 
ATOM      8  C   UNL A   1      41.180  23.832  28.144  1.00  0.00     0.010 A 
ATOM      9  C   UNL A   1      39.495  25.014  26.908  1.00  0.00     0.010 A 
ATOM     10  C   UNL A   1      40.600  25.069  27.758  1.00  0.00    -0.014 A 
BRANCH  10  11
ATOM     11  C   UNL A   1      41.205  26.338  28.302  1.00  0.00     0.031 A 
ATOM     12  C   UNL A   1      42.505  26.780  27.693  1.00  0.00     0.074 A 
ATOM     13  C   UNL A   1      40.585  27.176  29.170  1.00  0.00     0.049 A 
ATOM     14  N   UNL A   1      43.066  27.957  27.686  1.00  0.00    -0.248 NA
ATOM     15  C   UNL A   1      43.261  25.741  26.972  1.00  0.00     0.031 C 
ATOM     16  C   UNL A   1      39.368  26.897  29.925  1.00  0.00     0.029 A 
ATOM     17  N   UNL A   1      40.831  28.505  29.476  1.00  0.00    -0.354 N 
ATOM     18  C   UNL A   1      44.259  27.787  27.000  1.00  0.00     0.074 A 
ATOM     19  C   UNL A   1      44.276  26.434  26.488  1.00  0.00     0.031 C 
ATOM     20  C   UNL A   1      38.837  28.047  30.372  1.00  0.00     0.029 A 
ATOM     21  C   UNL A   1      39.758  29.139  30.090  1.00  0.00     0.049 A 
ATOM     22  H   UNL A   1      41.682  28.957  29.277  1.00  0.00     0.167 HD
ATOM     23  C   UNL A   1      45.309  28.630  26.901  1.00  0.00     0.034 A 
ATOM     24  C   UNL A   1      39.546  30.444  30.380  1.00  0.00     0.034 A 
ATOM     25  C   UNL A   1      45.391  29.887  27.582  1.00  0.00     0.049 A 
ATOM     26  C   UNL A   1      40.714  31.388  30.232  1.00  0.00     0.074 A 
ATOM     27  C   UNL A   1      46.497  30.693  27.771  1.00  0.00     0.029 A 
ATOM     28  N   UNL A   1      44.330  30.494  28.233  1.00  0.00    -0.354 N 
ATOM     29  N   UNL A   1      41.851  31.203  29.611  1.00  0.00    -0.248 NA
ATOM     30  C   UNL A   1      40.600  32.697  30.899  1.00  0.00     0.031 C 
ATOM     31  C   UNL A   1      46.109  31.779  28.562  1.00  0.00     0.029 A 
ATOM     32  C   UNL A   1      44.751  31.673  28.816  1.00  0.00     0.049 A 
ATOM     33  H   UNL A   1      43.413  30.137  28.275  1.00  0.00     0.167 HD
ATOM     34  C   UNL A   1      42.604  32.347  29.848  1.00  0.00     0.074 A 
ATOM     35  C   UNL A   1      41.765  33.256  30.600  1.00  0.00     0.031 C 
ATOM     36  C   UNL A   1      43.896  32.592  29.523  1.00  0.00     0.034 A 
BRANCH  23  37
ATOM     37  C   UNL A   1      46.505  28.088  26.178  1.00  0.00     0.023 A 
ATOM     38  C   UNL A   1      46.601  28.219  24.780  1.00  0.00     0.012 A 
ATOM     39  C   UNL A   1      47.459  27.327  26.880  1.00  0.00     0.148 A 
ATOM     40  C   UNL A   1      47.612  27.558  24.082  1.00  0.00     0.002 A 
ATOM     41  C   UNL A   1      48.481  26.702  26.183  1.00  0.00     0.091 A 
ATOM     42  F   UNL A   1      47.307  27.174  28.203  1.00  0.00    -0.205 F 
ATOM     43  C   UNL A   1      48.551  26.803  24.783  1.00  0.00     0.022 A 
BRANCH  41  44
ATOM     44  S   UNL A   1      49.744  25.729  27.003  1.00  0.00     0.127 S 
ATOM     45  O   UNL A   1      50.188  26.648  28.051  1.00  0.00    -0.237 OA
ATOM     46  O   UNL A   1      48.979  24.578  27.481  1.00  0.00    -0.237 OA
ATOM     47  O   UNL A   1      50.736  25.417  25.984  1.00  0.00    -0.744 OA
ENDBRANCH  41  44
ENDBRANCH  23  37
BRANCH  24  48
ATOM     48  C   UNL A   1      38.218  30.985  30.834  1.00  0.00     0.023 A 
ATOM     49  C   UNL A   1      37.888  30.895  32.208  1.00  0.00     0.012 A 
ATOM     50  C   UNL A   1      37.265  31.541  29.961  1.00  0.00     0.148 A 
ATOM     51  C   UNL A   1      36.645  31.322  32.690  1.00  0.00     0.002 A 
ATOM     52  C   UNL A   1      36.060  32.037  30.459  1.00  0.00     0.091 A 
ATOM     53  F   UNL A   1      37.534  31.553  28.648  1.00  0.00    -0.205 F 
ATOM     54  C   UNL A   1      35.738  31.910  31.818  1.00  0.00     0.022 A 
BRANCH  52  55
ATOM     55  S   UNL A   1      34.890  32.934  29.429  1.00  0.00     0.127 S 
ATOM     56  O   UNL A   1      34.309  31.860  28.630  1.00  0.00    -0.237 OA
ATOM     57  O   UNL A   1      33.991  33.514  30.428  1.00  0.00    -0.237 OA
ATOM     58  O   UNL A   1      35.692  33.907  28.699  1.00  0.00    -0.744 OA
ENDBRANCH  52  55
ENDBRANCH  24  48
BRANCH  36  59
ATOM     59  C   UNL A   1      44.514  33.888  29.965  1.00  0.00     0.023 A 
ATOM     60  C   UNL A   1      45.305  33.929  31.130  1.00  0.00     0.012 A 
ATOM     61  C   UNL A   1      44.438  35.024  29.136  1.00  0.00     0.148 A 
ATOM     62  C   UNL A   1      46.007  35.086  31.466  1.00  0.00     0.002 A 
ATOM     63  C   UNL A   1      45.180  36.155  29.451  1.00  0.00     0.091 A 
ATOM     64  F   UNL A   1      43.658  34.968  28.047  1.00  0.00    -0.205 F 
ATOM     65  C   UNL A   1      45.959  36.190  30.619  1.00  0.00     0.022 A 
BRANCH  63  66
ATOM     66  S   UNL A   1      45.264  37.572  28.352  1.00  0.00     0.127 S 
ATOM     67  O   UNL A   1      46.529  37.334  27.657  1.00  0.00    -0.237 OA
ATOM     68  O   UNL A   1      44.070  37.397  27.524  1.00  0.00    -0.237 OA
ATOM     69  O   UNL A   1      45.233  38.747  29.212  1.00  0.00    -0.744 OA
ENDBRANCH  63  66
ENDBRANCH  36  59
ENDBRANCH  10  11
ENDBRANCH   3   5
ENDBRANCH   2   3
ENDBRANCH   1   2
BRANCH   1  70
ATOM     70  C   UNL A   1      36.267  22.653  24.346  1.00  0.00     0.274 C 
BRANCH  70  71
ATOM     71  O   UNL A   1      35.249  22.175  23.450  1.00  0.00    -0.462 OA
BRANCH  71  72
ATOM     72  C   UNL A   1      34.256  23.043  23.108  1.00  0.00     0.309 C 
ATOM     73  O   UNL A   1      34.390  23.885  22.230  1.00  0.00    -0.252 OA
BRANCH  72  74
ATOM     74  C   UNL A   1      32.951  22.813  23.880  1.00  0.00     0.111 C 
ATOM     75  C   UNL A   1      32.198  21.729  23.120  1.00  0.00     0.016 C 
ATOM     76  C   UNL A   1      32.808  22.515  25.386  1.00  0.00     0.093 C 
ATOM     77  C   UNL A   1      32.413  20.279  23.504  1.00  0.00     0.001 C 
ATOM     78  C   UNL A   1      33.149  21.064  25.757  1.00  0.00     0.014 C 
ATOM     79  C   UNL A   1      32.271  20.076  24.997  1.00  0.00     0.001 C 
BRANCH  76  80
ATOM     80  C   UNL A   1      33.327  23.505  26.434  1.00  0.00     0.226 C 
ATOM     81  O   UNL A   1      33.935  23.139  27.435  1.00  0.00    -0.275 OA
ATOM     82  N   UNL A   1      33.142  24.830  26.165  1.00  0.00    -0.340 N 
ATOM     83  C   UNL A   1      34.186  25.746  25.726  1.00  0.00     0.136 C 
ATOM     84  C   UNL A   1      31.866  25.437  26.396  1.00  0.00     0.136 C 
ATOM     85  C   UNL A   1      33.725  26.559  24.482  1.00  0.00     0.124 C 
ATOM     86  C   UNL A   1      31.406  25.925  25.030  1.00  0.00     0.124 C 
ATOM     87  N   UNL A   1      32.275  27.022  24.533  1.00  0.00    -0.194 NA
BRANCH  87  88
ATOM     88  S   UNL A   1      31.983  28.570  25.172  1.00  0.00     0.243 S 
ATOM     89  O   UNL A   1      31.478  28.446  26.518  1.00  0.00    -0.207 OA
ATOM     90  O   UNL A   1      33.155  29.376  24.893  1.00  0.00    -0.207 OA
BRANCH  88  91
ATOM     91  C   UNL A   1      30.640  29.200  24.159  1.00  0.00     0.082 A 
ATOM     92  C   UNL A   1      30.180  30.517  24.330  1.00  0.00     0.025 A 
ATOM     93  C   UNL A   1      30.077  28.385  23.172  1.00  0.00     0.025 A 
ATOM     94  C   UNL A   1      29.079  30.972  23.601  1.00  0.00     0.040 A 
ATOM     95  C   UNL A   1      29.018  28.870  22.401  1.00  0.00     0.040 A 
ATOM     96  C   UNL A   1      28.513  30.146  22.638  1.00  0.00     0.123 A 
ATOM     97  F   UNL A   1      27.471  30.588  21.921  1.00  0.00    -0.207 F 
ENDBRANCH  88  91
ENDBRANCH  87  88
ENDBRANCH  76  80
ENDBRANCH  72  74
ENDBRANCH  71  72
ENDBRANCH  70  71
ENDBRANCH   1  70
TORSDOF 17
ENDMDL
MODEL 3
REMARK VINA RESULT:     -11.7      2.516      3.176
REMARK SMILES O=C(OCCOC(=O)[C@H]1CCCC[C@H]1C(=O)N1CCN(S(=O)(=O)c2ccc(F)cc2)CC1)c1ccc(-c2c3nc(c(-c4cccc(S(=O)(=O)[O-])c4F)c4ccc([nH]4)c(-c4cccc(S(=O)(=O)[O-])c4F)c4nc(c(-c5cccc(S(=O)(=O)[O-])c5F)c5ccc2[nH]5)C=C4)C=C3)cc1
REMARK SMILES IDX 4 1 3 2 2 3 1 4 33 5 34 6 95 7 35 8 94 9 36 10 37 11 38 12
REMARK SMILES IDX 88 13 39 14 93 15 87 16 89 17 40 18 92 19 86 20 85 21 41 23
REMARK SMILES IDX 73 24 53 25 72 26 54 27 57 28 71 29 90 30 55 31 56 32 70 34
REMARK SMILES IDX 91 35 58 36 42 37 43 38 51 39 44 40 46 41 52 42 45 43 47 44
REMARK SMILES IDX 48 45 49 46 50 47 74 48 75 49 83 50 76 51 78 52 84 53 77 54
REMARK SMILES IDX 79 55 80 56 81 57 82 58 59 59 60 60 68 61 61 62 63 63 69 64
REMARK SMILES IDX 62 65 64 66 65 67 66 68 67 69 5 70 6 71 7 72 8 73 9 74 10 75
REMARK SMILES IDX 14 76 11 77 13 78 12 79 15 80 16 81 17 82 18 83 32 84 19 85
REMARK SMILES IDX 31 86 20 87 21 88 22 89 23 90 24 91 25 92 30 93 26 94 29 95
REMARK SMILES IDX 27 96 28 97
REMARK H PARENT 89 22 57 33
REMARK Flexibility Score: inf
ROOT
ATOM      1  C   UNL A   1      31.867  30.287  26.786  1.00  0.00     0.275 C 
ENDROOT
BRANCH   1   2
ATOM      2  O   UNL A   1      33.201  30.825  26.692  1.00  0.00    -0.458 OA
BRANCH   2   3
ATOM      3  C   UNL A   1      33.883  31.549  27.618  1.00  0.00     0.338 C 
ATOM      4  O   UNL A   1      33.464  32.646  27.974  1.00  0.00    -0.246 OA
BRANCH   3   5
ATOM      5  C   UNL A   1      35.264  31.154  28.016  1.00  0.00     0.060 A 
ATOM      6  C   UNL A   1      36.319  32.049  28.156  1.00  0.00     0.016 A 
ATOM      7  C   UNL A   1      35.525  29.783  28.213  1.00  0.00     0.016 A 
ATOM      8  C   UNL A   1      37.549  31.599  28.665  1.00  0.00     0.010 A 
ATOM      9  C   UNL A   1      36.785  29.323  28.655  1.00  0.00     0.010 A 
ATOM     10  C   UNL A   1      37.802  30.232  28.952  1.00  0.00    -0.014 A 
BRANCH  10  11
ATOM     11  C   UNL A   1      39.141  29.864  29.537  1.00  0.00     0.031 A 
ATOM     12  C   UNL A   1      39.417  30.333  30.937  1.00  0.00     0.074 A 
ATOM     13  C   UNL A   1      40.028  29.018  28.956  1.00  0.00     0.049 A 
ATOM     14  N   UNL A   1      40.282  29.893  31.809  1.00  0.00    -0.248 NA
ATOM     15  C   UNL A   1      38.575  31.441  31.421  1.00  0.00     0.031 C 
ATOM     16  C   UNL A   1      39.983  28.522  27.585  1.00  0.00     0.029 A 
ATOM     17  N   UNL A   1      41.094  28.316  29.495  1.00  0.00    -0.354 N 
ATOM     18  C   UNL A   1      40.116  30.700  32.924  1.00  0.00     0.074 A 
ATOM     19  C   UNL A   1      38.980  31.561  32.672  1.00  0.00     0.031 C 
ATOM     20  C   UNL A   1      40.767  27.437  27.468  1.00  0.00     0.029 A 
ATOM     21  C   UNL A   1      41.512  27.252  28.705  1.00  0.00     0.049 A 
ATOM     22  H   UNL A   1      41.514  28.547  30.355  1.00  0.00     0.167 HD
ATOM     23  C   UNL A   1      40.904  30.814  34.015  1.00  0.00     0.034 A 
ATOM     24  C   UNL A   1      42.384  26.248  28.958  1.00  0.00     0.034 A 
ATOM     25  C   UNL A   1      42.146  30.121  34.178  1.00  0.00     0.049 A 
ATOM     26  C   UNL A   1      43.236  26.363  30.198  1.00  0.00     0.074 A 
ATOM     27  C   UNL A   1      43.146  30.354  35.102  1.00  0.00     0.029 A 
ATOM     28  N   UNL A   1      42.580  29.092  33.360  1.00  0.00    -0.354 N 
ATOM     29  N   UNL A   1      43.090  27.155  31.230  1.00  0.00    -0.248 NA
ATOM     30  C   UNL A   1      44.425  25.496  30.271  1.00  0.00     0.031 C 
ATOM     31  C   UNL A   1      44.201  29.479  34.826  1.00  0.00     0.029 A 
ATOM     32  C   UNL A   1      43.831  28.668  33.764  1.00  0.00     0.049 A 
ATOM     33  H   UNL A   1      42.074  28.719  32.602  1.00  0.00     0.167 HD
ATOM     34  C   UNL A   1      44.187  26.918  32.050  1.00  0.00     0.074 A 
ATOM     35  C   UNL A   1      44.947  25.849  31.439  1.00  0.00     0.031 C 
ATOM     36  C   UNL A   1      44.558  27.572  33.177  1.00  0.00     0.034 A 
BRANCH  23  37
ATOM     37  C   UNL A   1      40.502  31.877  34.993  1.00  0.00     0.023 A 
ATOM     38  C   UNL A   1      39.545  31.595  35.986  1.00  0.00     0.012 A 
ATOM     39  C   UNL A   1      40.977  33.192  34.828  1.00  0.00     0.148 A 
ATOM     40  C   UNL A   1      39.031  32.623  36.775  1.00  0.00     0.002 A 
ATOM     41  C   UNL A   1      40.487  34.202  35.640  1.00  0.00     0.091 A 
ATOM     42  F   UNL A   1      41.845  33.439  33.836  1.00  0.00    -0.205 F 
ATOM     43  C   UNL A   1      39.503  33.923  36.604  1.00  0.00     0.022 A 
BRANCH  41  44
ATOM     44  S   UNL A   1      41.052  35.899  35.505  1.00  0.00     0.127 S 
ATOM     45  O   UNL A   1      39.806  36.639  35.702  1.00  0.00    -0.237 OA
ATOM     46  O   UNL A   1      42.001  35.992  36.613  1.00  0.00    -0.237 OA
ATOM     47  O   UNL A   1      41.648  36.018  34.183  1.00  0.00    -0.744 OA
ENDBRANCH  41  44
ENDBRANCH  23  37
BRANCH  24  48
ATOM     48  C   UNL A   1      42.538  25.043  28.071  1.00  0.00     0.023 A 
ATOM     49  C   UNL A   1      41.624  23.973  28.223  1.00  0.00     0.012 A 
ATOM     50  C   UNL A   1      43.568  24.903  27.123  1.00  0.00     0.148 A 
ATOM     51  C   UNL A   1      41.746  22.797  27.475  1.00  0.00     0.002 A 
ATOM     52  C   UNL A   1      43.638  23.761  26.324  1.00  0.00     0.091 A 
ATOM     53  F   UNL A   1      44.487  25.874  27.031  1.00  0.00    -0.205 F 
ATOM     54  C   UNL A   1      42.742  22.698  26.512  1.00  0.00     0.022 A 
BRANCH  52  55
ATOM     55  S   UNL A   1      44.805  23.608  24.964  1.00  0.00     0.127 S 
ATOM     56  O   UNL A   1      44.081  22.733  24.047  1.00  0.00    -0.237 OA
ATOM     57  O   UNL A   1      44.934  24.996  24.520  1.00  0.00    -0.237 OA
ATOM     58  O   UNL A   1      46.011  23.047  25.557  1.00  0.00    -0.744 OA
ENDBRANCH  52  55
ENDBRANCH  24  48
BRANCH  36  59
ATOM     59  C   UNL A   1      45.843  27.175  33.846  1.00  0.00     0.023 A 
ATOM     60  C   UNL A   1      47.040  27.844  33.524  1.00  0.00     0.012 A 
ATOM     61  C   UNL A   1      45.827  26.250  34.908  1.00  0.00     0.148 A 
ATOM     62  C   UNL A   1      48.206  27.590  34.246  1.00  0.00     0.002 A 
ATOM     63  C   UNL A   1      46.980  26.041  35.654  1.00  0.00     0.091 A 
ATOM     64  F   UNL A   1      44.681  25.608  35.177  1.00  0.00    -0.205 F 
ATOM     65  C   UNL A   1      48.171  26.704  35.320  1.00  0.00     0.022 A 
BRANCH  63  66
ATOM     66  S   UNL A   1      46.986  25.008  37.122  1.00  0.00     0.127 S 
ATOM     67  O   UNL A   1      46.723  23.685  36.556  1.00  0.00    -0.237 OA
ATOM     68  O   UNL A   1      48.345  25.196  37.630  1.00  0.00    -0.237 OA
ATOM     69  O   UNL A   1      45.941  25.539  37.988  1.00  0.00    -0.744 OA
ENDBRANCH  63  66
ENDBRANCH  36  59
ENDBRANCH  10  11
ENDBRANCH   3   5
ENDBRANCH   2   3
ENDBRANCH   1   2
BRANCH   1  70
ATOM     70  C   UNL A   1      31.806  28.956  27.539  1.00  0.00     0.274 C 
BRANCH  70  71
ATOM     71  O   UNL A   1      31.672  27.801  26.693  1.00  0.00    -0.462 OA
BRANCH  71  72
ATOM     72  C   UNL A   1      32.602  27.630  25.712  1.00  0.00     0.309 C 
ATOM     73  O   UNL A   1      33.776  27.379  25.954  1.00  0.00    -0.252 OA
BRANCH  72  74
ATOM     74  C   UNL A   1      32.021  27.717  24.296  1.00  0.00     0.111 C 
ATOM     75  C   UNL A   1      32.691  28.916  23.639  1.00  0.00     0.016 C 
ATOM     76  C   UNL A   1      31.957  26.585  23.251  1.00  0.00     0.093 C 
ATOM     77  C   UNL A   1      33.970  28.704  22.854  1.00  0.00     0.001 C 
ATOM     78  C   UNL A   1      33.302  26.316  22.559  1.00  0.00     0.014 C 
ATOM     79  C   UNL A   1      33.828  27.568  21.865  1.00  0.00     0.001 C 
BRANCH  76  80
ATOM     80  C   UNL A   1      31.203  25.285  23.549  1.00  0.00     0.226 C 
ATOM     81  O   UNL A   1      29.984  25.197  23.443  1.00  0.00    -0.275 OA
ATOM     82  N   UNL A   1      31.964  24.200  23.874  1.00  0.00    -0.340 N 
ATOM     83  C   UNL A   1      32.237  23.076  22.987  1.00  0.00     0.136 C 
ATOM     84  C   UNL A   1      32.488  24.062  25.200  1.00  0.00     0.136 C 
ATOM     85  C   UNL A   1      33.758  22.753  22.952  1.00  0.00     0.124 C 
ATOM     86  C   UNL A   1      33.999  24.058  25.031  1.00  0.00     0.124 C 
ATOM     87  N   UNL A   1      34.455  22.845  24.303  1.00  0.00    -0.194 NA
BRANCH  87  88
ATOM     88  S   UNL A   1      34.564  21.413  25.212  1.00  0.00     0.243 S 
ATOM     89  O   UNL A   1      34.088  21.657  26.552  1.00  0.00    -0.207 OA
ATOM     90  O   UNL A   1      33.996  20.350  24.406  1.00  0.00    -0.207 OA
BRANCH  88  91
ATOM     91  C   UNL A   1      36.332  21.117  25.325  1.00  0.00     0.082 A 
ATOM     92  C   UNL A   1      36.870  19.874  24.950  1.00  0.00     0.025 A 
ATOM     93  C   UNL A   1      37.179  22.143  25.755  1.00  0.00     0.025 A 
ATOM     94  C   UNL A   1      38.232  19.621  25.123  1.00  0.00     0.040 A 
ATOM     95  C   UNL A   1      38.551  21.903  25.864  1.00  0.00     0.040 A 
ATOM     96  C   UNL A   1      39.061  20.641  25.572  1.00  0.00     0.123 A 
ATOM     97  F   UNL A   1      40.373  20.408  25.717  1.00  0.00    -0.207 F 
ENDBRANCH  88  91
ENDBRANCH  87  88
ENDBRANCH  76  80
ENDBRANCH  72  74
ENDBRANCH  71  72
ENDBRANCH  70  71
ENDBRANCH   1  70
TORSDOF 17
ENDMDL
