MODEL 1
REMARK VINA RESULT:     -12.4      0.000      0.000
REMARK SMILES Cc1cc2n(n1)[C@H](C(F)(F)F)CCN2C(=O)c1cnn([C@@H](C)C(=O)OCCOC(=O)c2ccc(-c3c4nc(c(-c5cccc(S(=O)(=O)[O-])c5F)c5ccc([nH]5)c(-c5cccc(S(=O)(=O)[O-])c5F)c5nc(c(-c6cccc(S(=O)(=O)[O-])c6F)c6ccc3[nH]6)C=C5)C=C4)cc2)c1
REMARK SMILES IDX 26 1 25 2 23 3 24 4 21 5 22 6 20 7 17 8 18 9 94 10 19 11
REMARK SMILES IDX 15 12 16 13 14 14 1 15 2 16 3 17 6 18 4 19 5 20 7 21 13 22
REMARK SMILES IDX 12 23 8 24 9 25 10 26 11 27 27 28 28 29 29 30 30 31 31 32
REMARK SMILES IDX 32 33 93 34 33 35 92 36 34 37 35 38 36 39 86 40 37 41 91 42
REMARK SMILES IDX 85 43 87 44 38 45 90 46 84 47 83 48 39 50 71 51 51 52 70 53
REMARK SMILES IDX 52 54 55 55 69 56 88 57 53 58 54 59 68 61 89 62 56 63 40 64
REMARK SMILES IDX 41 65 49 66 42 67 44 68 50 69 43 70 45 71 46 72 47 73 48 74
REMARK SMILES IDX 72 75 73 76 81 77 74 78 76 79 82 80 75 81 77 82 78 83 79 84
REMARK SMILES IDX 80 85 57 86 58 87 66 88 59 89 61 90 67 91 60 92 62 93 63 94
REMARK SMILES IDX 64 95 65 96
REMARK H PARENT 87 49 55 60
REMARK Flexibility Score: inf
ROOT
ATOM      1  C   UNL A   1      32.010  29.635  25.966  1.00  0.00     0.274 C 
ENDROOT
BRANCH   1   2
ATOM      2  O   UNL A   1      31.474  28.608  26.830  1.00  0.00    -0.460 OA
BRANCH   2   3
ATOM      3  C   UNL A   1      31.345  27.366  26.292  1.00  0.00     0.330 C 
ATOM      4  O   UNL A   1      31.403  26.328  26.950  1.00  0.00    -0.250 OA
BRANCH   3   5
ATOM      5  C   UNL A   1      31.199  27.328  24.787  1.00  0.00     0.213 C 
ATOM      6  C   UNL A   1      29.759  27.000  24.425  1.00  0.00     0.046 C 
BRANCH   5   7
ATOM      7  N   UNL A   1      32.160  26.499  24.055  1.00  0.00    -0.258 N 
ATOM      8  C   UNL A   1      33.125  24.779  23.043  1.00  0.00     0.078 A 
ATOM      9  C   UNL A   1      33.943  25.929  23.079  1.00  0.00     0.149 A 
ATOM     10  C   UNL A   1      31.962  25.191  23.669  1.00  0.00     0.123 A 
ATOM     11  N   UNL A   1      33.438  26.891  23.855  1.00  0.00    -0.180 NA
BRANCH   8  12
ATOM     12  C   UNL A   1      33.369  23.490  22.437  1.00  0.00     0.262 C 
ATOM     13  O   UNL A   1      33.468  23.309  21.233  1.00  0.00    -0.269 OA
BRANCH  12  14
ATOM     14  N   UNL A   1      33.370  22.379  23.393  1.00  0.00    -0.293 N 
ATOM     15  C   UNL A   1      38.005  21.965  25.340  1.00  0.00     0.069 C 
ATOM     16  C   UNL A   1      36.569  21.816  24.985  1.00  0.00     0.062 A 
ATOM     17  C   UNL A   1      35.803  22.608  24.087  1.00  0.00     0.072 A 
ATOM     18  N   UNL A   1      35.829  20.843  25.534  1.00  0.00    -0.176 NA
ATOM     19  C   UNL A   1      34.548  22.042  24.078  1.00  0.00     0.134 A 
ATOM     20  N   UNL A   1      34.643  20.976  24.933  1.00  0.00    -0.237 N 
ATOM     21  C   UNL A   1      33.556  20.077  25.247  1.00  0.00     0.216 C 
ATOM     22  C   UNL A   1      32.226  21.440  23.506  1.00  0.00     0.130 C 
ATOM     23  C   UNL A   1      32.212  20.697  24.844  1.00  0.00     0.059 C 
BRANCH  21  24
ATOM     24  C   UNL A   1      33.780  18.727  24.602  1.00  0.00     0.410 C 
ATOM     25  F   UNL A   1      33.233  17.758  25.383  1.00  0.00    -0.169 F 
ATOM     26  F   UNL A   1      33.171  18.641  23.399  1.00  0.00    -0.169 F 
ATOM     27  F   UNL A   1      35.079  18.408  24.449  1.00  0.00    -0.169 F 
ENDBRANCH  21  24
ENDBRANCH  12  14
ENDBRANCH   8  12
ENDBRANCH   5   7
ENDBRANCH   3   5
ENDBRANCH   2   3
ENDBRANCH   1   2
BRANCH   1  28
ATOM     28  C   UNL A   1      31.745  31.035  26.511  1.00  0.00     0.275 C 
BRANCH  28  29
ATOM     29  O   UNL A   1      32.863  31.503  27.261  1.00  0.00    -0.458 OA
BRANCH  29  30
ATOM     30  C   UNL A   1      32.749  32.793  27.653  1.00  0.00     0.338 C 
ATOM     31  O   UNL A   1      31.898  33.584  27.330  1.00  0.00    -0.246 OA
BRANCH  30  32
ATOM     32  C   UNL A   1      33.920  33.200  28.425  1.00  0.00     0.060 A 
ATOM     33  C   UNL A   1      34.987  33.720  27.678  1.00  0.00     0.016 A 
ATOM     34  C   UNL A   1      34.075  32.646  29.695  1.00  0.00     0.016 A 
ATOM     35  C   UNL A   1      36.263  33.452  28.105  1.00  0.00     0.010 A 
ATOM     36  C   UNL A   1      35.346  32.347  30.099  1.00  0.00     0.010 A 
ATOM     37  C   UNL A   1      36.408  32.680  29.255  1.00  0.00    -0.014 A 
BRANCH  37  38
ATOM     38  C   UNL A   1      37.725  32.203  29.597  1.00  0.00     0.031 A 
ATOM     39  C   UNL A   1      37.943  30.788  29.228  1.00  0.00     0.074 A 
ATOM     40  C   UNL A   1      38.660  33.068  30.026  1.00  0.00     0.049 A 
ATOM     41  N   UNL A   1      38.231  29.794  30.002  1.00  0.00    -0.248 NA
ATOM     42  C   UNL A   1      37.625  30.405  27.843  1.00  0.00     0.031 C 
ATOM     43  C   UNL A   1      38.565  34.533  30.094  1.00  0.00     0.029 A 
ATOM     44  N   UNL A   1      39.963  32.830  30.313  1.00  0.00    -0.354 N 
ATOM     45  C   UNL A   1      38.348  28.702  29.144  1.00  0.00     0.074 A 
ATOM     46  C   UNL A   1      37.736  29.081  27.903  1.00  0.00     0.031 C 
ATOM     47  C   UNL A   1      39.812  35.051  30.138  1.00  0.00     0.029 A 
ATOM     48  C   UNL A   1      40.766  33.959  30.216  1.00  0.00     0.049 A 
ATOM     49  H   UNL A   1      40.307  31.942  30.568  1.00  0.00     0.167 HD
ATOM     50  C   UNL A   1      39.191  27.670  29.411  1.00  0.00     0.034 A 
ATOM     51  C   UNL A   1      42.115  33.965  30.079  1.00  0.00     0.034 A 
ATOM     52  C   UNL A   1      39.585  27.653  30.794  1.00  0.00     0.049 A 
ATOM     53  C   UNL A   1      42.605  32.624  30.482  1.00  0.00     0.074 A 
ATOM     54  C   UNL A   1      38.920  27.515  31.994  1.00  0.00     0.029 A 
ATOM     55  N   UNL A   1      40.819  28.174  31.095  1.00  0.00    -0.354 N 
ATOM     56  N   UNL A   1      42.521  32.158  31.696  1.00  0.00    -0.248 NA
ATOM     57  C   UNL A   1      42.790  31.623  29.442  1.00  0.00     0.031 C 
ATOM     58  C   UNL A   1      39.614  28.367  32.901  1.00  0.00     0.029 A 
ATOM     59  C   UNL A   1      40.685  28.948  32.216  1.00  0.00     0.049 A 
ATOM     60  H   UNL A   1      41.652  28.017  30.595  1.00  0.00     0.167 HD
ATOM     61  C   UNL A   1      42.204  30.814  31.538  1.00  0.00     0.074 A 
ATOM     62  C   UNL A   1      42.502  30.518  30.138  1.00  0.00     0.031 C 
ATOM     63  C   UNL A   1      41.452  30.152  32.469  1.00  0.00     0.034 A 
BRANCH  50  64
ATOM     64  C   UNL A   1      39.938  26.893  28.353  1.00  0.00     0.023 A 
ATOM     65  C   UNL A   1      39.758  25.494  28.335  1.00  0.00     0.012 A 
ATOM     66  C   UNL A   1      40.983  27.412  27.551  1.00  0.00     0.148 A 
ATOM     67  C   UNL A   1      40.597  24.657  27.592  1.00  0.00     0.002 A 
ATOM     68  C   UNL A   1      41.753  26.586  26.743  1.00  0.00     0.091 A 
ATOM     69  F   UNL A   1      41.347  28.693  27.659  1.00  0.00    -0.205 F 
ATOM     70  C   UNL A   1      41.587  25.202  26.784  1.00  0.00     0.022 A 
BRANCH  68  71
ATOM     71  S   UNL A   1      43.000  27.265  25.640  1.00  0.00     0.127 S 
ATOM     72  O   UNL A   1      43.522  26.057  25.009  1.00  0.00    -0.237 OA
ATOM     73  O   UNL A   1      42.198  28.126  24.770  1.00  0.00    -0.237 OA
ATOM     74  O   UNL A   1      43.921  27.992  26.506  1.00  0.00    -0.744 OA
ENDBRANCH  68  71
ENDBRANCH  50  64
BRANCH  51  75
ATOM     75  C   UNL A   1      42.960  34.930  29.340  1.00  0.00     0.023 A 
ATOM     76  C   UNL A   1      42.678  35.217  27.991  1.00  0.00     0.012 A 
ATOM     77  C   UNL A   1      43.889  35.754  30.017  1.00  0.00     0.148 A 
ATOM     78  C   UNL A   1      43.288  36.299  27.342  1.00  0.00     0.002 A 
ATOM     79  C   UNL A   1      44.504  36.817  29.365  1.00  0.00     0.091 A 
ATOM     80  F   UNL A   1      44.098  35.552  31.325  1.00  0.00    -0.205 F 
ATOM     81  C   UNL A   1      44.198  37.100  28.029  1.00  0.00     0.022 A 
BRANCH  79  82
ATOM     82  S   UNL A   1      45.678  37.896  30.196  1.00  0.00     0.127 S 
ATOM     83  O   UNL A   1      46.115  38.766  29.104  1.00  0.00    -0.237 OA
ATOM     84  O   UNL A   1      44.836  38.543  31.197  1.00  0.00    -0.237 OA
ATOM     85  O   UNL A   1      46.722  37.020  30.716  1.00  0.00    -0.744 OA
ENDBRANCH  79  82
ENDBRANCH  51  75
BRANCH  63  86
ATOM     86  C   UNL A   1      41.155  30.865  33.770  1.00  0.00     0.023 A 
ATOM     87  C   UNL A   1      42.121  30.970  34.794  1.00  0.00     0.012 A 
ATOM     88  C   UNL A   1      39.968  31.605  33.887  1.00  0.00     0.148 A 
ATOM     89  C   UNL A   1      41.900  31.770  35.919  1.00  0.00     0.002 A 
ATOM     90  C   UNL A   1      39.773  32.441  34.982  1.00  0.00     0.091 A 
ATOM     91  F   UNL A   1      39.062  31.512  32.902  1.00  0.00    -0.205 F 
ATOM     92  C   UNL A   1      40.731  32.516  36.006  1.00  0.00     0.022 A 
BRANCH  90  93
ATOM     93  S   UNL A   1      38.366  33.549  35.088  1.00  0.00     0.127 S 
ATOM     94  O   UNL A   1      38.460  34.283  33.828  1.00  0.00    -0.237 OA
ATOM     95  O   UNL A   1      37.240  32.614  35.167  1.00  0.00    -0.237 OA
ATOM     96  O   UNL A   1      38.568  34.338  36.295  1.00  0.00    -0.744 OA
ENDBRANCH  90  93
ENDBRANCH  63  86
ENDBRANCH  37  38
ENDBRANCH  30  32
ENDBRANCH  29  30
ENDBRANCH  28  29
ENDBRANCH   1  28
TORSDOF 18
ENDMDL
MODEL 2
REMARK VINA RESULT:     -12.2      1.415      2.089
REMARK SMILES Cc1cc2n(n1)[C@H](C(F)(F)F)CCN2C(=O)c1cnn([C@@H](C)C(=O)OCCOC(=O)c2ccc(-c3c4nc(c(-c5cccc(S(=O)(=O)[O-])c5F)c5ccc([nH]5)c(-c5cccc(S(=O)(=O)[O-])c5F)c5nc(c(-c6cccc(S(=O)(=O)[O-])c6F)c6ccc3[nH]6)C=C5)C=C4)cc2)c1
REMARK SMILES IDX 26 1 25 2 23 3 24 4 21 5 22 6 20 7 17 8 18 9 94 10 19 11
REMARK SMILES IDX 15 12 16 13 14 14 1 15 2 16 3 17 6 18 4 19 5 20 7 21 13 22
REMARK SMILES IDX 12 23 8 24 9 25 10 26 11 27 27 28 28 29 29 30 30 31 31 32
REMARK SMILES IDX 32 33 93 34 33 35 92 36 34 37 35 38 36 39 86 40 37 41 91 42
REMARK SMILES IDX 85 43 87 44 38 45 90 46 84 47 83 48 39 50 71 51 51 52 70 53
REMARK SMILES IDX 52 54 55 55 69 56 88 57 53 58 54 59 68 61 89 62 56 63 40 64
REMARK SMILES IDX 41 65 49 66 42 67 44 68 50 69 43 70 45 71 46 72 47 73 48 74
REMARK SMILES IDX 72 75 73 76 81 77 74 78 76 79 82 80 75 81 77 82 78 83 79 84
REMARK SMILES IDX 80 85 57 86 58 87 66 88 59 89 61 90 67 91 60 92 62 93 63 94
REMARK SMILES IDX 64 95 65 96
REMARK H PARENT 87 49 55 60
REMARK Flexibility Score: inf
ROOT
ATOM      1  C   UNL A   1      32.110  29.928  25.796  1.00  0.00     0.274 C 
ENDROOT
BRANCH   1   2
ATOM      2  O   UNL A   1      31.268  29.785  24.630  1.00  0.00    -0.460 OA
BRANCH   2   3
ATOM      3  C   UNL A   1      31.747  29.010  23.623  1.00  0.00     0.330 C 
ATOM      4  O   UNL A   1      32.843  29.181  23.091  1.00  0.00    -0.250 OA
BRANCH   3   5
ATOM      5  C   UNL A   1      30.798  27.941  23.125  1.00  0.00     0.213 C 
ATOM      6  C   UNL A   1      29.366  28.433  23.257  1.00  0.00     0.046 C 
BRANCH   5   7
ATOM      7  N   UNL A   1      30.978  26.595  23.672  1.00  0.00    -0.258 N 
ATOM      8  C   UNL A   1      31.751  24.876  24.840  1.00  0.00     0.078 A 
ATOM      9  C   UNL A   1      30.714  24.519  23.951  1.00  0.00     0.149 A 
ATOM     10  C   UNL A   1      31.884  26.239  24.649  1.00  0.00     0.123 A 
ATOM     11  N   UNL A   1      30.392  25.512  23.117  1.00  0.00    -0.180 NA
BRANCH   8  12
ATOM     12  C   UNL A   1      32.468  24.065  25.796  1.00  0.00     0.262 C 
ATOM     13  O   UNL A   1      32.212  24.029  26.990  1.00  0.00    -0.269 OA
BRANCH  12  14
ATOM     14  N   UNL A   1      33.624  23.366  25.228  1.00  0.00    -0.293 N 
ATOM     15  C   UNL A   1      32.742  18.404  25.441  1.00  0.00     0.069 C 
ATOM     16  C   UNL A   1      33.305  19.762  25.224  1.00  0.00     0.062 A 
ATOM     17  C   UNL A   1      32.703  21.016  25.519  1.00  0.00     0.072 A 
ATOM     18  N   UNL A   1      34.523  19.917  24.688  1.00  0.00    -0.176 NA
ATOM     19  C   UNL A   1      33.640  21.963  25.171  1.00  0.00     0.134 A 
ATOM     20  N   UNL A   1      34.712  21.240  24.719  1.00  0.00    -0.237 N 
ATOM     21  C   UNL A   1      35.945  21.817  24.235  1.00  0.00     0.216 C 
ATOM     22  C   UNL A   1      34.889  24.073  24.909  1.00  0.00     0.130 C 
ATOM     23  C   UNL A   1      35.750  23.303  23.905  1.00  0.00     0.059 C 
BRANCH  21  24
ATOM     24  C   UNL A   1      37.062  21.592  25.228  1.00  0.00     0.410 C 
ATOM     25  F   UNL A   1      36.544  21.528  26.484  1.00  0.00    -0.169 F 
ATOM     26  F   UNL A   1      37.694  20.417  25.012  1.00  0.00    -0.169 F 
ATOM     27  F   UNL A   1      37.981  22.575  25.243  1.00  0.00    -0.169 F 
ENDBRANCH  21  24
ENDBRANCH  12  14
ENDBRANCH   8  12
ENDBRANCH   5   7
ENDBRANCH   3   5
ENDBRANCH   2   3
ENDBRANCH   1   2
BRANCH   1  28
ATOM     28  C   UNL A   1      31.784  31.191  26.587  1.00  0.00     0.275 C 
BRANCH  28  29
ATOM     29  O   UNL A   1      32.930  31.644  27.303  1.00  0.00    -0.458 OA
BRANCH  29  30
ATOM     30  C   UNL A   1      32.828  32.924  27.730  1.00  0.00     0.338 C 
ATOM     31  O   UNL A   1      31.972  33.724  27.448  1.00  0.00    -0.246 OA
BRANCH  30  32
ATOM     32  C   UNL A   1      34.020  33.310  28.481  1.00  0.00     0.060 A 
ATOM     33  C   UNL A   1      35.068  33.848  27.720  1.00  0.00     0.016 A 
ATOM     34  C   UNL A   1      34.208  32.724  29.732  1.00  0.00     0.016 A 
ATOM     35  C   UNL A   1      36.355  33.569  28.106  1.00  0.00     0.010 A 
ATOM     36  C   UNL A   1      35.489  32.414  30.094  1.00  0.00     0.010 A 
ATOM     37  C   UNL A   1      36.529  32.767  29.232  1.00  0.00    -0.014 A 
BRANCH  37  38
ATOM     38  C   UNL A   1      37.853  32.281  29.526  1.00  0.00     0.031 A 
ATOM     39  C   UNL A   1      38.033  30.851  29.196  1.00  0.00     0.074 A 
ATOM     40  C   UNL A   1      38.820  33.145  29.881  1.00  0.00     0.049 A 
ATOM     41  N   UNL A   1      38.344  29.879  29.988  1.00  0.00    -0.248 NA
ATOM     42  C   UNL A   1      37.643  30.427  27.841  1.00  0.00     0.031 C 
ATOM     43  C   UNL A   1      38.750  34.612  29.904  1.00  0.00     0.029 A 
ATOM     44  N   UNL A   1      40.133  32.895  30.114  1.00  0.00    -0.354 N 
ATOM     45  C   UNL A   1      38.404  28.757  29.164  1.00  0.00     0.074 A 
ATOM     46  C   UNL A   1      37.738  29.105  27.941  1.00  0.00     0.031 C 
ATOM     47  C   UNL A   1      40.005  35.111  29.871  1.00  0.00     0.029 A 
ATOM     48  C   UNL A   1      40.946  34.008  29.940  1.00  0.00     0.049 A 
ATOM     49  H   UNL A   1      40.476  32.011  30.382  1.00  0.00     0.167 HD
ATOM     50  C   UNL A   1      39.243  27.722  29.425  1.00  0.00     0.034 A 
ATOM     51  C   UNL A   1      42.286  33.987  29.739  1.00  0.00     0.034 A 
ATOM     52  C   UNL A   1      39.703  27.744  30.788  1.00  0.00     0.049 A 
ATOM     53  C   UNL A   1      42.776  32.653  30.163  1.00  0.00     0.074 A 
ATOM     54  C   UNL A   1      39.095  27.657  32.022  1.00  0.00     0.029 A 
ATOM     55  N   UNL A   1      40.958  28.255  31.012  1.00  0.00    -0.354 N 
ATOM     56  N   UNL A   1      42.744  32.229  31.395  1.00  0.00    -0.248 NA
ATOM     57  C   UNL A   1      42.896  31.615  29.150  1.00  0.00     0.031 C 
ATOM     58  C   UNL A   1      39.844  28.527  32.866  1.00  0.00     0.029 A 
ATOM     59  C   UNL A   1      40.889  29.068  32.111  1.00  0.00     0.049 A 
ATOM     60  H   UNL A   1      41.763  28.069  30.478  1.00  0.00     0.167 HD
ATOM     61  C   UNL A   1      42.400  30.886  31.299  1.00  0.00     0.074 A 
ATOM     62  C   UNL A   1      42.626  30.539  29.897  1.00  0.00     0.031 C 
ATOM     63  C   UNL A   1      41.684  30.267  32.286  1.00  0.00     0.034 A 
BRANCH  50  64
ATOM     64  C   UNL A   1      39.927  26.898  28.360  1.00  0.00     0.023 A 
ATOM     65  C   UNL A   1      39.653  25.514  28.341  1.00  0.00     0.012 A 
ATOM     66  C   UNL A   1      40.998  27.347  27.550  1.00  0.00     0.148 A 
ATOM     67  C   UNL A   1      40.428  24.624  27.591  1.00  0.00     0.002 A 
ATOM     68  C   UNL A   1      41.704  26.472  26.734  1.00  0.00     0.091 A 
ATOM     69  F   UNL A   1      41.448  28.600  27.656  1.00  0.00    -0.205 F 
ATOM     70  C   UNL A   1      41.445  25.103  26.775  1.00  0.00     0.022 A 
BRANCH  68  71
ATOM     71  S   UNL A   1      42.984  27.068  25.621  1.00  0.00     0.127 S 
ATOM     72  O   UNL A   1      43.411  25.830  24.977  1.00  0.00    -0.237 OA
ATOM     73  O   UNL A   1      42.236  27.989  24.765  1.00  0.00    -0.237 OA
ATOM     74  O   UNL A   1      43.964  27.721  26.481  1.00  0.00    -0.744 OA
ENDBRANCH  68  71
ENDBRANCH  50  64
BRANCH  51  75
ATOM     75  C   UNL A   1      43.109  34.913  28.928  1.00  0.00     0.023 A 
ATOM     76  C   UNL A   1      43.255  34.691  27.546  1.00  0.00     0.012 A 
ATOM     77  C   UNL A   1      43.549  36.150  29.455  1.00  0.00     0.148 A 
ATOM     78  C   UNL A   1      43.806  35.674  26.713  1.00  0.00     0.002 A 
ATOM     79  C   UNL A   1      44.111  37.116  28.627  1.00  0.00     0.091 A 
ATOM     80  F   UNL A   1      43.332  36.414  30.750  1.00  0.00    -0.205 F 
ATOM     81  C   UNL A   1      44.231  36.886  27.252  1.00  0.00     0.022 A 
BRANCH  79  82
ATOM     82  S   UNL A   1      44.668  38.706  29.257  1.00  0.00     0.127 S 
ATOM     83  O   UNL A   1      43.422  39.282  29.767  1.00  0.00    -0.237 OA
ATOM     84  O   UNL A   1      45.623  38.304  30.284  1.00  0.00    -0.237 OA
ATOM     85  O   UNL A   1      45.227  39.412  28.111  1.00  0.00    -0.744 OA
ENDBRANCH  79  82
ENDBRANCH  51  75
BRANCH  63  86
ATOM     86  C   UNL A   1      41.461  31.028  33.575  1.00  0.00     0.023 A 
ATOM     87  C   UNL A   1      42.445  31.078  34.586  1.00  0.00     0.012 A 
ATOM     88  C   UNL A   1      40.337  31.862  33.689  1.00  0.00     0.148 A 
ATOM     89  C   UNL A   1      42.302  31.915  35.695  1.00  0.00     0.002 A 
ATOM     90  C   UNL A   1      40.223  32.732  34.768  1.00  0.00     0.091 A 
ATOM     91  F   UNL A   1      39.414  31.820  32.716  1.00  0.00    -0.205 F 
ATOM     92  C   UNL A   1      41.196  32.752  35.779  1.00  0.00     0.022 A 
BRANCH  90  93
ATOM     93  S   UNL A   1      38.908  33.950  34.865  1.00  0.00     0.127 S 
ATOM     94  O   UNL A   1      39.255  34.676  36.084  1.00  0.00    -0.237 OA
ATOM     95  O   UNL A   1      39.096  34.709  33.627  1.00  0.00    -0.237 OA
ATOM     96  O   UNL A   1      37.664  33.193  34.915  1.00  0.00    -0.744 OA
ENDBRANCH  90  93
ENDBRANCH  63  86
ENDBRANCH  37  38
ENDBRANCH  30  32
ENDBRANCH  29  30
ENDBRANCH  28  29
ENDBRANCH   1  28
TORSDOF 18
ENDMDL
MODEL 3
REMARK VINA RESULT:     -11.8      5.520     10.344
REMARK SMILES Cc1cc2n(n1)[C@H](C(F)(F)F)CCN2C(=O)c1cnn([C@@H](C)C(=O)OCCOC(=O)c2ccc(-c3c4nc(c(-c5cccc(S(=O)(=O)[O-])c5F)c5ccc([nH]5)c(-c5cccc(S(=O)(=O)[O-])c5F)c5nc(c(-c6cccc(S(=O)(=O)[O-])c6F)c6ccc3[nH]6)C=C5)C=C4)cc2)c1
REMARK SMILES IDX 26 1 25 2 23 3 24 4 21 5 22 6 20 7 17 8 18 9 94 10 19 11
REMARK SMILES IDX 15 12 16 13 14 14 1 15 2 16 3 17 6 18 4 19 5 20 7 21 13 22
REMARK SMILES IDX 12 23 8 24 9 25 10 26 11 27 27 28 28 29 29 30 30 31 31 32
REMARK SMILES IDX 32 33 93 34 33 35 92 36 34 37 35 38 36 39 86 40 37 41 91 42
REMARK SMILES IDX 85 43 87 44 38 45 90 46 84 47 83 48 39 50 71 51 51 52 70 53
REMARK SMILES IDX 52 54 55 55 69 56 88 57 53 58 54 59 68 61 89 62 56 63 40 64
REMARK SMILES IDX 41 65 49 66 42 67 44 68 50 69 43 70 45 71 46 72 47 73 48 74
REMARK SMILES IDX 72 75 73 76 81 77 74 78 76 79 82 80 75 81 77 82 78 83 79 84
REMARK SMILES IDX 80 85 57 86 58 87 66 88 59 89 61 90 67 91 60 92 62 93 63 94
REMARK SMILES IDX 64 95 65 96
REMARK H PARENT 87 49 55 60
REMARK Flexibility Score: inf
ROOT
ATOM      1  C   UNL A   1      41.624  20.206  26.461  1.00  0.00     0.274 C 
ENDROOT
BRANCH   1   2
ATOM      2  O   UNL A   1      42.196  19.583  25.289  1.00  0.00    -0.460 OA
BRANCH   2   3
ATOM      3  C   UNL A   1      43.472  19.129  25.401  1.00  0.00     0.330 C 
ATOM      4  O   UNL A   1      43.801  18.187  26.121  1.00  0.00    -0.250 OA
BRANCH   3   5
ATOM      5  C   UNL A   1      44.507  19.920  24.632  1.00  0.00     0.213 C 
ATOM      6  C   UNL A   1      45.852  19.216  24.723  1.00  0.00     0.046 C 
BRANCH   5   7
ATOM      7  N   UNL A   1      44.604  21.349  24.937  1.00  0.00    -0.258 N 
ATOM      8  C   UNL A   1      44.943  23.262  26.004  1.00  0.00     0.078 A 
ATOM      9  C   UNL A   1      44.450  23.440  24.694  1.00  0.00     0.149 A 
ATOM     10  C   UNL A   1      45.052  21.889  26.124  1.00  0.00     0.123 A 
ATOM     11  N   UNL A   1      44.065  22.291  24.132  1.00  0.00    -0.180 NA
BRANCH   8  12
ATOM     12  C   UNL A   1      45.333  24.247  26.987  1.00  0.00     0.262 C 
ATOM     13  O   UNL A   1      45.146  24.124  28.188  1.00  0.00    -0.269 OA
BRANCH  12  14
ATOM     14  N   UNL A   1      45.875  25.479  26.406  1.00  0.00    -0.293 N 
ATOM     15  C   UNL A   1      50.898  25.372  26.859  1.00  0.00     0.069 C 
ATOM     16  C   UNL A   1      49.482  25.715  26.565  1.00  0.00     0.062 A 
ATOM     17  C   UNL A   1      48.321  24.937  26.829  1.00  0.00     0.072 A 
ATOM     18  N   UNL A   1      49.169  26.878  25.978  1.00  0.00    -0.176 NA
ATOM     19  C   UNL A   1      47.260  25.707  26.408  1.00  0.00     0.134 A 
ATOM     20  N   UNL A   1      47.833  26.863  25.946  1.00  0.00    -0.237 N 
ATOM     21  C   UNL A   1      47.099  27.978  25.394  1.00  0.00     0.216 C 
ATOM     22  C   UNL A   1      45.000  26.611  26.012  1.00  0.00     0.130 C 
ATOM     23  C   UNL A   1      45.677  27.549  25.010  1.00  0.00     0.059 C 
BRANCH  21  24
ATOM     24  C   UNL A   1      47.106  29.146  26.355  1.00  0.00     0.410 C 
ATOM     25  F   UNL A   1      48.375  29.615  26.488  1.00  0.00    -0.169 F 
ATOM     26  F   UNL A   1      46.362  30.176  25.894  1.00  0.00    -0.169 F 
ATOM     27  F   UNL A   1      46.682  28.832  27.593  1.00  0.00    -0.169 F 
ENDBRANCH  21  24
ENDBRANCH  12  14
ENDBRANCH   8  12
ENDBRANCH   5   7
ENDBRANCH   3   5
ENDBRANCH   2   3
ENDBRANCH   1   2
BRANCH   1  28
ATOM     28  C   UNL A   1      41.198  21.646  26.192  1.00  0.00     0.275 C 
BRANCH  28  29
ATOM     29  O   UNL A   1      41.123  22.383  27.410  1.00  0.00    -0.458 OA
BRANCH  29  30
ATOM     30  C   UNL A   1      40.259  23.423  27.359  1.00  0.00     0.338 C 
ATOM     31  O   UNL A   1      39.066  23.376  27.189  1.00  0.00    -0.246 OA
BRANCH  30  32
ATOM     32  C   UNL A   1      40.982  24.692  27.370  1.00  0.00     0.060 A 
ATOM     33  C   UNL A   1      41.962  24.822  28.365  1.00  0.00     0.016 A 
ATOM     34  C   UNL A   1      40.374  25.783  26.750  1.00  0.00     0.016 A 
ATOM     35  C   UNL A   1      42.153  26.060  28.924  1.00  0.00     0.010 A 
ATOM     36  C   UNL A   1      40.537  27.007  27.334  1.00  0.00     0.010 A 
ATOM     37  C   UNL A   1      41.356  27.105  28.461  1.00  0.00    -0.014 A 
BRANCH  37  38
ATOM     38  C   UNL A   1      41.381  28.354  29.179  1.00  0.00     0.031 A 
ATOM     39  C   UNL A   1      42.400  29.295  28.670  1.00  0.00     0.074 A 
ATOM     40  C   UNL A   1      40.418  28.630  30.076  1.00  0.00     0.049 A 
ATOM     41  N   UNL A   1      43.405  29.807  29.301  1.00  0.00    -0.248 NA
ATOM     42  C   UNL A   1      42.397  29.560  27.221  1.00  0.00     0.031 C 
ATOM     43  C   UNL A   1      39.210  27.846  30.368  1.00  0.00     0.029 A 
ATOM     44  N   UNL A   1      40.225  29.771  30.783  1.00  0.00    -0.354 N 
ATOM     45  C   UNL A   1      44.023  30.636  28.368  1.00  0.00     0.074 A 
ATOM     46  C   UNL A   1      43.520  30.258  27.078  1.00  0.00     0.031 C 
ATOM     47  C   UNL A   1      38.304  28.648  30.969  1.00  0.00     0.029 A 
ATOM     48  C   UNL A   1      38.911  29.946  31.200  1.00  0.00     0.049 A 
ATOM     49  H   UNL A   1      40.945  30.412  30.983  1.00  0.00     0.167 HD
ATOM     50  C   UNL A   1      44.683  31.764  28.739  1.00  0.00     0.034 A 
ATOM     51  C   UNL A   1      38.350  31.119  31.582  1.00  0.00     0.034 A 
ATOM     52  C   UNL A   1      45.004  31.751  30.141  1.00  0.00     0.049 A 
ATOM     53  C   UNL A   1      39.456  32.058  31.890  1.00  0.00     0.074 A 
ATOM     54  C   UNL A   1      45.769  30.947  30.958  1.00  0.00     0.029 A 
ATOM     55  N   UNL A   1      44.184  32.475  30.972  1.00  0.00    -0.354 N 
ATOM     56  N   UNL A   1      40.290  31.895  32.878  1.00  0.00    -0.248 NA
ATOM     57  C   UNL A   1      39.910  32.950  30.832  1.00  0.00     0.031 C 
ATOM     58  C   UNL A   1      45.068  30.904  32.197  1.00  0.00     0.029 A 
ATOM     59  C   UNL A   1      43.933  31.712  32.081  1.00  0.00     0.049 A 
ATOM     60  H   UNL A   1      43.839  33.381  30.801  1.00  0.00     0.167 HD
ATOM     61  C   UNL A   1      41.521  32.296  32.372  1.00  0.00     0.074 A 
ATOM     62  C   UNL A   1      41.203  33.045  31.158  1.00  0.00     0.031 C 
ATOM     63  C   UNL A   1      42.684  31.733  32.816  1.00  0.00     0.034 A 
BRANCH  50  64
ATOM     64  C   UNL A   1      44.725  33.030  27.917  1.00  0.00     0.023 A 
ATOM     65  C   UNL A   1      45.888  33.266  27.155  1.00  0.00     0.012 A 
ATOM     66  C   UNL A   1      43.814  34.107  28.040  1.00  0.00     0.148 A 
ATOM     67  C   UNL A   1      46.149  34.515  26.583  1.00  0.00     0.002 A 
ATOM     68  C   UNL A   1      44.033  35.317  27.393  1.00  0.00     0.091 A 
ATOM     69  F   UNL A   1      42.792  34.036  28.898  1.00  0.00    -0.205 F 
ATOM     70  C   UNL A   1      45.216  35.538  26.689  1.00  0.00     0.022 A 
BRANCH  68  71
ATOM     71  S   UNL A   1      42.817  36.639  27.458  1.00  0.00     0.127 S 
ATOM     72  O   UNL A   1      41.592  35.929  27.106  1.00  0.00    -0.237 OA
ATOM     73  O   UNL A   1      42.909  37.065  28.855  1.00  0.00    -0.237 OA
ATOM     74  O   UNL A   1      43.285  37.637  26.503  1.00  0.00    -0.744 OA
ENDBRANCH  68  71
ENDBRANCH  50  64
BRANCH  51  75
ATOM     75  C   UNL A   1      36.951  31.572  31.401  1.00  0.00     0.023 A 
ATOM     76  C   UNL A   1      36.194  31.966  32.520  1.00  0.00     0.012 A 
ATOM     77  C   UNL A   1      36.436  31.853  30.115  1.00  0.00     0.148 A 
ATOM     78  C   UNL A   1      34.972  32.632  32.364  1.00  0.00     0.002 A 
ATOM     79  C   UNL A   1      35.215  32.501  29.964  1.00  0.00     0.091 A 
ATOM     80  F   UNL A   1      37.187  31.569  29.042  1.00  0.00    -0.205 F 
ATOM     81  C   UNL A   1      34.484  32.903  31.087  1.00  0.00     0.022 A 
BRANCH  79  82
ATOM     82  S   UNL A   1      34.535  32.890  28.345  1.00  0.00     0.127 S 
ATOM     83  O   UNL A   1      34.160  31.565  27.849  1.00  0.00    -0.237 OA
ATOM     84  O   UNL A   1      33.412  33.756  28.690  1.00  0.00    -0.237 OA
ATOM     85  O   UNL A   1      35.619  33.520  27.601  1.00  0.00    -0.744 OA
ENDBRANCH  79  82
ENDBRANCH  51  75
BRANCH  63  86
ATOM     86  C   UNL A   1      42.608  30.815  34.017  1.00  0.00     0.023 A 
ATOM     87  C   UNL A   1      42.565  31.321  35.335  1.00  0.00     0.012 A 
ATOM     88  C   UNL A   1      42.377  29.445  33.815  1.00  0.00     0.148 A 
ATOM     89  C   UNL A   1      42.326  30.481  36.426  1.00  0.00     0.002 A 
ATOM     90  C   UNL A   1      42.088  28.621  34.898  1.00  0.00     0.091 A 
ATOM     91  F   UNL A   1      42.404  28.975  32.559  1.00  0.00    -0.205 F 
ATOM     92  C   UNL A   1      42.074  29.133  36.205  1.00  0.00     0.022 A 
BRANCH  90  93
ATOM     93  S   UNL A   1      41.600  26.908  34.679  1.00  0.00     0.127 S 
ATOM     94  O   UNL A   1      41.313  26.495  36.050  1.00  0.00    -0.237 OA
ATOM     95  O   UNL A   1      40.420  27.029  33.818  1.00  0.00    -0.237 OA
ATOM     96  O   UNL A   1      42.733  26.247  34.045  1.00  0.00    -0.744 OA
ENDBRANCH  90  93
ENDBRANCH  63  86
ENDBRANCH  37  38
ENDBRANCH  30  32
ENDBRANCH  29  30
ENDBRANCH  28  29
ENDBRANCH   1  28
TORSDOF 18
ENDMDL
