MODEL 1
REMARK VINA RESULT:     -12.2      0.000      0.000
REMARK SMILES [NH3+]C1CC[NH+](CC(=O)Nc2cc(Cl)ccc2C(=O)OCCOC(=O)c2ccc(-c3c4nc(c(-c5cccc(S(=O)(=O)[O-])c5F)c5ccc([nH]5)c(-c5cccc(S(=O)(=O)[O-])c5F)c5nc(c(-c6cccc(S(=O)(=O)[O-])c6F)c6ccc3[nH]6)C=C5)C=C4)cc2)CC1
REMARK SMILES IDX 20 1 19 2 17 3 18 4 16 5 10 6 11 7 12 8 15 9 13 10 14 11
REMARK SMILES IDX 9 12 7 13 8 14 6 16 5 17 2 18 3 19 89 20 4 21 88 22 1 24
REMARK SMILES IDX 21 28 22 29 23 30 24 31 25 32 26 33 87 34 27 35 86 36 28 37
REMARK SMILES IDX 29 38 30 39 80 40 31 41 85 42 79 43 81 44 32 45 84 46 78 47
REMARK SMILES IDX 77 48 33 50 65 51 45 52 64 53 46 54 49 55 63 56 82 57 47 58
REMARK SMILES IDX 48 59 62 61 83 62 50 63 34 64 35 65 43 66 36 67 38 68 44 69
REMARK SMILES IDX 37 70 39 71 40 72 41 73 42 74 66 75 67 76 75 77 68 78 70 79
REMARK SMILES IDX 76 80 69 81 71 82 72 83 73 84 74 85 51 86 52 87 60 88 53 89
REMARK SMILES IDX 55 90 61 91 54 92 56 93 57 94 58 95 59 96
REMARK H PARENT 9 15 5 23 1 25 1 26 1 27 81 49 49 60
REMARK Flexibility Score: inf
ROOT
ATOM      1  C   UNL A   1      34.681  21.093  25.535  1.00  0.00     0.275 C 
ENDROOT
BRANCH   1   2
ATOM      2  O   UNL A   1      33.719  20.694  24.536  1.00  0.00    -0.458 OA
BRANCH   2   3
ATOM      3  C   UNL A   1      32.480  21.247  24.616  1.00  0.00     0.340 C 
ATOM      4  O   UNL A   1      31.595  20.907  25.370  1.00  0.00    -0.246 OA
BRANCH   3   5
ATOM      5  C   UNL A   1      32.392  22.453  23.732  1.00  0.00     0.083 A 
ATOM      6  C   UNL A   1      31.503  23.539  23.937  1.00  0.00     0.057 A 
ATOM      7  C   UNL A   1      31.494  24.551  22.974  1.00  0.00     0.047 A 
ATOM      8  C   UNL A   1      32.389  24.541  21.893  1.00  0.00     0.043 A 
ATOM      9  C   UNL A   1      33.294  22.463  22.646  1.00  0.00     0.019 A 
ATOM     10  Cl  UNL A   1      32.408  25.864  20.792  1.00  0.00    -0.084 Cl
ATOM     11  C   UNL A   1      33.289  23.500  21.722  1.00  0.00     0.021 A 
BRANCH   6  12
ATOM     12  N   UNL A   1      30.745  23.570  25.132  1.00  0.00    -0.320 N 
ATOM     13  C   UNL A   1      30.769  24.220  26.330  1.00  0.00     0.279 C 
ATOM     14  O   UNL A   1      29.972  23.794  27.181  1.00  0.00    -0.268 OA
ATOM     15  H   UNL A   1      29.985  22.946  25.085  1.00  0.00     0.170 HD
BRANCH  13  16
ATOM     16  C   UNL A   1      31.682  25.385  26.684  1.00  0.00     0.363 C 
BRANCH  16  17
ATOM     17  N   UNL A   1      31.124  26.742  26.570  1.00  0.00    -0.327 N 
ATOM     18  C   UNL A   1      32.559  29.007  25.267  1.00  0.00     0.192 C 
ATOM     19  C   UNL A   1      32.819  28.632  26.735  1.00  0.00     0.126 C 
ATOM     20  C   UNL A   1      31.973  27.823  24.505  1.00  0.00     0.126 C 
ATOM     21  C   UNL A   1      31.711  27.798  27.395  1.00  0.00     0.268 C 
ATOM     22  C   UNL A   1      30.782  27.224  25.243  1.00  0.00     0.268 C 
ATOM     23  H   UNL A   1      30.232  26.527  27.015  1.00  0.00     0.348 HD
BRANCH  18  24
ATOM     24  N   UNL A   1      31.669  30.167  25.134  1.00  0.00    -0.355 N 
ATOM     25  H   UNL A   1      30.729  29.849  24.901  1.00  0.00     0.344 HD
ATOM     26  H   UNL A   1      32.015  30.779  24.394  1.00  0.00     0.344 HD
ATOM     27  H   UNL A   1      31.646  30.681  26.016  1.00  0.00     0.344 HD
ENDBRANCH  18  24
ENDBRANCH  16  17
ENDBRANCH  13  16
ENDBRANCH   6  12
ENDBRANCH   3   5
ENDBRANCH   2   3
ENDBRANCH   1   2
BRANCH   1  28
ATOM     28  C   UNL A   1      36.065  20.584  25.134  1.00  0.00     0.275 C 
BRANCH  28  29
ATOM     29  O   UNL A   1      37.021  21.651  25.268  1.00  0.00    -0.458 OA
BRANCH  29  30
ATOM     30  C   UNL A   1      38.263  21.280  25.655  1.00  0.00     0.338 C 
ATOM     31  O   UNL A   1      38.855  20.252  25.368  1.00  0.00    -0.246 OA
BRANCH  30  32
ATOM     32  C   UNL A   1      38.903  22.385  26.383  1.00  0.00     0.060 A 
ATOM     33  C   UNL A   1      38.436  23.670  26.143  1.00  0.00     0.016 A 
ATOM     34  C   UNL A   1      40.057  22.194  27.136  1.00  0.00     0.016 A 
ATOM     35  C   UNL A   1      39.195  24.773  26.513  1.00  0.00     0.010 A 
ATOM     36  C   UNL A   1      40.732  23.313  27.646  1.00  0.00     0.010 A 
ATOM     37  C   UNL A   1      40.344  24.622  27.298  1.00  0.00    -0.014 A 
BRANCH  37  38
ATOM     38  C   UNL A   1      41.143  25.819  27.712  1.00  0.00     0.031 A 
ATOM     39  C   UNL A   1      40.522  26.883  28.588  1.00  0.00     0.074 A 
ATOM     40  C   UNL A   1      42.426  25.970  27.318  1.00  0.00     0.049 A 
ATOM     41  N   UNL A   1      40.956  28.084  28.868  1.00  0.00    -0.248 NA
ATOM     42  C   UNL A   1      39.228  26.559  29.211  1.00  0.00     0.031 C 
ATOM     43  C   UNL A   1      43.190  25.015  26.512  1.00  0.00     0.029 A 
ATOM     44  N   UNL A   1      43.323  26.989  27.543  1.00  0.00    -0.354 N 
ATOM     45  C   UNL A   1      39.944  28.698  29.598  1.00  0.00     0.074 A 
ATOM     46  C   UNL A   1      38.882  27.724  29.739  1.00  0.00     0.031 C 
ATOM     47  C   UNL A   1      44.444  25.460  26.358  1.00  0.00     0.029 A 
ATOM     48  C   UNL A   1      44.544  26.792  26.937  1.00  0.00     0.049 A 
ATOM     49  H   UNL A   1      43.112  27.783  28.085  1.00  0.00     0.167 HD
ATOM     50  C   UNL A   1      39.899  29.956  30.101  1.00  0.00     0.034 A 
ATOM     51  C   UNL A   1      45.608  27.607  26.800  1.00  0.00     0.034 A 
ATOM     52  C   UNL A   1      40.997  30.885  30.041  1.00  0.00     0.049 A 
ATOM     53  C   UNL A   1      45.533  28.999  27.354  1.00  0.00     0.074 A 
ATOM     54  C   UNL A   1      41.074  32.160  30.572  1.00  0.00     0.029 A 
ATOM     55  N   UNL A   1      42.212  30.637  29.420  1.00  0.00    -0.354 N 
ATOM     56  N   UNL A   1      44.572  29.560  28.046  1.00  0.00    -0.248 NA
ATOM     57  C   UNL A   1      46.687  29.874  27.104  1.00  0.00     0.031 C 
ATOM     58  C   UNL A   1      42.325  32.695  30.245  1.00  0.00     0.029 A 
ATOM     59  C   UNL A   1      43.040  31.741  29.541  1.00  0.00     0.049 A 
ATOM     60  H   UNL A   1      42.450  29.800  28.960  1.00  0.00     0.167 HD
ATOM     61  C   UNL A   1      45.015  30.844  28.339  1.00  0.00     0.074 A 
ATOM     62  C   UNL A   1      46.341  30.969  27.766  1.00  0.00     0.031 C 
ATOM     63  C   UNL A   1      44.376  31.835  29.008  1.00  0.00     0.034 A 
BRANCH  50  64
ATOM     64  C   UNL A   1      38.610  30.410  30.743  1.00  0.00     0.023 A 
ATOM     65  C   UNL A   1      38.369  30.181  32.112  1.00  0.00     0.012 A 
ATOM     66  C   UNL A   1      37.641  31.093  29.978  1.00  0.00     0.148 A 
ATOM     67  C   UNL A   1      37.164  30.574  32.697  1.00  0.00     0.002 A 
ATOM     68  C   UNL A   1      36.466  31.527  30.579  1.00  0.00     0.091 A 
ATOM     69  F   UNL A   1      37.876  31.287  28.673  1.00  0.00    -0.205 F 
ATOM     70  C   UNL A   1      36.218  31.254  31.933  1.00  0.00     0.022 A 
BRANCH  68  71
ATOM     71  S   UNL A   1      35.229  32.485  29.695  1.00  0.00     0.127 S 
ATOM     72  O   UNL A   1      34.777  31.526  28.688  1.00  0.00    -0.237 OA
ATOM     73  O   UNL A   1      34.250  32.771  30.745  1.00  0.00    -0.237 OA
ATOM     74  O   UNL A   1      35.923  33.657  29.181  1.00  0.00    -0.744 OA
ENDBRANCH  68  71
ENDBRANCH  50  64
BRANCH  51  75
ATOM     75  C   UNL A   1      46.834  27.122  26.098  1.00  0.00     0.023 A 
ATOM     76  C   UNL A   1      46.965  27.343  24.714  1.00  0.00     0.012 A 
ATOM     77  C   UNL A   1      47.885  26.493  26.795  1.00  0.00     0.148 A 
ATOM     78  C   UNL A   1      48.113  26.933  24.034  1.00  0.00     0.002 A 
ATOM     79  C   UNL A   1      49.051  26.147  26.125  1.00  0.00     0.091 A 
ATOM     80  F   UNL A   1      47.733  26.274  28.108  1.00  0.00    -0.205 F 
ATOM     81  C   UNL A   1      49.162  26.350  24.741  1.00  0.00     0.022 A 
BRANCH  79  82
ATOM     82  S   UNL A   1      50.507  25.528  26.976  1.00  0.00     0.127 S 
ATOM     83  O   UNL A   1      49.996  24.308  27.595  1.00  0.00    -0.237 OA
ATOM     84  O   UNL A   1      51.435  25.313  25.865  1.00  0.00    -0.237 OA
ATOM     85  O   UNL A   1      50.906  26.584  27.897  1.00  0.00    -0.744 OA
ENDBRANCH  79  82
ENDBRANCH  51  75
BRANCH  63  86
ATOM     86  C   UNL A   1      45.119  33.129  29.204  1.00  0.00     0.023 A 
ATOM     87  C   UNL A   1      45.936  33.310  30.337  1.00  0.00     0.012 A 
ATOM     88  C   UNL A   1      45.054  34.143  28.229  1.00  0.00     0.148 A 
ATOM     89  C   UNL A   1      46.650  34.496  30.513  1.00  0.00     0.002 A 
ATOM     90  C   UNL A   1      45.808  35.300  28.384  1.00  0.00     0.091 A 
ATOM     91  F   UNL A   1      44.254  33.961  27.168  1.00  0.00    -0.205 F 
ATOM     92  C   UNL A   1      46.596  35.483  29.532  1.00  0.00     0.022 A 
BRANCH  90  93
ATOM     93  S   UNL A   1      45.878  36.580  27.126  1.00  0.00     0.127 S 
ATOM     94  O   UNL A   1      46.357  35.831  25.966  1.00  0.00    -0.237 OA
ATOM     95  O   UNL A   1      44.482  37.008  27.044  1.00  0.00    -0.237 OA
ATOM     96  O   UNL A   1      46.792  37.594  27.635  1.00  0.00    -0.744 OA
ENDBRANCH  90  93
ENDBRANCH  63  86
ENDBRANCH  37  38
ENDBRANCH  30  32
ENDBRANCH  29  30
ENDBRANCH  28  29
ENDBRANCH   1  28
TORSDOF 18
ENDMDL
MODEL 2
REMARK VINA RESULT:     -12.0      1.862      2.484
REMARK SMILES [NH3+]C1CC[NH+](CC(=O)Nc2cc(Cl)ccc2C(=O)OCCOC(=O)c2ccc(-c3c4nc(c(-c5cccc(S(=O)(=O)[O-])c5F)c5ccc([nH]5)c(-c5cccc(S(=O)(=O)[O-])c5F)c5nc(c(-c6cccc(S(=O)(=O)[O-])c6F)c6ccc3[nH]6)C=C5)C=C4)cc2)CC1
REMARK SMILES IDX 20 1 19 2 17 3 18 4 16 5 10 6 11 7 12 8 15 9 13 10 14 11
REMARK SMILES IDX 9 12 7 13 8 14 6 16 5 17 2 18 3 19 89 20 4 21 88 22 1 24
REMARK SMILES IDX 21 28 22 29 23 30 24 31 25 32 26 33 87 34 27 35 86 36 28 37
REMARK SMILES IDX 29 38 30 39 80 40 31 41 85 42 79 43 81 44 32 45 84 46 78 47
REMARK SMILES IDX 77 48 33 50 65 51 45 52 64 53 46 54 49 55 63 56 82 57 47 58
REMARK SMILES IDX 48 59 62 61 83 62 50 63 34 64 35 65 43 66 36 67 38 68 44 69
REMARK SMILES IDX 37 70 39 71 40 72 41 73 42 74 66 75 67 76 75 77 68 78 70 79
REMARK SMILES IDX 76 80 69 81 71 82 72 83 73 84 74 85 51 86 52 87 60 88 53 89
REMARK SMILES IDX 55 90 61 91 54 92 56 93 57 94 58 95 59 96
REMARK H PARENT 9 15 5 23 1 25 1 26 1 27 81 49 49 60
REMARK Flexibility Score: inf
ROOT
ATOM      1  C   UNL A   1      35.101  22.176  25.151  1.00  0.00     0.275 C 
ENDROOT
BRANCH   1   2
ATOM      2  O   UNL A   1      34.366  22.063  23.914  1.00  0.00    -0.458 OA
BRANCH   2   3
ATOM      3  C   UNL A   1      33.118  21.528  23.985  1.00  0.00     0.340 C 
ATOM      4  O   UNL A   1      32.823  20.375  23.759  1.00  0.00    -0.246 OA
BRANCH   3   5
ATOM      5  C   UNL A   1      32.152  22.535  24.529  1.00  0.00     0.083 A 
ATOM      6  C   UNL A   1      31.829  23.765  23.899  1.00  0.00     0.057 A 
ATOM      7  C   UNL A   1      30.966  24.627  24.580  1.00  0.00     0.047 A 
ATOM      8  C   UNL A   1      30.372  24.257  25.797  1.00  0.00     0.043 A 
ATOM      9  C   UNL A   1      31.538  22.173  25.747  1.00  0.00     0.019 A 
ATOM     10  Cl  UNL A   1      29.235  25.312  26.543  1.00  0.00    -0.084 Cl
ATOM     11  C   UNL A   1      30.654  23.035  26.386  1.00  0.00     0.021 A 
BRANCH   6  12
ATOM     12  N   UNL A   1      32.332  24.005  22.598  1.00  0.00    -0.320 N 
ATOM     13  C   UNL A   1      32.895  25.033  21.903  1.00  0.00     0.279 C 
ATOM     14  O   UNL A   1      33.033  24.838  20.685  1.00  0.00    -0.268 OA
ATOM     15  H   UNL A   1      32.252  23.200  22.035  1.00  0.00     0.170 HD
BRANCH  13  16
ATOM     16  C   UNL A   1      33.341  26.360  22.498  1.00  0.00     0.363 C 
BRANCH  16  17
ATOM     17  N   UNL A   1      32.526  27.548  22.194  1.00  0.00    -0.327 N 
ATOM     18  C   UNL A   1      30.915  29.008  24.233  1.00  0.00     0.192 C 
ATOM     19  C   UNL A   1      30.368  27.758  23.523  1.00  0.00     0.126 C 
ATOM     20  C   UNL A   1      32.439  29.034  24.177  1.00  0.00     0.126 C 
ATOM     21  C   UNL A   1      31.071  27.404  22.205  1.00  0.00     0.268 C 
ATOM     22  C   UNL A   1      32.945  28.820  22.756  1.00  0.00     0.268 C 
ATOM     23  H   UNL A   1      32.777  27.597  21.206  1.00  0.00     0.348 HD
BRANCH  18  24
ATOM     24  N   UNL A   1      30.380  30.253  23.667  1.00  0.00    -0.355 N 
ATOM     25  H   UNL A   1      30.474  31.004  24.350  1.00  0.00     0.344 HD
ATOM     26  H   UNL A   1      29.395  30.125  23.434  1.00  0.00     0.344 HD
ATOM     27  H   UNL A   1      30.901  30.493  22.823  1.00  0.00     0.344 HD
ENDBRANCH  18  24
ENDBRANCH  16  17
ENDBRANCH  13  16
ENDBRANCH   6  12
ENDBRANCH   3   5
ENDBRANCH   2   3
ENDBRANCH   1   2
BRANCH   1  28
ATOM     28  C   UNL A   1      36.191  21.106  25.189  1.00  0.00     0.275 C 
BRANCH  28  29
ATOM     29  O   UNL A   1      37.461  21.709  24.881  1.00  0.00    -0.458 OA
BRANCH  29  30
ATOM     30  C   UNL A   1      38.513  21.262  25.605  1.00  0.00     0.338 C 
ATOM     31  O   UNL A   1      39.000  20.144  25.595  1.00  0.00    -0.246 OA
BRANCH  30  32
ATOM     32  C   UNL A   1      39.120  22.383  26.337  1.00  0.00     0.060 A 
ATOM     33  C   UNL A   1      38.631  23.658  26.082  1.00  0.00     0.016 A 
ATOM     34  C   UNL A   1      40.265  22.220  27.108  1.00  0.00     0.016 A 
ATOM     35  C   UNL A   1      39.361  24.778  26.458  1.00  0.00     0.010 A 
ATOM     36  C   UNL A   1      40.910  23.355  27.622  1.00  0.00     0.010 A 
ATOM     37  C   UNL A   1      40.501  24.654  27.261  1.00  0.00    -0.014 A 
BRANCH  37  38
ATOM     38  C   UNL A   1      41.270  25.868  27.681  1.00  0.00     0.031 A 
ATOM     39  C   UNL A   1      40.626  26.906  28.571  1.00  0.00     0.074 A 
ATOM     40  C   UNL A   1      42.546  26.058  27.278  1.00  0.00     0.049 A 
ATOM     41  N   UNL A   1      41.029  28.117  28.859  1.00  0.00    -0.248 NA
ATOM     42  C   UNL A   1      39.346  26.541  29.200  1.00  0.00     0.031 C 
ATOM     43  C   UNL A   1      43.330  25.132  26.458  1.00  0.00     0.029 A 
ATOM     44  N   UNL A   1      43.416  27.100  27.507  1.00  0.00    -0.354 N 
ATOM     45  C   UNL A   1      40.006  28.695  29.602  1.00  0.00     0.074 A 
ATOM     46  C   UNL A   1      38.972  27.691  29.741  1.00  0.00     0.031 C 
ATOM     47  C   UNL A   1      44.570  25.613  26.300  1.00  0.00     0.029 A 
ATOM     48  C   UNL A   1      44.637  26.942  26.891  1.00  0.00     0.049 A 
ATOM     49  H   UNL A   1      43.187  27.883  28.058  1.00  0.00     0.167 HD
ATOM     50  C   UNL A   1      39.930  29.947  30.116  1.00  0.00     0.034 A 
ATOM     51  C   UNL A   1      45.678  27.787  26.753  1.00  0.00     0.034 A 
ATOM     52  C   UNL A   1      41.001  30.907  30.057  1.00  0.00     0.049 A 
ATOM     53  C   UNL A   1      45.568  29.172  27.321  1.00  0.00     0.074 A 
ATOM     54  C   UNL A   1      41.047  32.179  30.600  1.00  0.00     0.029 A 
ATOM     55  N   UNL A   1      42.218  30.698  29.426  1.00  0.00    -0.354 N 
ATOM     56  N   UNL A   1      44.597  29.700  28.025  1.00  0.00    -0.248 NA
ATOM     57  C   UNL A   1      46.696  30.080  27.071  1.00  0.00     0.031 C 
ATOM     58  C   UNL A   1      42.280  32.752  30.268  1.00  0.00     0.029 A 
ATOM     59  C   UNL A   1      43.017  31.824  29.551  1.00  0.00     0.049 A 
ATOM     60  H   UNL A   1      42.476  29.873  28.956  1.00  0.00     0.167 HD
ATOM     61  C   UNL A   1      45.006  30.993  28.326  1.00  0.00     0.074 A 
ATOM     62  C   UNL A   1      46.324  31.160  27.745  1.00  0.00     0.031 C 
ATOM     63  C   UNL A   1      44.345  31.960  29.009  1.00  0.00     0.034 A 
BRANCH  50  64
ATOM     64  C   UNL A   1      38.634  30.360  30.772  1.00  0.00     0.023 A 
ATOM     65  C   UNL A   1      38.385  30.058  32.125  1.00  0.00     0.012 A 
ATOM     66  C   UNL A   1      37.666  31.076  30.037  1.00  0.00     0.148 A 
ATOM     67  C   UNL A   1      37.173  30.413  32.721  1.00  0.00     0.002 A 
ATOM     68  C   UNL A   1      36.484  31.471  30.651  1.00  0.00     0.091 A 
ATOM     69  F   UNL A   1      37.908  31.339  28.745  1.00  0.00    -0.205 F 
ATOM     70  C   UNL A   1      36.228  31.127  31.987  1.00  0.00     0.022 A 
BRANCH  68  71
ATOM     71  S   UNL A   1      35.247  32.466  29.809  1.00  0.00     0.127 S 
ATOM     72  O   UNL A   1      34.371  32.848  30.915  1.00  0.00    -0.237 OA
ATOM     73  O   UNL A   1      36.050  33.562  29.262  1.00  0.00    -0.237 OA
ATOM     74  O   UNL A   1      34.651  31.596  28.805  1.00  0.00    -0.744 OA
ENDBRANCH  68  71
ENDBRANCH  50  64
BRANCH  51  75
ATOM     75  C   UNL A   1      46.911  27.343  26.039  1.00  0.00     0.023 A 
ATOM     76  C   UNL A   1      47.815  26.487  26.696  1.00  0.00     0.012 A 
ATOM     77  C   UNL A   1      47.168  27.719  24.705  1.00  0.00     0.148 A 
ATOM     78  C   UNL A   1      48.960  26.026  26.044  1.00  0.00     0.002 A 
ATOM     79  C   UNL A   1      48.275  27.205  24.041  1.00  0.00     0.091 A 
ATOM     80  F   UNL A   1      46.306  28.550  24.103  1.00  0.00    -0.205 F 
ATOM     81  C   UNL A   1      49.182  26.372  24.713  1.00  0.00     0.022 A 
BRANCH  79  82
ATOM     82  S   UNL A   1      48.562  27.475  22.288  1.00  0.00     0.127 S 
ATOM     83  O   UNL A   1      49.754  28.317  22.307  1.00  0.00    -0.237 OA
ATOM     84  O   UNL A   1      48.777  26.110  21.806  1.00  0.00    -0.237 OA
ATOM     85  O   UNL A   1      47.351  28.108  21.782  1.00  0.00    -0.744 OA
ENDBRANCH  79  82
ENDBRANCH  51  75
BRANCH  63  86
ATOM     86  C   UNL A   1      45.054  33.272  29.212  1.00  0.00     0.023 A 
ATOM     87  C   UNL A   1      45.826  33.487  30.371  1.00  0.00     0.012 A 
ATOM     88  C   UNL A   1      45.002  34.271  28.220  1.00  0.00     0.148 A 
ATOM     89  C   UNL A   1      46.508  34.689  30.553  1.00  0.00     0.002 A 
ATOM     90  C   UNL A   1      45.726  35.445  28.385  1.00  0.00     0.091 A 
ATOM     91  F   UNL A   1      44.244  34.056  27.135  1.00  0.00    -0.205 F 
ATOM     92  C   UNL A   1      46.469  35.661  29.557  1.00  0.00     0.022 A 
BRANCH  90  93
ATOM     93  S   UNL A   1      45.814  36.708  27.111  1.00  0.00     0.127 S 
ATOM     94  O   UNL A   1      46.896  37.556  27.607  1.00  0.00    -0.237 OA
ATOM     95  O   UNL A   1      46.148  35.925  25.921  1.00  0.00    -0.237 OA
ATOM     96  O   UNL A   1      44.498  37.333  27.073  1.00  0.00    -0.744 OA
ENDBRANCH  90  93
ENDBRANCH  63  86
ENDBRANCH  37  38
ENDBRANCH  30  32
ENDBRANCH  29  30
ENDBRANCH  28  29
ENDBRANCH   1  28
TORSDOF 18
ENDMDL
MODEL 3
REMARK VINA RESULT:     -11.8      5.119      9.962
REMARK SMILES [NH3+]C1CC[NH+](CC(=O)Nc2cc(Cl)ccc2C(=O)OCCOC(=O)c2ccc(-c3c4nc(c(-c5cccc(S(=O)(=O)[O-])c5F)c5ccc([nH]5)c(-c5cccc(S(=O)(=O)[O-])c5F)c5nc(c(-c6cccc(S(=O)(=O)[O-])c6F)c6ccc3[nH]6)C=C5)C=C4)cc2)CC1
REMARK SMILES IDX 20 1 19 2 17 3 18 4 16 5 10 6 11 7 12 8 15 9 13 10 14 11
REMARK SMILES IDX 9 12 7 13 8 14 6 16 5 17 2 18 3 19 89 20 4 21 88 22 1 24
REMARK SMILES IDX 21 28 22 29 23 30 24 31 25 32 26 33 87 34 27 35 86 36 28 37
REMARK SMILES IDX 29 38 30 39 80 40 31 41 85 42 79 43 81 44 32 45 84 46 78 47
REMARK SMILES IDX 77 48 33 50 65 51 45 52 64 53 46 54 49 55 63 56 82 57 47 58
REMARK SMILES IDX 48 59 62 61 83 62 50 63 34 64 35 65 43 66 36 67 38 68 44 69
REMARK SMILES IDX 37 70 39 71 40 72 41 73 42 74 66 75 67 76 75 77 68 78 70 79
REMARK SMILES IDX 76 80 69 81 71 82 72 83 73 84 74 85 51 86 52 87 60 88 53 89
REMARK SMILES IDX 55 90 61 91 54 92 56 93 57 94 58 95 59 96
REMARK H PARENT 9 15 5 23 1 25 1 26 1 27 81 49 49 60
REMARK Flexibility Score: inf
ROOT
ATOM      1  C   UNL A   1      31.895  29.877  25.311  1.00  0.00     0.275 C 
ENDROOT
BRANCH   1   2
ATOM      2  O   UNL A   1      31.696  28.521  25.762  1.00  0.00    -0.458 OA
BRANCH   2   3
ATOM      3  C   UNL A   1      32.757  27.677  25.667  1.00  0.00     0.340 C 
ATOM      4  O   UNL A   1      33.585  27.474  26.528  1.00  0.00    -0.246 OA
BRANCH   3   5
ATOM      5  C   UNL A   1      32.692  26.903  24.386  1.00  0.00     0.083 A 
ATOM      6  C   UNL A   1      31.952  25.706  24.204  1.00  0.00     0.057 A 
ATOM      7  C   UNL A   1      32.062  25.066  22.967  1.00  0.00     0.047 A 
ATOM      8  C   UNL A   1      32.804  25.628  21.916  1.00  0.00     0.043 A 
ATOM      9  C   UNL A   1      33.425  27.460  23.316  1.00  0.00     0.019 A 
ATOM     10  Cl  UNL A   1      32.822  24.853  20.379  1.00  0.00    -0.084 Cl
ATOM     11  C   UNL A   1      33.488  26.821  22.084  1.00  0.00     0.021 A 
BRANCH   6  12
ATOM     12  N   UNL A   1      31.094  25.282  25.247  1.00  0.00    -0.320 N 
ATOM     13  C   UNL A   1      31.132  24.421  26.302  1.00  0.00     0.279 C 
ATOM     14  O   UNL A   1      30.047  24.238  26.877  1.00  0.00    -0.268 OA
ATOM     15  H   UNL A   1      30.223  25.740  25.196  1.00  0.00     0.170 HD
BRANCH  13  16
ATOM     16  C   UNL A   1      32.369  23.688  26.800  1.00  0.00     0.363 C 
BRANCH  16  17
ATOM     17  N   UNL A   1      32.434  22.235  26.572  1.00  0.00    -0.327 N 
ATOM     18  C   UNL A   1      34.483  20.928  24.846  1.00  0.00     0.192 C 
ATOM     19  C   UNL A   1      33.199  21.531  24.251  1.00  0.00     0.126 C 
ATOM     20  C   UNL A   1      34.789  21.550  26.204  1.00  0.00     0.126 C 
ATOM     21  C   UNL A   1      32.053  21.729  25.254  1.00  0.00     0.268 C 
ATOM     22  C   UNL A   1      33.570  21.514  27.118  1.00  0.00     0.268 C 
ATOM     23  H   UNL A   1      31.650  21.999  27.180  1.00  0.00     0.348 HD
BRANCH  18  24
ATOM     24  N   UNL A   1      34.407  19.468  24.979  1.00  0.00    -0.355 N 
ATOM     25  H   UNL A   1      34.773  19.191  25.889  1.00  0.00     0.344 HD
ATOM     26  H   UNL A   1      34.960  19.030  24.242  1.00  0.00     0.344 HD
ATOM     27  H   UNL A   1      33.435  19.169  24.897  1.00  0.00     0.344 HD
ENDBRANCH  18  24
ENDBRANCH  16  17
ENDBRANCH  13  16
ENDBRANCH   6  12
ENDBRANCH   3   5
ENDBRANCH   2   3
ENDBRANCH   1   2
BRANCH   1  28
ATOM     28  C   UNL A   1      31.788  30.825  26.505  1.00  0.00     0.275 C 
BRANCH  28  29
ATOM     29  O   UNL A   1      32.939  30.653  27.353  1.00  0.00    -0.458 OA
BRANCH  29  30
ATOM     30  C   UNL A   1      33.669  31.769  27.582  1.00  0.00     0.338 C 
ATOM     31  O   UNL A   1      33.275  32.923  27.609  1.00  0.00    -0.246 OA
BRANCH  30  32
ATOM     32  C   UNL A   1      35.040  31.392  27.957  1.00  0.00     0.060 A 
ATOM     33  C   UNL A   1      35.271  30.067  28.304  1.00  0.00     0.016 A 
ATOM     34  C   UNL A   1      36.034  32.345  28.153  1.00  0.00     0.016 A 
ATOM     35  C   UNL A   1      36.427  29.712  28.988  1.00  0.00     0.010 A 
ATOM     36  C   UNL A   1      37.264  31.947  28.698  1.00  0.00     0.010 A 
ATOM     37  C   UNL A   1      37.461  30.636  29.175  1.00  0.00    -0.014 A 
BRANCH  37  38
ATOM     38  C   UNL A   1      38.714  30.238  29.893  1.00  0.00     0.031 A 
ATOM     39  C   UNL A   1      39.704  29.305  29.236  1.00  0.00     0.074 A 
ATOM     40  C   UNL A   1      38.983  30.704  31.132  1.00  0.00     0.049 A 
ATOM     41  N   UNL A   1      40.718  28.668  29.762  1.00  0.00    -0.248 NA
ATOM     42  C   UNL A   1      39.512  29.034  27.802  1.00  0.00     0.031 C 
ATOM     43  C   UNL A   1      38.158  31.649  31.888  1.00  0.00     0.029 A 
ATOM     44  N   UNL A   1      40.035  30.447  31.982  1.00  0.00    -0.354 N 
ATOM     45  C   UNL A   1      41.211  27.838  28.761  1.00  0.00     0.074 A 
ATOM     46  C   UNL A   1      40.397  28.072  27.586  1.00  0.00     0.031 C 
ATOM     47  C   UNL A   1      38.755  31.934  33.053  1.00  0.00     0.029 A 
ATOM     48  C   UNL A   1      39.937  31.096  33.192  1.00  0.00     0.049 A 
ATOM     49  H   UNL A   1      40.786  29.856  31.746  1.00  0.00     0.167 HD
ATOM     50  C   UNL A   1      42.241  26.958  28.815  1.00  0.00     0.034 A 
ATOM     51  C   UNL A   1      40.670  30.989  34.318  1.00  0.00     0.034 A 
ATOM     52  C   UNL A   1      43.106  26.801  29.954  1.00  0.00     0.049 A 
ATOM     53  C   UNL A   1      41.799  30.001  34.359  1.00  0.00     0.074 A 
ATOM     54  C   UNL A   1      44.213  25.982  30.088  1.00  0.00     0.029 A 
ATOM     55  N   UNL A   1      42.967  27.483  31.154  1.00  0.00    -0.354 N 
ATOM     56  N   UNL A   1      42.254  29.230  33.403  1.00  0.00    -0.248 NA
ATOM     57  C   UNL A   1      42.512  29.865  35.637  1.00  0.00     0.031 C 
ATOM     58  C   UNL A   1      44.725  26.145  31.380  1.00  0.00     0.029 A 
ATOM     59  C   UNL A   1      43.959  27.092  32.039  1.00  0.00     0.049 A 
ATOM     60  H   UNL A   1      42.266  28.145  31.349  1.00  0.00     0.167 HD
ATOM     61  C   UNL A   1      43.325  28.536  33.953  1.00  0.00     0.074 A 
ATOM     62  C   UNL A   1      43.462  28.995  35.321  1.00  0.00     0.031 C 
ATOM     63  C   UNL A   1      44.113  27.592  33.382  1.00  0.00     0.034 A 
BRANCH  50  64
ATOM     64  C   UNL A   1      42.477  26.079  27.610  1.00  0.00     0.023 A 
ATOM     65  C   UNL A   1      43.238  26.544  26.519  1.00  0.00     0.012 A 
ATOM     66  C   UNL A   1      41.955  24.769  27.577  1.00  0.00     0.148 A 
ATOM     67  C   UNL A   1      43.429  25.741  25.392  1.00  0.00     0.002 A 
ATOM     68  C   UNL A   1      42.194  23.957  26.474  1.00  0.00     0.091 A 
ATOM     69  F   UNL A   1      41.218  24.347  28.613  1.00  0.00    -0.205 F 
ATOM     70  C   UNL A   1      42.915  24.447  25.374  1.00  0.00     0.022 A 
BRANCH  68  71
ATOM     71  S   UNL A   1      41.644  22.248  26.400  1.00  0.00     0.127 S 
ATOM     72  O   UNL A   1      42.321  21.772  25.195  1.00  0.00    -0.237 OA
ATOM     73  O   UNL A   1      42.170  21.698  27.651  1.00  0.00    -0.237 OA
ATOM     74  O   UNL A   1      40.190  22.299  26.327  1.00  0.00    -0.744 OA
ENDBRANCH  68  71
ENDBRANCH  50  64
BRANCH  51  75
ATOM     75  C   UNL A   1      40.349  31.841  35.501  1.00  0.00     0.023 A 
ATOM     76  C   UNL A   1      41.136  32.979  35.763  1.00  0.00     0.012 A 
ATOM     77  C   UNL A   1      39.247  31.563  36.335  1.00  0.00     0.148 A 
ATOM     78  C   UNL A   1      40.841  33.815  36.841  1.00  0.00     0.002 A 
ATOM     79  C   UNL A   1      38.920  32.435  37.366  1.00  0.00     0.091 A 
ATOM     80  F   UNL A   1      38.521  30.465  36.081  1.00  0.00    -0.205 F 
ATOM     81  C   UNL A   1      39.725  33.553  37.632  1.00  0.00     0.022 A 
BRANCH  79  82
ATOM     82  S   UNL A   1      37.422  32.259  38.341  1.00  0.00     0.127 S 
ATOM     83  O   UNL A   1      37.229  30.812  38.336  1.00  0.00    -0.237 OA
ATOM     84  O   UNL A   1      37.835  32.822  39.628  1.00  0.00    -0.237 OA
ATOM     85  O   UNL A   1      36.403  33.034  37.645  1.00  0.00    -0.744 OA
ENDBRANCH  79  82
ENDBRANCH  51  75
BRANCH  63  86
ATOM     86  C   UNL A   1      45.230  27.026  34.217  1.00  0.00     0.023 A 
ATOM     87  C   UNL A   1      46.496  27.645  34.217  1.00  0.00     0.012 A 
ATOM     88  C   UNL A   1      45.004  25.912  35.049  1.00  0.00     0.148 A 
ATOM     89  C   UNL A   1      47.528  27.142  35.009  1.00  0.00     0.002 A 
ATOM     90  C   UNL A   1      46.021  25.450  35.875  1.00  0.00     0.091 A 
ATOM     91  F   UNL A   1      43.799  25.324  35.018  1.00  0.00    -0.205 F 
ATOM     92  C   UNL A   1      47.288  26.055  35.846  1.00  0.00     0.022 A 
BRANCH  90  93
ATOM     93  S   UNL A   1      45.773  24.119  37.055  1.00  0.00     0.127 S 
ATOM     94  O   UNL A   1      45.433  23.002  36.177  1.00  0.00    -0.237 OA
ATOM     95  O   UNL A   1      47.086  24.020  37.690  1.00  0.00    -0.237 OA
ATOM     96  O   UNL A   1      44.705  24.563  37.942  1.00  0.00    -0.744 OA
ENDBRANCH  90  93
ENDBRANCH  63  86
ENDBRANCH  37  38
ENDBRANCH  30  32
ENDBRANCH  29  30
ENDBRANCH  28  29
ENDBRANCH   1  28
TORSDOF 18
ENDMDL
