MODEL 1
REMARK VINA RESULT:     -11.2      0.000      0.000
REMARK SMILES CCOc1cccc(OCC)c1-c1ccc([C@@H](C)C(=O)OCCOC(=O)c2ccc(-c3c4nc(c(-c5cccc(S(=O)(=O)[O-])c5F)c5ccc([nH]5)c(-c5cccc(S(=O)(=O)[O-])c5F)c5nc(c(-c6cccc(S(=O)(=O)[O-])c6F)c6ccc3[nH]6)C=C5)C=C4)cc2)cc1F
REMARK SMILES IDX 22 1 21 2 19 3 20 4 17 5 18 6 16 7 13 8 14 9 91 10 15 11
REMARK SMILES IDX 90 12 92 13 12 14 4 15 5 16 6 17 8 18 7 19 3 20 2 21 1 22
REMARK SMILES IDX 9 23 10 24 11 25 23 26 24 27 25 28 26 29 27 30 28 31 89 32
REMARK SMILES IDX 29 33 88 34 30 35 31 36 32 37 82 38 33 39 87 40 81 41 83 42
REMARK SMILES IDX 34 43 86 44 80 45 79 46 35 48 67 49 47 50 66 51 48 52 51 53
REMARK SMILES IDX 65 54 84 55 49 56 50 57 64 59 85 60 52 61 36 62 37 63 45 64
REMARK SMILES IDX 38 65 40 66 46 67 39 68 41 69 42 70 43 71 44 72 68 73 69 74
REMARK SMILES IDX 77 75 70 76 72 77 78 78 71 79 73 80 74 81 75 82 76 83 53 84
REMARK SMILES IDX 54 85 62 86 55 87 57 88 63 89 56 90 58 91 59 92 60 93 61 94
REMARK H PARENT 83 47 51 58
REMARK Flexibility Score: inf
ROOT
ATOM      1  C   UNL A   1      35.499  21.579  24.556  1.00  0.00     0.274 C 
ENDROOT
BRANCH   1   2
ATOM      2  O   UNL A   1      34.435  20.737  25.042  1.00  0.00    -0.462 OA
BRANCH   2   3
ATOM      3  C   UNL A   1      33.409  21.338  25.694  1.00  0.00     0.313 C 
ATOM      4  O   UNL A   1      32.238  20.989  25.592  1.00  0.00    -0.252 OA
BRANCH   3   5
ATOM      5  C   UNL A   1      33.819  22.554  26.523  1.00  0.00     0.126 C 
ATOM      6  C   UNL A   1      33.597  22.271  28.006  1.00  0.00     0.025 C 
BRANCH   5   7
ATOM      7  C   UNL A   1      33.257  23.919  26.141  1.00  0.00    -0.031 A 
ATOM      8  C   UNL A   1      32.065  26.347  25.245  1.00  0.00     0.025 A 
ATOM      9  C   UNL A   1      33.431  26.096  25.065  1.00  0.00     0.012 A 
ATOM     10  C   UNL A   1      31.325  25.401  25.963  1.00  0.00     0.131 A 
ATOM     11  C   UNL A   1      34.003  24.882  25.452  1.00  0.00     0.005 A 
ATOM     12  C   UNL A   1      31.909  24.213  26.414  1.00  0.00     0.044 A 
ATOM     13  F   UNL A   1      30.019  25.597  26.193  1.00  0.00    -0.206 F 
BRANCH   8  14
ATOM     14  C   UNL A   1      31.467  27.568  24.683  1.00  0.00     0.069 A 
ATOM     15  C   UNL A   1      30.790  27.465  23.439  1.00  0.00     0.130 A 
ATOM     16  C   UNL A   1      30.127  28.546  22.853  1.00  0.00     0.047 A 
ATOM     17  C   UNL A   1      30.111  29.769  23.505  1.00  0.00     0.008 A 
ATOM     18  C   UNL A   1      31.474  28.831  25.317  1.00  0.00     0.130 A 
ATOM     19  C   UNL A   1      30.790  29.907  24.713  1.00  0.00     0.047 A 
BRANCH  15  20
ATOM     20  O   UNL A   1      30.888  26.295  22.724  1.00  0.00    -0.493 OA
BRANCH  20  21
ATOM     21  C   UNL A   1      31.805  26.369  21.631  1.00  0.00     0.226 C 
ATOM     22  C   UNL A   1      32.628  25.095  21.629  1.00  0.00     0.049 C 
ENDBRANCH  20  21
ENDBRANCH  15  20
BRANCH  18  23
ATOM     23  O   UNL A   1      32.089  29.265  26.461  1.00  0.00    -0.493 OA
BRANCH  23  24
ATOM     24  C   UNL A   1      33.301  30.002  26.488  1.00  0.00     0.226 C 
ATOM     25  C   UNL A   1      34.469  29.079  26.793  1.00  0.00     0.049 C 
ENDBRANCH  23  24
ENDBRANCH  18  23
ENDBRANCH   8  14
ENDBRANCH   5   7
ENDBRANCH   3   5
ENDBRANCH   2   3
ENDBRANCH   1   2
BRANCH   1  26
ATOM     26  C   UNL A   1      36.865  20.906  24.728  1.00  0.00     0.275 C 
BRANCH  26  27
ATOM     27  O   UNL A   1      37.456  21.238  25.997  1.00  0.00    -0.458 OA
BRANCH  27  28
ATOM     28  C   UNL A   1      38.787  21.024  26.076  1.00  0.00     0.338 C 
ATOM     29  O   UNL A   1      39.389  20.023  25.712  1.00  0.00    -0.246 OA
BRANCH  28  30
ATOM     30  C   UNL A   1      39.470  22.237  26.534  1.00  0.00     0.060 A 
ATOM     31  C   UNL A   1      38.909  23.473  26.198  1.00  0.00     0.016 A 
ATOM     32  C   UNL A   1      40.678  22.168  27.226  1.00  0.00     0.016 A 
ATOM     33  C   UNL A   1      39.548  24.652  26.563  1.00  0.00     0.010 A 
ATOM     34  C   UNL A   1      41.320  23.354  27.593  1.00  0.00     0.010 A 
ATOM     35  C   UNL A   1      40.760  24.600  27.259  1.00  0.00    -0.014 A 
BRANCH  35  36
ATOM     36  C   UNL A   1      41.456  25.857  27.619  1.00  0.00     0.031 A 
ATOM     37  C   UNL A   1      40.739  26.902  28.420  1.00  0.00     0.074 A 
ATOM     38  C   UNL A   1      42.722  26.053  27.208  1.00  0.00     0.049 A 
ATOM     39  N   UNL A   1      41.129  28.107  28.739  1.00  0.00    -0.248 NA
ATOM     40  C   UNL A   1      39.403  26.546  28.925  1.00  0.00     0.031 C 
ATOM     41  C   UNL A   1      43.515  25.095  26.434  1.00  0.00     0.029 A 
ATOM     42  N   UNL A   1      43.552  27.135  27.356  1.00  0.00    -0.354 N 
ATOM     43  C   UNL A   1      40.078  28.668  29.454  1.00  0.00     0.074 A 
ATOM     44  C   UNL A   1      39.030  27.672  29.518  1.00  0.00     0.031 C 
ATOM     45  C   UNL A   1      44.706  25.646  26.148  1.00  0.00     0.029 A 
ATOM     46  C   UNL A   1      44.744  27.004  26.684  1.00  0.00     0.049 A 
ATOM     47  H   UNL A   1      43.318  27.927  27.892  1.00  0.00     0.167 HD
ATOM     48  C   UNL A   1      40.004  29.897  30.016  1.00  0.00     0.034 A 
ATOM     49  C   UNL A   1      45.740  27.891  26.493  1.00  0.00     0.034 A 
ATOM     50  C   UNL A   1      41.063  30.869  29.968  1.00  0.00     0.049 A 
ATOM     51  C   UNL A   1      45.626  29.255  27.121  1.00  0.00     0.074 A 
ATOM     52  C   UNL A   1      41.092  32.140  30.514  1.00  0.00     0.029 A 
ATOM     53  N   UNL A   1      42.284  30.676  29.340  1.00  0.00    -0.354 N 
ATOM     54  N   UNL A   1      44.658  29.744  27.858  1.00  0.00    -0.248 NA
ATOM     55  C   UNL A   1      46.751  30.178  26.917  1.00  0.00     0.031 C 
ATOM     56  C   UNL A   1      42.329  32.717  30.210  1.00  0.00     0.029 A 
ATOM     57  C   UNL A   1      43.076  31.801  29.486  1.00  0.00     0.049 A 
ATOM     58  H   UNL A   1      42.549  29.858  28.859  1.00  0.00     0.167 HD
ATOM     59  C   UNL A   1      45.068  31.020  28.228  1.00  0.00     0.074 A 
ATOM     60  C   UNL A   1      46.384  31.217  27.654  1.00  0.00     0.031 C 
ATOM     61  C   UNL A   1      44.408  31.952  28.959  1.00  0.00     0.034 A 
BRANCH  48  62
ATOM     62  C   UNL A   1      38.746  30.246  30.765  1.00  0.00     0.023 A 
ATOM     63  C   UNL A   1      38.587  29.807  32.095  1.00  0.00     0.012 A 
ATOM     64  C   UNL A   1      37.749  31.051  30.179  1.00  0.00     0.148 A 
ATOM     65  C   UNL A   1      37.445  30.140  32.822  1.00  0.00     0.002 A 
ATOM     66  C   UNL A   1      36.630  31.409  30.923  1.00  0.00     0.091 A 
ATOM     67  F   UNL A   1      37.907  31.439  28.906  1.00  0.00    -0.205 F 
ATOM     68  C   UNL A   1      36.473  30.948  32.240  1.00  0.00     0.022 A 
BRANCH  66  69
ATOM     69  S   UNL A   1      35.352  32.500  30.285  1.00  0.00     0.127 S 
ATOM     70  O   UNL A   1      34.376  32.480  31.372  1.00  0.00    -0.237 OA
ATOM     71  O   UNL A   1      36.071  33.766  30.136  1.00  0.00    -0.237 OA
ATOM     72  O   UNL A   1      34.907  31.906  29.032  1.00  0.00    -0.744 OA
ENDBRANCH  66  69
ENDBRANCH  48  62
BRANCH  49  73
ATOM     73  C   UNL A   1      46.934  27.507  25.690  1.00  0.00     0.023 A 
ATOM     74  C   UNL A   1      46.946  27.743  24.303  1.00  0.00     0.012 A 
ATOM     75  C   UNL A   1      48.071  26.942  26.300  1.00  0.00     0.148 A 
ATOM     76  C   UNL A   1      48.057  27.398  23.532  1.00  0.00     0.002 A 
ATOM     77  C   UNL A   1      49.197  26.653  25.536  1.00  0.00     0.091 A 
ATOM     78  F   UNL A   1      48.036  26.700  27.618  1.00  0.00    -0.205 F 
ATOM     79  C   UNL A   1      49.187  26.866  24.150  1.00  0.00     0.022 A 
BRANCH  77  80
ATOM     80  S   UNL A   1      50.734  26.095  26.281  1.00  0.00     0.127 S 
ATOM     81  O   UNL A   1      51.039  27.189  27.197  1.00  0.00    -0.237 OA
ATOM     82  O   UNL A   1      50.329  24.845  26.927  1.00  0.00    -0.237 OA
ATOM     83  O   UNL A   1      51.657  25.914  25.167  1.00  0.00    -0.744 OA
ENDBRANCH  77  80
ENDBRANCH  49  73
BRANCH  61  84
ATOM     84  C   UNL A   1      45.106  33.262  29.207  1.00  0.00     0.023 A 
ATOM     85  C   UNL A   1      45.890  33.423  30.366  1.00  0.00     0.012 A 
ATOM     86  C   UNL A   1      45.051  34.300  28.256  1.00  0.00     0.148 A 
ATOM     87  C   UNL A   1      46.590  34.608  30.588  1.00  0.00     0.002 A 
ATOM     88  C   UNL A   1      45.787  35.460  28.463  1.00  0.00     0.091 A 
ATOM     89  F   UNL A   1      44.283  34.133  27.170  1.00  0.00    -0.205 F 
ATOM     90  C   UNL A   1      46.549  35.620  29.633  1.00  0.00     0.022 A 
BRANCH  88  91
ATOM     91  S   UNL A   1      45.862  36.779  27.245  1.00  0.00     0.127 S 
ATOM     92  O   UNL A   1      44.461  37.191  27.165  1.00  0.00    -0.237 OA
ATOM     93  O   UNL A   1      46.747  37.750  27.890  1.00  0.00    -0.237 OA
ATOM     94  O   UNL A   1      46.408  36.176  26.036  1.00  0.00    -0.744 OA
ENDBRANCH  88  91
ENDBRANCH  61  84
ENDBRANCH  35  36
ENDBRANCH  28  30
ENDBRANCH  27  28
ENDBRANCH  26  27
ENDBRANCH   1  26
TORSDOF 20
ENDMDL
MODEL 2
REMARK VINA RESULT:     -10.9      5.084      8.480
REMARK SMILES CCOc1cccc(OCC)c1-c1ccc([C@@H](C)C(=O)OCCOC(=O)c2ccc(-c3c4nc(c(-c5cccc(S(=O)(=O)[O-])c5F)c5ccc([nH]5)c(-c5cccc(S(=O)(=O)[O-])c5F)c5nc(c(-c6cccc(S(=O)(=O)[O-])c6F)c6ccc3[nH]6)C=C5)C=C4)cc2)cc1F
REMARK SMILES IDX 22 1 21 2 19 3 20 4 17 5 18 6 16 7 13 8 14 9 91 10 15 11
REMARK SMILES IDX 90 12 92 13 12 14 4 15 5 16 6 17 8 18 7 19 3 20 2 21 1 22
REMARK SMILES IDX 9 23 10 24 11 25 23 26 24 27 25 28 26 29 27 30 28 31 89 32
REMARK SMILES IDX 29 33 88 34 30 35 31 36 32 37 82 38 33 39 87 40 81 41 83 42
REMARK SMILES IDX 34 43 86 44 80 45 79 46 35 48 67 49 47 50 66 51 48 52 51 53
REMARK SMILES IDX 65 54 84 55 49 56 50 57 64 59 85 60 52 61 36 62 37 63 45 64
REMARK SMILES IDX 38 65 40 66 46 67 39 68 41 69 42 70 43 71 44 72 68 73 69 74
REMARK SMILES IDX 77 75 70 76 72 77 78 78 71 79 73 80 74 81 75 82 76 83 53 84
REMARK SMILES IDX 54 85 62 86 55 87 57 88 63 89 56 90 58 91 59 92 60 93 61 94
REMARK H PARENT 83 47 51 58
REMARK Flexibility Score: inf
ROOT
ATOM      1  C   UNL A   1      31.322  31.447  26.056  1.00  0.00     0.274 C 
ENDROOT
BRANCH   1   2
ATOM      2  O   UNL A   1      32.388  30.540  25.712  1.00  0.00    -0.462 OA
BRANCH   2   3
ATOM      3  C   UNL A   1      32.078  29.224  25.604  1.00  0.00     0.313 C 
ATOM      4  O   UNL A   1      31.222  28.784  24.843  1.00  0.00    -0.252 OA
BRANCH   3   5
ATOM      5  C   UNL A   1      32.836  28.319  26.574  1.00  0.00     0.126 C 
ATOM      6  C   UNL A   1      34.183  28.946  26.925  1.00  0.00     0.025 C 
BRANCH   5   7
ATOM      7  C   UNL A   1      33.000  26.845  26.219  1.00  0.00    -0.031 A 
ATOM      8  C   UNL A   1      33.187  24.145  25.328  1.00  0.00     0.025 A 
ATOM      9  C   UNL A   1      32.378  24.500  26.416  1.00  0.00     0.012 A 
ATOM     10  C   UNL A   1      33.971  25.150  24.754  1.00  0.00     0.131 A 
ATOM     11  C   UNL A   1      32.241  25.831  26.814  1.00  0.00     0.005 A 
ATOM     12  C   UNL A   1      33.890  26.476  25.195  1.00  0.00     0.044 A 
ATOM     13  F   UNL A   1      34.788  24.869  23.728  1.00  0.00    -0.206 F 
BRANCH   8  14
ATOM     14  C   UNL A   1      33.183  22.759  24.837  1.00  0.00     0.069 A 
ATOM     15  C   UNL A   1      34.048  21.827  25.469  1.00  0.00     0.130 A 
ATOM     16  C   UNL A   1      34.069  20.471  25.128  1.00  0.00     0.047 A 
ATOM     17  C   UNL A   1      33.212  20.003  24.145  1.00  0.00     0.008 A 
ATOM     18  C   UNL A   1      32.341  22.272  23.811  1.00  0.00     0.130 A 
ATOM     19  C   UNL A   1      32.372  20.900  23.489  1.00  0.00     0.047 A 
BRANCH  15  20
ATOM     20  O   UNL A   1      34.983  22.288  26.364  1.00  0.00    -0.493 OA
BRANCH  20  21
ATOM     21  C   UNL A   1      36.323  22.226  25.874  1.00  0.00     0.226 C 
ATOM     22  C   UNL A   1      36.912  23.621  25.954  1.00  0.00     0.049 C 
ENDBRANCH  20  21
ENDBRANCH  15  20
BRANCH  18  23
ATOM     23  O   UNL A   1      31.468  22.918  22.976  1.00  0.00    -0.493 OA
BRANCH  23  24
ATOM     24  C   UNL A   1      30.465  23.821  23.411  1.00  0.00     0.226 C 
ATOM     25  C   UNL A   1      30.786  25.229  22.939  1.00  0.00     0.049 C 
ENDBRANCH  23  24
ENDBRANCH  18  23
ENDBRANCH   8  14
ENDBRANCH   5   7
ENDBRANCH   3   5
ENDBRANCH   2   3
ENDBRANCH   1   2
BRANCH   1  26
ATOM     26  C   UNL A   1      31.698  32.316  27.261  1.00  0.00     0.275 C 
BRANCH  26  27
ATOM     27  O   UNL A   1      32.714  33.274  26.919  1.00  0.00    -0.458 OA
BRANCH  27  28
ATOM     28  C   UNL A   1      33.205  33.978  27.963  1.00  0.00     0.338 C 
ATOM     29  O   UNL A   1      32.715  34.983  28.460  1.00  0.00    -0.246 OA
BRANCH  28  30
ATOM     30  C   UNL A   1      34.359  33.287  28.543  1.00  0.00     0.060 A 
ATOM     31  C   UNL A   1      34.155  32.023  29.104  1.00  0.00     0.016 A 
ATOM     32  C   UNL A   1      35.612  33.896  28.598  1.00  0.00     0.016 A 
ATOM     33  C   UNL A   1      35.208  31.352  29.714  1.00  0.00     0.010 A 
ATOM     34  C   UNL A   1      36.670  33.221  29.212  1.00  0.00     0.010 A 
ATOM     35  C   UNL A   1      36.471  31.948  29.776  1.00  0.00    -0.014 A 
BRANCH  35  36
ATOM     36  C   UNL A   1      37.584  31.246  30.456  1.00  0.00     0.031 A 
ATOM     37  C   UNL A   1      37.907  31.570  31.884  1.00  0.00     0.074 A 
ATOM     38  C   UNL A   1      38.304  30.335  29.777  1.00  0.00     0.049 A 
ATOM     39  N   UNL A   1      38.904  31.153  32.618  1.00  0.00    -0.248 NA
ATOM     40  C   UNL A   1      36.989  32.489  32.577  1.00  0.00     0.031 C 
ATOM     41  C   UNL A   1      38.065  29.937  28.388  1.00  0.00     0.029 A 
ATOM     42  N   UNL A   1      39.401  29.603  30.153  1.00  0.00    -0.354 N 
ATOM     43  C   UNL A   1      38.756  31.781  33.848  1.00  0.00     0.074 A 
ATOM     44  C   UNL A   1      37.574  32.611  33.761  1.00  0.00     0.031 C 
ATOM     45  C   UNL A   1      39.009  29.056  28.018  1.00  0.00     0.029 A 
ATOM     46  C   UNL A   1      39.937  28.858  29.129  1.00  0.00     0.049 A 
ATOM     47  H   UNL A   1      39.769  29.609  31.066  1.00  0.00     0.167 HD
ATOM     48  C   UNL A   1      39.529  31.662  34.953  1.00  0.00     0.034 A 
ATOM     49  C   UNL A   1      41.067  28.126  29.082  1.00  0.00     0.034 A 
ATOM     50  C   UNL A   1      40.687  30.813  35.036  1.00  0.00     0.049 A 
ATOM     51  C   UNL A   1      41.914  28.019  30.322  1.00  0.00     0.074 A 
ATOM     52  C   UNL A   1      41.534  30.613  36.112  1.00  0.00     0.029 A 
ATOM     53  N   UNL A   1      41.159  30.017  34.002  1.00  0.00    -0.354 N 
ATOM     54  N   UNL A   1      41.720  28.559  31.501  1.00  0.00    -0.248 NA
ATOM     55  C   UNL A   1      43.118  27.181  30.235  1.00  0.00     0.031 C 
ATOM     56  C   UNL A   1      42.522  29.701  35.725  1.00  0.00     0.029 A 
ATOM     57  C   UNL A   1      42.283  29.322  34.414  1.00  0.00     0.049 A 
ATOM     58  H   UNL A   1      40.755  29.957  33.106  1.00  0.00     0.167 HD
ATOM     59  C   UNL A   1      42.760  28.106  32.304  1.00  0.00     0.074 A 
ATOM     60  C   UNL A   1      43.568  27.226  31.482  1.00  0.00     0.031 C 
ATOM     61  C   UNL A   1      43.036  28.405  33.597  1.00  0.00     0.034 A 
BRANCH  48  62
ATOM     62  C   UNL A   1      39.126  32.443  36.175  1.00  0.00     0.023 A 
ATOM     63  C   UNL A   1      39.573  33.771  36.325  1.00  0.00     0.012 A 
ATOM     64  C   UNL A   1      38.266  31.889  37.143  1.00  0.00     0.148 A 
ATOM     65  C   UNL A   1      39.192  34.528  37.433  1.00  0.00     0.002 A 
ATOM     66  C   UNL A   1      37.861  32.662  38.225  1.00  0.00     0.091 A 
ATOM     67  F   UNL A   1      37.871  30.617  36.994  1.00  0.00    -0.205 F 
ATOM     68  C   UNL A   1      38.329  33.977  38.375  1.00  0.00     0.022 A 
BRANCH  66  69
ATOM     69  S   UNL A   1      36.700  32.065  39.460  1.00  0.00     0.127 S 
ATOM     70  O   UNL A   1      37.076  30.656  39.564  1.00  0.00    -0.237 OA
ATOM     71  O   UNL A   1      37.048  32.875  40.629  1.00  0.00    -0.237 OA
ATOM     72  O   UNL A   1      35.372  32.322  38.920  1.00  0.00    -0.744 OA
ENDBRANCH  66  69
ENDBRANCH  48  62
BRANCH  49  73
ATOM     73  C   UNL A   1      41.446  27.424  27.823  1.00  0.00     0.023 A 
ATOM     74  C   UNL A   1      41.901  28.170  26.720  1.00  0.00     0.012 A 
ATOM     75  C   UNL A   1      41.391  26.020  27.727  1.00  0.00     0.148 A 
ATOM     76  C   UNL A   1      42.269  27.532  25.535  1.00  0.00     0.002 A 
ATOM     77  C   UNL A   1      41.812  25.387  26.563  1.00  0.00     0.091 A 
ATOM     78  F   UNL A   1      40.932  25.325  28.778  1.00  0.00    -0.205 F 
ATOM     79  C   UNL A   1      42.237  26.142  25.460  1.00  0.00     0.022 A 
BRANCH  77  80
ATOM     80  S   UNL A   1      41.929  23.598  26.442  1.00  0.00     0.127 S 
ATOM     81  O   UNL A   1      40.524  23.208  26.391  1.00  0.00    -0.237 OA
ATOM     82  O   UNL A   1      42.664  23.420  25.188  1.00  0.00    -0.237 OA
ATOM     83  O   UNL A   1      42.668  23.180  27.627  1.00  0.00    -0.744 OA
ENDBRANCH  77  80
ENDBRANCH  49  73
BRANCH  61  84
ATOM     84  C   UNL A   1      44.243  27.756  34.219  1.00  0.00     0.023 A 
ATOM     85  C   UNL A   1      45.465  28.456  34.259  1.00  0.00     0.012 A 
ATOM     86  C   UNL A   1      44.147  26.491  34.831  1.00  0.00     0.148 A 
ATOM     87  C   UNL A   1      46.581  27.896  34.879  1.00  0.00     0.002 A 
ATOM     88  C   UNL A   1      45.251  25.959  35.485  1.00  0.00     0.091 A 
ATOM     89  F   UNL A   1      42.980  25.834  34.762  1.00  0.00    -0.205 F 
ATOM     90  C   UNL A   1      46.471  26.655  35.502  1.00  0.00     0.022 A 
BRANCH  88  91
ATOM     91  S   UNL A   1      45.175  24.408  36.389  1.00  0.00     0.127 S 
ATOM     92  O   UNL A   1      44.303  23.607  35.532  1.00  0.00    -0.237 OA
ATOM     93  O   UNL A   1      46.577  23.984  36.399  1.00  0.00    -0.237 OA
ATOM     94  O   UNL A   1      44.636  24.736  37.702  1.00  0.00    -0.744 OA
ENDBRANCH  88  91
ENDBRANCH  61  84
ENDBRANCH  35  36
ENDBRANCH  28  30
ENDBRANCH  27  28
ENDBRANCH  26  27
ENDBRANCH   1  26
TORSDOF 20
ENDMDL
MODEL 3
REMARK VINA RESULT:     -10.8      0.830      7.717
REMARK SMILES CCOc1cccc(OCC)c1-c1ccc([C@@H](C)C(=O)OCCOC(=O)c2ccc(-c3c4nc(c(-c5cccc(S(=O)(=O)[O-])c5F)c5ccc([nH]5)c(-c5cccc(S(=O)(=O)[O-])c5F)c5nc(c(-c6cccc(S(=O)(=O)[O-])c6F)c6ccc3[nH]6)C=C5)C=C4)cc2)cc1F
REMARK SMILES IDX 22 1 21 2 19 3 20 4 17 5 18 6 16 7 13 8 14 9 91 10 15 11
REMARK SMILES IDX 90 12 92 13 12 14 4 15 5 16 6 17 8 18 7 19 3 20 2 21 1 22
REMARK SMILES IDX 9 23 10 24 11 25 23 26 24 27 25 28 26 29 27 30 28 31 89 32
REMARK SMILES IDX 29 33 88 34 30 35 31 36 32 37 82 38 33 39 87 40 81 41 83 42
REMARK SMILES IDX 34 43 86 44 80 45 79 46 35 48 67 49 47 50 66 51 48 52 51 53
REMARK SMILES IDX 65 54 84 55 49 56 50 57 64 59 85 60 52 61 36 62 37 63 45 64
REMARK SMILES IDX 38 65 40 66 46 67 39 68 41 69 42 70 43 71 44 72 68 73 69 74
REMARK SMILES IDX 77 75 70 76 72 77 78 78 71 79 73 80 74 81 75 82 76 83 53 84
REMARK SMILES IDX 54 85 62 86 55 87 57 88 63 89 56 90 58 91 59 92 60 93 61 94
REMARK H PARENT 83 47 51 58
REMARK Flexibility Score: inf
ROOT
ATOM      1  C   UNL A   1      35.382  21.054  24.883  1.00  0.00     0.274 C 
ENDROOT
BRANCH   1   2
ATOM      2  O   UNL A   1      34.323  20.413  25.622  1.00  0.00    -0.462 OA
BRANCH   2   3
ATOM      3  C   UNL A   1      33.214  21.148  25.889  1.00  0.00     0.313 C 
ATOM      4  O   UNL A   1      32.087  20.844  25.511  1.00  0.00    -0.252 OA
BRANCH   3   5
ATOM      5  C   UNL A   1      33.488  22.446  26.646  1.00  0.00     0.126 C 
ATOM      6  C   UNL A   1      33.120  22.278  28.118  1.00  0.00     0.025 C 
BRANCH   5   7
ATOM      7  C   UNL A   1      32.919  23.748  26.090  1.00  0.00    -0.031 A 
ATOM      8  C   UNL A   1      32.005  26.305  25.228  1.00  0.00     0.025 A 
ATOM      9  C   UNL A   1      31.143  25.395  25.854  1.00  0.00     0.012 A 
ATOM     10  C   UNL A   1      33.308  25.876  24.959  1.00  0.00     0.131 A 
ATOM     11  C   UNL A   1      31.605  24.166  26.329  1.00  0.00     0.005 A 
ATOM     12  C   UNL A   1      33.759  24.617  25.371  1.00  0.00     0.044 A 
ATOM     13  F   UNL A   1      34.174  26.690  24.336  1.00  0.00    -0.206 F 
BRANCH   8  14
ATOM     14  C   UNL A   1      31.521  27.651  24.885  1.00  0.00     0.069 A 
ATOM     15  C   UNL A   1      30.767  27.802  23.691  1.00  0.00     0.130 A 
ATOM     16  C   UNL A   1      30.201  29.022  23.310  1.00  0.00     0.047 A 
ATOM     17  C   UNL A   1      30.365  30.132  24.124  1.00  0.00     0.008 A 
ATOM     18  C   UNL A   1      31.711  28.801  25.684  1.00  0.00     0.130 A 
ATOM     19  C   UNL A   1      31.124  30.020  25.286  1.00  0.00     0.047 A 
BRANCH  15  20
ATOM     20  O   UNL A   1      30.688  26.746  22.816  1.00  0.00    -0.493 OA
BRANCH  20  21
ATOM     21  C   UNL A   1      31.622  26.824  21.738  1.00  0.00     0.226 C 
ATOM     22  C   UNL A   1      32.294  25.470  21.606  1.00  0.00     0.049 C 
ENDBRANCH  20  21
ENDBRANCH  15  20
BRANCH  18  23
ATOM     23  O   UNL A   1      32.437  28.996  26.829  1.00  0.00    -0.493 OA
BRANCH  23  24
ATOM     24  C   UNL A   1      33.612  29.787  26.907  1.00  0.00     0.226 C 
ATOM     25  C   UNL A   1      34.844  28.898  26.925  1.00  0.00     0.049 C 
ENDBRANCH  23  24
ENDBRANCH  18  23
ENDBRANCH   8  14
ENDBRANCH   5   7
ENDBRANCH   3   5
ENDBRANCH   2   3
ENDBRANCH   1   2
BRANCH   1  26
ATOM     26  C   UNL A   1      36.733  20.386  25.156  1.00  0.00     0.275 C 
BRANCH  26  27
ATOM     27  O   UNL A   1      37.813  21.332  25.070  1.00  0.00    -0.458 OA
BRANCH  27  28
ATOM     28  C   UNL A   1      38.848  21.090  25.903  1.00  0.00     0.338 C 
ATOM     29  O   UNL A   1      39.340  19.999  26.158  1.00  0.00    -0.246 OA
BRANCH  28  30
ATOM     30  C   UNL A   1      39.427  22.350  26.374  1.00  0.00     0.060 A 
ATOM     31  C   UNL A   1      38.915  23.543  25.854  1.00  0.00     0.016 A 
ATOM     32  C   UNL A   1      40.502  22.365  27.262  1.00  0.00     0.016 A 
ATOM     33  C   UNL A   1      39.467  24.762  26.228  1.00  0.00     0.010 A 
ATOM     34  C   UNL A   1      41.057  23.591  27.638  1.00  0.00     0.010 A 
ATOM     35  C   UNL A   1      40.544  24.793  27.119  1.00  0.00    -0.014 A 
BRANCH  35  36
ATOM     36  C   UNL A   1      41.153  26.091  27.493  1.00  0.00     0.031 A 
ATOM     37  C   UNL A   1      42.587  26.366  27.152  1.00  0.00     0.074 A 
ATOM     38  C   UNL A   1      40.415  27.004  28.149  1.00  0.00     0.049 A 
ATOM     39  N   UNL A   1      43.333  27.385  27.487  1.00  0.00    -0.248 NA
ATOM     40  C   UNL A   1      43.276  25.358  26.328  1.00  0.00     0.031 C 
ATOM     41  C   UNL A   1      39.007  26.842  28.518  1.00  0.00     0.029 A 
ATOM     42  N   UNL A   1      40.754  28.235  28.650  1.00  0.00    -0.354 N 
ATOM     43  C   UNL A   1      44.587  27.130  26.946  1.00  0.00     0.074 A 
ATOM     44  C   UNL A   1      44.503  25.857  26.263  1.00  0.00     0.031 C 
ATOM     45  C   UNL A   1      38.611  27.920  29.215  1.00  0.00     0.029 A 
ATOM     46  C   UNL A   1      39.745  28.826  29.373  1.00  0.00     0.049 A 
ATOM     47  H   UNL A   1      41.632  28.655  28.504  1.00  0.00     0.167 HD
ATOM     48  C   UNL A   1      45.700  27.897  27.003  1.00  0.00     0.034 A 
ATOM     49  C   UNL A   1      39.746  29.955  30.108  1.00  0.00     0.034 A 
ATOM     50  C   UNL A   1      45.764  29.174  27.663  1.00  0.00     0.049 A 
ATOM     51  C   UNL A   1      41.001  30.784  30.163  1.00  0.00     0.074 A 
ATOM     52  C   UNL A   1      46.842  30.035  27.771  1.00  0.00     0.029 A 
ATOM     53  N   UNL A   1      44.703  29.775  28.324  1.00  0.00    -0.354 N 
ATOM     54  N   UNL A   1      42.158  30.568  29.583  1.00  0.00    -0.248 NA
ATOM     55  C   UNL A   1      40.945  32.026  30.948  1.00  0.00     0.031 C 
ATOM     56  C   UNL A   1      46.433  31.155  28.503  1.00  0.00     0.029 A 
ATOM     57  C   UNL A   1      45.098  30.997  28.840  1.00  0.00     0.049 A 
ATOM     58  H   UNL A   1      43.802  29.389  28.415  1.00  0.00     0.167 HD
ATOM     59  C   UNL A   1      42.958  31.657  29.909  1.00  0.00     0.074 A 
ATOM     60  C   UNL A   1      42.144  32.544  30.718  1.00  0.00     0.031 C 
ATOM     61  C   UNL A   1      44.254  31.892  29.589  1.00  0.00     0.034 A 
BRANCH  48  62
ATOM     62  C   UNL A   1      46.933  27.392  26.302  1.00  0.00     0.023 A 
ATOM     63  C   UNL A   1      47.117  27.679  24.934  1.00  0.00     0.012 A 
ATOM     64  C   UNL A   1      47.931  26.685  27.001  1.00  0.00     0.148 A 
ATOM     65  C   UNL A   1      48.263  27.249  24.266  1.00  0.00     0.002 A 
ATOM     66  C   UNL A   1      49.087  26.291  26.337  1.00  0.00     0.091 A 
ATOM     67  F   UNL A   1      47.727  26.402  28.295  1.00  0.00    -0.205 F 
ATOM     68  C   UNL A   1      49.250  26.565  24.969  1.00  0.00     0.022 A 
BRANCH  66  69
ATOM     69  S   UNL A   1      50.446  25.461  27.168  1.00  0.00     0.127 S 
ATOM     70  O   UNL A   1      51.393  25.271  26.071  1.00  0.00    -0.237 OA
ATOM     71  O   UNL A   1      50.856  26.456  28.161  1.00  0.00    -0.237 OA
ATOM     72  O   UNL A   1      49.886  24.240  27.732  1.00  0.00    -0.744 OA
ENDBRANCH  66  69
ENDBRANCH  48  62
BRANCH  49  73
ATOM     73  C   UNL A   1      38.511  30.372  30.831  1.00  0.00     0.023 A 
ATOM     74  C   UNL A   1      38.321  29.979  32.168  1.00  0.00     0.012 A 
ATOM     75  C   UNL A   1      37.543  31.186  30.210  1.00  0.00     0.148 A 
ATOM     76  C   UNL A   1      37.176  30.365  32.867  1.00  0.00     0.002 A 
ATOM     77  C   UNL A   1      36.432  31.614  30.928  1.00  0.00     0.091 A 
ATOM     78  F   UNL A   1      37.726  31.532  28.927  1.00  0.00    -0.205 F 
ATOM     79  C   UNL A   1      36.239  31.193  32.252  1.00  0.00     0.022 A 
BRANCH  77  80
ATOM     80  S   UNL A   1      35.255  32.789  30.249  1.00  0.00     0.127 S 
ATOM     81  O   UNL A   1      34.630  32.009  29.186  1.00  0.00    -0.237 OA
ATOM     82  O   UNL A   1      34.393  33.064  31.400  1.00  0.00    -0.237 OA
ATOM     83  O   UNL A   1      36.055  33.930  29.821  1.00  0.00    -0.744 OA
ENDBRANCH  77  80
ENDBRANCH  49  73
BRANCH  61  84
ATOM     84  C   UNL A   1      44.870  33.173  30.084  1.00  0.00     0.023 A 
ATOM     85  C   UNL A   1      45.568  33.181  31.307  1.00  0.00     0.012 A 
ATOM     86  C   UNL A   1      44.827  34.343  29.301  1.00  0.00     0.148 A 
ATOM     87  C   UNL A   1      46.193  34.343  31.757  1.00  0.00     0.002 A 
ATOM     88  C   UNL A   1      45.490  35.485  29.735  1.00  0.00     0.091 A 
ATOM     89  F   UNL A   1      44.139  34.318  28.150  1.00  0.00    -0.205 F 
ATOM     90  C   UNL A   1      46.165  35.490  30.967  1.00  0.00     0.022 A 
BRANCH  88  91
ATOM     91  S   UNL A   1      45.580  36.979  28.740  1.00  0.00     0.127 S 
ATOM     92  O   UNL A   1      46.489  37.808  29.530  1.00  0.00    -0.237 OA
ATOM     93  O   UNL A   1      46.144  36.484  27.483  1.00  0.00    -0.237 OA
ATOM     94  O   UNL A   1      44.213  37.472  28.635  1.00  0.00    -0.744 OA
ENDBRANCH  88  91
ENDBRANCH  61  84
ENDBRANCH  35  36
ENDBRANCH  28  30
ENDBRANCH  27  28
ENDBRANCH  26  27
ENDBRANCH   1  26
TORSDOF 20
ENDMDL
