MODEL 1
REMARK VINA RESULT:     -12.1      0.000      0.000
REMARK SMILES O=C(OCCOC(=O)[C@H]1CCCC[N@H+]1Cc1ccc([N+](=O)[O-])o1)c1ccc(-c2c3nc(c(-c4cccc(S(=O)(=O)[O-])c4F)c4ccc([nH]4)c(-c4cccc(S(=O)(=O)[O-])c4F)c4nc(c(-c5cccc(S(=O)(=O)[O-])c5F)c5ccc2[nH]5)C=C4)C=C3)cc1
REMARK SMILES IDX 4 1 3 2 2 3 1 4 24 5 25 6 86 7 26 8 85 9 27 10 28 11 29 12
REMARK SMILES IDX 79 13 30 14 84 15 78 16 80 17 31 18 83 19 77 20 76 21 32 23
REMARK SMILES IDX 64 24 44 25 63 26 45 27 48 28 62 29 81 30 46 31 47 32 61 34
REMARK SMILES IDX 82 35 49 36 33 37 34 38 42 39 35 40 37 41 43 42 36 43 38 44
REMARK SMILES IDX 39 45 40 46 41 47 65 48 66 49 74 50 67 51 69 52 75 53 68 54
REMARK SMILES IDX 70 55 71 56 72 57 73 58 50 59 51 60 59 61 52 62 54 63 60 64
REMARK SMILES IDX 53 65 55 66 56 67 57 68 58 69 5 70 6 71 7 72 8 73 9 74 10 75
REMARK SMILES IDX 14 76 11 77 13 78 12 80 15 81 16 82 17 83 23 84 18 85 19 86
REMARK SMILES IDX 20 87 21 88 22 89
REMARK H PARENT 80 22 48 33 14 79
REMARK Flexibility Score: inf
ROOT
ATOM      1  C   UNL A   1      33.139  29.338  26.806  1.00  0.00     0.275 C 
ENDROOT
BRANCH   1   2
ATOM      2  O   UNL A   1      33.554  30.707  27.016  1.00  0.00    -0.458 OA
BRANCH   2   3
ATOM      3  C   UNL A   1      34.490  31.207  27.865  1.00  0.00     0.338 C 
ATOM      4  O   UNL A   1      34.391  32.368  28.256  1.00  0.00    -0.246 OA
BRANCH   3   5
ATOM      5  C   UNL A   1      35.726  30.456  28.211  1.00  0.00     0.060 A 
ATOM      6  C   UNL A   1      35.876  29.737  29.396  1.00  0.00     0.016 A 
ATOM      7  C   UNL A   1      36.802  30.507  27.304  1.00  0.00     0.016 A 
ATOM      8  C   UNL A   1      37.037  29.012  29.642  1.00  0.00     0.010 A 
ATOM      9  C   UNL A   1      37.987  29.806  27.562  1.00  0.00     0.010 A 
ATOM     10  C   UNL A   1      38.109  29.071  28.747  1.00  0.00    -0.014 A 
BRANCH  10  11
ATOM     11  C   UNL A   1      39.417  28.613  29.263  1.00  0.00     0.031 A 
ATOM     12  C   UNL A   1      39.928  29.302  30.491  1.00  0.00     0.074 A 
ATOM     13  C   UNL A   1      40.025  27.514  28.783  1.00  0.00     0.049 A 
ATOM     14  N   UNL A   1      40.865  28.912  31.309  1.00  0.00    -0.248 NA
ATOM     15  C   UNL A   1      39.240  30.539  30.904  1.00  0.00     0.031 C 
ATOM     16  C   UNL A   1      39.536  26.700  27.681  1.00  0.00     0.029 A 
ATOM     17  N   UNL A   1      41.177  26.877  29.159  1.00  0.00    -0.354 N 
ATOM     18  C   UNL A   1      40.836  29.816  32.359  1.00  0.00     0.074 A 
ATOM     19  C   UNL A   1      39.833  30.808  32.055  1.00  0.00     0.031 C 
ATOM     20  C   UNL A   1      40.423  25.740  27.385  1.00  0.00     0.029 A 
ATOM     21  C   UNL A   1      41.516  25.825  28.338  1.00  0.00     0.049 A 
ATOM     22  H   UNL A   1      41.712  27.146  29.941  1.00  0.00     0.167 HD
ATOM     23  C   UNL A   1      41.557  29.785  33.500  1.00  0.00     0.034 A 
ATOM     24  C   UNL A   1      42.573  24.995  28.372  1.00  0.00     0.034 A 
ATOM     25  C   UNL A   1      42.590  28.822  33.747  1.00  0.00     0.049 A 
ATOM     26  C   UNL A   1      43.451  25.066  29.586  1.00  0.00     0.074 A 
ATOM     27  C   UNL A   1      43.434  28.722  34.835  1.00  0.00     0.029 A 
ATOM     28  N   UNL A   1      42.941  27.806  32.867  1.00  0.00    -0.354 N 
ATOM     29  N   UNL A   1      43.350  25.867  30.620  1.00  0.00    -0.248 NA
ATOM     30  C   UNL A   1      44.521  24.070  29.691  1.00  0.00     0.031 C 
ATOM     31  C   UNL A   1      44.325  27.671  34.592  1.00  0.00     0.029 A 
ATOM     32  C   UNL A   1      44.005  27.087  33.374  1.00  0.00     0.049 A 
ATOM     33  H   UNL A   1      42.498  27.626  32.007  1.00  0.00     0.167 HD
ATOM     34  C   UNL A   1      44.312  25.445  31.523  1.00  0.00     0.074 A 
ATOM     35  C   UNL A   1      44.972  24.302  30.917  1.00  0.00     0.031 C 
ATOM     36  C   UNL A   1      44.626  25.950  32.741  1.00  0.00     0.034 A 
BRANCH  23  37
ATOM     37  C   UNL A   1      41.243  30.831  34.532  1.00  0.00     0.023 A 
ATOM     38  C   UNL A   1      42.233  31.765  34.905  1.00  0.00     0.012 A 
ATOM     39  C   UNL A   1      39.977  30.882  35.140  1.00  0.00     0.148 A 
ATOM     40  C   UNL A   1      41.974  32.718  35.890  1.00  0.00     0.002 A 
ATOM     41  C   UNL A   1      39.713  31.859  36.091  1.00  0.00     0.091 A 
ATOM     42  F   UNL A   1      39.066  29.962  34.792  1.00  0.00    -0.205 F 
ATOM     43  C   UNL A   1      40.712  32.769  36.475  1.00  0.00     0.022 A 
BRANCH  41  44
ATOM     44  S   UNL A   1      38.105  32.045  36.866  1.00  0.00     0.127 S 
ATOM     45  O   UNL A   1      38.314  33.229  37.698  1.00  0.00    -0.237 OA
ATOM     46  O   UNL A   1      37.235  32.255  35.710  1.00  0.00    -0.237 OA
ATOM     47  O   UNL A   1      37.865  30.810  37.600  1.00  0.00    -0.744 OA
ENDBRANCH  41  44
ENDBRANCH  23  37
BRANCH  24  48
ATOM     48  C   UNL A   1      42.791  24.006  27.280  1.00  0.00     0.023 A 
ATOM     49  C   UNL A   1      43.648  24.295  26.202  1.00  0.00     0.012 A 
ATOM     50  C   UNL A   1      42.153  22.748  27.326  1.00  0.00     0.148 A 
ATOM     51  C   UNL A   1      43.832  23.370  25.171  1.00  0.00     0.002 A 
ATOM     52  C   UNL A   1      42.376  21.814  26.322  1.00  0.00     0.091 A 
ATOM     53  F   UNL A   1      41.335  22.490  28.358  1.00  0.00    -0.205 F 
ATOM     54  C   UNL A   1      43.203  22.129  25.235  1.00  0.00     0.022 A 
BRANCH  52  55
ATOM     55  S   UNL A   1      41.690  20.155  26.385  1.00  0.00     0.127 S 
ATOM     56  O   UNL A   1      42.090  19.716  27.720  1.00  0.00    -0.237 OA
ATOM     57  O   UNL A   1      40.258  20.411  26.225  1.00  0.00    -0.237 OA
ATOM     58  O   UNL A   1      42.297  19.440  25.271  1.00  0.00    -0.744 OA
ENDBRANCH  52  55
ENDBRANCH  24  48
BRANCH  36  59
ATOM     59  C   UNL A   1      45.729  25.260  33.490  1.00  0.00     0.023 A 
ATOM     60  C   UNL A   1      47.063  25.677  33.314  1.00  0.00     0.012 A 
ATOM     61  C   UNL A   1      45.431  24.230  34.401  1.00  0.00     0.148 A 
ATOM     62  C   UNL A   1      48.093  25.042  34.002  1.00  0.00     0.002 A 
ATOM     63  C   UNL A   1      46.457  23.644  35.128  1.00  0.00     0.091 A 
ATOM     64  F   UNL A   1      44.156  23.839  34.533  1.00  0.00    -0.205 F 
ATOM     65  C   UNL A   1      47.790  24.036  34.917  1.00  0.00     0.022 A 
BRANCH  63  66
ATOM     66  S   UNL A   1      46.148  22.421  36.403  1.00  0.00     0.127 S 
ATOM     67  O   UNL A   1      45.532  21.341  35.635  1.00  0.00    -0.237 OA
ATOM     68  O   UNL A   1      47.498  22.135  36.889  1.00  0.00    -0.237 OA
ATOM     69  O   UNL A   1      45.279  23.068  37.378  1.00  0.00    -0.744 OA
ENDBRANCH  63  66
ENDBRANCH  36  59
ENDBRANCH  10  11
ENDBRANCH   3   5
ENDBRANCH   2   3
ENDBRANCH   1   2
BRANCH   1  70
ATOM     70  C   UNL A   1      33.944  28.561  25.762  1.00  0.00     0.274 C 
BRANCH  70  71
ATOM     71  O   UNL A   1      33.307  28.596  24.483  1.00  0.00    -0.458 OA
BRANCH  71  72
ATOM     72  C   UNL A   1      33.182  27.394  23.841  1.00  0.00     0.365 C 
ATOM     73  O   UNL A   1      33.956  26.454  23.999  1.00  0.00    -0.245 OA
BRANCH  72  74
ATOM     74  C   UNL A   1      31.949  27.444  22.912  1.00  0.00     0.295 C 
ATOM     75  C   UNL A   1      31.877  26.122  22.169  1.00  0.00     0.078 C 
ATOM     76  N   UNL A   1      30.663  27.737  23.558  1.00  0.00    -0.317 N 
ATOM     77  C   UNL A   1      31.412  24.973  23.051  1.00  0.00     0.013 C 
ATOM     78  C   UNL A   1      30.204  26.713  24.486  1.00  0.00     0.263 C 
ATOM     79  H   UNL A   1      30.000  27.655  22.788  1.00  0.00     0.349 HD
ATOM     80  C   UNL A   1      30.136  25.339  23.799  1.00  0.00     0.062 C 
BRANCH  76  81
ATOM     81  C   UNL A   1      30.417  29.127  23.935  1.00  0.00     0.339 C 
BRANCH  81  82
ATOM     82  C   UNL A   1      29.350  29.834  23.173  1.00  0.00     0.165 A 
ATOM     83  C   UNL A   1      28.247  29.371  22.478  1.00  0.00     0.059 A 
ATOM     84  O   UNL A   1      29.401  31.199  23.108  1.00  0.00    -0.400 OA
ATOM     85  C   UNL A   1      27.661  30.485  21.839  1.00  0.00     0.134 A 
ATOM     86  C   UNL A   1      28.367  31.568  22.302  1.00  0.00     0.433 A 
BRANCH  86  87
ATOM     87  N   UNL A   1      28.191  32.965  22.082  1.00  0.00     0.102 N 
ATOM     88  O   UNL A   1      27.630  33.321  21.039  1.00  0.00    -0.256 OA
ATOM     89  O   UNL A   1      28.668  33.721  22.942  1.00  0.00    -0.256 OA
ENDBRANCH  86  87
ENDBRANCH  81  82
ENDBRANCH  76  81
ENDBRANCH  72  74
ENDBRANCH  71  72
ENDBRANCH  70  71
ENDBRANCH   1  70
TORSDOF 17
ENDMDL
MODEL 2
REMARK VINA RESULT:     -12.0      2.041      2.621
REMARK SMILES O=C(OCCOC(=O)[C@H]1CCCC[N@H+]1Cc1ccc([N+](=O)[O-])o1)c1ccc(-c2c3nc(c(-c4cccc(S(=O)(=O)[O-])c4F)c4ccc([nH]4)c(-c4cccc(S(=O)(=O)[O-])c4F)c4nc(c(-c5cccc(S(=O)(=O)[O-])c5F)c5ccc2[nH]5)C=C4)C=C3)cc1
REMARK SMILES IDX 4 1 3 2 2 3 1 4 24 5 25 6 86 7 26 8 85 9 27 10 28 11 29 12
REMARK SMILES IDX 79 13 30 14 84 15 78 16 80 17 31 18 83 19 77 20 76 21 32 23
REMARK SMILES IDX 64 24 44 25 63 26 45 27 48 28 62 29 81 30 46 31 47 32 61 34
REMARK SMILES IDX 82 35 49 36 33 37 34 38 42 39 35 40 37 41 43 42 36 43 38 44
REMARK SMILES IDX 39 45 40 46 41 47 65 48 66 49 74 50 67 51 69 52 75 53 68 54
REMARK SMILES IDX 70 55 71 56 72 57 73 58 50 59 51 60 59 61 52 62 54 63 60 64
REMARK SMILES IDX 53 65 55 66 56 67 57 68 58 69 5 70 6 71 7 72 8 73 9 74 10 75
REMARK SMILES IDX 14 76 11 77 13 78 12 80 15 81 16 82 17 83 23 84 18 85 19 86
REMARK SMILES IDX 20 87 21 88 22 89
REMARK H PARENT 80 22 48 33 14 79
REMARK Flexibility Score: inf
ROOT
ATOM      1  C   UNL A   1      32.389  31.002  26.441  1.00  0.00     0.275 C 
ENDROOT
BRANCH   1   2
ATOM      2  O   UNL A   1      32.545  31.864  27.592  1.00  0.00    -0.458 OA
BRANCH   2   3
ATOM      3  C   UNL A   1      33.596  32.647  27.950  1.00  0.00     0.338 C 
ATOM      4  O   UNL A   1      33.495  33.869  27.861  1.00  0.00    -0.246 OA
BRANCH   3   5
ATOM      5  C   UNL A   1      34.927  32.078  28.290  1.00  0.00     0.060 A 
ATOM      6  C   UNL A   1      35.093  30.835  28.899  1.00  0.00     0.016 A 
ATOM      7  C   UNL A   1      36.066  32.856  28.006  1.00  0.00     0.016 A 
ATOM      8  C   UNL A   1      36.366  30.333  29.147  1.00  0.00     0.010 A 
ATOM      9  C   UNL A   1      37.350  32.369  28.284  1.00  0.00     0.010 A 
ATOM     10  C   UNL A   1      37.496  31.109  28.875  1.00  0.00    -0.014 A 
BRANCH  10  11
ATOM     11  C   UNL A   1      38.755  30.680  29.522  1.00  0.00     0.031 A 
ATOM     12  C   UNL A   1      39.002  31.197  30.907  1.00  0.00     0.074 A 
ATOM     13  C   UNL A   1      39.540  29.728  28.989  1.00  0.00     0.049 A 
ATOM     14  N   UNL A   1      39.844  30.756  31.799  1.00  0.00    -0.248 NA
ATOM     15  C   UNL A   1      38.133  32.290  31.382  1.00  0.00     0.031 C 
ATOM     16  C   UNL A   1      39.309  29.068  27.714  1.00  0.00     0.029 A 
ATOM     17  N   UNL A   1      40.684  29.134  29.449  1.00  0.00    -0.354 N 
ATOM     18  C   UNL A   1      39.564  31.470  32.953  1.00  0.00     0.074 A 
ATOM     19  C   UNL A   1      38.518  32.414  32.641  1.00  0.00     0.031 C 
ATOM     20  C   UNL A   1      40.327  28.246  27.426  1.00  0.00     0.029 A 
ATOM     21  C   UNL A   1      41.251  28.262  28.547  1.00  0.00     0.049 A 
ATOM     22  H   UNL A   1      41.066  29.314  30.339  1.00  0.00     0.167 HD
ATOM     23  C   UNL A   1      40.107  31.311  34.179  1.00  0.00     0.034 A 
ATOM     24  C   UNL A   1      42.374  27.526  28.628  1.00  0.00     0.034 A 
ATOM     25  C   UNL A   1      41.188  30.408  34.443  1.00  0.00     0.049 A 
ATOM     26  C   UNL A   1      43.050  27.468  29.965  1.00  0.00     0.074 A 
ATOM     27  C   UNL A   1      41.868  30.200  35.627  1.00  0.00     0.029 A 
ATOM     28  N   UNL A   1      41.772  29.582  33.491  1.00  0.00    -0.354 N 
ATOM     29  N   UNL A   1      42.713  28.078  31.077  1.00  0.00    -0.248 NA
ATOM     30  C   UNL A   1      44.192  26.558  30.094  1.00  0.00     0.031 C 
ATOM     31  C   UNL A   1      42.892  29.279  35.379  1.00  0.00     0.029 A 
ATOM     32  C   UNL A   1      42.819  28.878  34.052  1.00  0.00     0.049 A 
ATOM     33  H   UNL A   1      41.482  29.510  32.553  1.00  0.00     0.167 HD
ATOM     34  C   UNL A   1      43.569  27.593  32.051  1.00  0.00     0.074 A 
ATOM     35  C   UNL A   1      44.429  26.623  31.397  1.00  0.00     0.031 C 
ATOM     36  C   UNL A   1      43.644  27.915  33.366  1.00  0.00     0.034 A 
BRANCH  23  37
ATOM     37  C   UNL A   1      39.535  32.144  35.290  1.00  0.00     0.023 A 
ATOM     38  C   UNL A   1      38.492  31.628  36.087  1.00  0.00     0.012 A 
ATOM     39  C   UNL A   1      40.020  33.441  35.537  1.00  0.00     0.148 A 
ATOM     40  C   UNL A   1      37.920  32.402  37.096  1.00  0.00     0.002 A 
ATOM     41  C   UNL A   1      39.474  34.191  36.570  1.00  0.00     0.091 A 
ATOM     42  F   UNL A   1      40.988  33.920  34.744  1.00  0.00    -0.205 F 
ATOM     43  C   UNL A   1      38.417  33.679  37.343  1.00  0.00     0.022 A 
BRANCH  41  44
ATOM     44  S   UNL A   1      40.077  35.824  37.003  1.00  0.00     0.127 S 
ATOM     45  O   UNL A   1      39.697  36.601  35.824  1.00  0.00    -0.237 OA
ATOM     46  O   UNL A   1      39.302  36.122  38.208  1.00  0.00    -0.237 OA
ATOM     47  O   UNL A   1      41.511  35.683  37.214  1.00  0.00    -0.744 OA
ENDBRANCH  41  44
ENDBRANCH  23  37
BRANCH  24  48
ATOM     48  C   UNL A   1      42.854  26.751  27.451  1.00  0.00     0.023 A 
ATOM     49  C   UNL A   1      43.735  27.326  26.516  1.00  0.00     0.012 A 
ATOM     50  C   UNL A   1      42.447  25.412  27.271  1.00  0.00     0.148 A 
ATOM     51  C   UNL A   1      44.167  26.598  25.404  1.00  0.00     0.002 A 
ATOM     52  C   UNL A   1      42.916  24.678  26.188  1.00  0.00     0.091 A 
ATOM     53  F   UNL A   1      41.603  24.880  28.168  1.00  0.00    -0.205 F 
ATOM     54  C   UNL A   1      43.763  25.274  25.243  1.00  0.00     0.022 A 
BRANCH  52  55
ATOM     55  S   UNL A   1      42.531  22.937  25.968  1.00  0.00     0.127 S 
ATOM     56  O   UNL A   1      43.042  22.685  24.624  1.00  0.00    -0.237 OA
ATOM     57  O   UNL A   1      43.302  22.316  27.047  1.00  0.00    -0.237 OA
ATOM     58  O   UNL A   1      41.087  22.834  26.130  1.00  0.00    -0.744 OA
ENDBRANCH  52  55
ENDBRANCH  24  48
BRANCH  36  59
ATOM     59  C   UNL A   1      44.691  27.203  34.173  1.00  0.00     0.023 A 
ATOM     60  C   UNL A   1      45.970  27.773  34.319  1.00  0.00     0.012 A 
ATOM     61  C   UNL A   1      44.385  25.993  34.823  1.00  0.00     0.148 A 
ATOM     62  C   UNL A   1      46.949  27.121  35.064  1.00  0.00     0.002 A 
ATOM     63  C   UNL A   1      45.346  25.381  35.612  1.00  0.00     0.091 A 
ATOM     64  F   UNL A   1      43.166  25.463  34.650  1.00  0.00    -0.205 F 
ATOM     65  C   UNL A   1      46.633  25.932  35.720  1.00  0.00     0.022 A 
BRANCH  63  66
ATOM     66  S   UNL A   1      44.995  23.911  36.578  1.00  0.00     0.127 S 
ATOM     67  O   UNL A   1      43.939  23.281  35.787  1.00  0.00    -0.237 OA
ATOM     68  O   UNL A   1      46.279  23.211  36.554  1.00  0.00    -0.237 OA
ATOM     69  O   UNL A   1      44.590  24.383  37.896  1.00  0.00    -0.744 OA
ENDBRANCH  63  66
ENDBRANCH  36  59
ENDBRANCH  10  11
ENDBRANCH   3   5
ENDBRANCH   2   3
ENDBRANCH   1   2
BRANCH   1  70
ATOM     70  C   UNL A   1      32.958  29.590  26.598  1.00  0.00     0.274 C 
BRANCH  70  71
ATOM     71  O   UNL A   1      33.045  28.921  25.338  1.00  0.00    -0.458 OA
BRANCH  71  72
ATOM     72  C   UNL A   1      31.876  28.403  24.850  1.00  0.00     0.365 C 
ATOM     73  O   UNL A   1      31.103  27.721  25.517  1.00  0.00    -0.245 OA
BRANCH  72  74
ATOM     74  C   UNL A   1      31.726  28.807  23.367  1.00  0.00     0.295 C 
ATOM     75  C   UNL A   1      33.081  28.635  22.702  1.00  0.00     0.078 C 
ATOM     76  N   UNL A   1      30.690  28.097  22.604  1.00  0.00    -0.317 N 
ATOM     77  C   UNL A   1      33.446  27.176  22.473  1.00  0.00     0.013 C 
ATOM     78  C   UNL A   1      30.937  26.674  22.426  1.00  0.00     0.263 C 
ATOM     79  H   UNL A   1      30.812  28.466  21.661  1.00  0.00     0.349 HD
ATOM     80  C   UNL A   1      32.311  26.431  21.780  1.00  0.00     0.062 C 
BRANCH  76  81
ATOM     81  C   UNL A   1      29.306  28.502  22.839  1.00  0.00     0.339 C 
BRANCH  81  82
ATOM     82  C   UNL A   1      29.030  29.965  22.775  1.00  0.00     0.165 A 
ATOM     83  C   UNL A   1      29.103  30.963  23.730  1.00  0.00     0.059 A 
ATOM     84  O   UNL A   1      28.634  30.494  21.579  1.00  0.00    -0.400 OA
ATOM     85  C   UNL A   1      28.599  32.142  23.139  1.00  0.00     0.134 A 
ATOM     86  C   UNL A   1      28.384  31.811  21.823  1.00  0.00     0.433 A 
BRANCH  86  87
ATOM     87  N   UNL A   1      27.962  32.601  20.716  1.00  0.00     0.102 N 
ATOM     88  O   UNL A   1      28.174  32.164  19.578  1.00  0.00    -0.256 OA
ATOM     89  O   UNL A   1      27.457  33.702  20.986  1.00  0.00    -0.256 OA
ENDBRANCH  86  87
ENDBRANCH  81  82
ENDBRANCH  76  81
ENDBRANCH  72  74
ENDBRANCH  71  72
ENDBRANCH  70  71
ENDBRANCH   1  70
TORSDOF 17
ENDMDL
MODEL 3
REMARK VINA RESULT:     -11.9      5.914     11.184
REMARK SMILES O=C(OCCOC(=O)[C@H]1CCCC[N@H+]1Cc1ccc([N+](=O)[O-])o1)c1ccc(-c2c3nc(c(-c4cccc(S(=O)(=O)[O-])c4F)c4ccc([nH]4)c(-c4cccc(S(=O)(=O)[O-])c4F)c4nc(c(-c5cccc(S(=O)(=O)[O-])c5F)c5ccc2[nH]5)C=C4)C=C3)cc1
REMARK SMILES IDX 4 1 3 2 2 3 1 4 24 5 25 6 86 7 26 8 85 9 27 10 28 11 29 12
REMARK SMILES IDX 79 13 30 14 84 15 78 16 80 17 31 18 83 19 77 20 76 21 32 23
REMARK SMILES IDX 64 24 44 25 63 26 45 27 48 28 62 29 81 30 46 31 47 32 61 34
REMARK SMILES IDX 82 35 49 36 33 37 34 38 42 39 35 40 37 41 43 42 36 43 38 44
REMARK SMILES IDX 39 45 40 46 41 47 65 48 66 49 74 50 67 51 69 52 75 53 68 54
REMARK SMILES IDX 70 55 71 56 72 57 73 58 50 59 51 60 59 61 52 62 54 63 60 64
REMARK SMILES IDX 53 65 55 66 56 67 57 68 58 69 5 70 6 71 7 72 8 73 9 74 10 75
REMARK SMILES IDX 14 76 11 77 13 78 12 80 15 81 16 82 17 83 23 84 18 85 19 86
REMARK SMILES IDX 20 87 21 88 22 89
REMARK H PARENT 80 22 48 33 14 79
REMARK Flexibility Score: inf
ROOT
ATOM      1  C   UNL A   1      38.371  19.843  25.019  1.00  0.00     0.275 C 
ENDROOT
BRANCH   1   2
ATOM      2  O   UNL A   1      39.314  19.833  26.116  1.00  0.00    -0.458 OA
BRANCH   2   3
ATOM      3  C   UNL A   1      40.555  20.380  26.194  1.00  0.00     0.338 C 
ATOM      4  O   UNL A   1      41.534  19.694  25.910  1.00  0.00    -0.246 OA
BRANCH   3   5
ATOM      5  C   UNL A   1      40.790  21.731  26.770  1.00  0.00     0.060 A 
ATOM      6  C   UNL A   1      40.452  22.911  26.110  1.00  0.00     0.016 A 
ATOM      7  C   UNL A   1      41.415  21.809  28.029  1.00  0.00     0.016 A 
ATOM      8  C   UNL A   1      40.650  24.145  26.721  1.00  0.00     0.010 A 
ATOM      9  C   UNL A   1      41.647  23.050  28.635  1.00  0.00     0.010 A 
ATOM     10  C   UNL A   1      41.279  24.224  27.966  1.00  0.00    -0.014 A 
BRANCH  10  11
ATOM     11  C   UNL A   1      41.803  25.551  28.352  1.00  0.00     0.031 A 
ATOM     12  C   UNL A   1      43.217  25.850  27.959  1.00  0.00     0.074 A 
ATOM     13  C   UNL A   1      41.005  26.513  28.850  1.00  0.00     0.049 A 
ATOM     14  N   UNL A   1      43.815  27.007  27.899  1.00  0.00    -0.248 NA
ATOM     15  C   UNL A   1      44.038  24.719  27.487  1.00  0.00     0.031 C 
ATOM     16  C   UNL A   1      39.588  26.360  29.138  1.00  0.00     0.029 A 
ATOM     17  N   UNL A   1      41.259  27.813  29.193  1.00  0.00    -0.354 N 
ATOM     18  C   UNL A   1      45.052  26.752  27.328  1.00  0.00     0.074 A 
ATOM     19  C   UNL A   1      45.149  25.329  27.110  1.00  0.00     0.031 C 
ATOM     20  C   UNL A   1      39.111  27.469  29.718  1.00  0.00     0.029 A 
ATOM     21  C   UNL A   1      40.182  28.448  29.770  1.00  0.00     0.049 A 
ATOM     22  H   UNL A   1      42.127  28.252  29.043  1.00  0.00     0.167 HD
ATOM     23  C   UNL A   1      46.001  27.645  26.973  1.00  0.00     0.034 A 
ATOM     24  C   UNL A   1      40.060  29.697  30.254  1.00  0.00     0.034 A 
ATOM     25  C   UNL A   1      45.902  29.046  27.258  1.00  0.00     0.049 A 
ATOM     26  C   UNL A   1      41.187  30.646  29.974  1.00  0.00     0.074 A 
ATOM     27  C   UNL A   1      46.823  30.044  27.008  1.00  0.00     0.029 A 
ATOM     28  N   UNL A   1      44.821  29.643  27.894  1.00  0.00    -0.354 N 
ATOM     29  N   UNL A   1      42.313  30.410  29.344  1.00  0.00    -0.248 NA
ATOM     30  C   UNL A   1      40.997  32.042  30.377  1.00  0.00     0.031 C 
ATOM     31  C   UNL A   1      46.315  31.238  27.532  1.00  0.00     0.029 A 
ATOM     32  C   UNL A   1      45.058  30.993  28.066  1.00  0.00     0.049 A 
ATOM     33  H   UNL A   1      44.005  29.173  28.181  1.00  0.00     0.167 HD
ATOM     34  C   UNL A   1      42.949  31.636  29.231  1.00  0.00     0.074 A 
ATOM     35  C   UNL A   1      42.068  32.614  29.844  1.00  0.00     0.031 C 
ATOM     36  C   UNL A   1      44.150  31.932  28.675  1.00  0.00     0.034 A 
BRANCH  23  37
ATOM     37  C   UNL A   1      47.208  27.107  26.260  1.00  0.00     0.023 A 
ATOM     38  C   UNL A   1      47.286  27.189  24.854  1.00  0.00     0.012 A 
ATOM     39  C   UNL A   1      48.259  26.509  26.979  1.00  0.00     0.148 A 
ATOM     40  C   UNL A   1      48.380  26.658  24.171  1.00  0.00     0.002 A 
ATOM     41  C   UNL A   1      49.364  26.019  26.295  1.00  0.00     0.091 A 
ATOM     42  F   UNL A   1      48.146  26.413  28.311  1.00  0.00    -0.205 F 
ATOM     43  C   UNL A   1      49.422  26.082  24.893  1.00  0.00     0.022 A 
BRANCH  41  44
ATOM     44  S   UNL A   1      50.781  25.306  27.133  1.00  0.00     0.127 S 
ATOM     45  O   UNL A   1      51.245  26.434  27.940  1.00  0.00    -0.237 OA
ATOM     46  O   UNL A   1      50.167  24.221  27.897  1.00  0.00    -0.237 OA
ATOM     47  O   UNL A   1      51.698  24.878  26.085  1.00  0.00    -0.744 OA
ENDBRANCH  41  44
ENDBRANCH  23  37
BRANCH  24  48
ATOM     48  C   UNL A   1      38.816  30.114  30.960  1.00  0.00     0.023 A 
ATOM     49  C   UNL A   1      38.627  29.823  32.324  1.00  0.00     0.012 A 
ATOM     50  C   UNL A   1      37.817  30.832  30.270  1.00  0.00     0.148 A 
ATOM     51  C   UNL A   1      37.449  30.201  32.975  1.00  0.00     0.002 A 
ATOM     52  C   UNL A   1      36.668  31.245  30.934  1.00  0.00     0.091 A 
ATOM     53  F   UNL A   1      38.010  31.096  28.969  1.00  0.00    -0.205 F 
ATOM     54  C   UNL A   1      36.475  30.916  32.283  1.00  0.00     0.022 A 
BRANCH  52  55
ATOM     55  S   UNL A   1      35.416  32.263  30.144  1.00  0.00     0.127 S 
ATOM     56  O   UNL A   1      36.186  33.445  29.767  1.00  0.00    -0.237 OA
ATOM     57  O   UNL A   1      34.997  31.417  29.025  1.00  0.00    -0.237 OA
ATOM     58  O   UNL A   1      34.388  32.469  31.155  1.00  0.00    -0.744 OA
ENDBRANCH  52  55
ENDBRANCH  24  48
BRANCH  36  59
ATOM     59  C   UNL A   1      44.566  33.374  28.706  1.00  0.00     0.023 A 
ATOM     60  C   UNL A   1      44.210  34.229  27.644  1.00  0.00     0.012 A 
ATOM     61  C   UNL A   1      45.270  33.886  29.811  1.00  0.00     0.148 A 
ATOM     62  C   UNL A   1      44.592  35.567  27.662  1.00  0.00     0.002 A 
ATOM     63  C   UNL A   1      45.593  35.234  29.849  1.00  0.00     0.091 A 
ATOM     64  F   UNL A   1      45.614  33.046  30.797  1.00  0.00    -0.205 F 
ATOM     65  C   UNL A   1      45.272  36.072  28.768  1.00  0.00     0.022 A 
BRANCH  63  66
ATOM     66  S   UNL A   1      46.369  35.991  31.278  1.00  0.00     0.127 S 
ATOM     67  O   UNL A   1      45.457  35.603  32.352  1.00  0.00    -0.237 OA
ATOM     68  O   UNL A   1      47.672  35.325  31.310  1.00  0.00    -0.237 OA
ATOM     69  O   UNL A   1      46.428  37.419  30.994  1.00  0.00    -0.744 OA
ENDBRANCH  63  66
ENDBRANCH  36  59
ENDBRANCH  10  11
ENDBRANCH   3   5
ENDBRANCH   2   3
ENDBRANCH   1   2
BRANCH   1  70
ATOM     70  C   UNL A   1      37.330  20.964  25.058  1.00  0.00     0.274 C 
BRANCH  70  71
ATOM     71  O   UNL A   1      36.012  20.460  24.832  1.00  0.00    -0.458 OA
BRANCH  71  72
ATOM     72  C   UNL A   1      34.986  21.334  25.065  1.00  0.00     0.365 C 
ATOM     73  O   UNL A   1      34.973  22.492  24.657  1.00  0.00    -0.245 OA
BRANCH  72  74
ATOM     74  C   UNL A   1      33.904  20.628  25.912  1.00  0.00     0.295 C 
ATOM     75  C   UNL A   1      33.851  21.319  27.263  1.00  0.00     0.078 C 
ATOM     76  N   UNL A   1      32.561  20.560  25.320  1.00  0.00    -0.317 N 
ATOM     77  C   UNL A   1      33.190  22.688  27.201  1.00  0.00     0.013 C 
ATOM     78  C   UNL A   1      31.909  21.850  25.151  1.00  0.00     0.263 C 
ATOM     79  H   UNL A   1      32.011  20.125  26.060  1.00  0.00     0.349 HD
ATOM     80  C   UNL A   1      31.848  22.615  26.484  1.00  0.00     0.062 C 
BRANCH  76  81
ATOM     81  C   UNL A   1      32.356  19.573  24.262  1.00  0.00     0.339 C 
BRANCH  81  82
ATOM     82  C   UNL A   1      33.035  18.261  24.450  1.00  0.00     0.165 A 
ATOM     83  C   UNL A   1      34.280  17.798  24.060  1.00  0.00     0.059 A 
ATOM     84  O   UNL A   1      32.368  17.281  25.131  1.00  0.00    -0.400 OA
ATOM     85  C   UNL A   1      34.337  16.427  24.394  1.00  0.00     0.134 A 
ATOM     86  C   UNL A   1      33.177  16.187  25.089  1.00  0.00     0.433 A 
BRANCH  86  87
ATOM     87  N   UNL A   1      32.708  15.015  25.750  1.00  0.00     0.102 N 
ATOM     88  O   UNL A   1      31.794  15.142  26.575  1.00  0.00    -0.256 OA
ATOM     89  O   UNL A   1      33.297  13.958  25.480  1.00  0.00    -0.256 OA
ENDBRANCH  86  87
ENDBRANCH  81  82
ENDBRANCH  76  81
ENDBRANCH  72  74
ENDBRANCH  71  72
ENDBRANCH  70  71
ENDBRANCH   1  70
TORSDOF 17
ENDMDL
