MODEL 1
REMARK VINA RESULT:     -14.0      0.000      0.000
REMARK SMILES O=C(OCCOC(=O)[C@@H]1CCCN1S(=O)(=O)c1ccc2c3c(cccc13)C(=O)N2)c1ccc(-c2c3nc(c(-c4cccc(S(=O)(=O)[O-])c4F)c4ccc([nH]4)c(-c4cccc(S(=O)(=O)[O-])c4F)c4nc(c(-c5cccc(S(=O)(=O)[O-])c5F)c5ccc2[nH]5)C=C4)C=C3)cc1
REMARK SMILES IDX 4 1 3 2 2 3 1 4 30 5 31 6 92 7 32 8 91 9 33 10 34 11 35 12
REMARK SMILES IDX 85 13 36 14 90 15 84 16 86 17 37 18 89 19 83 20 82 21 38 23
REMARK SMILES IDX 70 24 50 25 69 26 51 27 54 28 68 29 87 30 52 31 53 32 67 34
REMARK SMILES IDX 88 35 55 36 39 37 40 38 48 39 41 40 43 41 49 42 42 43 44 44
REMARK SMILES IDX 45 45 46 46 47 47 71 48 72 49 80 50 73 51 75 52 81 53 74 54
REMARK SMILES IDX 76 55 77 56 78 57 79 58 56 59 57 60 65 61 58 62 60 63 66 64
REMARK SMILES IDX 59 65 61 66 62 67 63 68 64 69 5 70 6 71 7 72 8 73 9 74 10 75
REMARK SMILES IDX 13 76 11 77 12 78 14 79 15 80 16 81 17 82 18 83 26 84 19 85
REMARK SMILES IDX 21 86 25 87 20 88 22 89 24 90 29 91 23 92 27 93 28 95
REMARK H PARENT 86 22 54 33 29 94
REMARK Flexibility Score: inf
ROOT
ATOM      1  C   UNL A   1      31.514  30.912  26.781  1.00  0.00     0.275 C 
ENDROOT
BRANCH   1   2
ATOM      2  O   UNL A   1      32.161  32.205  26.699  1.00  0.00    -0.458 OA
BRANCH   2   3
ATOM      3  C   UNL A   1      33.016  32.824  27.546  1.00  0.00     0.338 C 
ATOM      4  O   UNL A   1      32.680  33.870  28.095  1.00  0.00    -0.246 OA
BRANCH   3   5
ATOM      5  C   UNL A   1      34.403  32.312  27.846  1.00  0.00     0.060 A 
ATOM      6  C   UNL A   1      35.911  33.316  27.997  1.00  0.00     0.016 A 
ATOM      7  C   UNL A   1      34.457  30.593  28.380  1.00  0.00     0.016 A 
ATOM      8  C   UNL A   1      37.401  32.629  28.754  1.00  0.00     0.010 A 
ATOM      9  C   UNL A   1      35.960  29.898  29.069  1.00  0.00     0.010 A 
ATOM     10  C   UNL A   1      37.447  30.926  29.289  1.00  0.00    -0.014 A 
BRANCH  10  11
ATOM     11  C   UNL A   1      38.725  30.418  29.919  1.00  0.00     0.031 A 
ATOM     12  C   UNL A   1      39.313  30.985  31.186  1.00  0.00     0.074 A 
ATOM     13  C   UNL A   1      39.385  29.382  29.354  1.00  0.00     0.049 A 
ATOM     14  N   UNL A   1      40.111  30.372  32.030  1.00  0.00    -0.248 NA
ATOM     15  C   UNL A   1      38.964  32.346  31.605  1.00  0.00     0.031 C 
ATOM     16  C   UNL A   1      38.997  28.713  28.122  1.00  0.00     0.029 A 
ATOM     17  N   UNL A   1      40.547  28.731  29.699  1.00  0.00    -0.354 N 
ATOM     18  C   UNL A   1      40.213  31.209  33.134  1.00  0.00     0.074 A 
ATOM     19  C   UNL A   1      39.486  32.414  32.823  1.00  0.00     0.031 C 
ATOM     20  C   UNL A   1      39.932  27.834  27.746  1.00  0.00     0.029 A 
ATOM     21  C   UNL A   1      40.969  27.811  28.765  1.00  0.00     0.049 A 
ATOM     22  H   UNL A   1      41.032  28.906  30.539  1.00  0.00     0.167 HD
ATOM     23  C   UNL A   1      40.824  30.970  34.316  1.00  0.00     0.034 A 
ATOM     24  C   UNL A   1      42.041  26.998  28.725  1.00  0.00     0.034 A 
ATOM     25  C   UNL A   1      41.710  29.866  34.545  1.00  0.00     0.049 A 
ATOM     26  C   UNL A   1      42.881  26.879  29.956  1.00  0.00     0.074 A 
ATOM     27  C   UNL A   1      42.375  29.516  35.706  1.00  0.00     0.029 A 
ATOM     28  N   UNL A   1      42.138  28.997  33.554  1.00  0.00    -0.354 N 
ATOM     29  N   UNL A   1      42.709  27.475  31.110  1.00  0.00    -0.248 NA
ATOM     30  C   UNL A   1      44.000  25.930  29.923  1.00  0.00     0.031 C 
ATOM     31  C   UNL A   1      43.264  28.481  35.395  1.00  0.00     0.029 A 
ATOM     32  C   UNL A   1      43.129  28.172  34.050  1.00  0.00     0.049 A 
ATOM     33  H   UNL A   1      41.788  28.972  32.635  1.00  0.00     0.167 HD
ATOM     34  C   UNL A   1      43.666  26.942  31.959  1.00  0.00     0.074 A 
ATOM     35  C   UNL A   1      44.428  25.985  31.181  1.00  0.00     0.031 C 
ATOM     36  C   UNL A   1      43.874  27.217  33.269  1.00  0.00     0.034 A 
BRANCH  23  37
ATOM     37  C   UNL A   1      40.507  31.894  35.456  1.00  0.00     0.023 A 
ATOM     38  C   UNL A   1      41.407  32.946  35.727  1.00  0.00     0.012 A 
ATOM     39  C   UNL A   1      39.333  31.772  36.218  1.00  0.00     0.148 A 
ATOM     40  C   UNL A   1      41.148  33.861  36.747  1.00  0.00     0.002 A 
ATOM     41  C   UNL A   1      39.078  32.690  37.233  1.00  0.00     0.091 A 
ATOM     42  F   UNL A   1      38.496  30.763  35.941  1.00  0.00    -0.205 F 
ATOM     43  C   UNL A   1      39.983  33.734  37.498  1.00  0.00     0.022 A 
BRANCH  41  44
ATOM     44  S   UNL A   1      37.618  32.611  38.274  1.00  0.00     0.127 S 
ATOM     45  O   UNL A   1      37.956  33.561  39.335  1.00  0.00    -0.237 OA
ATOM     46  O   UNL A   1      36.569  33.063  37.362  1.00  0.00    -0.237 OA
ATOM     47  O   UNL A   1      37.511  31.227  38.713  1.00  0.00    -0.744 OA
ENDBRANCH  41  44
ENDBRANCH  23  37
BRANCH  24  48
ATOM     48  C   UNL A   1      42.275  26.171  27.509  1.00  0.00     0.023 A 
ATOM     49  C   UNL A   1      43.025  26.693  26.439  1.00  0.00     0.012 A 
ATOM     50  C   UNL A   1      41.870  24.820  27.473  1.00  0.00     0.148 A 
ATOM     51  C   UNL A   1      43.368  25.884  25.353  1.00  0.00     0.002 A 
ATOM     52  C   UNL A   1      42.239  24.013  26.402  1.00  0.00     0.091 A 
ATOM     53  F   UNL A   1      41.159  24.345  28.505  1.00  0.00    -0.205 F 
ATOM     54  C   UNL A   1      42.984  24.544  25.338  1.00  0.00     0.022 A 
BRANCH  52  55
ATOM     55  S   UNL A   1      41.879  22.251  26.343  1.00  0.00     0.127 S 
ATOM     56  O   UNL A   1      40.434  22.248  26.137  1.00  0.00    -0.237 OA
ATOM     57  O   UNL A   1      42.669  21.821  25.188  1.00  0.00    -0.237 OA
ATOM     58  O   UNL A   1      42.336  21.713  27.618  1.00  0.00    -0.744 OA
ENDBRANCH  52  55
ENDBRANCH  24  48
BRANCH  36  59
ATOM     59  C   UNL A   1      44.993  26.504  33.966  1.00  0.00     0.023 A 
ATOM     60  C   UNL A   1      46.274  27.087  33.976  1.00  0.00     0.012 A 
ATOM     61  C   UNL A   1      44.735  25.358  34.740  1.00  0.00     0.148 A 
ATOM     62  C   UNL A   1      47.287  26.540  34.758  1.00  0.00     0.002 A 
ATOM     63  C   UNL A   1      45.738  24.842  35.548  1.00  0.00     0.091 A 
ATOM     64  F   UNL A   1      43.507  24.823  34.697  1.00  0.00    -0.205 F 
ATOM     65  C   UNL A   1      47.015  25.429  35.556  1.00  0.00     0.022 A 
BRANCH  63  66
ATOM     66  S   UNL A   1      45.459  23.477  36.680  1.00  0.00     0.127 S 
ATOM     67  O   UNL A   1      46.806  23.238  37.196  1.00  0.00    -0.237 OA
ATOM     68  O   UNL A   1      44.530  24.066  37.646  1.00  0.00    -0.237 OA
ATOM     69  O   UNL A   1      44.902  22.394  35.881  1.00  0.00    -0.744 OA
ENDBRANCH  63  66
ENDBRANCH  36  59
ENDBRANCH  10  11
ENDBRANCH   3   5
ENDBRANCH   2   3
ENDBRANCH   1   2
BRANCH   1  70
ATOM     70  C   UNL A   1      31.768  30.034  25.547  1.00  0.00     0.274 C 
BRANCH  70  71
ATOM     71  O   UNL A   1      30.668  30.120  24.627  1.00  0.00    -0.461 OA
BRANCH  71  72
ATOM     72  C   UNL A   1      30.550  29.041  23.820  1.00  0.00     0.324 C 
ATOM     73  O   UNL A   1      29.496  28.779  23.243  1.00  0.00    -0.250 OA
BRANCH  72  74
ATOM     74  C   UNL A   1      31.793  28.195  23.639  1.00  0.00     0.183 C 
ATOM     75  C   UNL A   1      32.439  28.697  22.355  1.00  0.00     0.034 C 
ATOM     76  N   UNL A   1      32.360  26.500  23.724  1.00  0.00    -0.184 NA
ATOM     77  C   UNL A   1      33.890  28.315  22.482  1.00  0.00     0.019 C 
ATOM     78  C   UNL A   1      34.011  27.039  23.340  1.00  0.00     0.103 C 
BRANCH  76  79
ATOM     79  S   UNL A   1      31.413  24.370  24.515  1.00  0.00     0.244 S 
ATOM     80  O   UNL A   1      30.735  24.446  25.828  1.00  0.00    -0.207 OA
ATOM     81  O   UNL A   1      30.582  23.675  23.528  1.00  0.00    -0.207 OA
BRANCH  79  82
ATOM     82  C   UNL A   1      32.536  22.785  25.067  1.00  0.00     0.090 A 
ATOM     83  C   UNL A   1      32.156  21.497  24.606  1.00  0.00     0.024 A 
ATOM     84  C   UNL A   1      33.974  22.983  25.264  1.00  0.00     0.005 A 
ATOM     85  C   UNL A   1      32.924  20.330  24.729  1.00  0.00     0.028 A 
ATOM     86  C   UNL A   1      34.728  21.828  25.246  1.00  0.00     0.019 A 
ATOM     87  C   UNL A   1      34.808  24.143  25.325  1.00  0.00     0.010 A 
ATOM     88  C   UNL A   1      34.236  20.555  25.048  1.00  0.00     0.050 A 
ATOM     89  C   UNL A   1      36.117  21.719  25.221  1.00  0.00     0.050 A 
ATOM     90  C   UNL A   1      36.224  24.078  25.285  1.00  0.00     0.002 A 
ATOM     91  N   UNL A   1      35.294  19.673  25.001  1.00  0.00    -0.321 N 
ATOM     92  C   UNL A   1      36.905  22.861  25.222  1.00  0.00     0.014 A 
ATOM     93  C   UNL A   1      36.520  20.331  25.079  1.00  0.00     0.256 C 
ATOM     94  H   UNL A   1      35.195  18.696  24.921  1.00  0.00     0.170 HD
ATOM     95  O   UNL A   1      37.606  19.777  24.988  1.00  0.00    -0.269 OA
ENDBRANCH  79  82
ENDBRANCH  76  79
ENDBRANCH  72  74
ENDBRANCH  71  72
ENDBRANCH  70  71
ENDBRANCH   1  70
TORSDOF 16
ENDMDL
MODEL 2
REMARK VINA RESULT:     -13.5      4.842     10.507
REMARK SMILES O=C(OCCOC(=O)[C@@H]1CCCN1S(=O)(=O)c1ccc2c3c(cccc13)C(=O)N2)c1ccc(-c2c3nc(c(-c4cccc(S(=O)(=O)[O-])c4F)c4ccc([nH]4)c(-c4cccc(S(=O)(=O)[O-])c4F)c4nc(c(-c5cccc(S(=O)(=O)[O-])c5F)c5ccc2[nH]5)C=C4)C=C3)cc1
REMARK SMILES IDX 4 1 3 2 2 3 1 4 30 5 31 6 92 7 32 8 91 9 33 10 34 11 35 12
REMARK SMILES IDX 85 13 36 14 90 15 84 16 86 17 37 18 89 19 83 20 82 21 38 23
REMARK SMILES IDX 70 24 50 25 69 26 51 27 54 28 68 29 87 30 52 31 53 32 67 34
REMARK SMILES IDX 88 35 55 36 39 37 40 38 48 39 41 40 43 41 49 42 42 43 44 44
REMARK SMILES IDX 45 45 46 46 47 47 71 48 72 49 80 50 73 51 75 52 81 53 74 54
REMARK SMILES IDX 76 55 77 56 78 57 79 58 56 59 57 60 65 61 58 62 60 63 66 64
REMARK SMILES IDX 59 65 61 66 62 67 63 68 64 69 5 70 6 71 7 72 8 73 9 74 10 75
REMARK SMILES IDX 13 76 11 77 12 78 14 79 15 80 16 81 17 82 18 83 26 84 19 85
REMARK SMILES IDX 21 86 25 87 20 88 22 89 24 90 29 91 23 92 27 93 28 95
REMARK H PARENT 86 22 54 33 29 94
REMARK Flexibility Score: inf
ROOT
ATOM      1  C   UNL A   1      37.812  19.890  24.654  1.00  0.00     0.275 C 
ENDROOT
BRANCH   1   2
ATOM      2  O   UNL A   1      38.654  19.646  25.807  1.00  0.00    -0.458 OA
BRANCH   2   3
ATOM      3  C   UNL A   1      39.919  20.042  26.079  1.00  0.00     0.338 C 
ATOM      4  O   UNL A   1      40.864  19.319  25.774  1.00  0.00    -0.246 OA
BRANCH   3   5
ATOM      5  C   UNL A   1      40.252  21.337  26.778  1.00  0.00     0.060 A 
ATOM      6  C   UNL A   1      41.513  21.572  28.066  1.00  0.00     0.016 A 
ATOM      7  C   UNL A   1      39.510  22.796  26.025  1.00  0.00     0.016 A 
ATOM      8  C   UNL A   1      42.076  23.231  28.511  1.00  0.00     0.010 A 
ATOM      9  C   UNL A   1      40.026  24.441  26.520  1.00  0.00     0.010 A 
ATOM     10  C   UNL A   1      41.342  24.673  27.755  1.00  0.00    -0.014 A 
BRANCH  10  11
ATOM     11  C   UNL A   1      41.865  26.030  28.171  1.00  0.00     0.031 A 
ATOM     12  C   UNL A   1      43.305  26.451  28.021  1.00  0.00     0.074 A 
ATOM     13  C   UNL A   1      41.014  26.948  28.682  1.00  0.00     0.049 A 
ATOM     14  N   UNL A   1      43.764  27.678  27.920  1.00  0.00    -0.248 NA
ATOM     15  C   UNL A   1      44.355  25.432  27.926  1.00  0.00     0.031 C 
ATOM     16  C   UNL A   1      39.597  26.733  28.927  1.00  0.00     0.029 A 
ATOM     17  N   UNL A   1      41.209  28.232  29.137  1.00  0.00    -0.354 N 
ATOM     18  C   UNL A   1      45.108  27.556  27.591  1.00  0.00     0.074 A 
ATOM     19  C   UNL A   1      45.424  26.150  27.606  1.00  0.00     0.031 C 
ATOM     20  C   UNL A   1      39.066  27.774  29.577  1.00  0.00     0.029 A 
ATOM     21  C   UNL A   1      40.096  28.787  29.729  1.00  0.00     0.049 A 
ATOM     22  H   UNL A   1      42.066  28.710  29.048  1.00  0.00     0.167 HD
ATOM     23  C   UNL A   1      45.984  28.532  27.263  1.00  0.00     0.034 A 
ATOM     24  C   UNL A   1      39.886  29.989  30.299  1.00  0.00     0.034 A 
ATOM     25  C   UNL A   1      45.723  29.930  27.446  1.00  0.00     0.049 A 
ATOM     26  C   UNL A   1      40.945  31.034  30.149  1.00  0.00     0.074 A 
ATOM     27  C   UNL A   1      46.531  31.009  27.137  1.00  0.00     0.029 A 
ATOM     28  N   UNL A   1      44.604  30.432  28.091  1.00  0.00    -0.354 N 
ATOM     29  N   UNL A   1      42.086  30.940  29.513  1.00  0.00    -0.248 NA
ATOM     30  C   UNL A   1      40.670  32.363  30.708  1.00  0.00     0.031 C 
ATOM     31  C   UNL A   1      45.932  32.158  27.666  1.00  0.00     0.029 A 
ATOM     32  C   UNL A   1      44.741  31.794  28.277  1.00  0.00     0.049 A 
ATOM     33  H   UNL A   1      43.828  29.898  28.374  1.00  0.00     0.167 HD
ATOM     34  C   UNL A   1      42.649  32.206  29.551  1.00  0.00     0.074 A 
ATOM     35  C   UNL A   1      41.728  33.049  30.289  1.00  0.00     0.031 C 
ATOM     36  C   UNL A   1      43.815  32.625  29.006  1.00  0.00     0.034 A 
BRANCH  23  37
ATOM     37  C   UNL A   1      47.278  28.113  26.628  1.00  0.00     0.023 A 
ATOM     38  C   UNL A   1      48.390  27.894  27.469  1.00  0.00     0.012 A 
ATOM     39  C   UNL A   1      47.399  27.889  25.246  1.00  0.00     0.148 A 
ATOM     40  C   UNL A   1      49.607  27.465  26.943  1.00  0.00     0.002 A 
ATOM     41  C   UNL A   1      48.616  27.457  24.728  1.00  0.00     0.091 A 
ATOM     42  F   UNL A   1      46.328  28.105  24.470  1.00  0.00    -0.205 F 
ATOM     43  C   UNL A   1      49.720  27.245  25.574  1.00  0.00     0.022 A 
BRANCH  41  44
ATOM     44  S   UNL A   1      48.879  27.160  22.976  1.00  0.00     0.127 S 
ATOM     45  O   UNL A   1      50.340  27.160  22.890  1.00  0.00    -0.237 OA
ATOM     46  O   UNL A   1      48.257  25.850  22.794  1.00  0.00    -0.237 OA
ATOM     47  O   UNL A   1      48.232  28.263  22.279  1.00  0.00    -0.744 OA
ENDBRANCH  41  44
ENDBRANCH  23  37
BRANCH  24  48
ATOM     48  C   UNL A   1      38.574  30.262  30.948  1.00  0.00     0.023 A 
ATOM     49  C   UNL A   1      38.362  29.885  32.287  1.00  0.00     0.012 A 
ATOM     50  C   UNL A   1      37.587  31.016  30.279  1.00  0.00     0.148 A 
ATOM     51  C   UNL A   1      37.189  30.255  32.949  1.00  0.00     0.002 A 
ATOM     52  C   UNL A   1      36.435  31.405  30.953  1.00  0.00     0.091 A 
ATOM     53  F   UNL A   1      37.814  31.365  29.005  1.00  0.00    -0.205 F 
ATOM     54  C   UNL A   1      36.231  31.021  32.288  1.00  0.00     0.022 A 
BRANCH  52  55
ATOM     55  S   UNL A   1      35.193  32.478  30.217  1.00  0.00     0.127 S 
ATOM     56  O   UNL A   1      34.680  31.642  29.135  1.00  0.00    -0.237 OA
ATOM     57  O   UNL A   1      34.268  32.679  31.333  1.00  0.00    -0.237 OA
ATOM     58  O   UNL A   1      35.905  33.680  29.803  1.00  0.00    -0.744 OA
ENDBRANCH  52  55
ENDBRANCH  24  48
BRANCH  36  59
ATOM     59  C   UNL A   1      44.207  34.058  29.200  1.00  0.00     0.023 A 
ATOM     60  C   UNL A   1      43.772  35.018  28.268  1.00  0.00     0.012 A 
ATOM     61  C   UNL A   1      44.854  34.467  30.380  1.00  0.00     0.148 A 
ATOM     62  C   UNL A   1      43.970  36.374  28.513  1.00  0.00     0.002 A 
ATOM     63  C   UNL A   1      45.013  35.821  30.636  1.00  0.00     0.091 A 
ATOM     64  F   UNL A   1      45.266  33.524  31.240  1.00  0.00    -0.205 F 
ATOM     65  C   UNL A   1      44.575  36.775  29.703  1.00  0.00     0.022 A 
BRANCH  63  66
ATOM     66  S   UNL A   1      45.690  36.438  32.180  1.00  0.00     0.127 S 
ATOM     67  O   UNL A   1      44.769  35.862  33.160  1.00  0.00    -0.237 OA
ATOM     68  O   UNL A   1      47.030  35.851  32.183  1.00  0.00    -0.237 OA
ATOM     69  O   UNL A   1      45.661  37.891  32.085  1.00  0.00    -0.744 OA
ENDBRANCH  63  66
ENDBRANCH  36  59
ENDBRANCH  10  11
ENDBRANCH   3   5
ENDBRANCH   2   3
ENDBRANCH   1   2
BRANCH   1  70
ATOM     70  C   UNL A   1      36.528  20.659  25.000  1.00  0.00     0.274 C 
BRANCH  70  71
ATOM     71  O   UNL A   1      35.391  19.781  24.989  1.00  0.00    -0.461 OA
BRANCH  71  72
ATOM     72  C   UNL A   1      34.228  20.404  24.696  1.00  0.00     0.324 C 
ATOM     73  O   UNL A   1      33.422  19.925  23.900  1.00  0.00    -0.250 OA
BRANCH  72  74
ATOM     74  C   UNL A   1      33.955  21.703  25.426  1.00  0.00     0.183 C 
ATOM     75  C   UNL A   1      33.386  21.294  26.778  1.00  0.00     0.034 C 
ATOM     76  N   UNL A   1      33.247  23.327  25.180  1.00  0.00    -0.184 NA
ATOM     77  C   UNL A   1      33.667  22.464  27.681  1.00  0.00     0.019 C 
ATOM     78  C   UNL A   1      33.681  23.762  26.850  1.00  0.00     0.103 C 
BRANCH  76  79
ATOM     79  S   UNL A   1      32.453  24.622  23.243  1.00  0.00     0.244 S 
ATOM     80  O   UNL A   1      33.438  24.757  22.147  1.00  0.00    -0.207 OA
ATOM     81  O   UNL A   1      31.144  24.204  22.733  1.00  0.00    -0.207 OA
BRANCH  79  82
ATOM     82  C   UNL A   1      32.085  26.607  23.301  1.00  0.00     0.090 A 
ATOM     83  C   UNL A   1      30.826  27.071  22.839  1.00  0.00     0.024 A 
ATOM     84  C   UNL A   1      32.693  27.398  24.373  1.00  0.00     0.005 A 
ATOM     85  C   UNL A   1      30.336  28.377  22.990  1.00  0.00     0.028 A 
ATOM     86  C   UNL A   1      32.106  28.627  24.592  1.00  0.00     0.019 A 
ATOM     87  C   UNL A   1      33.687  27.116  25.362  1.00  0.00     0.010 A 
ATOM     88  C   UNL A   1      31.020  29.128  23.907  1.00  0.00     0.050 A 
ATOM     89  C   UNL A   1      32.342  29.507  25.648  1.00  0.00     0.050 A 
ATOM     90  C   UNL A   1      33.948  27.975  26.460  1.00  0.00     0.002 A 
ATOM     91  N   UNL A   1      30.660  30.336  24.467  1.00  0.00    -0.321 N 
ATOM     92  C   UNL A   1      33.270  29.184  26.628  1.00  0.00     0.014 A 
ATOM     93  C   UNL A   1      31.432  30.635  25.588  1.00  0.00     0.256 C 
ATOM     94  H   UNL A   1      29.945  30.915  24.117  1.00  0.00     0.170 HD
ATOM     95  O   UNL A   1      31.260  31.615  26.300  1.00  0.00    -0.269 OA
ENDBRANCH  79  82
ENDBRANCH  76  79
ENDBRANCH  72  74
ENDBRANCH  71  72
ENDBRANCH  70  71
ENDBRANCH   1  70
TORSDOF 16
ENDMDL
MODEL 3
REMARK VINA RESULT:     -12.7      4.681     15.316
REMARK SMILES O=C(OCCOC(=O)[C@@H]1CCCN1S(=O)(=O)c1ccc2c3c(cccc13)C(=O)N2)c1ccc(-c2c3nc(c(-c4cccc(S(=O)(=O)[O-])c4F)c4ccc([nH]4)c(-c4cccc(S(=O)(=O)[O-])c4F)c4nc(c(-c5cccc(S(=O)(=O)[O-])c5F)c5ccc2[nH]5)C=C4)C=C3)cc1
REMARK SMILES IDX 4 1 3 2 2 3 1 4 30 5 31 6 92 7 32 8 91 9 33 10 34 11 35 12
REMARK SMILES IDX 85 13 36 14 90 15 84 16 86 17 37 18 89 19 83 20 82 21 38 23
REMARK SMILES IDX 70 24 50 25 69 26 51 27 54 28 68 29 87 30 52 31 53 32 67 34
REMARK SMILES IDX 88 35 55 36 39 37 40 38 48 39 41 40 43 41 49 42 42 43 44 44
REMARK SMILES IDX 45 45 46 46 47 47 71 48 72 49 80 50 73 51 75 52 81 53 74 54
REMARK SMILES IDX 76 55 77 56 78 57 79 58 56 59 57 60 65 61 58 62 60 63 66 64
REMARK SMILES IDX 59 65 61 66 62 67 63 68 64 69 5 70 6 71 7 72 8 73 9 74 10 75
REMARK SMILES IDX 13 76 11 77 12 78 14 79 15 80 16 81 17 82 18 83 26 84 19 85
REMARK SMILES IDX 21 86 25 87 20 88 22 89 24 90 29 91 23 92 27 93 28 95
REMARK H PARENT 86 22 54 33 29 94
REMARK Flexibility Score: inf
ROOT
ATOM      1  C   UNL A   1      49.286  23.562  37.571  1.00  0.00     0.275 C 
ENDROOT
BRANCH   1   2
ATOM      2  O   UNL A   1      47.896  23.361  37.218  1.00  0.00    -0.458 OA
BRANCH   2   3
ATOM      3  C   UNL A   1      46.801  24.117  37.465  1.00  0.00     0.338 C 
ATOM      4  O   UNL A   1      46.424  24.286  38.622  1.00  0.00    -0.246 OA
BRANCH   3   5
ATOM      5  C   UNL A   1      45.975  24.762  36.379  1.00  0.00     0.060 A 
ATOM      6  C   UNL A   1      44.418  24.126  35.690  1.00  0.00     0.016 A 
ATOM      7  C   UNL A   1      46.469  26.448  35.977  1.00  0.00     0.016 A 
ATOM      8  C   UNL A   1      43.345  25.194  34.703  1.00  0.00     0.010 A 
ATOM      9  C   UNL A   1      45.431  27.479  34.941  1.00  0.00     0.010 A 
ATOM     10  C   UNL A   1      43.836  26.866  34.314  1.00  0.00    -0.014 A 
BRANCH  10  11
ATOM     11  C   UNL A   1      42.887  27.706  33.487  1.00  0.00     0.031 A 
ATOM     12  C   UNL A   1      42.818  27.650  31.983  1.00  0.00     0.074 A 
ATOM     13  C   UNL A   1      42.023  28.543  34.104  1.00  0.00     0.049 A 
ATOM     14  N   UNL A   1      41.791  27.964  31.226  1.00  0.00    -0.248 NA
ATOM     15  C   UNL A   1      43.969  27.159  31.219  1.00  0.00     0.031 C 
ATOM     16  C   UNL A   1      41.946  28.760  35.540  1.00  0.00     0.029 A 
ATOM     17  N   UNL A   1      41.071  29.409  33.616  1.00  0.00    -0.354 N 
ATOM     18  C   UNL A   1      42.124  27.554  29.942  1.00  0.00     0.074 A 
ATOM     19  C   UNL A   1      43.478  27.062  29.990  1.00  0.00     0.031 C 
ATOM     20  C   UNL A   1      41.099  29.755  35.824  1.00  0.00     0.029 A 
ATOM     21  C   UNL A   1      40.496  30.205  34.581  1.00  0.00     0.049 A 
ATOM     22  H   UNL A   1      40.824  29.455  32.663  1.00  0.00     0.167 HD
ATOM     23  C   UNL A   1      41.349  27.548  28.834  1.00  0.00     0.034 A 
ATOM     24  C   UNL A   1      39.557  31.168  34.509  1.00  0.00     0.034 A 
ATOM     25  C   UNL A   1      40.085  28.219  28.744  1.00  0.00     0.049 A 
ATOM     26  C   UNL A   1      38.828  31.346  33.216  1.00  0.00     0.074 A 
ATOM     27  C   UNL A   1      39.207  28.272  27.677  1.00  0.00     0.029 A 
ATOM     28  N   UNL A   1      39.575  29.048  29.731  1.00  0.00    -0.354 N 
ATOM     29  N   UNL A   1      38.979  30.667  32.106  1.00  0.00    -0.248 NA
ATOM     30  C   UNL A   1      37.754  32.346  33.175  1.00  0.00     0.031 C 
ATOM     31  C   UNL A   1      38.204  29.195  27.993  1.00  0.00     0.029 A 
ATOM     32  C   UNL A   1      38.445  29.692  29.265  1.00  0.00     0.049 A 
ATOM     33  H   UNL A   1      39.960  29.161  30.628  1.00  0.00     0.167 HD
ATOM     34  C   UNL A   1      37.990  31.120  31.246  1.00  0.00     0.074 A 
ATOM     35  C   UNL A   1      37.255  32.146  31.960  1.00  0.00     0.031 C 
ATOM     36  C   UNL A   1      37.716  30.705  29.987  1.00  0.00     0.034 A 
BRANCH  23  37
ATOM     37  C   UNL A   1      41.832  26.751  27.657  1.00  0.00     0.023 A 
ATOM     38  C   UNL A   1      42.479  27.439  26.609  1.00  0.00     0.012 A 
ATOM     39  C   UNL A   1      41.703  25.353  27.594  1.00  0.00     0.148 A 
ATOM     40  C   UNL A   1      42.985  26.749  25.509  1.00  0.00     0.002 A 
ATOM     41  C   UNL A   1      42.213  24.669  26.494  1.00  0.00     0.091 A 
ATOM     42  F   UNL A   1      41.084  24.724  28.601  1.00  0.00    -0.205 F 
ATOM     43  C   UNL A   1      42.854  25.365  25.453  1.00  0.00     0.022 A 
BRANCH  41  44
ATOM     44  S   UNL A   1      42.084  22.888  26.309  1.00  0.00     0.127 S 
ATOM     45  O   UNL A   1      42.880  22.412  27.441  1.00  0.00    -0.237 OA
ATOM     46  O   UNL A   1      40.645  22.672  26.441  1.00  0.00    -0.237 OA
ATOM     47  O   UNL A   1      42.646  22.577  25.002  1.00  0.00    -0.744 OA
ENDBRANCH  41  44
ENDBRANCH  23  37
BRANCH  24  48
ATOM     48  C   UNL A   1      39.207  31.929  35.741  1.00  0.00     0.023 A 
ATOM     49  C   UNL A   1      39.602  33.273  35.871  1.00  0.00     0.012 A 
ATOM     50  C   UNL A   1      38.366  31.358  36.720  1.00  0.00     0.148 A 
ATOM     51  C   UNL A   1      39.165  34.037  36.956  1.00  0.00     0.002 A 
ATOM     52  C   UNL A   1      37.912  32.133  37.782  1.00  0.00     0.091 A 
ATOM     53  F   UNL A   1      38.002  30.077  36.572  1.00  0.00    -0.205 F 
ATOM     54  C   UNL A   1      38.314  33.472  37.904  1.00  0.00     0.022 A 
BRANCH  52  55
ATOM     55  S   UNL A   1      36.734  31.522  38.996  1.00  0.00     0.127 S 
ATOM     56  O   UNL A   1      36.464  30.176  38.500  1.00  0.00    -0.237 OA
ATOM     57  O   UNL A   1      37.517  31.579  40.231  1.00  0.00    -0.237 OA
ATOM     58  O   UNL A   1      35.610  32.448  38.954  1.00  0.00    -0.744 OA
ENDBRANCH  52  55
ENDBRANCH  24  48
BRANCH  36  59
ATOM     59  C   UNL A   1      36.588  31.370  29.258  1.00  0.00     0.023 A 
ATOM     60  C   UNL A   1      36.691  32.737  28.942  1.00  0.00     0.012 A 
ATOM     61  C   UNL A   1      35.520  30.608  28.750  1.00  0.00     0.148 A 
ATOM     62  C   UNL A   1      35.743  33.339  28.118  1.00  0.00     0.002 A 
ATOM     63  C   UNL A   1      34.603  31.205  27.897  1.00  0.00     0.091 A 
ATOM     64  F   UNL A   1      35.448  29.311  29.081  1.00  0.00    -0.205 F 
ATOM     65  C   UNL A   1      34.711  32.571  27.583  1.00  0.00     0.022 A 
BRANCH  63  66
ATOM     66  S   UNL A   1      33.298  30.279  27.083  1.00  0.00     0.127 S 
ATOM     67  O   UNL A   1      32.281  31.311  26.885  1.00  0.00    -0.237 OA
ATOM     68  O   UNL A   1      33.960  29.830  25.858  1.00  0.00    -0.237 OA
ATOM     69  O   UNL A   1      32.924  29.212  28.001  1.00  0.00    -0.744 OA
ENDBRANCH  63  66
ENDBRANCH  36  59
ENDBRANCH  10  11
ENDBRANCH   3   5
ENDBRANCH   2   3
ENDBRANCH   1   2
BRANCH   1  70
ATOM     70  C   UNL A   1      50.246  22.684  36.755  1.00  0.00     0.274 C 
BRANCH  70  71
ATOM     71  O   UNL A   1      49.891  21.297  36.875  1.00  0.00    -0.461 OA
BRANCH  71  72
ATOM     72  C   UNL A   1      49.255  20.803  35.789  1.00  0.00     0.324 C 
ATOM     73  O   UNL A   1      49.768  20.833  34.671  1.00  0.00    -0.250 OA
BRANCH  72  74
ATOM     74  C   UNL A   1      47.895  20.181  36.028  1.00  0.00     0.183 C 
ATOM     75  C   UNL A   1      46.988  20.773  34.958  1.00  0.00     0.034 C 
ATOM     76  N   UNL A   1      46.745  19.788  37.341  1.00  0.00    -0.184 NA
ATOM     77  C   UNL A   1      45.871  19.774  34.808  1.00  0.00     0.019 C 
ATOM     78  C   UNL A   1      45.649  19.049  36.150  1.00  0.00     0.103 C 
BRANCH  76  79
ATOM     79  S   UNL A   1      46.818  19.796  39.801  1.00  0.00     0.244 S 
ATOM     80  O   UNL A   1      48.152  19.513  40.378  1.00  0.00    -0.207 OA
ATOM     81  O   UNL A   1      46.212  20.978  40.420  1.00  0.00    -0.207 OA
BRANCH  79  82
ATOM     82  C   UNL A   1      45.908  18.407  40.951  1.00  0.00     0.090 A 
ATOM     83  C   UNL A   1      45.463  18.790  42.243  1.00  0.00     0.024 A 
ATOM     84  C   UNL A   1      45.111  17.371  40.292  1.00  0.00     0.005 A 
ATOM     85  C   UNL A   1      44.647  18.019  43.083  1.00  0.00     0.028 A 
ATOM     86  C   UNL A   1      44.217  16.715  41.114  1.00  0.00     0.019 A 
ATOM     87  C   UNL A   1      44.942  16.977  38.928  1.00  0.00     0.010 A 
ATOM     88  C   UNL A   1      44.025  16.975  42.454  1.00  0.00     0.050 A 
ATOM     89  C   UNL A   1      43.209  15.827  40.739  1.00  0.00     0.050 A 
ATOM     90  C   UNL A   1      43.922  16.089  38.501  1.00  0.00     0.002 A 
ATOM     91  N   UNL A   1      42.988  16.191  42.914  1.00  0.00    -0.321 N 
ATOM     92  C   UNL A   1      43.029  15.505  39.402  1.00  0.00     0.014 A 
ATOM     93  C   UNL A   1      42.403  15.453  41.887  1.00  0.00     0.256 C 
ATOM     94  H   UNL A   1      42.696  16.157  43.854  1.00  0.00     0.170 HD
ATOM     95  O   UNL A   1      41.422  14.736  42.026  1.00  0.00    -0.269 OA
ENDBRANCH  79  82
ENDBRANCH  76  79
ENDBRANCH  72  74
ENDBRANCH  71  72
ENDBRANCH  70  71
ENDBRANCH   1  70
TORSDOF 16
ENDMDL
