MODEL 1
REMARK VINA RESULT:     -12.1      0.000      0.000
REMARK SMILES Cc1[nH]c2ccc(Br)cc2c(=O)c1CCC(=O)OCCOC(=O)c1ccc(-c2c3nc(c(-c4cccc(S(=O)(=O)[O-])c4F)c4ccc([nH]4)c(-c4cccc(S(=O)(=O)[O-])c4F)c4nc(c(-c5cccc(S(=O)(=O)[O-])c5F)c5ccc2[nH]5)C=C4)C=C3)cc1
REMARK SMILES IDX 20 1 19 2 18 3 16 4 17 5 15 6 14 7 13 8 1 9 2 10 3 11 4 12
REMARK SMILES IDX 11 14 5 15 10 16 12 17 6 18 9 19 7 20 8 21 21 22 22 23 23 24
REMARK SMILES IDX 24 25 25 26 86 27 26 28 85 29 27 30 28 31 29 32 79 33 30 34
REMARK SMILES IDX 84 35 78 36 80 37 31 38 83 39 77 40 76 41 32 43 64 44 44 45
REMARK SMILES IDX 63 46 45 47 48 48 62 49 81 50 46 51 47 52 61 54 82 55 49 56
REMARK SMILES IDX 33 57 34 58 42 59 35 60 37 61 43 62 36 63 38 64 39 65 40 66
REMARK SMILES IDX 41 67 65 68 66 69 74 70 67 71 69 72 75 73 68 74 70 75 71 76
REMARK SMILES IDX 72 77 73 78 50 79 51 80 59 81 52 82 54 83 60 84 53 85 55 86
REMARK SMILES IDX 56 87 57 88 58 89
REMARK H PARENT 3 13 80 42 48 53
REMARK Flexibility Score: inf
ROOT
ATOM      1  C   UNL A   1      36.141  20.576  25.122  1.00  0.00     0.275 C 
ENDROOT
BRANCH   1   2
ATOM      2  C   UNL A   1      34.906  21.308  24.593  1.00  0.00     0.274 C 
BRANCH   2   3
ATOM      3  O   UNL A   1      34.854  22.675  25.044  1.00  0.00    -0.462 OA
BRANCH   3   4
ATOM      4  C   UNL A   1      35.006  23.642  24.108  1.00  0.00     0.306 C 
ATOM      5  O   UNL A   1      35.537  23.482  23.016  1.00  0.00    -0.252 OA
BRANCH   4   6
ATOM      6  C   UNL A   1      34.518  24.991  24.596  1.00  0.00     0.127 C 
BRANCH   6   7
ATOM      7  C   UNL A   1      33.672  24.968  25.878  1.00  0.00     0.053 C 
BRANCH   7   8
ATOM      8  C   UNL A   1      32.241  25.380  25.631  1.00  0.00     0.020 A 
ATOM      9  C   UNL A   1      31.209  23.240  26.386  1.00  0.00     0.064 C 
ATOM     10  C   UNL A   1      31.133  24.619  25.780  1.00  0.00     0.019 A 
ATOM     11  N   UNL A   1      29.879  25.048  25.370  1.00  0.00    -0.358 N 
ATOM     12  C   UNL A   1      29.703  26.234  24.648  1.00  0.00     0.050 A 
ATOM     13  H   UNL A   1      29.090  24.502  25.593  1.00  0.00     0.166 HD
ATOM     14  C   UNL A   1      32.010  26.800  25.232  1.00  0.00     0.192 A 
ATOM     15  C   UNL A   1      28.507  26.549  24.005  1.00  0.00     0.028 A 
ATOM     16  C   UNL A   1      30.771  27.124  24.520  1.00  0.00     0.047 A 
ATOM     17  O   UNL A   1      32.800  27.698  25.485  1.00  0.00    -0.289 OA
ATOM     18  C   UNL A   1      28.401  27.723  23.244  1.00  0.00     0.018 A 
ATOM     19  C   UNL A   1      30.684  28.300  23.770  1.00  0.00     0.030 A 
ATOM     20  C   UNL A   1      29.491  28.588  23.125  1.00  0.00     0.018 A 
ATOM     21  Br  UNL A   1      29.350  30.155  22.078  1.00  0.00    -0.051 Br
ENDBRANCH   7   8
ENDBRANCH   6   7
ENDBRANCH   4   6
ENDBRANCH   3   4
ENDBRANCH   2   3
ENDBRANCH   1   2
BRANCH   1  22
ATOM     22  O   UNL A   1      37.050  21.513  25.716  1.00  0.00    -0.458 OA
BRANCH  22  23
ATOM     23  C   UNL A   1      38.344  21.134  25.806  1.00  0.00     0.338 C 
ATOM     24  O   UNL A   1      38.859  20.070  25.531  1.00  0.00    -0.246 OA
BRANCH  23  25
ATOM     25  C   UNL A   1      39.099  22.284  26.294  1.00  0.00     0.060 A 
ATOM     26  C   UNL A   1      38.637  23.561  25.987  1.00  0.00     0.016 A 
ATOM     27  C   UNL A   1      40.242  22.083  27.074  1.00  0.00     0.016 A 
ATOM     28  C   UNL A   1      39.360  24.657  26.435  1.00  0.00     0.010 A 
ATOM     29  C   UNL A   1      40.952  23.183  27.539  1.00  0.00     0.010 A 
ATOM     30  C   UNL A   1      40.521  24.474  27.209  1.00  0.00    -0.014 A 
BRANCH  30  31
ATOM     31  C   UNL A   1      41.235  25.667  27.704  1.00  0.00     0.031 A 
ATOM     32  C   UNL A   1      42.657  25.923  27.311  1.00  0.00     0.074 A 
ATOM     33  C   UNL A   1      40.556  26.539  28.470  1.00  0.00     0.049 A 
ATOM     34  N   UNL A   1      43.363  27.008  27.486  1.00  0.00    -0.248 NA
ATOM     35  C   UNL A   1      43.385  24.831  26.643  1.00  0.00     0.031 C 
ATOM     36  C   UNL A   1      39.190  26.335  28.962  1.00  0.00     0.029 A 
ATOM     37  N   UNL A   1      40.904  27.774  28.948  1.00  0.00    -0.354 N 
ATOM     38  C   UNL A   1      44.615  26.732  26.954  1.00  0.00     0.074 A 
ATOM     39  C   UNL A   1      44.587  25.369  26.476  1.00  0.00     0.031 C 
ATOM     40  C   UNL A   1      38.801  27.429  29.634  1.00  0.00     0.029 A 
ATOM     41  C   UNL A   1      39.888  28.403  29.626  1.00  0.00     0.049 A 
ATOM     42  H   UNL A   1      41.795  28.172  28.817  1.00  0.00     0.167 HD
ATOM     43  C   UNL A   1      45.677  27.563  26.848  1.00  0.00     0.034 A 
ATOM     44  C   UNL A   1      39.829  29.638  30.156  1.00  0.00     0.034 A 
ATOM     45  C   UNL A   1      45.670  28.927  27.297  1.00  0.00     0.049 A 
ATOM     46  C   UNL A   1      41.007  30.554  29.987  1.00  0.00     0.074 A 
ATOM     47  C   UNL A   1      46.668  29.876  27.167  1.00  0.00     0.029 A 
ATOM     48  N   UNL A   1      44.619  29.534  27.966  1.00  0.00    -0.354 N 
ATOM     49  N   UNL A   1      42.131  30.331  29.350  1.00  0.00    -0.248 NA
ATOM     50  C   UNL A   1      40.904  31.895  30.579  1.00  0.00     0.031 C 
ATOM     51  C   UNL A   1      46.225  31.053  27.773  1.00  0.00     0.029 A 
ATOM     52  C   UNL A   1      44.948  30.842  28.268  1.00  0.00     0.049 A 
ATOM     53  H   UNL A   1      43.766  29.098  28.193  1.00  0.00     0.167 HD
ATOM     54  C   UNL A   1      42.865  31.504  29.450  1.00  0.00     0.074 A 
ATOM     55  C   UNL A   1      42.053  32.443  30.197  1.00  0.00     0.031 C 
ATOM     56  C   UNL A   1      44.106  31.771  28.975  1.00  0.00     0.034 A 
BRANCH  43  57
ATOM     57  C   UNL A   1      46.912  27.058  26.158  1.00  0.00     0.023 A 
ATOM     58  C   UNL A   1      47.072  27.299  24.780  1.00  0.00     0.012 A 
ATOM     59  C   UNL A   1      47.959  26.461  26.887  1.00  0.00     0.148 A 
ATOM     60  C   UNL A   1      48.255  26.949  24.132  1.00  0.00     0.002 A 
ATOM     61  C   UNL A   1      49.147  26.140  26.241  1.00  0.00     0.091 A 
ATOM     62  F   UNL A   1      47.778  26.235  28.196  1.00  0.00    -0.205 F 
ATOM     63  C   UNL A   1      49.294  26.380  24.864  1.00  0.00     0.022 A 
BRANCH  61  64
ATOM     64  S   UNL A   1      50.569  25.453  27.097  1.00  0.00     0.127 S 
ATOM     65  O   UNL A   1      49.994  24.255  27.709  1.00  0.00    -0.237 OA
ATOM     66  O   UNL A   1      51.492  25.190  25.993  1.00  0.00    -0.237 OA
ATOM     67  O   UNL A   1      51.009  26.474  28.037  1.00  0.00    -0.744 OA
ENDBRANCH  61  64
ENDBRANCH  43  57
BRANCH  44  68
ATOM     68  C   UNL A   1      38.569  30.086  30.805  1.00  0.00     0.023 A 
ATOM     69  C   UNL A   1      38.380  29.853  32.181  1.00  0.00     0.012 A 
ATOM     70  C   UNL A   1      37.610  30.829  30.091  1.00  0.00     0.148 A 
ATOM     71  C   UNL A   1      37.253  30.353  32.834  1.00  0.00     0.002 A 
ATOM     72  C   UNL A   1      36.510  31.355  30.755  1.00  0.00     0.091 A 
ATOM     73  F   UNL A   1      37.818  31.037  28.783  1.00  0.00    -0.205 F 
ATOM     74  C   UNL A   1      36.324  31.112  32.126  1.00  0.00     0.022 A 
BRANCH  72  75
ATOM     75  S   UNL A   1      35.314  32.428  29.951  1.00  0.00     0.127 S 
ATOM     76  O   UNL A   1      34.810  31.565  28.885  1.00  0.00    -0.237 OA
ATOM     77  O   UNL A   1      34.367  32.687  31.035  1.00  0.00    -0.237 OA
ATOM     78  O   UNL A   1      36.063  33.596  29.508  1.00  0.00    -0.744 OA
ENDBRANCH  72  75
ENDBRANCH  44  68
BRANCH  56  79
ATOM     79  C   UNL A   1      44.690  33.130  29.237  1.00  0.00     0.023 A 
ATOM     80  C   UNL A   1      45.441  33.335  30.408  1.00  0.00     0.012 A 
ATOM     81  C   UNL A   1      44.652  34.126  28.243  1.00  0.00     0.148 A 
ATOM     82  C   UNL A   1      46.158  34.517  30.585  1.00  0.00     0.002 A 
ATOM     83  C   UNL A   1      45.396  35.287  28.411  1.00  0.00     0.091 A 
ATOM     84  F   UNL A   1      43.927  33.898  27.138  1.00  0.00    -0.205 F 
ATOM     85  C   UNL A   1      46.146  35.484  29.582  1.00  0.00     0.022 A 
BRANCH  83  86
ATOM     86  S   UNL A   1      45.514  36.555  27.146  1.00  0.00     0.127 S 
ATOM     87  O   UNL A   1      44.117  36.968  27.006  1.00  0.00    -0.237 OA
ATOM     88  O   UNL A   1      46.382  37.544  27.784  1.00  0.00    -0.237 OA
ATOM     89  O   UNL A   1      46.081  35.906  25.971  1.00  0.00    -0.744 OA
ENDBRANCH  83  86
ENDBRANCH  56  79
ENDBRANCH  30  31
ENDBRANCH  23  25
ENDBRANCH  22  23
ENDBRANCH   1  22
TORSDOF 16
ENDMDL
MODEL 2
REMARK VINA RESULT:     -12.1      4.997     10.084
REMARK SMILES Cc1[nH]c2ccc(Br)cc2c(=O)c1CCC(=O)OCCOC(=O)c1ccc(-c2c3nc(c(-c4cccc(S(=O)(=O)[O-])c4F)c4ccc([nH]4)c(-c4cccc(S(=O)(=O)[O-])c4F)c4nc(c(-c5cccc(S(=O)(=O)[O-])c5F)c5ccc2[nH]5)C=C4)C=C3)cc1
REMARK SMILES IDX 20 1 19 2 18 3 16 4 17 5 15 6 14 7 13 8 1 9 2 10 3 11 4 12
REMARK SMILES IDX 11 14 5 15 10 16 12 17 6 18 9 19 7 20 8 21 21 22 22 23 23 24
REMARK SMILES IDX 24 25 25 26 86 27 26 28 85 29 27 30 28 31 29 32 79 33 30 34
REMARK SMILES IDX 84 35 78 36 80 37 31 38 83 39 77 40 76 41 32 43 64 44 44 45
REMARK SMILES IDX 63 46 45 47 48 48 62 49 81 50 46 51 47 52 61 54 82 55 49 56
REMARK SMILES IDX 33 57 34 58 42 59 35 60 37 61 43 62 36 63 38 64 39 65 40 66
REMARK SMILES IDX 41 67 65 68 66 69 74 70 67 71 69 72 75 73 68 74 70 75 71 76
REMARK SMILES IDX 72 77 73 78 50 79 51 80 59 81 52 82 54 83 60 84 53 85 55 86
REMARK SMILES IDX 56 87 57 88 58 89
REMARK H PARENT 3 13 80 42 48 53
REMARK Flexibility Score: inf
ROOT
ATOM      1  C   UNL A   1      31.632  30.051  25.386  1.00  0.00     0.275 C 
ENDROOT
BRANCH   1   2
ATOM      2  C   UNL A   1      31.720  29.032  24.248  1.00  0.00     0.274 C 
BRANCH   2   3
ATOM      3  O   UNL A   1      30.641  28.079  24.291  1.00  0.00    -0.462 OA
BRANCH   3   4
ATOM      4  C   UNL A   1      30.574  27.174  23.286  1.00  0.00     0.306 C 
ATOM      5  O   UNL A   1      30.561  27.451  22.093  1.00  0.00    -0.252 OA
BRANCH   4   6
ATOM      6  C   UNL A   1      30.427  25.758  23.803  1.00  0.00     0.127 C 
BRANCH   6   7
ATOM      7  C   UNL A   1      30.753  25.555  25.290  1.00  0.00     0.053 C 
BRANCH   7   8
ATOM      8  C   UNL A   1      31.880  24.573  25.504  1.00  0.00     0.020 A 
ATOM      9  C   UNL A   1      33.681  26.278  25.755  1.00  0.00     0.064 C 
ATOM     10  C   UNL A   1      33.195  24.855  25.645  1.00  0.00     0.019 A 
ATOM     11  N   UNL A   1      34.166  23.864  25.675  1.00  0.00    -0.358 N 
ATOM     12  C   UNL A   1      33.860  22.522  25.420  1.00  0.00     0.050 A 
ATOM     13  H   UNL A   1      35.096  24.113  25.882  1.00  0.00     0.166 HD
ATOM     14  C   UNL A   1      31.502  23.135  25.633  1.00  0.00     0.192 A 
ATOM     15  C   UNL A   1      34.843  21.563  25.186  1.00  0.00     0.028 A 
ATOM     16  C   UNL A   1      32.524  22.125  25.348  1.00  0.00     0.047 A 
ATOM     17  O   UNL A   1      30.388  22.769  25.977  1.00  0.00    -0.289 OA
ATOM     18  C   UNL A   1      34.484  20.243  24.876  1.00  0.00     0.018 A 
ATOM     19  C   UNL A   1      32.146  20.814  25.044  1.00  0.00     0.030 A 
ATOM     20  C   UNL A   1      33.137  19.877  24.799  1.00  0.00     0.018 A 
ATOM     21  Br  UNL A   1      32.659  18.104  24.356  1.00  0.00    -0.051 Br
ENDBRANCH   7   8
ENDBRANCH   6   7
ENDBRANCH   4   6
ENDBRANCH   3   4
ENDBRANCH   2   3
ENDBRANCH   1   2
BRANCH   1  22
ATOM     22  O   UNL A   1      32.877  30.102  26.097  1.00  0.00    -0.458 OA
BRANCH  22  23
ATOM     23  C   UNL A   1      33.099  31.195  26.859  1.00  0.00     0.338 C 
ATOM     24  O   UNL A   1      32.420  32.191  27.000  1.00  0.00    -0.246 OA
BRANCH  23  25
ATOM     25  C   UNL A   1      34.359  30.982  27.566  1.00  0.00     0.060 A 
ATOM     26  C   UNL A   1      34.671  29.693  27.992  1.00  0.00     0.016 A 
ATOM     27  C   UNL A   1      35.227  32.056  27.775  1.00  0.00     0.016 A 
ATOM     28  C   UNL A   1      35.860  29.488  28.677  1.00  0.00     0.010 A 
ATOM     29  C   UNL A   1      36.427  31.843  28.444  1.00  0.00     0.010 A 
ATOM     30  C   UNL A   1      36.740  30.560  28.910  1.00  0.00    -0.014 A 
BRANCH  30  31
ATOM     31  C   UNL A   1      38.014  30.290  29.603  1.00  0.00     0.031 A 
ATOM     32  C   UNL A   1      38.256  30.810  30.986  1.00  0.00     0.074 A 
ATOM     33  C   UNL A   1      38.925  29.521  28.978  1.00  0.00     0.049 A 
ATOM     34  N   UNL A   1      39.221  30.502  31.810  1.00  0.00    -0.248 NA
ATOM     35  C   UNL A   1      37.305  31.801  31.515  1.00  0.00     0.031 C 
ATOM     36  C   UNL A   1      38.805  29.032  27.602  1.00  0.00     0.029 A 
ATOM     37  N   UNL A   1      40.111  28.998  29.418  1.00  0.00    -0.354 N 
ATOM     38  C   UNL A   1      38.998  31.259  32.951  1.00  0.00     0.074 A 
ATOM     39  C   UNL A   1      37.824  32.065  32.708  1.00  0.00     0.031 C 
ATOM     40  C   UNL A   1      39.853  28.241  27.327  1.00  0.00     0.029 A 
ATOM     41  C   UNL A   1      40.719  28.175  28.501  1.00  0.00     0.049 A 
ATOM     42  H   UNL A   1      40.490  29.192  30.306  1.00  0.00     0.167 HD
ATOM     43  C   UNL A   1      39.698  31.247  34.109  1.00  0.00     0.034 A 
ATOM     44  C   UNL A   1      41.833  27.428  28.604  1.00  0.00     0.034 A 
ATOM     45  C   UNL A   1      40.841  30.410  34.342  1.00  0.00     0.049 A 
ATOM     46  C   UNL A   1      42.567  27.403  29.914  1.00  0.00     0.074 A 
ATOM     47  C   UNL A   1      41.574  30.267  35.506  1.00  0.00     0.029 A 
ATOM     48  N   UNL A   1      41.419  29.580  33.395  1.00  0.00    -0.354 N 
ATOM     49  N   UNL A   1      42.259  28.010  31.035  1.00  0.00    -0.248 NA
ATOM     50  C   UNL A   1      43.778  26.575  29.989  1.00  0.00     0.031 C 
ATOM     51  C   UNL A   1      42.607  29.362  35.257  1.00  0.00     0.029 A 
ATOM     52  C   UNL A   1      42.509  28.930  33.943  1.00  0.00     0.049 A 
ATOM     53  H   UNL A   1      41.101  29.470  32.470  1.00  0.00     0.167 HD
ATOM     54  C   UNL A   1      43.227  27.627  31.954  1.00  0.00     0.074 A 
ATOM     55  C   UNL A   1      44.125  26.725  31.262  1.00  0.00     0.031 C 
ATOM     56  C   UNL A   1      43.363  28.004  33.248  1.00  0.00     0.034 A 
BRANCH  43  57
ATOM     57  C   UNL A   1      39.214  32.106  35.243  1.00  0.00     0.023 A 
ATOM     58  C   UNL A   1      38.329  31.554  36.189  1.00  0.00     0.012 A 
ATOM     59  C   UNL A   1      39.724  33.403  35.442  1.00  0.00     0.148 A 
ATOM     60  C   UNL A   1      37.951  32.281  37.316  1.00  0.00     0.002 A 
ATOM     61  C   UNL A   1      39.367  34.113  36.583  1.00  0.00     0.091 A 
ATOM     62  F   UNL A   1      40.559  33.909  34.522  1.00  0.00    -0.205 F 
ATOM     63  C   UNL A   1      38.479  33.554  37.517  1.00  0.00     0.022 A 
BRANCH  61  64
ATOM     64  S   UNL A   1      40.026  35.738  36.967  1.00  0.00     0.127 S 
ATOM     65  O   UNL A   1      41.459  35.461  37.061  1.00  0.00    -0.237 OA
ATOM     66  O   UNL A   1      39.631  36.515  35.792  1.00  0.00    -0.237 OA
ATOM     67  O   UNL A   1      39.396  36.148  38.214  1.00  0.00    -0.744 OA
ENDBRANCH  61  64
ENDBRANCH  43  57
BRANCH  44  68
ATOM     68  C   UNL A   1      42.245  26.584  27.453  1.00  0.00     0.023 A 
ATOM     69  C   UNL A   1      43.100  27.121  26.472  1.00  0.00     0.012 A 
ATOM     70  C   UNL A   1      41.880  25.226  27.384  1.00  0.00     0.148 A 
ATOM     71  C   UNL A   1      43.583  26.318  25.438  1.00  0.00     0.002 A 
ATOM     72  C   UNL A   1      42.393  24.423  26.373  1.00  0.00     0.091 A 
ATOM     73  F   UNL A   1      41.067  24.741  28.333  1.00  0.00    -0.205 F 
ATOM     74  C   UNL A   1      43.239  24.970  25.394  1.00  0.00     0.022 A 
BRANCH  72  75
ATOM     75  S   UNL A   1      42.090  22.655  26.291  1.00  0.00     0.127 S 
ATOM     76  O   UNL A   1      42.714  22.189  27.528  1.00  0.00    -0.237 OA
ATOM     77  O   UNL A   1      40.628  22.601  26.281  1.00  0.00    -0.237 OA
ATOM     78  O   UNL A   1      42.722  22.199  25.061  1.00  0.00    -0.744 OA
ENDBRANCH  72  75
ENDBRANCH  44  68
BRANCH  56  79
ATOM     79  C   UNL A   1      44.522  27.455  34.029  1.00  0.00     0.023 A 
ATOM     80  C   UNL A   1      45.711  28.204  34.102  1.00  0.00     0.012 A 
ATOM     81  C   UNL A   1      44.363  26.308  34.831  1.00  0.00     0.148 A 
ATOM     82  C   UNL A   1      46.729  27.821  34.974  1.00  0.00     0.002 A 
ATOM     83  C   UNL A   1      45.368  25.954  35.722  1.00  0.00     0.091 A 
ATOM     84  F   UNL A   1      43.218  25.619  34.738  1.00  0.00    -0.205 F 
ATOM     85  C   UNL A   1      46.551  26.708  35.793  1.00  0.00     0.022 A 
BRANCH  83  86
ATOM     86  S   UNL A   1      45.204  24.588  36.876  1.00  0.00     0.127 S 
ATOM     87  O   UNL A   1      44.996  23.457  35.971  1.00  0.00    -0.237 OA
ATOM     88  O   UNL A   1      46.501  24.600  37.551  1.00  0.00    -0.237 OA
ATOM     89  O   UNL A   1      44.065  24.909  37.727  1.00  0.00    -0.744 OA
ENDBRANCH  83  86
ENDBRANCH  56  79
ENDBRANCH  30  31
ENDBRANCH  23  25
ENDBRANCH  22  23
ENDBRANCH   1  22
TORSDOF 16
ENDMDL
MODEL 3
REMARK VINA RESULT:     -12.0      4.941     10.008
REMARK SMILES Cc1[nH]c2ccc(Br)cc2c(=O)c1CCC(=O)OCCOC(=O)c1ccc(-c2c3nc(c(-c4cccc(S(=O)(=O)[O-])c4F)c4ccc([nH]4)c(-c4cccc(S(=O)(=O)[O-])c4F)c4nc(c(-c5cccc(S(=O)(=O)[O-])c5F)c5ccc2[nH]5)C=C4)C=C3)cc1
REMARK SMILES IDX 20 1 19 2 18 3 16 4 17 5 15 6 14 7 13 8 1 9 2 10 3 11 4 12
REMARK SMILES IDX 11 14 5 15 10 16 12 17 6 18 9 19 7 20 8 21 21 22 22 23 23 24
REMARK SMILES IDX 24 25 25 26 86 27 26 28 85 29 27 30 28 31 29 32 79 33 30 34
REMARK SMILES IDX 84 35 78 36 80 37 31 38 83 39 77 40 76 41 32 43 64 44 44 45
REMARK SMILES IDX 63 46 45 47 48 48 62 49 81 50 46 51 47 52 61 54 82 55 49 56
REMARK SMILES IDX 33 57 34 58 42 59 35 60 37 61 43 62 36 63 38 64 39 65 40 66
REMARK SMILES IDX 41 67 65 68 66 69 74 70 67 71 69 72 75 73 68 74 70 75 71 76
REMARK SMILES IDX 72 77 73 78 50 79 51 80 59 81 52 82 54 83 60 84 53 85 55 86
REMARK SMILES IDX 56 87 57 88 58 89
REMARK H PARENT 3 13 80 42 48 53
REMARK Flexibility Score: inf
ROOT
ATOM      1  C   UNL A   1      31.571  30.507  25.718  1.00  0.00     0.275 C 
ENDROOT
BRANCH   1   2
ATOM      2  C   UNL A   1      31.427  29.361  24.713  1.00  0.00     0.274 C 
BRANCH   2   3
ATOM      3  O   UNL A   1      30.341  29.582  23.794  1.00  0.00    -0.462 OA
BRANCH   3   4
ATOM      4  C   UNL A   1      30.509  29.150  22.521  1.00  0.00     0.306 C 
ATOM      5  O   UNL A   1      29.748  29.393  21.593  1.00  0.00    -0.252 OA
BRANCH   4   6
ATOM      6  C   UNL A   1      31.714  28.244  22.381  1.00  0.00     0.127 C 
BRANCH   6   7
ATOM      7  C   UNL A   1      31.414  26.795  21.966  1.00  0.00     0.053 C 
BRANCH   7   8
ATOM      8  C   UNL A   1      31.701  25.808  23.072  1.00  0.00     0.020 A 
ATOM      9  C   UNL A   1      29.483  26.006  24.193  1.00  0.00     0.064 C 
ATOM     10  C   UNL A   1      30.896  25.486  24.110  1.00  0.00     0.019 A 
ATOM     11  N   UNL A   1      31.325  24.686  25.159  1.00  0.00    -0.358 N 
ATOM     12  C   UNL A   1      32.659  24.279  25.280  1.00  0.00     0.050 A 
ATOM     13  H   UNL A   1      30.673  24.396  25.838  1.00  0.00     0.166 HD
ATOM     14  C   UNL A   1      32.988  25.059  22.986  1.00  0.00     0.192 A 
ATOM     15  C   UNL A   1      33.163  23.705  26.446  1.00  0.00     0.028 A 
ATOM     16  C   UNL A   1      33.540  24.490  24.218  1.00  0.00     0.047 A 
ATOM     17  O   UNL A   1      33.590  24.890  21.935  1.00  0.00    -0.289 OA
ATOM     18  C   UNL A   1      34.522  23.367  26.538  1.00  0.00     0.018 A 
ATOM     19  C   UNL A   1      34.896  24.158  24.289  1.00  0.00     0.030 A 
ATOM     20  C   UNL A   1      35.382  23.603  25.462  1.00  0.00     0.018 A 
ATOM     21  Br  UNL A   1      37.216  23.170  25.601  1.00  0.00    -0.051 Br
ENDBRANCH   7   8
ENDBRANCH   6   7
ENDBRANCH   4   6
ENDBRANCH   3   4
ENDBRANCH   2   3
ENDBRANCH   1   2
BRANCH   1  22
ATOM     22  O   UNL A   1      32.886  30.493  26.293  1.00  0.00    -0.458 OA
BRANCH  22  23
ATOM     23  C   UNL A   1      33.227  31.553  27.058  1.00  0.00     0.338 C 
ATOM     24  O   UNL A   1      32.637  32.598  27.239  1.00  0.00    -0.246 OA
BRANCH  23  25
ATOM     25  C   UNL A   1      34.493  31.227  27.708  1.00  0.00     0.060 A 
ATOM     26  C   UNL A   1      35.402  32.256  27.944  1.00  0.00     0.016 A 
ATOM     27  C   UNL A   1      34.752  29.912  28.102  1.00  0.00     0.016 A 
ATOM     28  C   UNL A   1      36.612  31.950  28.548  1.00  0.00     0.010 A 
ATOM     29  C   UNL A   1      35.958  29.612  28.725  1.00  0.00     0.010 A 
ATOM     30  C   UNL A   1      36.898  30.628  28.937  1.00  0.00    -0.014 A 
BRANCH  30  31
ATOM     31  C   UNL A   1      38.178  30.353  29.617  1.00  0.00     0.031 A 
ATOM     32  C   UNL A   1      38.431  30.858  31.004  1.00  0.00     0.074 A 
ATOM     33  C   UNL A   1      39.085  29.592  28.977  1.00  0.00     0.049 A 
ATOM     34  N   UNL A   1      39.403  30.543  31.817  1.00  0.00    -0.248 NA
ATOM     35  C   UNL A   1      37.482  31.843  31.551  1.00  0.00     0.031 C 
ATOM     36  C   UNL A   1      38.954  29.117  27.597  1.00  0.00     0.029 A 
ATOM     37  N   UNL A   1      40.275  29.065  29.402  1.00  0.00    -0.354 N 
ATOM     38  C   UNL A   1      39.188  31.288  32.968  1.00  0.00     0.074 A 
ATOM     39  C   UNL A   1      38.011  32.095  32.742  1.00  0.00     0.031 C 
ATOM     40  C   UNL A   1      40.001  28.331  27.305  1.00  0.00     0.029 A 
ATOM     41  C   UNL A   1      40.876  28.254  28.471  1.00  0.00     0.049 A 
ATOM     42  H   UNL A   1      40.661  29.250  30.289  1.00  0.00     0.167 HD
ATOM     43  C   UNL A   1      39.897  31.265  34.120  1.00  0.00     0.034 A 
ATOM     44  C   UNL A   1      41.992  27.507  28.558  1.00  0.00     0.034 A 
ATOM     45  C   UNL A   1      41.043  30.427  34.334  1.00  0.00     0.049 A 
ATOM     46  C   UNL A   1      42.737  27.469  29.861  1.00  0.00     0.074 A 
ATOM     47  C   UNL A   1      41.786  30.273  35.491  1.00  0.00     0.029 A 
ATOM     48  N   UNL A   1      41.614  29.608  33.374  1.00  0.00    -0.354 N 
ATOM     49  N   UNL A   1      42.437  28.063  30.991  1.00  0.00    -0.248 NA
ATOM     50  C   UNL A   1      43.949  26.642  29.917  1.00  0.00     0.031 C 
ATOM     51  C   UNL A   1      42.818  29.371  35.224  1.00  0.00     0.029 A 
ATOM     52  C   UNL A   1      42.709  28.954  33.906  1.00  0.00     0.049 A 
ATOM     53  H   UNL A   1      41.289  29.507  32.450  1.00  0.00     0.167 HD
ATOM     54  C   UNL A   1      43.413  27.673  31.898  1.00  0.00     0.074 A 
ATOM     55  C   UNL A   1      44.307  26.778  31.189  1.00  0.00     0.031 C 
ATOM     56  C   UNL A   1      43.559  28.035  33.194  1.00  0.00     0.034 A 
BRANCH  43  57
ATOM     57  C   UNL A   1      39.422  32.111  35.266  1.00  0.00     0.023 A 
ATOM     58  C   UNL A   1      38.566  31.540  36.228  1.00  0.00     0.012 A 
ATOM     59  C   UNL A   1      39.913  33.417  35.460  1.00  0.00     0.148 A 
ATOM     60  C   UNL A   1      38.199  32.257  37.365  1.00  0.00     0.002 A 
ATOM     61  C   UNL A   1      39.566  34.116  36.610  1.00  0.00     0.091 A 
ATOM     62  F   UNL A   1      40.719  33.940  34.525  1.00  0.00    -0.205 F 
ATOM     63  C   UNL A   1      38.708  33.539  37.560  1.00  0.00     0.022 A 
BRANCH  61  64
ATOM     64  S   UNL A   1      40.205  35.752  36.987  1.00  0.00     0.127 S 
ATOM     65  O   UNL A   1      41.648  35.514  36.982  1.00  0.00    -0.237 OA
ATOM     66  O   UNL A   1      39.712  36.540  35.858  1.00  0.00    -0.237 OA
ATOM     67  O   UNL A   1      39.646  36.117  38.281  1.00  0.00    -0.744 OA
ENDBRANCH  61  64
ENDBRANCH  43  57
BRANCH  44  68
ATOM     68  C   UNL A   1      42.396  26.675  27.395  1.00  0.00     0.023 A 
ATOM     69  C   UNL A   1      43.222  27.231  26.400  1.00  0.00     0.012 A 
ATOM     70  C   UNL A   1      42.052  25.311  27.325  1.00  0.00     0.148 A 
ATOM     71  C   UNL A   1      43.698  26.442  25.353  1.00  0.00     0.002 A 
ATOM     72  C   UNL A   1      42.558  24.523  26.300  1.00  0.00     0.091 A 
ATOM     73  F   UNL A   1      41.266  24.808  28.287  1.00  0.00    -0.205 F 
ATOM     74  C   UNL A   1      43.376  25.088  25.308  1.00  0.00     0.022 A 
BRANCH  72  75
ATOM     75  S   UNL A   1      42.283  22.749  26.215  1.00  0.00     0.127 S 
ATOM     76  O   UNL A   1      42.892  22.416  24.929  1.00  0.00    -0.237 OA
ATOM     77  O   UNL A   1      43.020  22.275  27.387  1.00  0.00    -0.237 OA
ATOM     78  O   UNL A   1      40.841  22.566  26.291  1.00  0.00    -0.744 OA
ENDBRANCH  72  75
ENDBRANCH  44  68
BRANCH  56  79
ATOM     79  C   UNL A   1      44.726  27.480  33.960  1.00  0.00     0.023 A 
ATOM     80  C   UNL A   1      45.918  28.224  34.022  1.00  0.00     0.012 A 
ATOM     81  C   UNL A   1      44.572  26.332  34.761  1.00  0.00     0.148 A 
ATOM     82  C   UNL A   1      46.945  27.836  34.881  1.00  0.00     0.002 A 
ATOM     83  C   UNL A   1      45.586  25.971  35.639  1.00  0.00     0.091 A 
ATOM     84  F   UNL A   1      43.423  25.646  34.679  1.00  0.00    -0.205 F 
ATOM     85  C   UNL A   1      46.772  26.720  35.698  1.00  0.00     0.022 A 
BRANCH  83  86
ATOM     86  S   UNL A   1      45.430  24.602  36.790  1.00  0.00     0.127 S 
ATOM     87  O   UNL A   1      44.249  24.993  37.560  1.00  0.00    -0.237 OA
ATOM     88  O   UNL A   1      45.223  23.467  35.890  1.00  0.00    -0.237 OA
ATOM     89  O   UNL A   1      46.672  24.565  37.550  1.00  0.00    -0.744 OA
ENDBRANCH  83  86
ENDBRANCH  56  79
ENDBRANCH  30  31
ENDBRANCH  23  25
ENDBRANCH  22  23
ENDBRANCH   1  22
TORSDOF 16
ENDMDL
