MODEL 1
REMARK VINA RESULT:     -12.3      0.000      0.000
REMARK SMILES COc1ccc2c(c1)[C@@](NC=O)(C(=O)OCCOC(=O)c1ccc(-c3c4nc(c(-c5cccc(S(=O)(=O)[O-])c5F)c5ccc([nH]5)c(-c5cccc(S(=O)(=O)[O-])c5F)c5nc(c(-c6cccc(S(=O)(=O)[O-])c6F)c6ccc3[nH]6)C=C5)C=C4)cc1)CCC2
REMARK SMILES IDX 17 1 16 2 15 3 13 4 14 5 9 6 3 7 4 8 8 9 5 10 7 11 6 12
REMARK SMILES IDX 86 13 84 14 85 15 2 16 1 17 10 18 11 19 12 21 18 22 19 23
REMARK SMILES IDX 20 24 21 25 22 26 83 27 23 28 82 29 24 30 25 31 26 32 76 33
REMARK SMILES IDX 27 34 81 35 75 36 77 37 28 38 80 39 74 40 73 41 29 43 61 44
REMARK SMILES IDX 41 45 60 46 42 47 45 48 59 49 78 50 43 51 44 52 58 54 79 55
REMARK SMILES IDX 46 56 30 57 31 58 39 59 32 60 34 61 40 62 33 63 35 64 36 65
REMARK SMILES IDX 37 66 38 67 62 68 63 69 71 70 64 71 66 72 72 73 65 74 67 75
REMARK SMILES IDX 68 76 69 77 70 78 47 79 48 80 56 81 49 82 51 83 57 84 50 85
REMARK SMILES IDX 52 86 53 87 54 88 55 89
REMARK H PARENT 10 20 77 42 45 53
REMARK Flexibility Score: inf
ROOT
ATOM      1  C   UNL A   1      31.873  31.000  26.639  1.00  0.00     0.275 C 
ENDROOT
BRANCH   1   2
ATOM      2  C   UNL A   1      31.351  30.207  25.442  1.00  0.00     0.274 C 
BRANCH   2   3
ATOM      3  O   UNL A   1      32.185  29.053  25.196  1.00  0.00    -0.460 OA
BRANCH   3   4
ATOM      4  C   UNL A   1      32.419  28.733  23.897  1.00  0.00     0.336 C 
ATOM      5  O   UNL A   1      33.340  29.227  23.245  1.00  0.00    -0.249 OA
BRANCH   4   6
ATOM      6  C   UNL A   1      31.334  27.821  23.224  1.00  0.00     0.164 C 
ATOM      7  C   UNL A   1      28.706  30.246  21.776  1.00  0.00     0.119 A 
ATOM      8  C   UNL A   1      27.519  29.700  22.248  1.00  0.00     0.047 A 
ATOM      9  C   UNL A   1      29.925  29.649  22.108  1.00  0.00     0.053 A 
ATOM     10  C   UNL A   1      27.543  28.513  22.972  1.00  0.00     0.008 A 
ATOM     11  C   UNL A   1      29.983  28.474  22.892  1.00  0.00    -0.004 A 
ATOM     12  C   UNL A   1      28.759  27.871  23.263  1.00  0.00    -0.042 A 
ATOM     13  C   UNL A   1      28.682  26.559  24.003  1.00  0.00     0.036 C 
ATOM     14  C   UNL A   1      31.182  26.621  24.203  1.00  0.00     0.046 C 
ATOM     15  C   UNL A   1      29.965  25.750  23.937  1.00  0.00     0.008 C 
BRANCH   7  16
ATOM     16  O   UNL A   1      28.572  31.384  21.027  1.00  0.00    -0.497 OA
ATOM     17  C   UNL A   1      28.579  32.591  21.778  1.00  0.00     0.278 C 
ENDBRANCH   7  16
BRANCH   6  18
ATOM     18  N   UNL A   1      32.004  27.371  21.984  1.00  0.00    -0.339 N 
ATOM     19  C   UNL A   1      32.759  26.254  21.821  1.00  0.00     0.338 C 
ATOM     20  H   UNL A   1      31.889  27.942  21.191  1.00  0.00     0.164 HD
ATOM     21  O   UNL A   1      33.339  26.004  20.774  1.00  0.00    -0.279 OA
ENDBRANCH   6  18
ENDBRANCH   4   6
ENDBRANCH   3   4
ENDBRANCH   2   3
ENDBRANCH   1   2
BRANCH   1  22
ATOM     22  O   UNL A   1      33.307  31.085  26.593  1.00  0.00    -0.458 OA
BRANCH  22  23
ATOM     23  C   UNL A   1      33.832  31.998  27.447  1.00  0.00     0.338 C 
ATOM     24  O   UNL A   1      33.292  33.004  27.872  1.00  0.00    -0.246 OA
BRANCH  23  25
ATOM     25  C   UNL A   1      35.118  31.502  27.964  1.00  0.00     0.060 A 
ATOM     26  C   UNL A   1      35.165  30.162  28.354  1.00  0.00     0.016 A 
ATOM     27  C   UNL A   1      36.236  32.322  28.114  1.00  0.00     0.016 A 
ATOM     28  C   UNL A   1      36.331  29.626  28.890  1.00  0.00     0.010 A 
ATOM     29  C   UNL A   1      37.401  31.790  28.679  1.00  0.00     0.010 A 
ATOM     30  C   UNL A   1      37.448  30.443  29.078  1.00  0.00    -0.014 A 
BRANCH  30  31
ATOM     31  C   UNL A   1      38.630  29.887  29.774  1.00  0.00     0.031 A 
ATOM     32  C   UNL A   1      38.979  30.380  31.145  1.00  0.00     0.074 A 
ATOM     33  C   UNL A   1      39.360  28.919  29.192  1.00  0.00     0.049 A 
ATOM     34  N   UNL A   1      39.973  30.033  31.918  1.00  0.00    -0.248 NA
ATOM     35  C   UNL A   1      38.084  31.394  31.727  1.00  0.00     0.031 C 
ATOM     36  C   UNL A   1      39.092  28.337  27.878  1.00  0.00     0.029 A 
ATOM     37  N   UNL A   1      40.490  28.272  29.626  1.00  0.00    -0.354 N 
ATOM     38  C   UNL A   1      39.845  30.802  33.067  1.00  0.00     0.074 A 
ATOM     39  C   UNL A   1      38.672  31.633  32.891  1.00  0.00     0.031 C 
ATOM     40  C   UNL A   1      40.058  27.448  27.592  1.00  0.00     0.029 A 
ATOM     41  C   UNL A   1      41.022  27.419  28.690  1.00  0.00     0.049 A 
ATOM     42  H   UNL A   1      40.880  28.407  30.519  1.00  0.00     0.167 HD
ATOM     43  C   UNL A   1      40.629  30.812  34.170  1.00  0.00     0.034 A 
ATOM     44  C   UNL A   1      42.176  26.721  28.703  1.00  0.00     0.034 A 
ATOM     45  C   UNL A   1      41.792  29.984  34.342  1.00  0.00     0.049 A 
ATOM     46  C   UNL A   1      43.055  26.781  29.924  1.00  0.00     0.074 A 
ATOM     47  C   UNL A   1      42.636  29.901  35.436  1.00  0.00     0.029 A 
ATOM     48  N   UNL A   1      42.289  29.110  33.387  1.00  0.00    -0.354 N 
ATOM     49  N   UNL A   1      42.864  27.427  31.048  1.00  0.00    -0.248 NA
ATOM     50  C   UNL A   1      44.295  25.991  29.892  1.00  0.00     0.031 C 
ATOM     51  C   UNL A   1      43.659  28.996  35.130  1.00  0.00     0.029 A 
ATOM     52  C   UNL A   1      43.439  28.497  33.856  1.00  0.00     0.049 A 
ATOM     53  H   UNL A   1      41.883  28.949  32.504  1.00  0.00     0.167 HD
ATOM     54  C   UNL A   1      43.943  27.107  31.865  1.00  0.00     0.074 A 
ATOM     55  C   UNL A   1      44.772  26.186  31.115  1.00  0.00     0.031 C 
ATOM     56  C   UNL A   1      44.230  27.547  33.116  1.00  0.00     0.034 A 
BRANCH  43  57
ATOM     57  C   UNL A   1      40.246  31.752  35.280  1.00  0.00     0.023 A 
ATOM     58  C   UNL A   1      40.873  33.009  35.381  1.00  0.00     0.012 A 
ATOM     59  C   UNL A   1      39.249  31.399  36.211  1.00  0.00     0.148 A 
ATOM     60  C   UNL A   1      40.538  33.889  36.410  1.00  0.00     0.002 A 
ATOM     61  C   UNL A   1      38.894  32.296  37.211  1.00  0.00     0.091 A 
ATOM     62  F   UNL A   1      38.686  30.185  36.117  1.00  0.00    -0.205 F 
ATOM     63  C   UNL A   1      39.543  33.536  37.318  1.00  0.00     0.022 A 
BRANCH  61  64
ATOM     64  S   UNL A   1      37.579  31.951  38.385  1.00  0.00     0.127 S 
ATOM     65  O   UNL A   1      36.596  32.975  38.038  1.00  0.00    -0.237 OA
ATOM     66  O   UNL A   1      37.191  30.586  38.025  1.00  0.00    -0.237 OA
ATOM     67  O   UNL A   1      38.183  32.077  39.705  1.00  0.00    -0.744 OA
ENDBRANCH  61  64
ENDBRANCH  43  57
BRANCH  44  68
ATOM     68  C   UNL A   1      42.555  25.902  27.519  1.00  0.00     0.023 A 
ATOM     69  C   UNL A   1      43.386  26.449  26.524  1.00  0.00     0.012 A 
ATOM     70  C   UNL A   1      42.124  24.566  27.398  1.00  0.00     0.148 A 
ATOM     71  C   UNL A   1      43.766  25.686  25.418  1.00  0.00     0.002 A 
ATOM     72  C   UNL A   1      42.553  23.793  26.324  1.00  0.00     0.091 A 
ATOM     73  F   UNL A   1      41.315  24.071  28.346  1.00  0.00    -0.205 F 
ATOM     74  C   UNL A   1      43.361  24.357  25.325  1.00  0.00     0.022 A 
BRANCH  72  75
ATOM     75  S   UNL A   1      42.190  22.039  26.198  1.00  0.00     0.127 S 
ATOM     76  O   UNL A   1      43.018  21.644  25.062  1.00  0.00    -0.237 OA
ATOM     77  O   UNL A   1      42.645  21.543  27.496  1.00  0.00    -0.237 OA
ATOM     78  O   UNL A   1      40.751  21.950  25.993  1.00  0.00    -0.744 OA
ENDBRANCH  72  75
ENDBRANCH  44  68
BRANCH  56  79
ATOM     79  C   UNL A   1      45.486  27.028  33.769  1.00  0.00     0.023 A 
ATOM     80  C   UNL A   1      46.679  27.773  33.677  1.00  0.00     0.012 A 
ATOM     81  C   UNL A   1      45.465  25.849  34.540  1.00  0.00     0.148 A 
ATOM     82  C   UNL A   1      47.838  27.337  34.318  1.00  0.00     0.002 A 
ATOM     83  C   UNL A   1      46.612  25.447  35.214  1.00  0.00     0.091 A 
ATOM     84  F   UNL A   1      44.326  25.143  34.599  1.00  0.00    -0.205 F 
ATOM     85  C   UNL A   1      47.801  26.183  35.097  1.00  0.00     0.022 A 
BRANCH  83  86
ATOM     86  S   UNL A   1      46.629  24.025  36.315  1.00  0.00     0.127 S 
ATOM     87  O   UNL A   1      47.988  24.079  36.849  1.00  0.00    -0.237 OA
ATOM     88  O   UNL A   1      45.580  24.363  37.278  1.00  0.00    -0.237 OA
ATOM     89  O   UNL A   1      46.328  22.871  35.478  1.00  0.00    -0.744 OA
ENDBRANCH  83  86
ENDBRANCH  56  79
ENDBRANCH  30  31
ENDBRANCH  23  25
ENDBRANCH  22  23
ENDBRANCH   1  22
TORSDOF 16
ENDMDL
MODEL 2
REMARK VINA RESULT:     -12.2      5.993     10.959
REMARK SMILES COc1ccc2c(c1)[C@@](NC=O)(C(=O)OCCOC(=O)c1ccc(-c3c4nc(c(-c5cccc(S(=O)(=O)[O-])c5F)c5ccc([nH]5)c(-c5cccc(S(=O)(=O)[O-])c5F)c5nc(c(-c6cccc(S(=O)(=O)[O-])c6F)c6ccc3[nH]6)C=C5)C=C4)cc1)CCC2
REMARK SMILES IDX 17 1 16 2 15 3 13 4 14 5 9 6 3 7 4 8 8 9 5 10 7 11 6 12
REMARK SMILES IDX 86 13 84 14 85 15 2 16 1 17 10 18 11 19 12 21 18 22 19 23
REMARK SMILES IDX 20 24 21 25 22 26 83 27 23 28 82 29 24 30 25 31 26 32 76 33
REMARK SMILES IDX 27 34 81 35 75 36 77 37 28 38 80 39 74 40 73 41 29 43 61 44
REMARK SMILES IDX 41 45 60 46 42 47 45 48 59 49 78 50 43 51 44 52 58 54 79 55
REMARK SMILES IDX 46 56 30 57 31 58 39 59 32 60 34 61 40 62 33 63 35 64 36 65
REMARK SMILES IDX 37 66 38 67 62 68 63 69 71 70 64 71 66 72 72 73 65 74 67 75
REMARK SMILES IDX 68 76 69 77 70 78 47 79 48 80 56 81 49 82 51 83 57 84 50 85
REMARK SMILES IDX 52 86 53 87 54 88 55 89
REMARK H PARENT 10 20 77 42 45 53
REMARK Flexibility Score: inf
ROOT
ATOM      1  C   UNL A   1      37.601  20.283  24.998  1.00  0.00     0.275 C 
ENDROOT
BRANCH   1   2
ATOM      2  C   UNL A   1      36.073  20.312  24.979  1.00  0.00     0.274 C 
BRANCH   2   3
ATOM      3  O   UNL A   1      35.585  21.606  25.394  1.00  0.00    -0.460 OA
BRANCH   3   4
ATOM      4  C   UNL A   1      34.454  21.622  26.146  1.00  0.00     0.336 C 
ATOM      5  O   UNL A   1      34.471  21.613  27.377  1.00  0.00    -0.249 OA
BRANCH   4   6
ATOM      6  C   UNL A   1      33.113  21.474  25.344  1.00  0.00     0.164 C 
ATOM      7  C   UNL A   1      32.547  17.675  24.977  1.00  0.00     0.119 A 
ATOM      8  C   UNL A   1      32.276  17.554  23.620  1.00  0.00     0.047 A 
ATOM      9  C   UNL A   1      32.831  18.931  25.518  1.00  0.00     0.053 A 
ATOM     10  C   UNL A   1      32.202  18.692  22.825  1.00  0.00     0.008 A 
ATOM     11  C   UNL A   1      32.821  20.099  24.722  1.00  0.00    -0.004 A 
ATOM     12  C   UNL A   1      32.429  19.967  23.369  1.00  0.00    -0.042 A 
ATOM     13  C   UNL A   1      32.269  21.147  22.443  1.00  0.00     0.036 C 
ATOM     14  C   UNL A   1      33.181  22.601  24.273  1.00  0.00     0.046 C 
ATOM     15  C   UNL A   1      32.144  22.475  23.168  1.00  0.00     0.008 C 
BRANCH   7  16
ATOM     16  O   UNL A   1      32.543  16.503  25.684  1.00  0.00    -0.497 OA
ATOM     17  C   UNL A   1      33.508  15.550  25.255  1.00  0.00     0.278 C 
ENDBRANCH   7  16
BRANCH   6  18
ATOM     18  N   UNL A   1      32.085  21.807  26.355  1.00  0.00    -0.339 N 
ATOM     19  C   UNL A   1      31.562  23.033  26.616  1.00  0.00     0.338 C 
ATOM     20  H   UNL A   1      31.743  21.060  26.896  1.00  0.00     0.164 HD
ATOM     21  O   UNL A   1      30.769  23.225  27.527  1.00  0.00    -0.279 OA
ENDBRANCH   6  18
ENDBRANCH   4   6
ENDBRANCH   3   4
ENDBRANCH   2   3
ENDBRANCH   1   2
BRANCH   1  22
ATOM     22  O   UNL A   1      38.110  21.415  25.724  1.00  0.00    -0.458 OA
BRANCH  22  23
ATOM     23  C   UNL A   1      39.345  21.222  26.250  1.00  0.00     0.338 C 
ATOM     24  O   UNL A   1      40.023  20.213  26.181  1.00  0.00    -0.246 OA
BRANCH  23  25
ATOM     25  C   UNL A   1      39.859  22.497  26.775  1.00  0.00     0.060 A 
ATOM     26  C   UNL A   1      39.314  23.664  26.238  1.00  0.00     0.016 A 
ATOM     27  C   UNL A   1      40.877  22.563  27.725  1.00  0.00     0.016 A 
ATOM     28  C   UNL A   1      39.773  24.910  26.651  1.00  0.00     0.010 A 
ATOM     29  C   UNL A   1      41.360  23.817  28.121  1.00  0.00     0.010 A 
ATOM     30  C   UNL A   1      40.816  24.993  27.577  1.00  0.00    -0.014 A 
BRANCH  30  31
ATOM     31  C   UNL A   1      41.379  26.323  27.899  1.00  0.00     0.031 A 
ATOM     32  C   UNL A   1      42.784  26.648  27.491  1.00  0.00     0.074 A 
ATOM     33  C   UNL A   1      40.621  27.244  28.521  1.00  0.00     0.049 A 
ATOM     34  N   UNL A   1      43.467  27.745  27.684  1.00  0.00    -0.248 NA
ATOM     35  C   UNL A   1      43.514  25.601  26.757  1.00  0.00     0.031 C 
ATOM     36  C   UNL A   1      39.231  27.051  28.932  1.00  0.00     0.029 A 
ATOM     37  N   UNL A   1      40.924  28.517  28.934  1.00  0.00    -0.354 N 
ATOM     38  C   UNL A   1      44.716  27.515  27.125  1.00  0.00     0.074 A 
ATOM     39  C   UNL A   1      44.696  26.175  26.579  1.00  0.00     0.031 C 
ATOM     40  C   UNL A   1      38.814  28.152  29.579  1.00  0.00     0.029 A 
ATOM     41  C   UNL A   1      39.913  29.113  29.648  1.00  0.00     0.049 A 
ATOM     42  H   UNL A   1      41.781  28.959  28.737  1.00  0.00     0.167 HD
ATOM     43  C   UNL A   1      45.782  28.348  27.066  1.00  0.00     0.034 A 
ATOM     44  C   UNL A   1      39.890  30.285  30.313  1.00  0.00     0.034 A 
ATOM     45  C   UNL A   1      45.798  29.681  27.607  1.00  0.00     0.049 A 
ATOM     46  C   UNL A   1      41.103  31.177  30.270  1.00  0.00     0.074 A 
ATOM     47  C   UNL A   1      46.821  30.612  27.573  1.00  0.00     0.029 A 
ATOM     48  N   UNL A   1      44.749  30.265  28.300  1.00  0.00    -0.354 N 
ATOM     49  N   UNL A   1      42.239  30.994  29.643  1.00  0.00    -0.248 NA
ATOM     50  C   UNL A   1      41.020  32.450  31.001  1.00  0.00     0.031 C 
ATOM     51  C   UNL A   1      46.398  31.750  28.269  1.00  0.00     0.029 A 
ATOM     52  C   UNL A   1      45.104  31.537  28.716  1.00  0.00     0.049 A 
ATOM     53  H   UNL A   1      43.878  29.838  28.471  1.00  0.00     0.167 HD
ATOM     54  C   UNL A   1      42.998  32.135  29.883  1.00  0.00     0.074 A 
ATOM     55  C   UNL A   1      42.180  33.015  30.692  1.00  0.00     0.031 C 
ATOM     56  C   UNL A   1      44.263  32.421  29.483  1.00  0.00     0.034 A 
BRANCH  43  57
ATOM     57  C   UNL A   1      47.021  27.835  26.385  1.00  0.00     0.023 A 
ATOM     58  C   UNL A   1      48.027  27.204  27.144  1.00  0.00     0.012 A 
ATOM     59  C   UNL A   1      47.181  27.958  24.991  1.00  0.00     0.148 A 
ATOM     60  C   UNL A   1      49.187  26.731  26.531  1.00  0.00     0.002 A 
ATOM     61  C   UNL A   1      48.322  27.451  24.383  1.00  0.00     0.091 A 
ATOM     62  F   UNL A   1      46.227  28.589  24.290  1.00  0.00    -0.205 F 
ATOM     63  C   UNL A   1      49.330  26.846  25.151  1.00  0.00     0.022 A 
BRANCH  61  64
ATOM     64  S   UNL A   1      48.562  27.499  22.603  1.00  0.00     0.127 S 
ATOM     65  O   UNL A   1      47.395  28.264  22.168  1.00  0.00    -0.237 OA
ATOM     66  O   UNL A   1      49.836  28.208  22.480  1.00  0.00    -0.237 OA
ATOM     67  O   UNL A   1      48.601  26.109  22.170  1.00  0.00    -0.744 OA
ENDBRANCH  61  64
ENDBRANCH  43  57
BRANCH  44  68
ATOM     68  C   UNL A   1      38.669  30.679  31.068  1.00  0.00     0.023 A 
ATOM     69  C   UNL A   1      38.602  30.462  32.457  1.00  0.00     0.012 A 
ATOM     70  C   UNL A   1      37.588  31.308  30.417  1.00  0.00     0.148 A 
ATOM     71  C   UNL A   1      37.472  30.846  33.182  1.00  0.00     0.002 A 
ATOM     72  C   UNL A   1      36.490  31.738  31.153  1.00  0.00     0.091 A 
ATOM     73  F   UNL A   1      37.663  31.485  29.090  1.00  0.00    -0.205 F 
ATOM     74  C   UNL A   1      36.424  31.494  32.533  1.00  0.00     0.022 A 
BRANCH  72  75
ATOM     75  S   UNL A   1      35.161  32.699  30.422  1.00  0.00     0.127 S 
ATOM     76  O   UNL A   1      34.203  32.769  31.521  1.00  0.00    -0.237 OA
ATOM     77  O   UNL A   1      35.836  33.959  30.110  1.00  0.00    -0.237 OA
ATOM     78  O   UNL A   1      34.729  31.945  29.253  1.00  0.00    -0.744 OA
ENDBRANCH  72  75
ENDBRANCH  44  68
BRANCH  56  79
ATOM     79  C   UNL A   1      44.843  33.749  29.897  1.00  0.00     0.023 A 
ATOM     80  C   UNL A   1      45.626  33.834  31.066  1.00  0.00     0.012 A 
ATOM     81  C   UNL A   1      44.683  34.891  29.088  1.00  0.00     0.148 A 
ATOM     82  C   UNL A   1      46.216  35.042  31.437  1.00  0.00     0.002 A 
ATOM     83  C   UNL A   1      45.312  36.079  29.440  1.00  0.00     0.091 A 
ATOM     84  F   UNL A   1      43.918  34.796  27.991  1.00  0.00    -0.205 F 
ATOM     85  C   UNL A   1      46.071  36.159  30.619  1.00  0.00     0.022 A 
BRANCH  83  86
ATOM     86  S   UNL A   1      45.257  37.542  28.396  1.00  0.00     0.127 S 
ATOM     87  O   UNL A   1      46.064  38.487  29.164  1.00  0.00    -0.237 OA
ATOM     88  O   UNL A   1      45.883  37.067  27.161  1.00  0.00    -0.237 OA
ATOM     89  O   UNL A   1      43.847  37.882  28.263  1.00  0.00    -0.744 OA
ENDBRANCH  83  86
ENDBRANCH  56  79
ENDBRANCH  30  31
ENDBRANCH  23  25
ENDBRANCH  22  23
ENDBRANCH   1  22
TORSDOF 16
ENDMDL
MODEL 3
REMARK VINA RESULT:     -12.2      6.108      8.856
REMARK SMILES COc1ccc2c(c1)[C@@](NC=O)(C(=O)OCCOC(=O)c1ccc(-c3c4nc(c(-c5cccc(S(=O)(=O)[O-])c5F)c5ccc([nH]5)c(-c5cccc(S(=O)(=O)[O-])c5F)c5nc(c(-c6cccc(S(=O)(=O)[O-])c6F)c6ccc3[nH]6)C=C5)C=C4)cc1)CCC2
REMARK SMILES IDX 17 1 16 2 15 3 13 4 14 5 9 6 3 7 4 8 8 9 5 10 7 11 6 12
REMARK SMILES IDX 86 13 84 14 85 15 2 16 1 17 10 18 11 19 12 21 18 22 19 23
REMARK SMILES IDX 20 24 21 25 22 26 83 27 23 28 82 29 24 30 25 31 26 32 76 33
REMARK SMILES IDX 27 34 81 35 75 36 77 37 28 38 80 39 74 40 73 41 29 43 61 44
REMARK SMILES IDX 41 45 60 46 42 47 45 48 59 49 78 50 43 51 44 52 58 54 79 55
REMARK SMILES IDX 46 56 30 57 31 58 39 59 32 60 34 61 40 62 33 63 35 64 36 65
REMARK SMILES IDX 37 66 38 67 62 68 63 69 71 70 64 71 66 72 72 73 65 74 67 75
REMARK SMILES IDX 68 76 69 77 70 78 47 79 48 80 56 81 49 82 51 83 57 84 50 85
REMARK SMILES IDX 52 86 53 87 54 88 55 89
REMARK H PARENT 10 20 77 42 45 53
REMARK Flexibility Score: inf
ROOT
ATOM      1  C   UNL A   1      37.544  20.173  24.957  1.00  0.00     0.275 C 
ENDROOT
BRANCH   1   2
ATOM      2  C   UNL A   1      36.046  20.392  24.745  1.00  0.00     0.274 C 
BRANCH   2   3
ATOM      3  O   UNL A   1      35.624  21.631  25.354  1.00  0.00    -0.460 OA
BRANCH   3   4
ATOM      4  C   UNL A   1      34.512  21.583  26.133  1.00  0.00     0.336 C 
ATOM      5  O   UNL A   1      34.561  21.537  27.363  1.00  0.00    -0.249 OA
BRANCH   4   6
ATOM      6  C   UNL A   1      33.157  21.412  25.359  1.00  0.00     0.164 C 
ATOM      7  C   UNL A   1      32.563  17.605  25.152  1.00  0.00     0.119 A 
ATOM      8  C   UNL A   1      32.271  17.433  23.805  1.00  0.00     0.047 A 
ATOM      9  C   UNL A   1      32.863  18.880  25.638  1.00  0.00     0.053 A 
ATOM     10  C   UNL A   1      32.190  18.539  22.967  1.00  0.00     0.008 A 
ATOM     11  C   UNL A   1      32.847  20.016  24.796  1.00  0.00    -0.004 A 
ATOM     12  C   UNL A   1      32.433  19.833  23.457  1.00  0.00    -0.042 A 
ATOM     13  C   UNL A   1      32.265  20.976  22.487  1.00  0.00     0.036 C 
ATOM     14  C   UNL A   1      33.214  22.495  24.244  1.00  0.00     0.046 C 
ATOM     15  C   UNL A   1      32.159  22.333  23.161  1.00  0.00     0.008 C 
BRANCH   7  16
ATOM     16  O   UNL A   1      32.564  16.462  25.905  1.00  0.00    -0.497 OA
ATOM     17  C   UNL A   1      32.986  15.296  25.208  1.00  0.00     0.278 C 
ENDBRANCH   7  16
BRANCH   6  18
ATOM     18  N   UNL A   1      32.148  21.791  26.372  1.00  0.00    -0.339 N 
ATOM     19  C   UNL A   1      31.671  23.038  26.625  1.00  0.00     0.338 C 
ATOM     20  H   UNL A   1      31.782  21.062  26.922  1.00  0.00     0.164 HD
ATOM     21  O   UNL A   1      30.890  23.267  27.538  1.00  0.00    -0.279 OA
ENDBRANCH   6  18
ENDBRANCH   4   6
ENDBRANCH   3   4
ENDBRANCH   2   3
ENDBRANCH   1   2
BRANCH   1  22
ATOM     22  O   UNL A   1      38.100  21.252  25.727  1.00  0.00    -0.458 OA
BRANCH  22  23
ATOM     23  C   UNL A   1      39.329  20.989  26.235  1.00  0.00     0.338 C 
ATOM     24  O   UNL A   1      39.950  19.945  26.154  1.00  0.00    -0.246 OA
BRANCH  23  25
ATOM     25  C   UNL A   1      39.920  22.232  26.757  1.00  0.00     0.060 A 
ATOM     26  C   UNL A   1      39.475  23.427  26.189  1.00  0.00     0.016 A 
ATOM     27  C   UNL A   1      40.914  22.240  27.735  1.00  0.00     0.016 A 
ATOM     28  C   UNL A   1      40.012  24.643  26.597  1.00  0.00     0.010 A 
ATOM     29  C   UNL A   1      41.475  23.462  28.126  1.00  0.00     0.010 A 
ATOM     30  C   UNL A   1      41.033  24.666  27.551  1.00  0.00    -0.014 A 
BRANCH  30  31
ATOM     31  C   UNL A   1      41.682  25.957  27.870  1.00  0.00     0.031 A 
ATOM     32  C   UNL A   1      40.908  27.011  28.602  1.00  0.00     0.074 A 
ATOM     33  C   UNL A   1      42.968  26.165  27.536  1.00  0.00     0.049 A 
ATOM     34  N   UNL A   1      41.285  28.207  28.967  1.00  0.00    -0.248 NA
ATOM     35  C   UNL A   1      39.528  26.668  28.983  1.00  0.00     0.031 C 
ATOM     36  C   UNL A   1      43.828  25.198  26.855  1.00  0.00     0.029 A 
ATOM     37  N   UNL A   1      43.766  27.268  27.707  1.00  0.00    -0.354 N 
ATOM     38  C   UNL A   1      40.184  28.775  29.595  1.00  0.00     0.074 A 
ATOM     39  C   UNL A   1      39.125  27.789  29.566  1.00  0.00     0.031 C 
ATOM     40  C   UNL A   1      45.023  25.767  26.626  1.00  0.00     0.029 A 
ATOM     41  C   UNL A   1      45.002  27.142  27.121  1.00  0.00     0.049 A 
ATOM     42  H   UNL A   1      43.480  28.070  28.201  1.00  0.00     0.167 HD
ATOM     43  C   UNL A   1      40.069  30.004  30.150  1.00  0.00     0.034 A 
ATOM     44  C   UNL A   1      45.990  28.046  26.970  1.00  0.00     0.034 A 
ATOM     45  C   UNL A   1      41.124  30.980  30.179  1.00  0.00     0.049 A 
ATOM     46  C   UNL A   1      45.822  29.423  27.558  1.00  0.00     0.074 A 
ATOM     47  C   UNL A   1      41.113  32.244  30.743  1.00  0.00     0.029 A 
ATOM     48  N   UNL A   1      42.373  30.812  29.601  1.00  0.00    -0.354 N 
ATOM     49  N   UNL A   1      44.819  29.909  28.246  1.00  0.00    -0.248 NA
ATOM     50  C   UNL A   1      46.936  30.366  27.376  1.00  0.00     0.031 C 
ATOM     51  C   UNL A   1      42.348  32.850  30.483  1.00  0.00     0.029 A 
ATOM     52  C   UNL A   1      43.136  31.954  29.778  1.00  0.00     0.049 A 
ATOM     53  H   UNL A   1      42.674  29.999  29.134  1.00  0.00     0.167 HD
ATOM     54  C   UNL A   1      45.185  31.203  28.599  1.00  0.00     0.074 A 
ATOM     55  C   UNL A   1      46.517  31.416  28.070  1.00  0.00     0.031 C 
ATOM     56  C   UNL A   1      44.478  32.137  29.285  1.00  0.00     0.034 A 
BRANCH  43  57
ATOM     57  C   UNL A   1      38.747  30.356  30.776  1.00  0.00     0.023 A 
ATOM     58  C   UNL A   1      38.472  29.960  32.100  1.00  0.00     0.012 A 
ATOM     59  C   UNL A   1      37.786  31.098  30.061  1.00  0.00     0.148 A 
ATOM     60  C   UNL A   1      37.248  30.269  32.693  1.00  0.00     0.002 A 
ATOM     61  C   UNL A   1      36.584  31.434  30.672  1.00  0.00     0.091 A 
ATOM     62  F   UNL A   1      38.054  31.439  28.793  1.00  0.00    -0.205 F 
ATOM     63  C   UNL A   1      36.310  31.013  31.984  1.00  0.00     0.022 A 
BRANCH  61  64
ATOM     64  S   UNL A   1      35.344  32.444  29.855  1.00  0.00     0.127 S 
ATOM     65  O   UNL A   1      34.981  31.602  28.716  1.00  0.00    -0.237 OA
ATOM     66  O   UNL A   1      34.308  32.556  30.884  1.00  0.00    -0.237 OA
ATOM     67  O   UNL A   1      36.006  33.699  29.528  1.00  0.00    -0.744 OA
ENDBRANCH  61  64
ENDBRANCH  43  57
BRANCH  44  68
ATOM     68  C   UNL A   1      47.228  27.668  26.233  1.00  0.00     0.023 A 
ATOM     69  C   UNL A   1      48.286  27.040  26.915  1.00  0.00     0.012 A 
ATOM     70  C   UNL A   1      47.340  27.894  24.846  1.00  0.00     0.148 A 
ATOM     71  C   UNL A   1      49.444  26.661  26.233  1.00  0.00     0.002 A 
ATOM     72  C   UNL A   1      48.471  27.463  24.163  1.00  0.00     0.091 A 
ATOM     73  F   UNL A   1      46.329  28.514  24.220  1.00  0.00    -0.205 F 
ATOM     74  C   UNL A   1      49.531  26.861  24.857  1.00  0.00     0.022 A 
BRANCH  72  75
ATOM     75  S   UNL A   1      48.607  27.559  22.374  1.00  0.00     0.127 S 
ATOM     76  O   UNL A   1      47.375  28.257  22.018  1.00  0.00    -0.237 OA
ATOM     77  O   UNL A   1      49.831  28.341  22.206  1.00  0.00    -0.237 OA
ATOM     78  O   UNL A   1      48.708  26.180  21.915  1.00  0.00    -0.744 OA
ENDBRANCH  72  75
ENDBRANCH  44  68
BRANCH  56  79
ATOM     79  C   UNL A   1      45.132  33.473  29.522  1.00  0.00     0.023 A 
ATOM     80  C   UNL A   1      45.920  33.670  30.673  1.00  0.00     0.012 A 
ATOM     81  C   UNL A   1      45.033  34.505  28.568  1.00  0.00     0.148 A 
ATOM     82  C   UNL A   1      46.576  34.882  30.885  1.00  0.00     0.002 A 
ATOM     83  C   UNL A   1      45.728  35.693  28.763  1.00  0.00     0.091 A 
ATOM     84  F   UNL A   1      44.262  34.307  27.489  1.00  0.00    -0.205 F 
ATOM     85  C   UNL A   1      46.492  35.887  29.925  1.00  0.00     0.022 A 
BRANCH  83  86
ATOM     86  S   UNL A   1      45.751  37.005  27.534  1.00  0.00     0.127 S 
ATOM     87  O   UNL A   1      46.591  38.008  28.184  1.00  0.00    -0.237 OA
ATOM     88  O   UNL A   1      46.369  36.344  26.383  1.00  0.00    -0.237 OA
ATOM     89  O   UNL A   1      44.359  37.387  27.332  1.00  0.00    -0.744 OA
ENDBRANCH  83  86
ENDBRANCH  56  79
ENDBRANCH  30  31
ENDBRANCH  23  25
ENDBRANCH  22  23
ENDBRANCH   1  22
TORSDOF 16
ENDMDL
