MODEL 1
REMARK VINA RESULT:     -14.1      0.000      0.000
REMARK SMILES O=C(OCCOC(=O)c1ccc(-c2c3nc(c(-c4cccc(S(=O)(=O)[O-])c4F)c4ccc([nH]4)c(-c4cccc(S(=O)(=O)[O-])c4F)c4nc(c(-c5cccc(S(=O)(=O)[O-])c5F)c5ccc2[nH]5)C=C4)C=C3)cc1)C1=Cc2cc(C(F)(F)F)ccc2O[C@@H]1C(F)(F)F
REMARK SMILES IDX 5 1 4 2 3 3 2 4 1 5 72 6 73 7 85 8 74 9 84 10 75 11 83 12
REMARK SMILES IDX 76 13 82 14 81 15 86 16 87 17 88 18 89 19 77 20 78 21 79 22
REMARK SMILES IDX 80 23 6 24 7 25 8 26 9 27 10 28 71 29 11 30 70 31 12 32
REMARK SMILES IDX 13 33 14 34 64 35 15 36 69 37 63 38 65 39 16 40 68 41 62 42
REMARK SMILES IDX 61 43 17 45 49 46 29 47 48 48 30 49 33 50 47 51 66 52 31 53
REMARK SMILES IDX 32 54 46 56 67 57 34 58 18 59 19 60 27 61 20 62 22 63 28 64
REMARK SMILES IDX 21 65 23 66 24 67 25 68 26 69 50 70 51 71 59 72 52 73 54 74
REMARK SMILES IDX 60 75 53 76 55 77 56 78 57 79 58 80 35 81 36 82 44 83 37 84
REMARK SMILES IDX 39 85 45 86 38 87 40 88 41 89 42 90 43 91
REMARK H PARENT 65 44 33 55
REMARK Flexibility Score: inf
ROOT
ATOM      1  C   UNL A   1      37.797  19.668  24.959  1.00  0.00     0.275 C 
ENDROOT
BRANCH   1   2
ATOM      2  C   UNL A   1      35.724  20.296  25.014  1.00  0.00     0.275 C 
BRANCH   2   3
ATOM      3  O   UNL A   1      35.185  21.657  25.533  1.00  0.00    -0.459 OA
BRANCH   3   4
ATOM      4  C   UNL A   1      35.318  22.647  24.641  1.00  0.00     0.338 C 
ATOM      5  O   UNL A   1      36.314  23.101  24.141  1.00  0.00    -0.246 OA
BRANCH   4   6
ATOM      6  C   UNL A   1      33.987  23.171  24.828  1.00  0.00     0.087 C 
ATOM      7  C   UNL A   1      33.949  24.296  25.745  1.00  0.00     0.027 C 
ATOM      8  C   UNL A   1      33.529  23.224  22.957  1.00  0.00     0.316 C 
ATOM      9  C   UNL A   1      33.671  25.974  25.215  1.00  0.00     0.018 A 
ATOM     10  O   UNL A   1      33.309  25.053  22.345  1.00  0.00    -0.475 OA
ATOM     11  C   UNL A   1      33.812  26.945  26.157  1.00  0.00     0.025 A 
ATOM     12  C   UNL A   1      33.458  26.417  23.556  1.00  0.00     0.128 A 
ATOM     13  C   UNL A   1      33.795  28.268  25.674  1.00  0.00     0.056 A 
ATOM     14  C   UNL A   1      33.447  27.720  23.146  1.00  0.00     0.048 A 
ATOM     15  C   UNL A   1      33.628  28.622  24.246  1.00  0.00     0.017 A 
BRANCH   8  16
ATOM     16  C   UNL A   1      32.584  21.938  23.060  1.00  0.00     0.430 C 
ATOM     17  F   UNL A   1      31.550  22.164  23.883  1.00  0.00    -0.167 F 
ATOM     18  F   UNL A   1      31.977  21.725  21.850  1.00  0.00    -0.167 F 
ATOM     19  F   UNL A   1      33.153  20.749  23.296  1.00  0.00    -0.167 F 
ENDBRANCH   8  16
BRANCH  13  20
ATOM     20  C   UNL A   1      33.952  29.326  26.759  1.00  0.00     0.416 C 
ATOM     21  F   UNL A   1      33.724  30.581  26.284  1.00  0.00    -0.166 F 
ATOM     22  F   UNL A   1      33.056  29.156  27.777  1.00  0.00    -0.166 F 
ATOM     23  F   UNL A   1      35.177  29.352  27.343  1.00  0.00    -0.166 F 
ENDBRANCH  13  20
ENDBRANCH   4   6
ENDBRANCH   3   4
ENDBRANCH   2   3
ENDBRANCH   1   2
BRANCH   1  24
ATOM     24  O   UNL A   1      39.144  20.633  25.517  1.00  0.00    -0.458 OA
BRANCH  24  25
ATOM     25  C   UNL A   1      40.235  20.636  26.361  1.00  0.00     0.338 C 
ATOM     26  O   UNL A   1      41.246  19.955  26.332  1.00  0.00    -0.246 OA
BRANCH  25  27
ATOM     27  C   UNL A   1      40.197  21.952  27.080  1.00  0.00     0.060 A 
ATOM     28  C   UNL A   1      41.196  22.213  28.037  1.00  0.00     0.016 A 
ATOM     29  C   UNL A   1      39.489  23.011  26.517  1.00  0.00     0.016 A 
ATOM     30  C   UNL A   1      41.658  23.531  28.222  1.00  0.00     0.010 A 
ATOM     31  C   UNL A   1      39.942  24.319  26.715  1.00  0.00     0.010 A 
ATOM     32  C   UNL A   1      41.081  24.584  27.499  1.00  0.00    -0.014 A 
BRANCH  32  33
ATOM     33  C   UNL A   1      41.463  26.002  27.741  1.00  0.00     0.031 A 
ATOM     34  C   UNL A   1      42.840  26.371  27.283  1.00  0.00     0.074 A 
ATOM     35  C   UNL A   1      40.714  26.891  28.433  1.00  0.00     0.049 A 
ATOM     36  N   UNL A   1      43.512  27.473  27.460  1.00  0.00    -0.248 NA
ATOM     37  C   UNL A   1      43.572  25.318  26.555  1.00  0.00     0.031 C 
ATOM     38  C   UNL A   1      39.371  26.663  28.966  1.00  0.00     0.029 A 
ATOM     39  N   UNL A   1      41.009  28.177  28.841  1.00  0.00    -0.354 N 
ATOM     40  C   UNL A   1      44.756  27.231  26.895  1.00  0.00     0.074 A 
ATOM     41  C   UNL A   1      44.760  25.870  26.413  1.00  0.00     0.031 C 
ATOM     42  C   UNL A   1      38.972  27.756  29.649  1.00  0.00     0.029 A 
ATOM     43  C   UNL A   1      40.032  28.763  29.621  1.00  0.00     0.049 A 
ATOM     44  H   UNL A   1      41.844  28.636  28.595  1.00  0.00     0.167 HD
ATOM     45  C   UNL A   1      45.805  28.070  26.761  1.00  0.00     0.034 A 
ATOM     46  C   UNL A   1      40.010  29.967  30.240  1.00  0.00     0.034 A 
ATOM     47  C   UNL A   1      45.817  29.412  27.251  1.00  0.00     0.049 A 
ATOM     48  C   UNL A   1      41.208  30.888  30.091  1.00  0.00     0.074 A 
ATOM     49  C   UNL A   1      46.818  30.356  27.144  1.00  0.00     0.029 A 
ATOM     50  N   UNL A   1      44.780  29.994  27.963  1.00  0.00    -0.354 N 
ATOM     51  N   UNL A   1      42.319  30.703  29.418  1.00  0.00    -0.248 NA
ATOM     52  C   UNL A   1      41.136  32.200  30.761  1.00  0.00     0.031 C 
ATOM     53  C   UNL A   1      46.397  31.506  27.818  1.00  0.00     0.029 A 
ATOM     54  C   UNL A   1      45.117  31.287  28.307  1.00  0.00     0.049 A 
ATOM     55  H   UNL A   1      43.930  29.551  28.189  1.00  0.00     0.167 HD
ATOM     56  C   UNL A   1      43.049  31.883  29.541  1.00  0.00     0.074 A 
ATOM     57  C   UNL A   1      42.251  32.785  30.343  1.00  0.00     0.031 C 
ATOM     58  C   UNL A   1      44.273  32.192  29.044  1.00  0.00     0.034 A 
BRANCH  45  59
ATOM     59  C   UNL A   1      47.003  27.523  26.042  1.00  0.00     0.023 A 
ATOM     60  C   UNL A   1      47.999  26.842  26.775  1.00  0.00     0.012 A 
ATOM     61  C   UNL A   1      47.175  27.739  24.664  1.00  0.00     0.148 A 
ATOM     62  C   UNL A   1      49.180  26.440  26.157  1.00  0.00     0.002 A 
ATOM     63  C   UNL A   1      48.331  27.285  24.044  1.00  0.00     0.091 A 
ATOM     64  F   UNL A   1      46.230  28.418  23.999  1.00  0.00    -0.205 F 
ATOM     65  C   UNL A   1      49.342  26.655  24.791  1.00  0.00     0.022 A 
BRANCH  63  66
ATOM     66  S   UNL A   1      48.609  27.449  22.280  1.00  0.00     0.127 S 
ATOM     67  O   UNL A   1      49.846  28.230  22.248  1.00  0.00    -0.237 OA
ATOM     68  O   UNL A   1      48.758  26.054  21.867  1.00  0.00    -0.237 OA
ATOM     69  O   UNL A   1      47.435  28.124  21.746  1.00  0.00    -0.744 OA
ENDBRANCH  63  66
ENDBRANCH  45  59
BRANCH  46  70
ATOM     70  C   UNL A   1      38.815  30.434  31.020  1.00  0.00     0.023 A 
ATOM     71  C   UNL A   1      38.694  30.065  32.378  1.00  0.00     0.012 A 
ATOM     72  C   UNL A   1      37.771  31.170  30.427  1.00  0.00     0.148 A 
ATOM     73  C   UNL A   1      37.546  30.375  33.111  1.00  0.00     0.002 A 
ATOM     74  C   UNL A   1      36.648  31.518  31.177  1.00  0.00     0.091 A 
ATOM     75  F   UNL A   1      37.883  31.499  29.133  1.00  0.00    -0.205 F 
ATOM     76  C   UNL A   1      36.524  31.105  32.513  1.00  0.00     0.022 A 
BRANCH  74  77
ATOM     77  S   UNL A   1      35.309  32.531  30.527  1.00  0.00     0.127 S 
ATOM     78  O   UNL A   1      35.995  33.788  30.239  1.00  0.00    -0.237 OA
ATOM     79  O   UNL A   1      34.903  31.768  29.347  1.00  0.00    -0.237 OA
ATOM     80  O   UNL A   1      34.308  32.589  31.584  1.00  0.00    -0.744 OA
ENDBRANCH  74  77
ENDBRANCH  46  70
BRANCH  58  81
ATOM     81  C   UNL A   1      44.820  33.576  29.284  1.00  0.00     0.023 A 
ATOM     82  C   UNL A   1      45.552  33.855  30.453  1.00  0.00     0.012 A 
ATOM     83  C   UNL A   1      44.728  34.555  28.273  1.00  0.00     0.148 A 
ATOM     84  C   UNL A   1      46.171  35.094  30.620  1.00  0.00     0.002 A 
ATOM     85  C   UNL A   1      45.392  35.765  28.422  1.00  0.00     0.091 A 
ATOM     86  F   UNL A   1      44.013  34.272  27.174  1.00  0.00    -0.205 F 
ATOM     87  C   UNL A   1      46.106  36.041  29.599  1.00  0.00     0.022 A 
BRANCH  85  88
ATOM     88  S   UNL A   1      45.463  36.992  27.111  1.00  0.00     0.127 S 
ATOM     89  O   UNL A   1      46.086  36.235  26.027  1.00  0.00    -0.237 OA
ATOM     90  O   UNL A   1      44.049  37.304  26.903  1.00  0.00    -0.237 OA
ATOM     91  O   UNL A   1      46.255  38.097  27.635  1.00  0.00    -0.744 OA
ENDBRANCH  85  88
ENDBRANCH  58  81
ENDBRANCH  32  33
ENDBRANCH  25  27
ENDBRANCH  24  25
ENDBRANCH   1  24
TORSDOF 16
ENDMDL
MODEL 2
REMARK VINA RESULT:     -14.0      5.112     10.486
REMARK SMILES O=C(OCCOC(=O)c1ccc(-c2c3nc(c(-c4cccc(S(=O)(=O)[O-])c4F)c4ccc([nH]4)c(-c4cccc(S(=O)(=O)[O-])c4F)c4nc(c(-c5cccc(S(=O)(=O)[O-])c5F)c5ccc2[nH]5)C=C4)C=C3)cc1)C1=Cc2cc(C(F)(F)F)ccc2O[C@@H]1C(F)(F)F
REMARK SMILES IDX 5 1 4 2 3 3 2 4 1 5 72 6 73 7 85 8 74 9 84 10 75 11 83 12
REMARK SMILES IDX 76 13 82 14 81 15 86 16 87 17 88 18 89 19 77 20 78 21 79 22
REMARK SMILES IDX 80 23 6 24 7 25 8 26 9 27 10 28 71 29 11 30 70 31 12 32
REMARK SMILES IDX 13 33 14 34 64 35 15 36 69 37 63 38 65 39 16 40 68 41 62 42
REMARK SMILES IDX 61 43 17 45 49 46 29 47 48 48 30 49 33 50 47 51 66 52 31 53
REMARK SMILES IDX 32 54 46 56 67 57 34 58 18 59 19 60 27 61 20 62 22 63 28 64
REMARK SMILES IDX 21 65 23 66 24 67 25 68 26 69 50 70 51 71 59 72 52 73 54 74
REMARK SMILES IDX 60 75 53 76 55 77 56 78 57 79 58 80 35 81 36 82 44 83 37 84
REMARK SMILES IDX 39 85 45 86 38 87 40 88 41 89 42 90 43 91
REMARK H PARENT 65 44 33 55
REMARK Flexibility Score: inf
ROOT
ATOM      1  C   UNL A   1      31.515  32.052  26.574  1.00  0.00     0.275 C 
ENDROOT
BRANCH   1   2
ATOM      2  C   UNL A   1      32.083  30.114  25.789  1.00  0.00     0.275 C 
BRANCH   2   3
ATOM      3  O   UNL A   1      32.484  28.863  26.618  1.00  0.00    -0.459 OA
BRANCH   3   4
ATOM      4  C   UNL A   1      31.750  27.783  26.323  1.00  0.00     0.338 C 
ATOM      5  O   UNL A   1      31.072  27.097  27.042  1.00  0.00    -0.246 OA
BRANCH   4   6
ATOM      6  C   UNL A   1      32.373  27.547  25.043  1.00  0.00     0.087 C 
ATOM      7  C   UNL A   1      33.665  26.894  25.157  1.00  0.00     0.027 C 
ATOM      8  C   UNL A   1      30.807  26.812  24.193  1.00  0.00     0.316 C 
ATOM      9  C   UNL A   1      33.938  25.193  24.703  1.00  0.00     0.018 A 
ATOM     10  O   UNL A   1      31.060  24.935  23.773  1.00  0.00    -0.475 OA
ATOM     11  C   UNL A   1      35.156  24.668  25.003  1.00  0.00     0.025 A 
ATOM     12  C   UNL A   1      32.679  24.157  24.121  1.00  0.00     0.128 A 
ATOM     13  C   UNL A   1      35.277  23.276  24.829  1.00  0.00     0.056 A 
ATOM     14  C   UNL A   1      32.856  22.811  23.970  1.00  0.00     0.048 A 
ATOM     15  C   UNL A   1      34.179  22.407  24.345  1.00  0.00     0.017 A 
BRANCH   8  16
ATOM     16  C   UNL A   1      30.534  28.141  23.345  1.00  0.00     0.430 C 
ATOM     17  F   UNL A   1      31.660  28.585  22.768  1.00  0.00    -0.167 F 
ATOM     18  F   UNL A   1      29.734  27.838  22.274  1.00  0.00    -0.167 F 
ATOM     19  F   UNL A   1      29.851  29.136  23.926  1.00  0.00    -0.167 F 
ENDBRANCH   8  16
BRANCH  13  20
ATOM     20  C   UNL A   1      36.656  22.726  25.172  1.00  0.00     0.416 C 
ATOM     21  F   UNL A   1      37.456  23.671  25.738  1.00  0.00    -0.166 F 
ATOM     22  F   UNL A   1      36.592  21.711  26.085  1.00  0.00    -0.166 F 
ATOM     23  F   UNL A   1      37.340  22.227  24.110  1.00  0.00    -0.166 F 
ENDBRANCH  13  20
ENDBRANCH   4   6
ENDBRANCH   3   4
ENDBRANCH   2   3
ENDBRANCH   1   2
BRANCH   1  24
ATOM     24  O   UNL A   1      32.418  32.941  27.778  1.00  0.00    -0.458 OA
BRANCH  24  25
ATOM     25  C   UNL A   1      33.516  33.756  27.969  1.00  0.00     0.338 C 
ATOM     26  O   UNL A   1      33.577  34.892  28.406  1.00  0.00    -0.246 OA
BRANCH  25  27
ATOM     27  C   UNL A   1      34.708  32.845  27.980  1.00  0.00     0.060 A 
ATOM     28  C   UNL A   1      35.988  33.431  28.028  1.00  0.00     0.016 A 
ATOM     29  C   UNL A   1      34.543  31.517  28.365  1.00  0.00     0.016 A 
ATOM     30  C   UNL A   1      37.031  32.773  28.709  1.00  0.00     0.010 A 
ATOM     31  C   UNL A   1      35.586  30.863  29.027  1.00  0.00     0.010 A 
ATOM     32  C   UNL A   1      36.809  31.513  29.282  1.00  0.00    -0.014 A 
BRANCH  32  33
ATOM     33  C   UNL A   1      37.908  30.736  29.915  1.00  0.00     0.031 A 
ATOM     34  C   UNL A   1      38.230  31.131  31.324  1.00  0.00     0.074 A 
ATOM     35  C   UNL A   1      38.676  29.827  29.272  1.00  0.00     0.049 A 
ATOM     36  N   UNL A   1      39.203  30.745  32.099  1.00  0.00    -0.248 NA
ATOM     37  C   UNL A   1      37.339  32.144  31.919  1.00  0.00     0.031 C 
ATOM     38  C   UNL A   1      38.502  29.368  27.894  1.00  0.00     0.029 A 
ATOM     39  N   UNL A   1      39.799  29.147  29.699  1.00  0.00    -0.354 N 
ATOM     40  C   UNL A   1      39.058  31.491  33.259  1.00  0.00     0.074 A 
ATOM     41  C   UNL A   1      37.937  32.382  33.069  1.00  0.00     0.031 C 
ATOM     42  C   UNL A   1      39.494  28.507  27.583  1.00  0.00     0.029 A 
ATOM     43  C   UNL A   1      40.388  28.360  28.730  1.00  0.00     0.049 A 
ATOM     44  H   UNL A   1      40.149  29.218  30.616  1.00  0.00     0.167 HD
ATOM     45  C   UNL A   1      39.776  31.434  34.401  1.00  0.00     0.034 A 
ATOM     46  C   UNL A   1      41.520  27.617  28.773  1.00  0.00     0.034 A 
ATOM     47  C   UNL A   1      40.897  30.569  34.592  1.00  0.00     0.049 A 
ATOM     48  C   UNL A   1      42.322  27.580  30.062  1.00  0.00     0.074 A 
ATOM     49  C   UNL A   1      41.677  30.411  35.720  1.00  0.00     0.029 A 
ATOM     50  N   UNL A   1      41.412  29.729  33.617  1.00  0.00    -0.354 N 
ATOM     51  N   UNL A   1      42.082  28.175  31.207  1.00  0.00    -0.248 NA
ATOM     52  C   UNL A   1      43.535  26.742  30.076  1.00  0.00     0.031 C 
ATOM     53  C   UNL A   1      42.686  29.492  35.418  1.00  0.00     0.029 A 
ATOM     54  C   UNL A   1      42.505  29.050  34.115  1.00  0.00     0.049 A 
ATOM     55  H   UNL A   1      41.052  29.632  32.706  1.00  0.00     0.167 HD
ATOM     56  C   UNL A   1      43.077  27.747  32.083  1.00  0.00     0.074 A 
ATOM     57  C   UNL A   1      43.918  26.831  31.343  1.00  0.00     0.031 C 
ATOM     58  C   UNL A   1      43.284  28.087  33.380  1.00  0.00     0.034 A 
BRANCH  45  59
ATOM     59  C   UNL A   1      39.329  32.340  35.510  1.00  0.00     0.023 A 
ATOM     60  C   UNL A   1      38.286  31.924  36.366  1.00  0.00     0.012 A 
ATOM     61  C   UNL A   1      39.889  33.620  35.663  1.00  0.00     0.148 A 
ATOM     62  C   UNL A   1      37.765  32.795  37.319  1.00  0.00     0.002 A 
ATOM     63  C   UNL A   1      39.400  34.461  36.653  1.00  0.00     0.091 A 
ATOM     64  F   UNL A   1      40.853  34.003  34.815  1.00  0.00    -0.205 F 
ATOM     65  C   UNL A   1      38.327  34.059  37.467  1.00  0.00     0.022 A 
BRANCH  63  66
ATOM     66  S   UNL A   1      40.096  36.083  36.972  1.00  0.00     0.127 S 
ATOM     67  O   UNL A   1      41.496  35.756  37.241  1.00  0.00    -0.237 OA
ATOM     68  O   UNL A   1      39.864  36.766  35.700  1.00  0.00    -0.237 OA
ATOM     69  O   UNL A   1      39.358  36.626  38.103  1.00  0.00    -0.744 OA
ENDBRANCH  63  66
ENDBRANCH  45  59
BRANCH  46  70
ATOM     70  C   UNL A   1      41.970  26.791  27.603  1.00  0.00     0.023 A 
ATOM     71  C   UNL A   1      42.549  27.437  26.488  1.00  0.00     0.012 A 
ATOM     72  C   UNL A   1      41.769  25.398  27.545  1.00  0.00     0.148 A 
ATOM     73  C   UNL A   1      42.874  26.726  25.330  1.00  0.00     0.002 A 
ATOM     74  C   UNL A   1      42.140  24.686  26.403  1.00  0.00     0.091 A 
ATOM     75  F   UNL A   1      41.200  24.795  28.597  1.00  0.00    -0.205 F 
ATOM     76  C   UNL A   1      42.674  25.350  25.288  1.00  0.00     0.022 A 
BRANCH  74  77
ATOM     77  S   UNL A   1      42.002  22.896  26.277  1.00  0.00     0.127 S 
ATOM     78  O   UNL A   1      42.760  22.452  27.444  1.00  0.00    -0.237 OA
ATOM     79  O   UNL A   1      40.555  22.699  26.373  1.00  0.00    -0.237 OA
ATOM     80  O   UNL A   1      42.576  22.545  24.985  1.00  0.00    -0.744 OA
ENDBRANCH  74  77
ENDBRANCH  46  70
BRANCH  58  81
ATOM     81  C   UNL A   1      44.418  27.431  34.125  1.00  0.00     0.023 A 
ATOM     82  C   UNL A   1      45.689  28.037  34.153  1.00  0.00     0.012 A 
ATOM     83  C   UNL A   1      44.176  26.290  34.916  1.00  0.00     0.148 A 
ATOM     84  C   UNL A   1      46.706  27.505  34.946  1.00  0.00     0.002 A 
ATOM     85  C   UNL A   1      45.176  25.799  35.745  1.00  0.00     0.091 A 
ATOM     86  F   UNL A   1      42.962  25.722  34.862  1.00  0.00    -0.205 F 
ATOM     87  C   UNL A   1      46.445  26.399  35.754  1.00  0.00     0.022 A 
BRANCH  85  88
ATOM     88  S   UNL A   1      44.894  24.456  36.905  1.00  0.00     0.127 S 
ATOM     89  O   UNL A   1      46.105  24.508  37.721  1.00  0.00    -0.237 OA
ATOM     90  O   UNL A   1      43.677  24.892  37.591  1.00  0.00    -0.237 OA
ATOM     91  O   UNL A   1      44.736  23.253  36.099  1.00  0.00    -0.744 OA
ENDBRANCH  85  88
ENDBRANCH  58  81
ENDBRANCH  32  33
ENDBRANCH  25  27
ENDBRANCH  24  25
ENDBRANCH   1  24
TORSDOF 16
ENDMDL
MODEL 3
REMARK VINA RESULT:     -14.0      5.220     10.773
REMARK SMILES O=C(OCCOC(=O)c1ccc(-c2c3nc(c(-c4cccc(S(=O)(=O)[O-])c4F)c4ccc([nH]4)c(-c4cccc(S(=O)(=O)[O-])c4F)c4nc(c(-c5cccc(S(=O)(=O)[O-])c5F)c5ccc2[nH]5)C=C4)C=C3)cc1)C1=Cc2cc(C(F)(F)F)ccc2O[C@@H]1C(F)(F)F
REMARK SMILES IDX 5 1 4 2 3 3 2 4 1 5 72 6 73 7 85 8 74 9 84 10 75 11 83 12
REMARK SMILES IDX 76 13 82 14 81 15 86 16 87 17 88 18 89 19 77 20 78 21 79 22
REMARK SMILES IDX 80 23 6 24 7 25 8 26 9 27 10 28 71 29 11 30 70 31 12 32
REMARK SMILES IDX 13 33 14 34 64 35 15 36 69 37 63 38 65 39 16 40 68 41 62 42
REMARK SMILES IDX 61 43 17 45 49 46 29 47 48 48 30 49 33 50 47 51 66 52 31 53
REMARK SMILES IDX 32 54 46 56 67 57 34 58 18 59 19 60 27 61 20 62 22 63 28 64
REMARK SMILES IDX 21 65 23 66 24 67 25 68 26 69 50 70 51 71 59 72 52 73 54 74
REMARK SMILES IDX 60 75 53 76 55 77 56 78 57 79 58 80 35 81 36 82 44 83 37 84
REMARK SMILES IDX 39 85 45 86 38 87 40 88 41 89 42 90 43 91
REMARK H PARENT 65 44 33 55
REMARK Flexibility Score: inf
ROOT
ATOM      1  C   UNL A   1      31.490  31.856  26.699  1.00  0.00     0.275 C 
ENDROOT
BRANCH   1   2
ATOM      2  C   UNL A   1      32.317  30.069  25.793  1.00  0.00     0.275 C 
BRANCH   2   3
ATOM      3  O   UNL A   1      32.528  28.695  26.486  1.00  0.00    -0.459 OA
BRANCH   3   4
ATOM      4  C   UNL A   1      31.670  27.759  26.062  1.00  0.00     0.338 C 
ATOM      5  O   UNL A   1      30.949  27.035  26.699  1.00  0.00    -0.246 OA
BRANCH   4   6
ATOM      6  C   UNL A   1      32.212  27.677  24.728  1.00  0.00     0.087 C 
ATOM      7  C   UNL A   1      33.456  26.930  24.671  1.00  0.00     0.027 C 
ATOM      8  C   UNL A   1      30.559  27.185  23.871  1.00  0.00     0.316 C 
ATOM      9  C   UNL A   1      33.581  25.302  23.958  1.00  0.00     0.018 A 
ATOM     10  O   UNL A   1      30.651  25.379  23.166  1.00  0.00    -0.475 OA
ATOM     11  C   UNL A   1      34.769  24.657  24.107  1.00  0.00     0.025 A 
ATOM     12  C   UNL A   1      32.223  24.452  23.303  1.00  0.00     0.128 A 
ATOM     13  C   UNL A   1      34.778  23.303  23.724  1.00  0.00     0.056 A 
ATOM     14  C   UNL A   1      32.292  23.135  22.946  1.00  0.00     0.048 A 
ATOM     15  C   UNL A   1      33.597  22.591  23.182  1.00  0.00     0.017 A 
BRANCH   8  16
ATOM     16  C   UNL A   1      30.346  28.641  23.244  1.00  0.00     0.430 C 
ATOM     17  F   UNL A   1      31.444  29.050  22.592  1.00  0.00    -0.167 F 
ATOM     18  F   UNL A   1      29.402  28.573  22.252  1.00  0.00    -0.167 F 
ATOM     19  F   UNL A   1      29.851  29.605  24.031  1.00  0.00    -0.167 F 
ENDBRANCH   8  16
BRANCH  13  20
ATOM     20  C   UNL A   1      36.127  22.616  23.903  1.00  0.00     0.416 C 
ATOM     21  F   UNL A   1      35.991  21.315  24.280  1.00  0.00    -0.166 F 
ATOM     22  F   UNL A   1      36.844  22.583  22.740  1.00  0.00    -0.166 F 
ATOM     23  F   UNL A   1      36.935  23.202  24.822  1.00  0.00    -0.166 F 
ENDBRANCH  13  20
ENDBRANCH   4   6
ENDBRANCH   3   4
ENDBRANCH   2   3
ENDBRANCH   1   2
BRANCH   1  24
ATOM     24  O   UNL A   1      32.418  33.273  27.130  1.00  0.00    -0.458 OA
BRANCH  24  25
ATOM     25  C   UNL A   1      33.292  33.788  28.066  1.00  0.00     0.338 C 
ATOM     26  O   UNL A   1      33.083  34.560  28.987  1.00  0.00    -0.246 OA
BRANCH  25  27
ATOM     27  C   UNL A   1      34.487  32.881  28.058  1.00  0.00     0.060 A 
ATOM     28  C   UNL A   1      35.765  33.471  28.082  1.00  0.00     0.016 A 
ATOM     29  C   UNL A   1      34.332  31.553  28.449  1.00  0.00     0.016 A 
ATOM     30  C   UNL A   1      36.822  32.817  28.746  1.00  0.00     0.010 A 
ATOM     31  C   UNL A   1      35.388  30.904  29.094  1.00  0.00     0.010 A 
ATOM     32  C   UNL A   1      36.614  31.558  29.326  1.00  0.00    -0.014 A 
BRANCH  32  33
ATOM     33  C   UNL A   1      37.727  30.786  29.941  1.00  0.00     0.031 A 
ATOM     34  C   UNL A   1      37.996  31.104  31.380  1.00  0.00     0.074 A 
ATOM     35  C   UNL A   1      38.545  29.947  29.266  1.00  0.00     0.049 A 
ATOM     36  N   UNL A   1      38.963  30.708  32.157  1.00  0.00    -0.248 NA
ATOM     37  C   UNL A   1      37.051  32.044  32.010  1.00  0.00     0.031 C 
ATOM     38  C   UNL A   1      38.426  29.567  27.858  1.00  0.00     0.029 A 
ATOM     39  N   UNL A   1      39.683  29.285  29.682  1.00  0.00    -0.354 N 
ATOM     40  C   UNL A   1      38.760  31.376  33.356  1.00  0.00     0.074 A 
ATOM     41  C   UNL A   1      37.610  32.233  33.189  1.00  0.00     0.031 C 
ATOM     42  C   UNL A   1      39.458  28.765  27.524  1.00  0.00     0.029 A 
ATOM     43  C   UNL A   1      40.328  28.581  28.684  1.00  0.00     0.049 A 
ATOM     44  H   UNL A   1      40.006  29.313  30.612  1.00  0.00     0.167 HD
ATOM     45  C   UNL A   1      39.449  31.275  34.511  1.00  0.00     0.034 A 
ATOM     46  C   UNL A   1      41.486  27.881  28.714  1.00  0.00     0.034 A 
ATOM     47  C   UNL A   1      40.598  30.443  34.681  1.00  0.00     0.049 A 
ATOM     48  C   UNL A   1      42.256  27.795  30.020  1.00  0.00     0.074 A 
ATOM     49  C   UNL A   1      41.355  30.245  35.819  1.00  0.00     0.029 A 
ATOM     50  N   UNL A   1      41.171  29.685  33.672  1.00  0.00    -0.354 N 
ATOM     51  N   UNL A   1      41.963  28.309  31.191  1.00  0.00    -0.248 NA
ATOM     52  C   UNL A   1      43.500  27.004  30.017  1.00  0.00     0.031 C 
ATOM     53  C   UNL A   1      42.407  29.385  35.490  1.00  0.00     0.029 A 
ATOM     54  C   UNL A   1      42.277  29.018  34.159  1.00  0.00     0.049 A 
ATOM     55  H   UNL A   1      40.838  29.630  32.747  1.00  0.00     0.167 HD
ATOM     56  C   UNL A   1      42.951  27.865  32.068  1.00  0.00     0.074 A 
ATOM     57  C   UNL A   1      43.847  27.029  31.298  1.00  0.00     0.031 C 
ATOM     58  C   UNL A   1      43.111  28.132  33.389  1.00  0.00     0.034 A 
BRANCH  45  59
ATOM     59  C   UNL A   1      38.939  32.093  35.661  1.00  0.00     0.023 A 
ATOM     60  C   UNL A   1      39.264  33.465  35.732  1.00  0.00     0.012 A 
ATOM     61  C   UNL A   1      38.202  31.496  36.698  1.00  0.00     0.148 A 
ATOM     62  C   UNL A   1      38.915  34.217  36.851  1.00  0.00     0.002 A 
ATOM     63  C   UNL A   1      37.809  32.266  37.784  1.00  0.00     0.091 A 
ATOM     64  F   UNL A   1      37.936  30.184  36.622  1.00  0.00    -0.205 F 
ATOM     65  C   UNL A   1      38.182  33.619  37.872  1.00  0.00     0.022 A 
BRANCH  63  66
ATOM     66  S   UNL A   1      36.806  31.613  39.119  1.00  0.00     0.127 S 
ATOM     67  O   UNL A   1      36.432  30.300  38.592  1.00  0.00    -0.237 OA
ATOM     68  O   UNL A   1      37.763  31.575  40.224  1.00  0.00    -0.237 OA
ATOM     69  O   UNL A   1      35.705  32.548  39.294  1.00  0.00    -0.744 OA
ENDBRANCH  63  66
ENDBRANCH  45  59
BRANCH  46  70
ATOM     70  C   UNL A   1      41.998  27.146  27.509  1.00  0.00     0.023 A 
ATOM     71  C   UNL A   1      42.489  27.886  26.410  1.00  0.00     0.012 A 
ATOM     72  C   UNL A   1      41.940  25.742  27.403  1.00  0.00     0.148 A 
ATOM     73  C   UNL A   1      42.865  27.253  25.223  1.00  0.00     0.002 A 
ATOM     74  C   UNL A   1      42.362  25.112  26.232  1.00  0.00     0.091 A 
ATOM     75  F   UNL A   1      41.454  25.048  28.441  1.00  0.00    -0.205 F 
ATOM     76  C   UNL A   1      42.806  25.866  25.134  1.00  0.00     0.022 A 
BRANCH  74  77
ATOM     77  S   UNL A   1      42.406  23.323  26.044  1.00  0.00     0.127 S 
ATOM     78  O   UNL A   1      42.975  23.174  24.707  1.00  0.00    -0.237 OA
ATOM     79  O   UNL A   1      43.295  22.928  27.137  1.00  0.00    -0.237 OA
ATOM     80  O   UNL A   1      41.028  22.875  26.193  1.00  0.00    -0.744 OA
ENDBRANCH  74  77
ENDBRANCH  46  70
BRANCH  58  81
ATOM     81  C   UNL A   1      44.251  27.474  34.124  1.00  0.00     0.023 A 
ATOM     82  C   UNL A   1      45.438  28.190  34.373  1.00  0.00     0.012 A 
ATOM     83  C   UNL A   1      44.080  26.196  34.692  1.00  0.00     0.148 A 
ATOM     84  C   UNL A   1      46.443  27.635  35.164  1.00  0.00     0.002 A 
ATOM     85  C   UNL A   1      45.061  25.673  35.523  1.00  0.00     0.091 A 
ATOM     86  F   UNL A   1      42.947  25.527  34.429  1.00  0.00    -0.205 F 
ATOM     87  C   UNL A   1      46.249  26.386  35.752  1.00  0.00     0.022 A 
BRANCH  85  88
ATOM     88  S   UNL A   1      44.844  24.129  36.417  1.00  0.00     0.127 S 
ATOM     89  O   UNL A   1      46.161  23.512  36.270  1.00  0.00    -0.237 OA
ATOM     90  O   UNL A   1      44.536  24.596  37.770  1.00  0.00    -0.237 OA
ATOM     91  O   UNL A   1      43.751  23.430  35.755  1.00  0.00    -0.744 OA
ENDBRANCH  85  88
ENDBRANCH  58  81
ENDBRANCH  32  33
ENDBRANCH  25  27
ENDBRANCH  24  25
ENDBRANCH   1  24
TORSDOF 16
ENDMDL
