MODEL 1
REMARK VINA RESULT:     -12.5      0.000      0.000
REMARK SMILES Cc1[nH]c2c(C(=O)N3CC[C@H](O)C[C@@H]3C(=O)OCCOC(=O)c3ccc(-c4c5nc(c(-c6cccc(S(=O)(=O)[O-])c6F)c6ccc([nH]6)c(-c6cccc(S(=O)(=O)[O-])c6F)c6nc(c(-c7cccc(S(=O)(=O)[O-])c7F)c7ccc4[nH]7)C=C6)C=C5)cc3)cccc2c1C
REMARK SMILES IDX 19 1 18 2 17 3 15 4 16 5 14 6 8 7 9 8 10 9 13 10 11 11 6 12
REMARK SMILES IDX 7 13 5 14 1 15 2 16 3 17 90 18 4 19 89 21 91 22 88 23 86 24
REMARK SMILES IDX 87 25 12 26 20 28 21 29 22 30 23 31 24 32 85 33 25 34 84 35
REMARK SMILES IDX 26 36 27 37 28 38 78 39 29 40 83 41 77 42 79 43 30 44 82 45
REMARK SMILES IDX 76 46 75 47 31 49 63 50 43 51 62 52 44 53 47 54 61 55 80 56
REMARK SMILES IDX 45 57 46 58 60 60 81 61 48 62 32 63 33 64 41 65 34 66 36 67
REMARK SMILES IDX 42 68 35 69 37 70 38 71 39 72 40 73 64 74 65 75 73 76 66 77
REMARK SMILES IDX 68 78 74 79 67 80 69 81 70 82 71 83 72 84 49 85 50 86 58 87
REMARK SMILES IDX 51 88 53 89 59 90 52 91 54 92 55 93 56 94 57 95
REMARK H PARENT 3 20 12 27 79 48 47 59
REMARK Flexibility Score: inf
ROOT
ATOM      1  C   UNL A   1      37.327  21.151  24.394  1.00  0.00     0.275 C 
ENDROOT
BRANCH   1   2
ATOM      2  C   UNL A   1      36.648  22.292  23.633  1.00  0.00     0.274 C 
BRANCH   2   3
ATOM      3  O   UNL A   1      35.289  22.500  24.069  1.00  0.00    -0.461 OA
BRANCH   3   4
ATOM      4  C   UNL A   1      34.800  23.762  23.954  1.00  0.00     0.329 C 
ATOM      5  O   UNL A   1      35.118  24.682  24.700  1.00  0.00    -0.250 OA
BRANCH   4   6
ATOM      6  C   UNL A   1      33.708  23.902  22.878  1.00  0.00     0.198 C 
ATOM      7  N   UNL A   1      32.739  24.921  23.278  1.00  0.00    -0.325 N 
ATOM      8  C   UNL A   1      31.573  24.493  24.050  1.00  0.00     0.123 C 
ATOM      9  C   UNL A   1      30.886  23.288  23.412  1.00  0.00     0.053 C 
ATOM     10  C   UNL A   1      33.058  22.627  22.344  1.00  0.00     0.069 C 
ATOM     11  C   UNL A   1      31.870  22.144  23.164  1.00  0.00     0.118 C 
BRANCH   7  12
ATOM     12  C   UNL A   1      32.787  26.133  22.606  1.00  0.00     0.256 C 
ATOM     13  O   UNL A   1      33.567  26.315  21.673  1.00  0.00    -0.269 OA
BRANCH  12  14
ATOM     14  C   UNL A   1      31.975  27.270  23.117  1.00  0.00     0.064 A 
ATOM     15  C   UNL A   1      34.330  29.010  27.150  1.00  0.00     0.064 C 
ATOM     16  C   UNL A   1      33.328  28.954  26.057  1.00  0.00     0.016 A 
ATOM     17  N   UNL A   1      33.414  28.010  25.070  1.00  0.00    -0.358 N 
ATOM     18  C   UNL A   1      32.237  29.752  25.767  1.00  0.00    -0.023 A 
ATOM     19  C   UNL A   1      32.337  28.068  24.220  1.00  0.00     0.059 A 
ATOM     20  H   UNL A   1      34.157  27.370  24.979  1.00  0.00     0.166 HD
ATOM     21  C   UNL A   1      31.604  29.194  24.607  1.00  0.00     0.003 A 
ATOM     22  C   UNL A   1      31.795  30.966  26.502  1.00  0.00     0.047 C 
ATOM     23  C   UNL A   1      30.477  29.563  23.843  1.00  0.00     0.010 A 
ATOM     24  C   UNL A   1      30.849  27.673  22.376  1.00  0.00     0.016 A 
ATOM     25  C   UNL A   1      30.113  28.801  22.730  1.00  0.00     0.002 A 
ENDBRANCH  12  14
ENDBRANCH   7  12
BRANCH  11  26
ATOM     26  O   UNL A   1      32.284  21.586  24.404  1.00  0.00    -0.393 OA
ATOM     27  H   UNL A   1      33.202  21.280  24.331  1.00  0.00     0.210 HD
ENDBRANCH  11  26
ENDBRANCH   4   6
ENDBRANCH   3   4
ENDBRANCH   2   3
ENDBRANCH   1   2
BRANCH   1  28
ATOM     28  O   UNL A   1      37.644  21.526  25.744  1.00  0.00    -0.458 OA
BRANCH  28  29
ATOM     29  C   UNL A   1      38.909  21.247  26.135  1.00  0.00     0.338 C 
ATOM     30  O   UNL A   1      39.505  20.191  25.986  1.00  0.00    -0.246 OA
BRANCH  29  31
ATOM     31  C   UNL A   1      39.543  22.480  26.630  1.00  0.00     0.060 A 
ATOM     32  C   UNL A   1      39.102  23.707  26.128  1.00  0.00     0.016 A 
ATOM     33  C   UNL A   1      40.600  22.427  27.537  1.00  0.00     0.016 A 
ATOM     34  C   UNL A   1      39.727  24.889  26.504  1.00  0.00     0.010 A 
ATOM     35  C   UNL A   1      41.221  23.616  27.927  1.00  0.00     0.010 A 
ATOM     36  C   UNL A   1      40.797  24.850  27.400  1.00  0.00    -0.014 A 
BRANCH  36  37
ATOM     37  C   UNL A   1      41.502  26.102  27.748  1.00  0.00     0.031 A 
ATOM     38  C   UNL A   1      40.783  27.161  28.531  1.00  0.00     0.074 A 
ATOM     39  C   UNL A   1      42.776  26.280  27.353  1.00  0.00     0.049 A 
ATOM     40  N   UNL A   1      41.186  28.359  28.858  1.00  0.00    -0.248 NA
ATOM     41  C   UNL A   1      39.429  26.828  29.004  1.00  0.00     0.031 C 
ATOM     42  C   UNL A   1      43.574  25.304  26.610  1.00  0.00     0.029 A 
ATOM     43  N   UNL A   1      43.614  27.355  27.502  1.00  0.00    -0.354 N 
ATOM     44  C   UNL A   1      40.121  28.943  29.532  1.00  0.00     0.074 A 
ATOM     45  C   UNL A   1      39.056  27.965  29.574  1.00  0.00     0.031 C 
ATOM     46  C   UNL A   1      44.778  25.834  26.345  1.00  0.00     0.029 A 
ATOM     47  C   UNL A   1      44.822  27.197  26.867  1.00  0.00     0.049 A 
ATOM     48  H   UNL A   1      43.373  28.161  28.014  1.00  0.00     0.167 HD
ATOM     49  C   UNL A   1      40.047  30.180  30.075  1.00  0.00     0.034 A 
ATOM     50  C   UNL A   1      45.837  28.067  26.700  1.00  0.00     0.034 A 
ATOM     51  C   UNL A   1      41.127  31.128  30.063  1.00  0.00     0.049 A 
ATOM     52  C   UNL A   1      45.721  29.439  27.306  1.00  0.00     0.074 A 
ATOM     53  C   UNL A   1      41.171  32.391  30.625  1.00  0.00     0.029 A 
ATOM     54  N   UNL A   1      42.355  30.918  29.453  1.00  0.00    -0.354 N 
ATOM     55  N   UNL A   1      44.746  29.946  28.022  1.00  0.00    -0.248 NA
ATOM     56  C   UNL A   1      46.854  30.353  27.102  1.00  0.00     0.031 C 
ATOM     57  C   UNL A   1      42.422  32.951  30.341  1.00  0.00     0.029 A 
ATOM     58  C   UNL A   1      43.162  32.030  29.615  1.00  0.00     0.049 A 
ATOM     59  H   UNL A   1      42.614  30.098  28.974  1.00  0.00     0.167 HD
ATOM     60  C   UNL A   1      45.159  31.224  28.381  1.00  0.00     0.074 A 
ATOM     61  C   UNL A   1      46.483  31.406  27.819  1.00  0.00     0.031 C 
ATOM     62  C   UNL A   1      44.498  32.168  29.094  1.00  0.00     0.034 A 
BRANCH  49  63
ATOM     63  C   UNL A   1      38.758  30.573  30.746  1.00  0.00     0.023 A 
ATOM     64  C   UNL A   1      38.555  30.257  32.104  1.00  0.00     0.012 A 
ATOM     65  C   UNL A   1      37.773  31.297  30.048  1.00  0.00     0.148 A 
ATOM     66  C   UNL A   1      37.376  30.633  32.750  1.00  0.00     0.002 A 
ATOM     67  C   UNL A   1      36.619  31.702  30.709  1.00  0.00     0.091 A 
ATOM     68  F   UNL A   1      37.974  31.563  28.749  1.00  0.00    -0.205 F 
ATOM     69  C   UNL A   1      36.415  31.363  32.057  1.00  0.00     0.022 A 
BRANCH  67  70
ATOM     70  S   UNL A   1      35.354  32.703  29.918  1.00  0.00     0.127 S 
ATOM     71  O   UNL A   1      34.403  32.896  31.012  1.00  0.00    -0.237 OA
ATOM     72  O   UNL A   1      36.101  33.904  29.541  1.00  0.00    -0.237 OA
ATOM     73  O   UNL A   1      34.866  31.916  28.794  1.00  0.00    -0.744 OA
ENDBRANCH  67  70
ENDBRANCH  49  63
BRANCH  50  74
ATOM     74  C   UNL A   1      47.060  27.650  25.958  1.00  0.00     0.023 A 
ATOM     75  C   UNL A   1      48.082  26.966  26.643  1.00  0.00     0.012 A 
ATOM     76  C   UNL A   1      47.203  27.897  24.579  1.00  0.00     0.148 A 
ATOM     77  C   UNL A   1      49.235  26.555  25.973  1.00  0.00     0.002 A 
ATOM     78  C   UNL A   1      48.331  27.439  23.906  1.00  0.00     0.091 A 
ATOM     79  F   UNL A   1      46.230  28.569  23.948  1.00  0.00    -0.205 F 
ATOM     80  C   UNL A   1      49.355  26.781  24.604  1.00  0.00     0.022 A 
BRANCH  78  81
ATOM     81  S   UNL A   1      48.504  27.576  22.123  1.00  0.00     0.127 S 
ATOM     82  O   UNL A   1      49.716  28.383  22.001  1.00  0.00    -0.237 OA
ATOM     83  O   UNL A   1      48.653  26.177  21.720  1.00  0.00    -0.237 OA
ATOM     84  O   UNL A   1      47.272  28.203  21.660  1.00  0.00    -0.744 OA
ENDBRANCH  78  81
ENDBRANCH  50  74
BRANCH  62  85
ATOM     85  C   UNL A   1      45.204  33.476  29.336  1.00  0.00     0.023 A 
ATOM     86  C   UNL A   1      46.008  33.631  30.481  1.00  0.00     0.012 A 
ATOM     87  C   UNL A   1      45.133  34.518  28.391  1.00  0.00     0.148 A 
ATOM     88  C   UNL A   1      46.710  34.816  30.697  1.00  0.00     0.002 A 
ATOM     89  C   UNL A   1      45.869  35.679  28.590  1.00  0.00     0.091 A 
ATOM     90  F   UNL A   1      44.344  34.358  27.318  1.00  0.00    -0.205 F 
ATOM     91  C   UNL A   1      46.650  35.833  29.748  1.00  0.00     0.022 A 
BRANCH  89  92
ATOM     92  S   UNL A   1      45.926  36.998  27.373  1.00  0.00     0.127 S 
ATOM     93  O   UNL A   1      44.538  37.456  27.364  1.00  0.00    -0.237 OA
ATOM     94  O   UNL A   1      46.875  37.937  27.972  1.00  0.00    -0.237 OA
ATOM     95  O   UNL A   1      46.392  36.380  26.138  1.00  0.00    -0.744 OA
ENDBRANCH  89  92
ENDBRANCH  62  85
ENDBRANCH  36  37
ENDBRANCH  29  31
ENDBRANCH  28  29
ENDBRANCH   1  28
TORSDOF 17
ENDMDL
MODEL 2
REMARK VINA RESULT:     -12.4      1.398      3.422
REMARK SMILES Cc1[nH]c2c(C(=O)N3CC[C@H](O)C[C@@H]3C(=O)OCCOC(=O)c3ccc(-c4c5nc(c(-c6cccc(S(=O)(=O)[O-])c6F)c6ccc([nH]6)c(-c6cccc(S(=O)(=O)[O-])c6F)c6nc(c(-c7cccc(S(=O)(=O)[O-])c7F)c7ccc4[nH]7)C=C6)C=C5)cc3)cccc2c1C
REMARK SMILES IDX 19 1 18 2 17 3 15 4 16 5 14 6 8 7 9 8 10 9 13 10 11 11 6 12
REMARK SMILES IDX 7 13 5 14 1 15 2 16 3 17 90 18 4 19 89 21 91 22 88 23 86 24
REMARK SMILES IDX 87 25 12 26 20 28 21 29 22 30 23 31 24 32 85 33 25 34 84 35
REMARK SMILES IDX 26 36 27 37 28 38 78 39 29 40 83 41 77 42 79 43 30 44 82 45
REMARK SMILES IDX 76 46 75 47 31 49 63 50 43 51 62 52 44 53 47 54 61 55 80 56
REMARK SMILES IDX 45 57 46 58 60 60 81 61 48 62 32 63 33 64 41 65 34 66 36 67
REMARK SMILES IDX 42 68 35 69 37 70 38 71 39 72 40 73 64 74 65 75 73 76 66 77
REMARK SMILES IDX 68 78 74 79 67 80 69 81 70 82 71 83 72 84 49 85 50 86 58 87
REMARK SMILES IDX 51 88 53 89 59 90 52 91 54 92 55 93 56 94 57 95
REMARK H PARENT 3 20 12 27 79 48 47 59
REMARK Flexibility Score: inf
ROOT
ATOM      1  C   UNL A   1      36.576  21.398  24.441  1.00  0.00     0.275 C 
ENDROOT
BRANCH   1   2
ATOM      2  C   UNL A   1      36.414  22.605  23.514  1.00  0.00     0.274 C 
BRANCH   2   3
ATOM      3  O   UNL A   1      35.534  23.602  24.071  1.00  0.00    -0.461 OA
BRANCH   3   4
ATOM      4  C   UNL A   1      34.506  24.014  23.285  1.00  0.00     0.329 C 
ATOM      5  O   UNL A   1      34.373  23.678  22.113  1.00  0.00    -0.250 OA
BRANCH   4   6
ATOM      6  C   UNL A   1      33.589  25.047  23.963  1.00  0.00     0.198 C 
ATOM      7  N   UNL A   1      32.197  24.611  23.881  1.00  0.00    -0.325 N 
ATOM      8  C   UNL A   1      31.409  25.041  22.726  1.00  0.00     0.123 C 
ATOM      9  C   UNL A   1      31.540  26.543  22.483  1.00  0.00     0.053 C 
ATOM     10  C   UNL A   1      33.782  26.521  23.608  1.00  0.00     0.069 C 
ATOM     11  C   UNL A   1      33.003  26.972  22.382  1.00  0.00     0.118 C 
BRANCH   7  12
ATOM     12  C   UNL A   1      31.615  24.141  25.049  1.00  0.00     0.256 C 
ATOM     13  O   UNL A   1      30.668  24.726  25.571  1.00  0.00    -0.269 OA
BRANCH  12  14
ATOM     14  C   UNL A   1      32.241  22.988  25.750  1.00  0.00     0.064 A 
ATOM     15  C   UNL A   1      32.174  19.165  22.552  1.00  0.00     0.064 C 
ATOM     16  C   UNL A   1      32.499  19.924  23.785  1.00  0.00     0.016 A 
ATOM     17  N   UNL A   1      32.163  21.245  23.909  1.00  0.00    -0.358 N 
ATOM     18  C   UNL A   1      33.173  19.564  24.938  1.00  0.00    -0.023 A 
ATOM     19  C   UNL A   1      32.461  21.727  25.160  1.00  0.00     0.059 A 
ATOM     20  H   UNL A   1      31.758  21.783  23.190  1.00  0.00     0.166 HD
ATOM     21  C   UNL A   1      33.148  20.700  25.813  1.00  0.00     0.003 A 
ATOM     22  C   UNL A   1      33.812  18.254  25.228  1.00  0.00     0.047 C 
ATOM     23  C   UNL A   1      33.668  20.946  27.101  1.00  0.00     0.010 A 
ATOM     24  C   UNL A   1      32.780  23.197  27.032  1.00  0.00     0.016 A 
ATOM     25  C   UNL A   1      33.483  22.196  27.697  1.00  0.00     0.002 A 
ENDBRANCH  12  14
ENDBRANCH   7  12
BRANCH  11  26
ATOM     26  O   UNL A   1      33.574  26.460  21.184  1.00  0.00    -0.393 OA
ATOM     27  H   UNL A   1      34.023  25.621  21.373  1.00  0.00     0.210 HD
ENDBRANCH  11  26
ENDBRANCH   4   6
ENDBRANCH   3   4
ENDBRANCH   2   3
ENDBRANCH   1   2
BRANCH   1  28
ATOM     28  O   UNL A   1      37.109  21.779  25.721  1.00  0.00    -0.458 OA
BRANCH  28  29
ATOM     29  C   UNL A   1      38.404  21.443  25.924  1.00  0.00     0.338 C 
ATOM     30  O   UNL A   1      38.951  20.402  25.594  1.00  0.00    -0.246 OA
BRANCH  29  31
ATOM     31  C   UNL A   1      39.124  22.607  26.466  1.00  0.00     0.060 A 
ATOM     32  C   UNL A   1      38.681  23.888  26.122  1.00  0.00     0.016 A 
ATOM     33  C   UNL A   1      40.259  22.443  27.258  1.00  0.00     0.016 A 
ATOM     34  C   UNL A   1      39.378  25.013  26.543  1.00  0.00     0.010 A 
ATOM     35  C   UNL A   1      40.954  23.574  27.693  1.00  0.00     0.010 A 
ATOM     36  C   UNL A   1      40.526  24.863  27.323  1.00  0.00    -0.014 A 
BRANCH  36  37
ATOM     37  C   UNL A   1      41.303  26.058  27.715  1.00  0.00     0.031 A 
ATOM     38  C   UNL A   1      40.650  27.125  28.542  1.00  0.00     0.074 A 
ATOM     39  C   UNL A   1      42.583  26.178  27.317  1.00  0.00     0.049 A 
ATOM     40  N   UNL A   1      41.122  28.284  28.912  1.00  0.00    -0.248 NA
ATOM     41  C   UNL A   1      39.281  26.852  29.011  1.00  0.00     0.031 C 
ATOM     42  C   UNL A   1      43.320  25.187  26.532  1.00  0.00     0.029 A 
ATOM     43  N   UNL A   1      43.482  27.196  27.501  1.00  0.00    -0.354 N 
ATOM     44  C   UNL A   1      40.095  28.902  29.615  1.00  0.00     0.074 A 
ATOM     45  C   UNL A   1      38.976  27.985  29.627  1.00  0.00     0.031 C 
ATOM     46  C   UNL A   1      44.551  25.658  26.279  1.00  0.00     0.029 A 
ATOM     47  C   UNL A   1      44.676  26.994  26.852  1.00  0.00     0.049 A 
ATOM     48  H   UNL A   1      43.290  27.994  28.046  1.00  0.00     0.167 HD
ATOM     49  C   UNL A   1      40.095  30.120  30.205  1.00  0.00     0.034 A 
ATOM     50  C   UNL A   1      45.739  27.811  26.713  1.00  0.00     0.034 A 
ATOM     51  C   UNL A   1      41.228  31.004  30.222  1.00  0.00     0.049 A 
ATOM     52  C   UNL A   1      45.704  29.163  27.371  1.00  0.00     0.074 A 
ATOM     53  C   UNL A   1      41.346  32.239  30.832  1.00  0.00     0.029 A 
ATOM     54  N   UNL A   1      42.438  30.748  29.596  1.00  0.00    -0.354 N 
ATOM     55  N   UNL A   1      44.763  29.696  28.113  1.00  0.00    -0.248 NA
ATOM     56  C   UNL A   1      46.886  30.018  27.194  1.00  0.00     0.031 C 
ATOM     57  C   UNL A   1      42.626  32.738  30.560  1.00  0.00     0.029 A 
ATOM     58  C   UNL A   1      43.308  31.805  29.795  1.00  0.00     0.049 A 
ATOM     59  H   UNL A   1      42.648  29.933  29.084  1.00  0.00     0.167 HD
ATOM     60  C   UNL A   1      45.250  30.934  28.517  1.00  0.00     0.074 A 
ATOM     61  C   UNL A   1      46.579  31.062  27.954  1.00  0.00     0.031 C 
ATOM     62  C   UNL A   1      44.648  31.886  29.271  1.00  0.00     0.034 A 
BRANCH  49  63
ATOM     63  C   UNL A   1      38.834  30.559  30.899  1.00  0.00     0.023 A 
ATOM     64  C   UNL A   1      38.699  30.365  32.289  1.00  0.00     0.012 A 
ATOM     65  C   UNL A   1      37.807  31.207  30.188  1.00  0.00     0.148 A 
ATOM     66  C   UNL A   1      37.547  30.787  32.954  1.00  0.00     0.002 A 
ATOM     67  C   UNL A   1      36.680  31.659  30.865  1.00  0.00     0.091 A 
ATOM     68  F   UNL A   1      37.943  31.356  28.862  1.00  0.00    -0.205 F 
ATOM     69  C   UNL A   1      36.545  31.442  32.245  1.00  0.00     0.022 A 
BRANCH  67  70
ATOM     70  S   UNL A   1      35.365  32.572  30.048  1.00  0.00     0.127 S 
ATOM     71  O   UNL A   1      36.083  33.748  29.557  1.00  0.00    -0.237 OA
ATOM     72  O   UNL A   1      34.940  31.637  29.005  1.00  0.00    -0.237 OA
ATOM     73  O   UNL A   1      34.363  32.832  31.072  1.00  0.00    -0.744 OA
ENDBRANCH  67  70
ENDBRANCH  49  63
BRANCH  50  74
ATOM     74  C   UNL A   1      46.932  27.354  25.947  1.00  0.00     0.023 A 
ATOM     75  C   UNL A   1      47.857  26.489  26.563  1.00  0.00     0.012 A 
ATOM     76  C   UNL A   1      47.139  27.741  24.608  1.00  0.00     0.148 A 
ATOM     77  C   UNL A   1      48.980  26.038  25.868  1.00  0.00     0.002 A 
ATOM     78  C   UNL A   1      48.232  27.245  23.905  1.00  0.00     0.091 A 
ATOM     79  F   UNL A   1      46.261  28.582  24.045  1.00  0.00    -0.205 F 
ATOM     80  C   UNL A   1      49.162  26.405  24.538  1.00  0.00     0.022 A 
BRANCH  78  81
ATOM     81  S   UNL A   1      48.470  27.568  22.154  1.00  0.00     0.127 S 
ATOM     82  O   UNL A   1      49.602  28.491  22.170  1.00  0.00    -0.237 OA
ATOM     83  O   UNL A   1      48.771  26.233  21.633  1.00  0.00    -0.237 OA
ATOM     84  O   UNL A   1      47.205  28.120  21.685  1.00  0.00    -0.744 OA
ENDBRANCH  78  81
ENDBRANCH  50  74
BRANCH  62  85
ATOM     85  C   UNL A   1      45.429  33.141  29.557  1.00  0.00     0.023 A 
ATOM     86  C   UNL A   1      46.267  33.196  30.687  1.00  0.00     0.012 A 
ATOM     87  C   UNL A   1      45.391  34.232  28.667  1.00  0.00     0.148 A 
ATOM     88  C   UNL A   1      47.037  34.331  30.942  1.00  0.00     0.002 A 
ATOM     89  C   UNL A   1      46.194  35.341  28.903  1.00  0.00     0.091 A 
ATOM     90  F   UNL A   1      44.570  34.167  27.608  1.00  0.00    -0.205 F 
ATOM     91  C   UNL A   1      47.009  35.396  30.046  1.00  0.00     0.022 A 
BRANCH  89  92
ATOM     92  S   UNL A   1      46.292  36.715  27.751  1.00  0.00     0.127 S 
ATOM     93  O   UNL A   1      44.934  37.252  27.809  1.00  0.00    -0.237 OA
ATOM     94  O   UNL A   1      47.312  37.567  28.364  1.00  0.00    -0.237 OA
ATOM     95  O   UNL A   1      46.684  36.134  26.472  1.00  0.00    -0.744 OA
ENDBRANCH  89  92
ENDBRANCH  62  85
ENDBRANCH  36  37
ENDBRANCH  29  31
ENDBRANCH  28  29
ENDBRANCH   1  28
TORSDOF 17
ENDMDL
MODEL 3
REMARK VINA RESULT:     -12.4      1.175      1.822
REMARK SMILES Cc1[nH]c2c(C(=O)N3CC[C@H](O)C[C@@H]3C(=O)OCCOC(=O)c3ccc(-c4c5nc(c(-c6cccc(S(=O)(=O)[O-])c6F)c6ccc([nH]6)c(-c6cccc(S(=O)(=O)[O-])c6F)c6nc(c(-c7cccc(S(=O)(=O)[O-])c7F)c7ccc4[nH]7)C=C6)C=C5)cc3)cccc2c1C
REMARK SMILES IDX 19 1 18 2 17 3 15 4 16 5 14 6 8 7 9 8 10 9 13 10 11 11 6 12
REMARK SMILES IDX 7 13 5 14 1 15 2 16 3 17 90 18 4 19 89 21 91 22 88 23 86 24
REMARK SMILES IDX 87 25 12 26 20 28 21 29 22 30 23 31 24 32 85 33 25 34 84 35
REMARK SMILES IDX 26 36 27 37 28 38 78 39 29 40 83 41 77 42 79 43 30 44 82 45
REMARK SMILES IDX 76 46 75 47 31 49 63 50 43 51 62 52 44 53 47 54 61 55 80 56
REMARK SMILES IDX 45 57 46 58 60 60 81 61 48 62 32 63 33 64 41 65 34 66 36 67
REMARK SMILES IDX 42 68 35 69 37 70 38 71 39 72 40 73 64 74 65 75 73 76 66 77
REMARK SMILES IDX 68 78 74 79 67 80 69 81 70 82 71 83 72 84 49 85 50 86 58 87
REMARK SMILES IDX 51 88 53 89 59 90 52 91 54 92 55 93 56 94 57 95
REMARK H PARENT 3 20 12 27 79 48 47 59
REMARK Flexibility Score: inf
ROOT
ATOM      1  C   UNL A   1      36.654  20.730  24.814  1.00  0.00     0.275 C 
ENDROOT
BRANCH   1   2
ATOM      2  C   UNL A   1      35.139  20.653  25.019  1.00  0.00     0.274 C 
BRANCH   2   3
ATOM      3  O   UNL A   1      34.434  21.619  24.214  1.00  0.00    -0.461 OA
BRANCH   3   4
ATOM      4  C   UNL A   1      33.081  21.501  24.169  1.00  0.00     0.329 C 
ATOM      5  O   UNL A   1      32.500  20.435  23.999  1.00  0.00    -0.250 OA
BRANCH   4   6
ATOM      6  C   UNL A   1      32.345  22.851  24.223  1.00  0.00     0.198 C 
ATOM      7  N   UNL A   1      33.270  23.938  23.908  1.00  0.00    -0.325 N 
ATOM      8  C   UNL A   1      33.990  24.570  25.013  1.00  0.00     0.123 C 
ATOM      9  C   UNL A   1      33.048  24.950  26.154  1.00  0.00     0.053 C 
ATOM     10  C   UNL A   1      31.464  23.141  25.437  1.00  0.00     0.069 C 
ATOM     11  C   UNL A   1      32.208  23.757  26.613  1.00  0.00     0.118 C 
BRANCH   7  12
ATOM     12  C   UNL A   1      33.136  24.538  22.664  1.00  0.00     0.256 C 
ATOM     13  O   UNL A   1      33.323  23.905  21.627  1.00  0.00    -0.269 OA
BRANCH  12  14
ATOM     14  C   UNL A   1      32.896  26.005  22.596  1.00  0.00     0.064 A 
ATOM     15  C   UNL A   1      28.134  26.735  23.876  1.00  0.00     0.064 C 
ATOM     16  C   UNL A   1      29.534  27.078  23.523  1.00  0.00     0.016 A 
ATOM     17  N   UNL A   1      30.481  26.103  23.365  1.00  0.00    -0.358 N 
ATOM     18  C   UNL A   1      30.166  28.295  23.339  1.00  0.00    -0.023 A 
ATOM     19  C   UNL A   1      31.678  26.625  22.941  1.00  0.00     0.059 A 
ATOM     20  H   UNL A   1      30.323  25.146  23.535  1.00  0.00     0.166 HD
ATOM     21  C   UNL A   1      31.522  28.013  22.967  1.00  0.00     0.003 A 
ATOM     22  C   UNL A   1      29.568  29.646  23.499  1.00  0.00     0.047 C 
ATOM     23  C   UNL A   1      32.635  28.825  22.666  1.00  0.00     0.010 A 
ATOM     24  C   UNL A   1      33.984  26.847  22.308  1.00  0.00     0.016 A 
ATOM     25  C   UNL A   1      33.860  28.234  22.344  1.00  0.00     0.002 A 
ENDBRANCH  12  14
ENDBRANCH   7  12
BRANCH  11  26
ATOM     26  O   UNL A   1      33.039  22.803  27.262  1.00  0.00    -0.393 OA
ATOM     27  H   UNL A   1      33.613  22.375  26.607  1.00  0.00     0.210 HD
ENDBRANCH  11  26
ENDBRANCH   4   6
ENDBRANCH   3   4
ENDBRANCH   2   3
ENDBRANCH   1   2
BRANCH   1  28
ATOM     28  O   UNL A   1      37.298  21.457  25.873  1.00  0.00    -0.458 OA
BRANCH  28  29
ATOM     29  C   UNL A   1      38.621  21.207  26.016  1.00  0.00     0.338 C 
ATOM     30  O   UNL A   1      39.218  20.202  25.663  1.00  0.00    -0.246 OA
BRANCH  29  31
ATOM     31  C   UNL A   1      39.288  22.419  26.521  1.00  0.00     0.060 A 
ATOM     32  C   UNL A   1      38.816  23.666  26.102  1.00  0.00     0.016 A 
ATOM     33  C   UNL A   1      40.401  22.330  27.355  1.00  0.00     0.016 A 
ATOM     34  C   UNL A   1      39.465  24.832  26.487  1.00  0.00     0.010 A 
ATOM     35  C   UNL A   1      41.047  23.502  27.754  1.00  0.00     0.010 A 
ATOM     36  C   UNL A   1      40.592  24.757  27.308  1.00  0.00    -0.014 A 
BRANCH  36  37
ATOM     37  C   UNL A   1      41.319  25.994  27.663  1.00  0.00     0.031 A 
ATOM     38  C   UNL A   1      40.624  27.055  28.464  1.00  0.00     0.074 A 
ATOM     39  C   UNL A   1      42.592  26.156  27.258  1.00  0.00     0.049 A 
ATOM     40  N   UNL A   1      41.049  28.243  28.800  1.00  0.00    -0.248 NA
ATOM     41  C   UNL A   1      39.269  26.738  28.945  1.00  0.00     0.031 C 
ATOM     42  C   UNL A   1      43.367  25.176  26.497  1.00  0.00     0.029 A 
ATOM     43  N   UNL A   1      43.448  27.216  27.410  1.00  0.00    -0.354 N 
ATOM     44  C   UNL A   1      39.999  28.837  29.490  1.00  0.00     0.074 A 
ATOM     45  C   UNL A   1      38.919  27.875  29.531  1.00  0.00     0.031 C 
ATOM     46  C   UNL A   1      44.577  25.690  26.227  1.00  0.00     0.029 A 
ATOM     47  C   UNL A   1      44.648  27.046  26.762  1.00  0.00     0.049 A 
ATOM     48  H   UNL A   1      43.225  28.020  27.933  1.00  0.00     0.167 HD
ATOM     49  C   UNL A   1      39.949  30.069  30.046  1.00  0.00     0.034 A 
ATOM     50  C   UNL A   1      45.675  27.902  26.596  1.00  0.00     0.034 A 
ATOM     51  C   UNL A   1      41.044  31.000  30.034  1.00  0.00     0.049 A 
ATOM     52  C   UNL A   1      45.585  29.269  27.217  1.00  0.00     0.074 A 
ATOM     53  C   UNL A   1      41.112  32.256  30.609  1.00  0.00     0.029 A 
ATOM     54  N   UNL A   1      42.263  30.777  29.410  1.00  0.00    -0.354 N 
ATOM     55  N   UNL A   1      44.625  29.783  27.948  1.00  0.00    -0.248 NA
ATOM     56  C   UNL A   1      46.730  30.168  27.012  1.00  0.00     0.031 C 
ATOM     57  C   UNL A   1      42.369  32.799  30.319  1.00  0.00     0.029 A 
ATOM     58  C   UNL A   1      43.088  31.875  29.577  1.00  0.00     0.049 A 
ATOM     59  H   UNL A   1      42.505  29.958  28.920  1.00  0.00     0.167 HD
ATOM     60  C   UNL A   1      45.061  31.051  28.315  1.00  0.00     0.074 A 
ATOM     61  C   UNL A   1      46.382  31.218  27.744  1.00  0.00     0.031 C 
ATOM     62  C   UNL A   1      44.422  31.998  29.045  1.00  0.00     0.034 A 
BRANCH  49  63
ATOM     63  C   UNL A   1      38.673  30.474  30.733  1.00  0.00     0.023 A 
ATOM     64  C   UNL A   1      38.483  30.161  32.094  1.00  0.00     0.012 A 
ATOM     65  C   UNL A   1      37.686  31.208  30.047  1.00  0.00     0.148 A 
ATOM     66  C   UNL A   1      37.317  30.549  32.754  1.00  0.00     0.002 A 
ATOM     67  C   UNL A   1      36.545  31.624  30.723  1.00  0.00     0.091 A 
ATOM     68  F   UNL A   1      37.874  31.471  28.746  1.00  0.00    -0.205 F 
ATOM     69  C   UNL A   1      36.354  31.288  32.073  1.00  0.00     0.022 A 
BRANCH  67  70
ATOM     70  S   UNL A   1      35.280  32.638  29.947  1.00  0.00     0.127 S 
ATOM     71  O   UNL A   1      34.362  32.869  31.062  1.00  0.00    -0.237 OA
ATOM     72  O   UNL A   1      36.041  33.816  29.529  1.00  0.00    -0.237 OA
ATOM     73  O   UNL A   1      34.746  31.842  28.850  1.00  0.00    -0.744 OA
ENDBRANCH  67  70
ENDBRANCH  49  63
BRANCH  50  74
ATOM     74  C   UNL A   1      46.884  27.474  25.838  1.00  0.00     0.023 A 
ATOM     75  C   UNL A   1      47.848  26.669  26.476  1.00  0.00     0.012 A 
ATOM     76  C   UNL A   1      47.069  27.830  24.488  1.00  0.00     0.148 A 
ATOM     77  C   UNL A   1      48.986  26.246  25.788  1.00  0.00     0.002 A 
ATOM     78  C   UNL A   1      48.180  27.361  23.795  1.00  0.00     0.091 A 
ATOM     79  F   UNL A   1      46.154  28.615  23.904  1.00  0.00    -0.205 F 
ATOM     80  C   UNL A   1      49.148  26.581  24.447  1.00  0.00     0.022 A 
BRANCH  78  81
ATOM     81  S   UNL A   1      48.398  27.642  22.033  1.00  0.00     0.127 S 
ATOM     82  O   UNL A   1      49.555  28.533  22.012  1.00  0.00    -0.237 OA
ATOM     83  O   UNL A   1      48.654  26.289  21.536  1.00  0.00    -0.237 OA
ATOM     84  O   UNL A   1      47.141  28.218  21.573  1.00  0.00    -0.744 OA
ENDBRANCH  78  81
ENDBRANCH  50  74
BRANCH  62  85
ATOM     85  C   UNL A   1      45.150  33.292  29.293  1.00  0.00     0.023 A 
ATOM     86  C   UNL A   1      45.977  33.417  30.426  1.00  0.00     0.012 A 
ATOM     87  C   UNL A   1      45.076  34.349  28.367  1.00  0.00     0.148 A 
ATOM     88  C   UNL A   1      46.700  34.590  30.648  1.00  0.00     0.002 A 
ATOM     89  C   UNL A   1      45.832  35.497  28.570  1.00  0.00     0.091 A 
ATOM     90  F   UNL A   1      44.265  34.217  27.306  1.00  0.00    -0.205 F 
ATOM     91  C   UNL A   1      46.637  35.622  29.715  1.00  0.00     0.022 A 
BRANCH  89  92
ATOM     92  S   UNL A   1      45.885  36.834  27.373  1.00  0.00     0.127 S 
ATOM     93  O   UNL A   1      46.807  37.772  28.012  1.00  0.00    -0.237 OA
ATOM     94  O   UNL A   1      46.417  36.170  26.183  1.00  0.00    -0.237 OA
ATOM     95  O   UNL A   1      44.510  37.299  27.236  1.00  0.00    -0.744 OA
ENDBRANCH  89  92
ENDBRANCH  62  85
ENDBRANCH  36  37
ENDBRANCH  29  31
ENDBRANCH  28  29
ENDBRANCH   1  28
TORSDOF 17
ENDMDL
