MODEL 1
REMARK VINA RESULT:     -12.1      0.000      0.000
REMARK SMILES Cc1ccc(N)cc1S(=O)(=O)Nc1cccc(C(=O)OCCOC(=O)c2ccc(-c3c4nc(c(-c5cccc(S(=O)(=O)[O-])c5F)c5ccc([nH]5)c(-c5cccc(S(=O)(=O)[O-])c5F)c5nc(c(-c6cccc(S(=O)(=O)[O-])c6F)c6ccc3[nH]6)C=C5)C=C4)cc2)c1
REMARK SMILES IDX 21 1 20 2 18 3 19 4 17 5 13 6 14 7 89 8 15 9 16 10 12 11
REMARK SMILES IDX 9 13 10 14 11 15 8 16 1 17 2 18 3 19 4 20 7 21 5 22 6 23
REMARK SMILES IDX 22 26 23 27 24 28 25 29 26 30 27 31 88 32 28 33 87 34 29 35
REMARK SMILES IDX 30 36 31 37 81 38 32 39 86 40 80 41 82 42 33 43 85 44 79 45
REMARK SMILES IDX 78 46 34 48 66 49 46 50 65 51 47 52 50 53 64 54 83 55 48 56
REMARK SMILES IDX 49 57 63 59 84 60 51 61 35 62 36 63 44 64 37 65 39 66 45 67
REMARK SMILES IDX 38 68 40 69 41 70 42 71 43 72 67 73 68 74 76 75 69 76 71 77
REMARK SMILES IDX 77 78 70 79 72 80 73 81 74 82 75 83 52 84 53 85 61 86 54 87
REMARK SMILES IDX 56 88 62 89 55 90 57 91 58 92 59 93 60 94
REMARK H PARENT 12 12 6 24 6 25 82 47 50 58
REMARK Flexibility Score: inf
ROOT
ATOM      1  C   UNL A   1      34.887  20.680  24.915  1.00  0.00     0.275 C 
ENDROOT
BRANCH   1   2
ATOM      2  O   UNL A   1      34.306  21.694  24.073  1.00  0.00    -0.458 OA
BRANCH   2   3
ATOM      3  C   UNL A   1      33.067  21.413  23.615  1.00  0.00     0.338 C 
ATOM      4  O   UNL A   1      32.481  20.342  23.689  1.00  0.00    -0.246 OA
BRANCH   3   5
ATOM      5  C   UNL A   1      32.468  22.584  22.947  1.00  0.00     0.062 A 
ATOM      6  C   UNL A   1      30.977  24.419  23.235  1.00  0.00     0.050 A 
ATOM      7  C   UNL A   1      31.689  25.165  22.285  1.00  0.00     0.027 A 
ATOM      8  C   UNL A   1      31.266  23.076  23.449  1.00  0.00     0.042 A 
ATOM      9  C   UNL A   1      32.830  24.635  21.699  1.00  0.00     0.003 A 
ATOM     10  C   UNL A   1      33.250  23.368  22.086  1.00  0.00     0.016 A 
BRANCH   6  11
ATOM     11  N   UNL A   1      30.170  25.174  24.120  1.00  0.00    -0.280 N 
ATOM     12  H   UNL A   1      29.290  25.461  23.784  1.00  0.00     0.180 HD
BRANCH  11  13
ATOM     13  S   UNL A   1      30.567  25.623  25.673  1.00  0.00     0.262 S 
ATOM     14  O   UNL A   1      29.556  25.047  26.539  1.00  0.00    -0.201 OA
ATOM     15  O   UNL A   1      30.744  27.060  25.615  1.00  0.00    -0.201 OA
BRANCH  13  16
ATOM     16  C   UNL A   1      32.138  24.952  26.220  1.00  0.00     0.092 A 
ATOM     17  C   UNL A   1      33.833  26.770  25.458  1.00  0.00     0.046 C 
ATOM     18  C   UNL A   1      33.434  25.407  25.935  1.00  0.00    -0.030 A 
ATOM     19  C   UNL A   1      34.510  24.532  26.200  1.00  0.00     0.007 A 
ATOM     20  C   UNL A   1      34.329  23.342  26.905  1.00  0.00     0.026 A 
ATOM     21  C   UNL A   1      31.985  23.765  26.971  1.00  0.00     0.048 A 
ATOM     22  C   UNL A   1      33.076  23.012  27.400  1.00  0.00     0.033 A 
BRANCH  22  23
ATOM     23  N   UNL A   1      32.891  21.877  28.174  1.00  0.00    -0.399 N 
ATOM     24  H   UNL A   1      33.570  21.165  28.173  1.00  0.00     0.156 HD
ATOM     25  H   UNL A   1      32.080  21.784  28.725  1.00  0.00     0.156 HD
ENDBRANCH  22  23
ENDBRANCH  13  16
ENDBRANCH  11  13
ENDBRANCH   6  11
ENDBRANCH   3   5
ENDBRANCH   2   3
ENDBRANCH   1   2
BRANCH   1  26
ATOM     26  C   UNL A   1      36.386  20.557  24.643  1.00  0.00     0.275 C 
BRANCH  26  27
ATOM     27  O   UNL A   1      37.107  21.641  25.258  1.00  0.00    -0.458 OA
BRANCH  27  28
ATOM     28  C   UNL A   1      38.346  21.324  25.697  1.00  0.00     0.338 C 
ATOM     29  O   UNL A   1      38.960  20.290  25.503  1.00  0.00    -0.246 OA
BRANCH  28  30
ATOM     30  C   UNL A   1      38.935  22.457  26.425  1.00  0.00     0.060 A 
ATOM     31  C   UNL A   1      38.479  23.743  26.158  1.00  0.00     0.016 A 
ATOM     32  C   UNL A   1      40.067  22.267  27.209  1.00  0.00     0.016 A 
ATOM     33  C   UNL A   1      39.239  24.846  26.528  1.00  0.00     0.010 A 
ATOM     34  C   UNL A   1      40.741  23.382  27.715  1.00  0.00     0.010 A 
ATOM     35  C   UNL A   1      40.368  24.685  27.337  1.00  0.00    -0.014 A 
BRANCH  35  36
ATOM     36  C   UNL A   1      41.163  25.863  27.783  1.00  0.00     0.031 A 
ATOM     37  C   UNL A   1      40.514  26.936  28.620  1.00  0.00     0.074 A 
ATOM     38  C   UNL A   1      42.451  25.998  27.405  1.00  0.00     0.049 A 
ATOM     39  N   UNL A   1      40.939  28.141  28.896  1.00  0.00    -0.248 NA
ATOM     40  C   UNL A   1      39.200  26.617  29.204  1.00  0.00     0.031 C 
ATOM     41  C   UNL A   1      43.219  25.020  26.631  1.00  0.00     0.029 A 
ATOM     42  N   UNL A   1      43.339  27.029  27.600  1.00  0.00    -0.354 N 
ATOM     43  C   UNL A   1      39.912  28.753  29.607  1.00  0.00     0.074 A 
ATOM     44  C   UNL A   1      38.845  27.782  29.725  1.00  0.00     0.031 C 
ATOM     45  C   UNL A   1      44.459  25.486  26.428  1.00  0.00     0.029 A 
ATOM     46  C   UNL A   1      44.543  26.838  26.962  1.00  0.00     0.049 A 
ATOM     47  H   UNL A   1      43.133  27.824  28.142  1.00  0.00     0.167 HD
ATOM     48  C   UNL A   1      39.865  30.009  30.116  1.00  0.00     0.034 A 
ATOM     49  C   UNL A   1      45.579  27.675  26.767  1.00  0.00     0.034 A 
ATOM     50  C   UNL A   1      40.956  30.944  30.038  1.00  0.00     0.049 A 
ATOM     51  C   UNL A   1      45.491  29.072  27.309  1.00  0.00     0.074 A 
ATOM     52  C   UNL A   1      41.029  32.227  30.551  1.00  0.00     0.029 A 
ATOM     53  N   UNL A   1      42.168  30.696  29.408  1.00  0.00    -0.354 N 
ATOM     54  N   UNL A   1      44.526  29.629  27.999  1.00  0.00    -0.248 NA
ATOM     55  C   UNL A   1      46.638  29.953  27.056  1.00  0.00     0.031 C 
ATOM     56  C   UNL A   1      42.274  32.765  30.204  1.00  0.00     0.029 A 
ATOM     57  C   UNL A   1      42.992  31.802  29.512  1.00  0.00     0.049 A 
ATOM     58  H   UNL A   1      42.405  29.856  28.954  1.00  0.00     0.167 HD
ATOM     59  C   UNL A   1      44.965  30.912  28.299  1.00  0.00     0.074 A 
ATOM     60  C   UNL A   1      46.289  31.044  27.724  1.00  0.00     0.031 C 
ATOM     61  C   UNL A   1      44.328  31.896  28.980  1.00  0.00     0.034 A 
BRANCH  48  62
ATOM     62  C   UNL A   1      38.592  30.441  30.801  1.00  0.00     0.023 A 
ATOM     63  C   UNL A   1      38.402  30.186  32.175  1.00  0.00     0.012 A 
ATOM     64  C   UNL A   1      37.589  31.128  30.086  1.00  0.00     0.148 A 
ATOM     65  C   UNL A   1      37.219  30.560  32.812  1.00  0.00     0.002 A 
ATOM     66  C   UNL A   1      36.434  31.543  30.740  1.00  0.00     0.091 A 
ATOM     67  F   UNL A   1      37.774  31.349  28.777  1.00  0.00    -0.205 F 
ATOM     68  C   UNL A   1      36.240  31.245  32.098  1.00  0.00     0.022 A 
BRANCH  66  69
ATOM     69  S   UNL A   1      35.153  32.505  29.927  1.00  0.00     0.127 S 
ATOM     70  O   UNL A   1      34.213  32.732  31.023  1.00  0.00    -0.237 OA
ATOM     71  O   UNL A   1      35.887  33.695  29.497  1.00  0.00    -0.237 OA
ATOM     72  O   UNL A   1      34.656  31.674  28.839  1.00  0.00    -0.744 OA
ENDBRANCH  66  69
ENDBRANCH  48  62
BRANCH  49  73
ATOM     73  C   UNL A   1      46.788  27.205  26.032  1.00  0.00     0.023 A 
ATOM     74  C   UNL A   1      46.878  27.426  24.646  1.00  0.00     0.012 A 
ATOM     75  C   UNL A   1      47.863  26.584  26.701  1.00  0.00     0.148 A 
ATOM     76  C   UNL A   1      48.005  27.016  23.932  1.00  0.00     0.002 A 
ATOM     77  C   UNL A   1      49.007  26.234  25.995  1.00  0.00     0.091 A 
ATOM     78  F   UNL A   1      47.755  26.375  28.021  1.00  0.00    -0.205 F 
ATOM     79  C   UNL A   1      49.073  26.432  24.608  1.00  0.00     0.022 A 
BRANCH  77  80
ATOM     80  S   UNL A   1      50.485  25.601  26.798  1.00  0.00     0.127 S 
ATOM     81  O   UNL A   1      51.371  25.377  25.658  1.00  0.00    -0.237 OA
ATOM     82  O   UNL A   1      50.859  26.722  27.661  1.00  0.00    -0.237 OA
ATOM     83  O   UNL A   1      50.065  24.404  27.513  1.00  0.00    -0.744 OA
ENDBRANCH  77  80
ENDBRANCH  49  73
BRANCH  61  84
ATOM     84  C   UNL A   1      45.077  33.183  29.204  1.00  0.00     0.023 A 
ATOM     85  C   UNL A   1      45.930  33.323  30.314  1.00  0.00     0.012 A 
ATOM     86  C   UNL A   1      44.985  34.227  28.263  1.00  0.00     0.148 A 
ATOM     87  C   UNL A   1      46.659  34.498  30.502  1.00  0.00     0.002 A 
ATOM     88  C   UNL A   1      45.754  35.371  28.427  1.00  0.00     0.091 A 
ATOM     89  F   UNL A   1      44.150  34.080  27.223  1.00  0.00    -0.205 F 
ATOM     90  C   UNL A   1      46.581  35.515  29.553  1.00  0.00     0.022 A 
BRANCH  88  91
ATOM     91  S   UNL A   1      45.796  36.687  27.206  1.00  0.00     0.127 S 
ATOM     92  O   UNL A   1      46.680  37.660  27.846  1.00  0.00    -0.237 OA
ATOM     93  O   UNL A   1      46.372  36.011  26.043  1.00  0.00    -0.237 OA
ATOM     94  O   UNL A   1      44.416  37.121  27.031  1.00  0.00    -0.744 OA
ENDBRANCH  88  91
ENDBRANCH  61  84
ENDBRANCH  35  36
ENDBRANCH  28  30
ENDBRANCH  27  28
ENDBRANCH  26  27
ENDBRANCH   1  26
TORSDOF 18
ENDMDL
MODEL 2
REMARK VINA RESULT:     -11.9      5.218      9.911
REMARK SMILES Cc1ccc(N)cc1S(=O)(=O)Nc1cccc(C(=O)OCCOC(=O)c2ccc(-c3c4nc(c(-c5cccc(S(=O)(=O)[O-])c5F)c5ccc([nH]5)c(-c5cccc(S(=O)(=O)[O-])c5F)c5nc(c(-c6cccc(S(=O)(=O)[O-])c6F)c6ccc3[nH]6)C=C5)C=C4)cc2)c1
REMARK SMILES IDX 21 1 20 2 18 3 19 4 17 5 13 6 14 7 89 8 15 9 16 10 12 11
REMARK SMILES IDX 9 13 10 14 11 15 8 16 1 17 2 18 3 19 4 20 7 21 5 22 6 23
REMARK SMILES IDX 22 26 23 27 24 28 25 29 26 30 27 31 88 32 28 33 87 34 29 35
REMARK SMILES IDX 30 36 31 37 81 38 32 39 86 40 80 41 82 42 33 43 85 44 79 45
REMARK SMILES IDX 78 46 34 48 66 49 46 50 65 51 47 52 50 53 64 54 83 55 48 56
REMARK SMILES IDX 49 57 63 59 84 60 51 61 35 62 36 63 44 64 37 65 39 66 45 67
REMARK SMILES IDX 38 68 40 69 41 70 42 71 43 72 67 73 68 74 76 75 69 76 71 77
REMARK SMILES IDX 77 78 70 79 72 80 73 81 74 82 75 83 52 84 53 85 61 86 54 87
REMARK SMILES IDX 56 88 62 89 55 90 57 91 58 92 59 93 60 94
REMARK H PARENT 12 12 6 24 6 25 82 47 50 58
REMARK Flexibility Score: inf
ROOT
ATOM      1  C   UNL A   1      31.123  29.305  24.517  1.00  0.00     0.275 C 
ENDROOT
BRANCH   1   2
ATOM      2  O   UNL A   1      30.646  28.042  25.020  1.00  0.00    -0.458 OA
BRANCH   2   3
ATOM      3  C   UNL A   1      29.956  27.298  24.130  1.00  0.00     0.338 C 
ATOM      4  O   UNL A   1      29.338  27.703  23.155  1.00  0.00    -0.246 OA
BRANCH   3   5
ATOM      5  C   UNL A   1      29.994  25.868  24.488  1.00  0.00     0.062 A 
ATOM      6  C   UNL A   1      30.894  23.747  23.880  1.00  0.00     0.050 A 
ATOM      7  C   UNL A   1      30.836  23.324  25.216  1.00  0.00     0.027 A 
ATOM      8  C   UNL A   1      30.326  24.955  23.490  1.00  0.00     0.042 A 
ATOM      9  C   UNL A   1      30.402  24.198  26.203  1.00  0.00     0.003 A 
ATOM     10  C   UNL A   1      30.046  25.491  25.838  1.00  0.00     0.016 A 
BRANCH   6  11
ATOM     11  N   UNL A   1      31.780  23.020  23.050  1.00  0.00    -0.280 N 
ATOM     12  H   UNL A   1      31.455  22.159  22.698  1.00  0.00     0.180 HD
BRANCH  11  13
ATOM     13  S   UNL A   1      33.318  23.480  22.612  1.00  0.00     0.262 S 
ATOM     14  O   UNL A   1      33.315  23.610  21.167  1.00  0.00    -0.201 OA
ATOM     15  O   UNL A   1      34.195  22.522  23.255  1.00  0.00    -0.201 OA
BRANCH  13  16
ATOM     16  C   UNL A   1      33.783  25.089  23.259  1.00  0.00     0.092 A 
ATOM     17  C   UNL A   1      34.681  24.514  25.630  1.00  0.00     0.046 C 
ATOM     18  C   UNL A   1      34.169  25.432  24.562  1.00  0.00    -0.030 A 
ATOM     19  C   UNL A   1      34.165  26.801  24.909  1.00  0.00     0.007 A 
ATOM     20  C   UNL A   1      33.987  27.798  23.950  1.00  0.00     0.026 A 
ATOM     21  C   UNL A   1      33.650  26.115  22.297  1.00  0.00     0.048 A 
ATOM     22  C   UNL A   1      33.846  27.457  22.612  1.00  0.00     0.033 A 
BRANCH  22  23
ATOM     23  N   UNL A   1      33.752  28.435  21.634  1.00  0.00    -0.399 N 
ATOM     24  H   UNL A   1      32.930  28.517  21.098  1.00  0.00     0.156 HD
ATOM     25  H   UNL A   1      34.507  29.046  21.474  1.00  0.00     0.156 HD
ENDBRANCH  22  23
ENDBRANCH  13  16
ENDBRANCH  11  13
ENDBRANCH   6  11
ENDBRANCH   3   5
ENDBRANCH   2   3
ENDBRANCH   1   2
BRANCH   1  26
ATOM     26  C   UNL A   1      31.392  30.270  25.672  1.00  0.00     0.275 C 
BRANCH  26  27
ATOM     27  O   UNL A   1      32.779  30.233  26.055  1.00  0.00    -0.458 OA
BRANCH  27  28
ATOM     28  C   UNL A   1      33.134  31.138  26.996  1.00  0.00     0.338 C 
ATOM     29  O   UNL A   1      32.439  32.009  27.487  1.00  0.00    -0.246 OA
BRANCH  28  30
ATOM     30  C   UNL A   1      34.517  30.902  27.434  1.00  0.00     0.060 A 
ATOM     31  C   UNL A   1      34.905  29.614  27.785  1.00  0.00     0.016 A 
ATOM     32  C   UNL A   1      35.359  31.979  27.691  1.00  0.00     0.016 A 
ATOM     33  C   UNL A   1      36.053  29.411  28.543  1.00  0.00     0.010 A 
ATOM     34  C   UNL A   1      36.589  31.749  28.312  1.00  0.00     0.010 A 
ATOM     35  C   UNL A   1      36.928  30.471  28.795  1.00  0.00    -0.014 A 
BRANCH  35  36
ATOM     36  C   UNL A   1      38.187  30.258  29.562  1.00  0.00     0.031 A 
ATOM     37  C   UNL A   1      39.273  29.379  28.996  1.00  0.00     0.074 A 
ATOM     38  C   UNL A   1      38.342  30.812  30.782  1.00  0.00     0.049 A 
ATOM     39  N   UNL A   1      40.316  28.864  29.593  1.00  0.00    -0.248 NA
ATOM     40  C   UNL A   1      39.155  29.012  27.575  1.00  0.00     0.031 C 
ATOM     41  C   UNL A   1      37.394  31.717  31.435  1.00  0.00     0.029 A 
ATOM     42  N   UNL A   1      39.351  30.675  31.706  1.00  0.00    -0.354 N 
ATOM     43  C   UNL A   1      40.927  28.044  28.649  1.00  0.00     0.074 A 
ATOM     44  C   UNL A   1      40.141  28.137  27.438  1.00  0.00     0.031 C 
ATOM     45  C   UNL A   1      37.865  32.062  32.641  1.00  0.00     0.029 A 
ATOM     46  C   UNL A   1      39.094  31.324  32.892  1.00  0.00     0.049 A 
ATOM     47  H   UNL A   1      40.174  30.163  31.535  1.00  0.00     0.167 HD
ATOM     48  C   UNL A   1      42.044  27.286  28.782  1.00  0.00     0.034 A 
ATOM     49  C   UNL A   1      39.735  31.283  34.075  1.00  0.00     0.034 A 
ATOM     50  C   UNL A   1      42.846  27.248  29.976  1.00  0.00     0.049 A 
ATOM     51  C   UNL A   1      40.949  30.410  34.210  1.00  0.00     0.074 A 
ATOM     52  C   UNL A   1      44.015  26.544  30.206  1.00  0.00     0.029 A 
ATOM     53  N   UNL A   1      42.563  27.945  31.143  1.00  0.00    -0.354 N 
ATOM     54  N   UNL A   1      41.529  29.660  33.305  1.00  0.00    -0.248 NA
ATOM     55  C   UNL A   1      41.602  30.384  35.524  1.00  0.00     0.031 C 
ATOM     56  C   UNL A   1      44.422  26.793  31.522  1.00  0.00     0.029 A 
ATOM     57  C   UNL A   1      43.530  27.684  32.098  1.00  0.00     0.049 A 
ATOM     58  H   UNL A   1      41.788  28.538  31.271  1.00  0.00     0.167 HD
ATOM     59  C   UNL A   1      42.640  29.105  33.927  1.00  0.00     0.074 A 
ATOM     60  C   UNL A   1      42.656  29.616  35.283  1.00  0.00     0.031 C 
ATOM     61  C   UNL A   1      43.559  28.244  33.426  1.00  0.00     0.034 A 
BRANCH  48  62
ATOM     62  C   UNL A   1      42.460  26.438  27.606  1.00  0.00     0.023 A 
ATOM     63  C   UNL A   1      43.278  26.980  26.594  1.00  0.00     0.012 A 
ATOM     64  C   UNL A   1      42.061  25.089  27.516  1.00  0.00     0.148 A 
ATOM     65  C   UNL A   1      43.649  26.211  25.490  1.00  0.00     0.002 A 
ATOM     66  C   UNL A   1      42.476  24.314  26.439  1.00  0.00     0.091 A 
ATOM     67  F   UNL A   1      41.268  24.591  28.477  1.00  0.00    -0.205 F 
ATOM     68  C   UNL A   1      43.256  24.878  25.417  1.00  0.00     0.022 A 
BRANCH  66  69
ATOM     69  S   UNL A   1      42.092  22.565  26.297  1.00  0.00     0.127 S 
ATOM     70  O   UNL A   1      40.630  22.584  26.267  1.00  0.00    -0.237 OA
ATOM     71  O   UNL A   1      42.723  22.212  25.025  1.00  0.00    -0.237 OA
ATOM     72  O   UNL A   1      42.685  21.927  27.464  1.00  0.00    -0.744 OA
ENDBRANCH  66  69
ENDBRANCH  48  62
BRANCH  49  73
ATOM     73  C   UNL A   1      39.241  32.103  35.218  1.00  0.00     0.023 A 
ATOM     74  C   UNL A   1      39.363  33.503  35.160  1.00  0.00     0.012 A 
ATOM     75  C   UNL A   1      38.614  31.512  36.333  1.00  0.00     0.148 A 
ATOM     76  C   UNL A   1      38.892  34.301  36.204  1.00  0.00     0.002 A 
ATOM     77  C   UNL A   1      38.093  32.315  37.340  1.00  0.00     0.091 A 
ATOM     78  F   UNL A   1      38.515  30.176  36.373  1.00  0.00    -0.205 F 
ATOM     79  C   UNL A   1      38.247  33.709  37.287  1.00  0.00     0.022 A 
BRANCH  77  80
ATOM     80  S   UNL A   1      37.129  31.655  38.705  1.00  0.00     0.127 S 
ATOM     81  O   UNL A   1      38.053  31.811  39.826  1.00  0.00    -0.237 OA
ATOM     82  O   UNL A   1      35.978  32.558  38.723  1.00  0.00    -0.237 OA
ATOM     83  O   UNL A   1      36.811  30.282  38.338  1.00  0.00    -0.744 OA
ENDBRANCH  77  80
ENDBRANCH  49  73
BRANCH  61  84
ATOM     84  C   UNL A   1      44.702  27.848  34.322  1.00  0.00     0.023 A 
ATOM     85  C   UNL A   1      45.837  28.673  34.430  1.00  0.00     0.012 A 
ATOM     86  C   UNL A   1      44.609  26.688  35.115  1.00  0.00     0.148 A 
ATOM     87  C   UNL A   1      46.879  28.332  35.293  1.00  0.00     0.002 A 
ATOM     88  C   UNL A   1      45.625  26.383  36.011  1.00  0.00     0.091 A 
ATOM     89  F   UNL A   1      43.528  25.905  34.980  1.00  0.00    -0.205 F 
ATOM     90  C   UNL A   1      46.768  27.196  36.091  1.00  0.00     0.022 A 
BRANCH  88  91
ATOM     91  S   UNL A   1      45.522  24.999  37.150  1.00  0.00     0.127 S 
ATOM     92  O   UNL A   1      44.190  25.182  37.723  1.00  0.00    -0.237 OA
ATOM     93  O   UNL A   1      45.647  23.850  36.251  1.00  0.00    -0.237 OA
ATOM     94  O   UNL A   1      46.628  25.160  38.083  1.00  0.00    -0.744 OA
ENDBRANCH  88  91
ENDBRANCH  61  84
ENDBRANCH  35  36
ENDBRANCH  28  30
ENDBRANCH  27  28
ENDBRANCH  26  27
ENDBRANCH   1  26
TORSDOF 18
ENDMDL
MODEL 3
REMARK VINA RESULT:     -11.9      1.116      2.041
REMARK SMILES Cc1ccc(N)cc1S(=O)(=O)Nc1cccc(C(=O)OCCOC(=O)c2ccc(-c3c4nc(c(-c5cccc(S(=O)(=O)[O-])c5F)c5ccc([nH]5)c(-c5cccc(S(=O)(=O)[O-])c5F)c5nc(c(-c6cccc(S(=O)(=O)[O-])c6F)c6ccc3[nH]6)C=C5)C=C4)cc2)c1
REMARK SMILES IDX 21 1 20 2 18 3 19 4 17 5 13 6 14 7 89 8 15 9 16 10 12 11
REMARK SMILES IDX 9 13 10 14 11 15 8 16 1 17 2 18 3 19 4 20 7 21 5 22 6 23
REMARK SMILES IDX 22 26 23 27 24 28 25 29 26 30 27 31 88 32 28 33 87 34 29 35
REMARK SMILES IDX 30 36 31 37 81 38 32 39 86 40 80 41 82 42 33 43 85 44 79 45
REMARK SMILES IDX 78 46 34 48 66 49 46 50 65 51 47 52 50 53 64 54 83 55 48 56
REMARK SMILES IDX 49 57 63 59 84 60 51 61 35 62 36 63 44 64 37 65 39 66 45 67
REMARK SMILES IDX 38 68 40 69 41 70 42 71 43 72 67 73 68 74 76 75 69 76 71 77
REMARK SMILES IDX 77 78 70 79 72 80 73 81 74 82 75 83 52 84 53 85 61 86 54 87
REMARK SMILES IDX 56 88 62 89 55 90 57 91 58 92 59 93 60 94
REMARK H PARENT 12 12 6 24 6 25 82 47 50 58
REMARK Flexibility Score: inf
ROOT
ATOM      1  C   UNL A   1      35.214  20.323  24.975  1.00  0.00     0.275 C 
ENDROOT
BRANCH   1   2
ATOM      2  O   UNL A   1      34.883  21.129  26.122  1.00  0.00    -0.458 OA
BRANCH   2   3
ATOM      3  C   UNL A   1      34.772  22.452  25.876  1.00  0.00     0.338 C 
ATOM      4  O   UNL A   1      35.288  23.363  26.508  1.00  0.00    -0.246 OA
BRANCH   3   5
ATOM      5  C   UNL A   1      33.889  22.707  24.723  1.00  0.00     0.062 A 
ATOM      6  C   UNL A   1      31.774  23.586  24.067  1.00  0.00     0.050 A 
ATOM      7  C   UNL A   1      32.291  23.929  22.809  1.00  0.00     0.027 A 
ATOM      8  C   UNL A   1      32.523  22.833  24.964  1.00  0.00     0.042 A 
ATOM      9  C   UNL A   1      33.631  23.707  22.525  1.00  0.00     0.003 A 
ATOM     10  C   UNL A   1      34.438  23.156  23.513  1.00  0.00     0.016 A 
BRANCH   6  11
ATOM     11  N   UNL A   1      30.596  24.274  24.448  1.00  0.00    -0.280 N 
ATOM     12  H   UNL A   1      29.741  23.811  24.291  1.00  0.00     0.180 HD
BRANCH  11  13
ATOM     13  S   UNL A   1      30.519  25.788  25.135  1.00  0.00     0.262 S 
ATOM     14  O   UNL A   1      30.861  25.623  26.535  1.00  0.00    -0.201 OA
ATOM     15  O   UNL A   1      29.219  26.306  24.758  1.00  0.00    -0.201 OA
BRANCH  13  16
ATOM     16  C   UNL A   1      31.724  26.931  24.455  1.00  0.00     0.092 A 
ATOM     17  C   UNL A   1      33.930  26.195  25.619  1.00  0.00     0.046 C 
ATOM     18  C   UNL A   1      33.057  27.133  24.841  1.00  0.00    -0.030 A 
ATOM     19  C   UNL A   1      33.701  28.305  24.389  1.00  0.00     0.007 A 
ATOM     20  C   UNL A   1      33.120  29.135  23.430  1.00  0.00     0.026 A 
ATOM     21  C   UNL A   1      31.174  27.760  23.453  1.00  0.00     0.048 A 
ATOM     22  C   UNL A   1      31.898  28.797  22.868  1.00  0.00     0.033 A 
BRANCH  22  23
ATOM     23  N   UNL A   1      31.342  29.563  21.854  1.00  0.00    -0.399 N 
ATOM     24  H   UNL A   1      31.883  29.805  21.068  1.00  0.00     0.156 HD
ATOM     25  H   UNL A   1      30.407  29.864  21.921  1.00  0.00     0.156 HD
ENDBRANCH  22  23
ENDBRANCH  13  16
ENDBRANCH  11  13
ENDBRANCH   6  11
ENDBRANCH   3   5
ENDBRANCH   2   3
ENDBRANCH   1   2
BRANCH   1  26
ATOM     26  C   UNL A   1      36.712  20.024  24.949  1.00  0.00     0.275 C 
BRANCH  26  27
ATOM     27  O   UNL A   1      37.471  21.191  25.319  1.00  0.00    -0.458 OA
BRANCH  27  28
ATOM     28  C   UNL A   1      38.720  20.938  25.772  1.00  0.00     0.338 C 
ATOM     29  O   UNL A   1      39.378  19.926  25.607  1.00  0.00    -0.246 OA
BRANCH  28  30
ATOM     30  C   UNL A   1      39.254  22.111  26.478  1.00  0.00     0.060 A 
ATOM     31  C   UNL A   1      38.790  23.376  26.134  1.00  0.00     0.016 A 
ATOM     32  C   UNL A   1      40.350  21.976  27.323  1.00  0.00     0.016 A 
ATOM     33  C   UNL A   1      39.514  24.507  26.491  1.00  0.00     0.010 A 
ATOM     34  C   UNL A   1      40.979  23.123  27.812  1.00  0.00     0.010 A 
ATOM     35  C   UNL A   1      40.605  24.402  27.360  1.00  0.00    -0.014 A 
BRANCH  35  36
ATOM     36  C   UNL A   1      41.358  25.612  27.791  1.00  0.00     0.031 A 
ATOM     37  C   UNL A   1      40.664  26.685  28.591  1.00  0.00     0.074 A 
ATOM     38  C   UNL A   1      42.648  25.775  27.432  1.00  0.00     0.049 A 
ATOM     39  N   UNL A   1      41.050  27.908  28.846  1.00  0.00    -0.248 NA
ATOM     40  C   UNL A   1      39.349  26.342  29.159  1.00  0.00     0.031 C 
ATOM     41  C   UNL A   1      43.458  24.802  26.696  1.00  0.00     0.029 A 
ATOM     42  N   UNL A   1      43.503  26.835  27.619  1.00  0.00    -0.354 N 
ATOM     43  C   UNL A   1      39.993  28.506  29.525  1.00  0.00     0.074 A 
ATOM     44  C   UNL A   1      38.952  27.509  29.647  1.00  0.00     0.031 C 
ATOM     45  C   UNL A   1      44.687  25.299  26.503  1.00  0.00     0.029 A 
ATOM     46  C   UNL A   1      44.723  26.664  27.006  1.00  0.00     0.049 A 
ATOM     47  H   UNL A   1      43.265  27.636  28.139  1.00  0.00     0.167 HD
ATOM     48  C   UNL A   1      39.901  29.772  30.002  1.00  0.00     0.034 A 
ATOM     49  C   UNL A   1      45.739  27.526  26.810  1.00  0.00     0.034 A 
ATOM     50  C   UNL A   1      40.967  30.736  29.922  1.00  0.00     0.049 A 
ATOM     51  C   UNL A   1      45.602  28.932  27.317  1.00  0.00     0.074 A 
ATOM     52  C   UNL A   1      40.994  32.032  30.405  1.00  0.00     0.029 A 
ATOM     53  N   UNL A   1      42.196  30.508  29.319  1.00  0.00    -0.354 N 
ATOM     54  N   UNL A   1      44.609  29.477  27.977  1.00  0.00    -0.248 NA
ATOM     55  C   UNL A   1      46.728  29.839  27.064  1.00  0.00     0.031 C 
ATOM     56  C   UNL A   1      42.229  32.597  30.067  1.00  0.00     0.029 A 
ATOM     57  C   UNL A   1      42.987  31.640  29.411  1.00  0.00     0.049 A 
ATOM     58  H   UNL A   1      42.465  29.665  28.888  1.00  0.00     0.167 HD
ATOM     59  C   UNL A   1      45.006  30.779  28.253  1.00  0.00     0.074 A 
ATOM     60  C   UNL A   1      46.336  30.935  27.699  1.00  0.00     0.031 C 
ATOM     61  C   UNL A   1      44.329  31.759  28.900  1.00  0.00     0.034 A 
BRANCH  48  62
ATOM     62  C   UNL A   1      38.604  30.184  30.654  1.00  0.00     0.023 A 
ATOM     63  C   UNL A   1      38.349  29.850  32.001  1.00  0.00     0.012 A 
ATOM     64  C   UNL A   1      37.644  30.928  29.938  1.00  0.00     0.148 A 
ATOM     65  C   UNL A   1      37.142  30.205  32.605  1.00  0.00     0.002 A 
ATOM     66  C   UNL A   1      36.466  31.322  30.563  1.00  0.00     0.091 A 
ATOM     67  F   UNL A   1      37.892  31.223  28.654  1.00  0.00    -0.205 F 
ATOM     68  C   UNL A   1      36.207  30.947  31.891  1.00  0.00     0.022 A 
BRANCH  66  69
ATOM     69  S   UNL A   1      35.237  32.351  29.753  1.00  0.00     0.127 S 
ATOM     70  O   UNL A   1      34.303  32.613  30.847  1.00  0.00    -0.237 OA
ATOM     71  O   UNL A   1      36.029  33.510  29.339  1.00  0.00    -0.237 OA
ATOM     72  O   UNL A   1      34.707  31.556  28.655  1.00  0.00    -0.744 OA
ENDBRANCH  66  69
ENDBRANCH  48  62
BRANCH  49  73
ATOM     73  C   UNL A   1      46.974  27.073  26.108  1.00  0.00     0.023 A 
ATOM     74  C   UNL A   1      47.106  27.315  24.728  1.00  0.00     0.012 A 
ATOM     75  C   UNL A   1      48.030  26.450  26.802  1.00  0.00     0.148 A 
ATOM     76  C   UNL A   1      48.258  26.922  24.046  1.00  0.00     0.002 A 
ATOM     77  C   UNL A   1      49.199  26.116  26.128  1.00  0.00     0.091 A 
ATOM     78  F   UNL A   1      47.881  26.220  28.114  1.00  0.00    -0.205 F 
ATOM     79  C   UNL A   1      49.308  26.335  24.747  1.00  0.00     0.022 A 
BRANCH  77  80
ATOM     80  S   UNL A   1      50.654  25.480  26.969  1.00  0.00     0.127 S 
ATOM     81  O   UNL A   1      51.022  26.607  27.823  1.00  0.00    -0.237 OA
ATOM     82  O   UNL A   1      50.108  24.321  27.676  1.00  0.00    -0.237 OA
ATOM     83  O   UNL A   1      51.606  25.150  25.917  1.00  0.00    -0.744 OA
ENDBRANCH  77  80
ENDBRANCH  49  73
BRANCH  61  84
ATOM     84  C   UNL A   1      45.037  33.072  29.106  1.00  0.00     0.023 A 
ATOM     85  C   UNL A   1      45.855  33.267  30.235  1.00  0.00     0.012 A 
ATOM     86  C   UNL A   1      44.944  34.086  28.133  1.00  0.00     0.148 A 
ATOM     87  C   UNL A   1      46.547  34.466  30.407  1.00  0.00     0.002 A 
ATOM     88  C   UNL A   1      45.677  35.255  28.284  1.00  0.00     0.091 A 
ATOM     89  F   UNL A   1      44.142  33.887  27.076  1.00  0.00    -0.205 F 
ATOM     90  C   UNL A   1      46.469  35.453  29.428  1.00  0.00     0.022 A 
BRANCH  88  91
ATOM     91  S   UNL A   1      45.718  36.536  27.027  1.00  0.00     0.127 S 
ATOM     92  O   UNL A   1      46.215  35.799  25.866  1.00  0.00    -0.237 OA
ATOM     93  O   UNL A   1      44.311  36.931  26.943  1.00  0.00    -0.237 OA
ATOM     94  O   UNL A   1      46.608  37.572  27.534  1.00  0.00    -0.744 OA
ENDBRANCH  88  91
ENDBRANCH  61  84
ENDBRANCH  35  36
ENDBRANCH  28  30
ENDBRANCH  27  28
ENDBRANCH  26  27
ENDBRANCH   1  26
TORSDOF 18
ENDMDL
