MODEL 1
REMARK VINA RESULT:     -13.1      0.000      0.000
REMARK SMILES CN(C)c1nccnc1N1CCC(Oc2ccc3ccccc3c2)(C(=O)OCCOC(=O)c2ccc(-c3c4nc(c(-c5cccc(S(=O)(=O)[O-])c5F)c5ccc([nH]5)c(-c5cccc(S(=O)(=O)[O-])c5F)c5nc(c(-c6cccc(S(=O)(=O)[O-])c6F)c6ccc3[nH]6)C=C5)C=C4)cc2)CC1
REMARK SMILES IDX 29 1 28 2 27 3 25 4 26 5 13 6 10 7 11 8 97 9 12 10 96 11
REMARK SMILES IDX 9 12 4 13 5 14 6 15 8 16 7 17 2 18 1 19 3 20 14 21 15 22
REMARK SMILES IDX 16 23 24 24 17 25 23 26 18 27 22 28 19 29 21 30 20 31 30 32
REMARK SMILES IDX 31 33 32 34 33 35 34 36 95 37 35 38 94 39 36 40 37 41 38 42
REMARK SMILES IDX 88 43 39 44 93 45 87 46 89 47 40 48 92 49 86 50 85 51 41 53
REMARK SMILES IDX 73 54 53 55 72 56 54 57 57 58 71 59 90 60 55 61 56 62 70 64
REMARK SMILES IDX 91 65 58 66 42 67 43 68 51 69 44 70 46 71 52 72 45 73 47 74
REMARK SMILES IDX 48 75 49 76 50 77 74 78 75 79 83 80 76 81 78 82 84 83 77 84
REMARK SMILES IDX 79 85 80 86 81 87 82 88 59 89 60 90 68 91 61 92 63 93 69 94
REMARK SMILES IDX 62 95 64 96 65 97 66 98 67 99
REMARK H PARENT 89 52 57 63
REMARK Flexibility Score: inf
ROOT
ATOM      1  C   UNL A   1      31.888  30.235  27.103  1.00  0.00     0.275 C 
ENDROOT
BRANCH   1   2
ATOM      2  C   UNL A   1      31.876  28.801  27.622  1.00  0.00     0.274 C 
BRANCH   2   3
ATOM      3  O   UNL A   1      32.519  27.885  26.709  1.00  0.00    -0.459 OA
BRANCH   3   4
ATOM      4  C   UNL A   1      31.740  26.869  26.240  1.00  0.00     0.350 C 
ATOM      5  O   UNL A   1      30.711  26.499  26.799  1.00  0.00    -0.247 OA
BRANCH   4   6
ATOM      6  C   UNL A   1      32.340  26.150  25.011  1.00  0.00     0.209 C 
ATOM      7  N   UNL A   1      32.874  23.396  25.391  1.00  0.00    -0.353 N 
ATOM      8  C   UNL A   1      31.483  23.731  25.203  1.00  0.00     0.123 C 
ATOM      9  C   UNL A   1      33.669  24.309  26.181  1.00  0.00     0.123 C 
ATOM     10  C   UNL A   1      31.423  25.044  24.433  1.00  0.00     0.082 C 
ATOM     11  C   UNL A   1      33.745  25.620  25.413  1.00  0.00     0.082 C 
BRANCH   7  12
ATOM     12  C   UNL A   1      33.281  22.077  25.304  1.00  0.00     0.171 A 
ATOM     13  C   UNL A   1      34.611  21.689  24.948  1.00  0.00     0.171 A 
ATOM     14  N   UNL A   1      34.921  20.395  24.680  1.00  0.00    -0.234 NA
ATOM     15  C   UNL A   1      33.911  19.511  24.758  1.00  0.00     0.134 A 
ATOM     16  N   UNL A   1      32.298  21.151  25.437  1.00  0.00    -0.234 NA
ATOM     17  C   UNL A   1      32.635  19.878  25.132  1.00  0.00     0.134 A 
BRANCH  13  18
ATOM     18  N   UNL A   1      35.639  22.639  24.851  1.00  0.00    -0.360 N 
ATOM     19  C   UNL A   1      35.972  22.987  23.483  1.00  0.00     0.145 C 
ATOM     20  C   UNL A   1      36.755  22.373  25.744  1.00  0.00     0.145 C 
ENDBRANCH  13  18
ENDBRANCH   7  12
BRANCH   6  21
ATOM     21  O   UNL A   1      32.366  27.292  24.085  1.00  0.00    -0.475 OA
BRANCH  21  22
ATOM     22  C   UNL A   1      31.156  27.867  23.822  1.00  0.00     0.121 A 
ATOM     23  C   UNL A   1      30.088  27.098  23.375  1.00  0.00     0.047 A 
ATOM     24  C   UNL A   1      30.992  29.235  24.044  1.00  0.00     0.055 A 
ATOM     25  C   UNL A   1      28.886  27.712  23.028  1.00  0.00     0.012 A 
ATOM     26  C   UNL A   1      29.781  29.868  23.714  1.00  0.00    -0.015 A 
ATOM     27  C   UNL A   1      28.723  29.096  23.178  1.00  0.00    -0.018 A 
ATOM     28  C   UNL A   1      29.599  31.250  23.883  1.00  0.00     0.009 A 
ATOM     29  C   UNL A   1      27.526  29.727  22.805  1.00  0.00     0.009 A 
ATOM     30  C   UNL A   1      28.398  31.861  23.516  1.00  0.00     0.001 A 
ATOM     31  C   UNL A   1      27.366  31.102  22.972  1.00  0.00     0.001 A 
ENDBRANCH  21  22
ENDBRANCH   6  21
ENDBRANCH   4   6
ENDBRANCH   3   4
ENDBRANCH   2   3
ENDBRANCH   1   2
BRANCH   1  32
ATOM     32  O   UNL A   1      33.208  30.596  26.664  1.00  0.00    -0.458 OA
BRANCH  32  33
ATOM     33  C   UNL A   1      33.831  31.539  27.407  1.00  0.00     0.338 C 
ATOM     34  O   UNL A   1      33.406  32.639  27.715  1.00  0.00    -0.246 OA
BRANCH  33  35
ATOM     35  C   UNL A   1      35.151  31.048  27.836  1.00  0.00     0.060 A 
ATOM     36  C   UNL A   1      35.337  29.689  28.063  1.00  0.00     0.016 A 
ATOM     37  C   UNL A   1      36.154  31.959  28.171  1.00  0.00     0.016 A 
ATOM     38  C   UNL A   1      36.460  29.256  28.763  1.00  0.00     0.010 A 
ATOM     39  C   UNL A   1      37.338  31.501  28.760  1.00  0.00     0.010 A 
ATOM     40  C   UNL A   1      37.481  30.154  29.124  1.00  0.00    -0.014 A 
BRANCH  40  41
ATOM     41  C   UNL A   1      38.670  29.652  29.873  1.00  0.00     0.031 A 
ATOM     42  C   UNL A   1      39.527  28.521  29.353  1.00  0.00     0.074 A 
ATOM     43  C   UNL A   1      39.039  30.278  31.008  1.00  0.00     0.049 A 
ATOM     44  N   UNL A   1      40.724  28.161  29.746  1.00  0.00    -0.248 NA
ATOM     45  C   UNL A   1      39.015  27.724  28.228  1.00  0.00     0.031 C 
ATOM     46  C   UNL A   1      38.309  31.378  31.639  1.00  0.00     0.029 A 
ATOM     47  N   UNL A   1      40.114  30.074  31.836  1.00  0.00    -0.354 N 
ATOM     48  C   UNL A   1      41.139  27.173  28.862  1.00  0.00     0.074 A 
ATOM     49  C   UNL A   1      40.050  26.945  27.942  1.00  0.00     0.031 C 
ATOM     50  C   UNL A   1      38.953  31.750  32.754  1.00  0.00     0.029 A 
ATOM     51  C   UNL A   1      40.109  30.879  32.949  1.00  0.00     0.049 A 
ATOM     52  H   UNL A   1      40.820  29.413  31.650  1.00  0.00     0.167 HD
ATOM     53  C   UNL A   1      42.329  26.532  28.800  1.00  0.00     0.034 A 
ATOM     54  C   UNL A   1      40.911  30.892  34.030  1.00  0.00     0.034 A 
ATOM     55  C   UNL A   1      43.364  26.648  29.788  1.00  0.00     0.049 A 
ATOM     56  C   UNL A   1      42.078  29.952  34.086  1.00  0.00     0.074 A 
ATOM     57  C   UNL A   1      44.608  26.041  29.813  1.00  0.00     0.029 A 
ATOM     58  N   UNL A   1      43.241  27.357  30.970  1.00  0.00    -0.354 N 
ATOM     59  N   UNL A   1      42.557  29.181  33.140  1.00  0.00    -0.248 NA
ATOM     60  C   UNL A   1      42.819  29.882  35.352  1.00  0.00     0.031 C 
ATOM     61  C   UNL A   1      45.210  26.334  31.045  1.00  0.00     0.029 A 
ATOM     62  C   UNL A   1      44.347  27.137  31.772  1.00  0.00     0.049 A 
ATOM     63  H   UNL A   1      42.479  27.934  31.205  1.00  0.00     0.167 HD
ATOM     64  C   UNL A   1      43.661  28.543  33.690  1.00  0.00     0.074 A 
ATOM     65  C   UNL A   1      43.792  29.033  35.047  1.00  0.00     0.031 C 
ATOM     66  C   UNL A   1      44.481  27.625  33.121  1.00  0.00     0.034 A 
BRANCH  53  67
ATOM     67  C   UNL A   1      42.590  25.672  27.596  1.00  0.00     0.023 A 
ATOM     68  C   UNL A   1      43.296  26.232  26.512  1.00  0.00     0.012 A 
ATOM     69  C   UNL A   1      42.192  24.324  27.546  1.00  0.00     0.148 A 
ATOM     70  C   UNL A   1      43.606  25.460  25.393  1.00  0.00     0.002 A 
ATOM     71  C   UNL A   1      42.512  23.558  26.429  1.00  0.00     0.091 A 
ATOM     72  F   UNL A   1      41.491  23.827  28.574  1.00  0.00    -0.205 F 
ATOM     73  C   UNL A   1      43.221  24.123  25.354  1.00  0.00     0.022 A 
BRANCH  71  74
ATOM     74  S   UNL A   1      42.064  21.825  26.285  1.00  0.00     0.127 S 
ATOM     75  O   UNL A   1      42.469  21.308  27.592  1.00  0.00    -0.237 OA
ATOM     76  O   UNL A   1      40.617  21.894  26.078  1.00  0.00    -0.237 OA
ATOM     77  O   UNL A   1      42.817  21.312  25.150  1.00  0.00    -0.744 OA
ENDBRANCH  71  74
ENDBRANCH  53  67
BRANCH  54  78
ATOM     78  C   UNL A   1      40.600  31.820  35.150  1.00  0.00     0.023 A 
ATOM     79  C   UNL A   1      41.331  33.011  35.305  1.00  0.00     0.012 A 
ATOM     80  C   UNL A   1      39.517  31.561  36.015  1.00  0.00     0.148 A 
ATOM     81  C   UNL A   1      40.982  33.930  36.296  1.00  0.00     0.002 A 
ATOM     82  C   UNL A   1      39.132  32.511  36.952  1.00  0.00     0.091 A 
ATOM     83  F   UNL A   1      38.859  30.400  35.887  1.00  0.00    -0.205 F 
ATOM     84  C   UNL A   1      39.870  33.693  37.104  1.00  0.00     0.022 A 
BRANCH  82  85
ATOM     85  S   UNL A   1      37.608  32.321  37.883  1.00  0.00     0.127 S 
ATOM     86  O   UNL A   1      37.893  33.084  39.093  1.00  0.00    -0.237 OA
ATOM     87  O   UNL A   1      36.614  32.924  36.994  1.00  0.00    -0.237 OA
ATOM     88  O   UNL A   1      37.453  30.881  38.048  1.00  0.00    -0.744 OA
ENDBRANCH  82  85
ENDBRANCH  54  78
BRANCH  66  89
ATOM     89  C   UNL A   1      45.577  27.051  33.973  1.00  0.00     0.023 A 
ATOM     90  C   UNL A   1      46.791  27.756  34.094  1.00  0.00     0.012 A 
ATOM     91  C   UNL A   1      45.395  25.862  34.702  1.00  0.00     0.148 A 
ATOM     92  C   UNL A   1      47.814  27.275  34.911  1.00  0.00     0.002 A 
ATOM     93  C   UNL A   1      46.403  25.409  35.548  1.00  0.00     0.091 A 
ATOM     94  F   UNL A   1      44.245  25.186  34.556  1.00  0.00    -0.205 F 
ATOM     95  C   UNL A   1      47.615  26.110  35.647  1.00  0.00     0.022 A 
BRANCH  93  96
ATOM     96  S   UNL A   1      46.174  23.965  36.592  1.00  0.00     0.127 S 
ATOM     97  O   UNL A   1      47.467  23.871  37.265  1.00  0.00    -0.237 OA
ATOM     98  O   UNL A   1      45.064  24.368  37.457  1.00  0.00    -0.237 OA
ATOM     99  O   UNL A   1      45.850  22.877  35.677  1.00  0.00    -0.744 OA
ENDBRANCH  93  96
ENDBRANCH  66  89
ENDBRANCH  40  41
ENDBRANCH  33  35
ENDBRANCH  32  33
ENDBRANCH   1  32
TORSDOF 18
ENDMDL
MODEL 2
REMARK VINA RESULT:     -12.8      5.215      9.173
REMARK SMILES CN(C)c1nccnc1N1CCC(Oc2ccc3ccccc3c2)(C(=O)OCCOC(=O)c2ccc(-c3c4nc(c(-c5cccc(S(=O)(=O)[O-])c5F)c5ccc([nH]5)c(-c5cccc(S(=O)(=O)[O-])c5F)c5nc(c(-c6cccc(S(=O)(=O)[O-])c6F)c6ccc3[nH]6)C=C5)C=C4)cc2)CC1
REMARK SMILES IDX 29 1 28 2 27 3 25 4 26 5 13 6 10 7 11 8 97 9 12 10 96 11
REMARK SMILES IDX 9 12 4 13 5 14 6 15 8 16 7 17 2 18 1 19 3 20 14 21 15 22
REMARK SMILES IDX 16 23 24 24 17 25 23 26 18 27 22 28 19 29 21 30 20 31 30 32
REMARK SMILES IDX 31 33 32 34 33 35 34 36 95 37 35 38 94 39 36 40 37 41 38 42
REMARK SMILES IDX 88 43 39 44 93 45 87 46 89 47 40 48 92 49 86 50 85 51 41 53
REMARK SMILES IDX 73 54 53 55 72 56 54 57 57 58 71 59 90 60 55 61 56 62 70 64
REMARK SMILES IDX 91 65 58 66 42 67 43 68 51 69 44 70 46 71 52 72 45 73 47 74
REMARK SMILES IDX 48 75 49 76 50 77 74 78 75 79 83 80 76 81 78 82 84 83 77 84
REMARK SMILES IDX 79 85 80 86 81 87 82 88 59 89 60 90 68 91 61 92 63 93 69 94
REMARK SMILES IDX 62 95 64 96 65 97 66 98 67 99
REMARK H PARENT 89 52 57 63
REMARK Flexibility Score: inf
ROOT
ATOM      1  C   UNL A   1      39.457  20.058  25.498  1.00  0.00     0.275 C 
ENDROOT
BRANCH   1   2
ATOM      2  C   UNL A   1      39.071  21.502  25.799  1.00  0.00     0.274 C 
BRANCH   2   3
ATOM      3  O   UNL A   1      37.667  21.637  26.112  1.00  0.00    -0.459 OA
BRANCH   3   4
ATOM      4  C   UNL A   1      37.069  22.784  25.679  1.00  0.00     0.350 C 
ATOM      5  O   UNL A   1      37.577  23.895  25.807  1.00  0.00    -0.247 OA
BRANCH   4   6
ATOM      6  C   UNL A   1      35.644  22.564  25.125  1.00  0.00     0.209 C 
ATOM      7  N   UNL A   1      33.756  24.527  25.896  1.00  0.00    -0.353 N 
ATOM      8  C   UNL A   1      34.683  24.938  24.870  1.00  0.00     0.123 C 
ATOM      9  C   UNL A   1      34.277  23.700  26.960  1.00  0.00     0.123 C 
ATOM     10  C   UNL A   1      35.176  23.682  24.162  1.00  0.00     0.082 C 
ATOM     11  C   UNL A   1      34.690  22.375  26.338  1.00  0.00     0.082 C 
BRANCH   7  12
ATOM     12  C   UNL A   1      32.629  25.289  26.148  1.00  0.00     0.171 A 
ATOM     13  C   UNL A   1      31.299  24.770  26.066  1.00  0.00     0.171 A 
ATOM     14  N   UNL A   1      30.217  25.589  26.126  1.00  0.00    -0.234 NA
ATOM     15  C   UNL A   1      30.470  26.904  26.252  1.00  0.00     0.134 A 
ATOM     16  N   UNL A   1      32.849  26.614  26.341  1.00  0.00    -0.234 NA
ATOM     17  C   UNL A   1      31.752  27.402  26.363  1.00  0.00     0.134 A 
BRANCH  13  18
ATOM     18  N   UNL A   1      31.068  23.395  25.909  1.00  0.00    -0.360 N 
ATOM     19  C   UNL A   1      30.949  22.987  24.523  1.00  0.00     0.145 C 
ATOM     20  C   UNL A   1      30.070  22.870  26.828  1.00  0.00     0.145 C 
ENDBRANCH  13  18
ENDBRANCH   7  12
BRANCH   6  21
ATOM     21  O   UNL A   1      35.898  21.336  24.357  1.00  0.00    -0.475 OA
BRANCH  21  22
ATOM     22  C   UNL A   1      34.986  20.333  24.528  1.00  0.00     0.121 A 
ATOM     23  C   UNL A   1      33.628  20.616  24.603  1.00  0.00     0.047 A 
ATOM     24  C   UNL A   1      35.434  19.013  24.590  1.00  0.00     0.055 A 
ATOM     25  C   UNL A   1      32.718  19.593  24.865  1.00  0.00     0.012 A 
ATOM     26  C   UNL A   1      34.528  17.967  24.838  1.00  0.00    -0.015 A 
ATOM     27  C   UNL A   1      33.154  18.268  24.999  1.00  0.00    -0.018 A 
ATOM     28  C   UNL A   1      34.951  16.633  24.950  1.00  0.00     0.009 A 
ATOM     29  C   UNL A   1      32.250  17.235  25.290  1.00  0.00     0.009 A 
ATOM     30  C   UNL A   1      34.037  15.616  25.231  1.00  0.00     0.001 A 
ATOM     31  C   UNL A   1      32.690  15.917  25.407  1.00  0.00     0.001 A 
ENDBRANCH  21  22
ENDBRANCH   6  21
ENDBRANCH   4   6
ENDBRANCH   3   4
ENDBRANCH   2   3
ENDBRANCH   1   2
BRANCH   1  32
ATOM     32  O   UNL A   1      40.345  19.556  26.511  1.00  0.00    -0.458 OA
BRANCH  32  33
ATOM     33  C   UNL A   1      41.653  19.520  26.173  1.00  0.00     0.338 C 
ATOM     34  O   UNL A   1      42.262  18.590  25.671  1.00  0.00    -0.246 OA
BRANCH  33  35
ATOM     35  C   UNL A   1      42.289  20.809  26.488  1.00  0.00     0.060 A 
ATOM     36  C   UNL A   1      42.345  21.241  27.809  1.00  0.00     0.016 A 
ATOM     37  C   UNL A   1      42.679  21.661  25.454  1.00  0.00     0.016 A 
ATOM     38  C   UNL A   1      42.647  22.572  28.085  1.00  0.00     0.010 A 
ATOM     39  C   UNL A   1      43.104  22.961  25.750  1.00  0.00     0.010 A 
ATOM     40  C   UNL A   1      43.031  23.456  27.061  1.00  0.00    -0.014 A 
BRANCH  40  41
ATOM     41  C   UNL A   1      43.347  24.875  27.396  1.00  0.00     0.031 A 
ATOM     42  C   UNL A   1      44.706  25.480  27.130  1.00  0.00     0.074 A 
ATOM     43  C   UNL A   1      42.367  25.667  27.877  1.00  0.00     0.049 A 
ATOM     44  N   UNL A   1      45.044  26.746  27.114  1.00  0.00    -0.248 NA
ATOM     45  C   UNL A   1      45.814  24.573  26.790  1.00  0.00     0.031 C 
ATOM     46  C   UNL A   1      41.008  25.227  28.195  1.00  0.00     0.029 A 
ATOM     47  N   UNL A   1      42.367  27.002  28.191  1.00  0.00    -0.354 N 
ATOM     48  C   UNL A   1      46.361  26.787  26.675  1.00  0.00     0.074 A 
ATOM     49  C   UNL A   1      46.787  25.420  26.483  1.00  0.00     0.031 C 
ATOM     50  C   UNL A   1      40.306  26.269  28.660  1.00  0.00     0.029 A 
ATOM     51  C   UNL A   1      41.179  27.438  28.728  1.00  0.00     0.049 A 
ATOM     52  H   UNL A   1      43.142  27.592  28.046  1.00  0.00     0.167 HD
ATOM     53  C   UNL A   1      47.141  27.864  26.422  1.00  0.00     0.034 A 
ATOM     54  C   UNL A   1      40.837  28.627  29.260  1.00  0.00     0.034 A 
ATOM     55  C   UNL A   1      46.780  29.217  26.739  1.00  0.00     0.049 A 
ATOM     56  C   UNL A   1      41.832  29.749  29.243  1.00  0.00     0.074 A 
ATOM     57  C   UNL A   1      47.500  30.379  26.519  1.00  0.00     0.029 A 
ATOM     58  N   UNL A   1      45.633  29.581  27.421  1.00  0.00    -0.354 N 
ATOM     59  N   UNL A   1      42.989  29.810  28.631  1.00  0.00    -0.248 NA
ATOM     60  C   UNL A   1      41.476  30.966  29.984  1.00  0.00     0.031 C 
ATOM     61  C   UNL A   1      46.814  31.438  27.129  1.00  0.00     0.029 A 
ATOM     62  C   UNL A   1      45.661  30.934  27.709  1.00  0.00     0.049 A 
ATOM     63  H   UNL A   1      44.903  28.967  27.666  1.00  0.00     0.167 HD
ATOM     64  C   UNL A   1      43.497  31.074  28.902  1.00  0.00     0.074 A 
ATOM     65  C   UNL A   1      42.511  31.754  29.718  1.00  0.00     0.031 C 
ATOM     66  C   UNL A   1      44.681  31.613  28.518  1.00  0.00     0.034 A 
BRANCH  53  67
ATOM     67  C   UNL A   1      48.454  27.622  25.732  1.00  0.00     0.023 A 
ATOM     68  C   UNL A   1      49.587  27.352  26.525  1.00  0.00     0.012 A 
ATOM     69  C   UNL A   1      48.566  27.612  24.331  1.00  0.00     0.148 A 
ATOM     70  C   UNL A   1      50.818  27.073  25.931  1.00  0.00     0.002 A 
ATOM     71  C   UNL A   1      49.795  27.324  23.746  1.00  0.00     0.091 A 
ATOM     72  F   UNL A   1      47.481  27.907  23.602  1.00  0.00    -0.205 F 
ATOM     73  C   UNL A   1      50.920  27.051  24.543  1.00  0.00     0.022 A 
BRANCH  71  74
ATOM     74  S   UNL A   1      50.028  27.268  21.966  1.00  0.00     0.127 S 
ATOM     75  O   UNL A   1      48.985  26.326  21.562  1.00  0.00    -0.237 OA
ATOM     76  O   UNL A   1      49.780  28.657  21.576  1.00  0.00    -0.237 OA
ATOM     77  O   UNL A   1      51.395  26.813  21.757  1.00  0.00    -0.744 OA
ENDBRANCH  71  74
ENDBRANCH  53  67
BRANCH  54  78
ATOM     78  C   UNL A   1      39.490  28.783  29.873  1.00  0.00     0.023 A 
ATOM     79  C   UNL A   1      39.246  28.303  31.172  1.00  0.00     0.012 A 
ATOM     80  C   UNL A   1      38.473  29.486  29.198  1.00  0.00     0.148 A 
ATOM     81  C   UNL A   1      38.014  28.530  31.788  1.00  0.00     0.002 A 
ATOM     82  C   UNL A   1      37.276  29.769  29.842  1.00  0.00     0.091 A 
ATOM     83  F   UNL A   1      38.704  29.897  27.942  1.00  0.00    -0.205 F 
ATOM     84  C   UNL A   1      37.038  29.282  31.135  1.00  0.00     0.022 A 
BRANCH  82  85
ATOM     85  S   UNL A   1      36.072  30.879  29.104  1.00  0.00     0.127 S 
ATOM     86  O   UNL A   1      36.927  31.880  28.475  1.00  0.00    -0.237 OA
ATOM     87  O   UNL A   1      35.361  30.002  28.172  1.00  0.00    -0.237 OA
ATOM     88  O   UNL A   1      35.256  31.335  30.222  1.00  0.00    -0.744 OA
ENDBRANCH  82  85
ENDBRANCH  54  78
BRANCH  66  89
ATOM     89  C   UNL A   1      45.004  32.997  29.005  1.00  0.00     0.023 A 
ATOM     90  C   UNL A   1      45.658  33.152  30.244  1.00  0.00     0.012 A 
ATOM     91  C   UNL A   1      44.730  34.134  28.223  1.00  0.00     0.148 A 
ATOM     92  C   UNL A   1      46.012  34.418  30.706  1.00  0.00     0.002 A 
ATOM     93  C   UNL A   1      45.124  35.391  28.671  1.00  0.00     0.091 A 
ATOM     94  F   UNL A   1      44.083  33.974  27.058  1.00  0.00    -0.205 F 
ATOM     95  C   UNL A   1      45.757  35.535  29.915  1.00  0.00     0.022 A 
BRANCH  93  96
ATOM     96  S   UNL A   1      44.907  36.858  27.658  1.00  0.00     0.127 S 
ATOM     97  O   UNL A   1      45.359  37.916  28.558  1.00  0.00    -0.237 OA
ATOM     98  O   UNL A   1      45.797  36.600  26.525  1.00  0.00    -0.237 OA
ATOM     99  O   UNL A   1      43.491  36.879  27.310  1.00  0.00    -0.744 OA
ENDBRANCH  93  96
ENDBRANCH  66  89
ENDBRANCH  40  41
ENDBRANCH  33  35
ENDBRANCH  32  33
ENDBRANCH   1  32
TORSDOF 18
ENDMDL
MODEL 3
REMARK VINA RESULT:     -12.8      0.913      7.313
REMARK SMILES CN(C)c1nccnc1N1CCC(Oc2ccc3ccccc3c2)(C(=O)OCCOC(=O)c2ccc(-c3c4nc(c(-c5cccc(S(=O)(=O)[O-])c5F)c5ccc([nH]5)c(-c5cccc(S(=O)(=O)[O-])c5F)c5nc(c(-c6cccc(S(=O)(=O)[O-])c6F)c6ccc3[nH]6)C=C5)C=C4)cc2)CC1
REMARK SMILES IDX 29 1 28 2 27 3 25 4 26 5 13 6 10 7 11 8 97 9 12 10 96 11
REMARK SMILES IDX 9 12 4 13 5 14 6 15 8 16 7 17 2 18 1 19 3 20 14 21 15 22
REMARK SMILES IDX 16 23 24 24 17 25 23 26 18 27 22 28 19 29 21 30 20 31 30 32
REMARK SMILES IDX 31 33 32 34 33 35 34 36 95 37 35 38 94 39 36 40 37 41 38 42
REMARK SMILES IDX 88 43 39 44 93 45 87 46 89 47 40 48 92 49 86 50 85 51 41 53
REMARK SMILES IDX 73 54 53 55 72 56 54 57 57 58 71 59 90 60 55 61 56 62 70 64
REMARK SMILES IDX 91 65 58 66 42 67 43 68 51 69 44 70 46 71 52 72 45 73 47 74
REMARK SMILES IDX 48 75 49 76 50 77 74 78 75 79 83 80 76 81 78 82 84 83 77 84
REMARK SMILES IDX 79 85 80 86 81 87 82 88 59 89 60 90 68 91 61 92 63 93 69 94
REMARK SMILES IDX 62 95 64 96 65 97 66 98 67 99
REMARK H PARENT 89 52 57 63
REMARK Flexibility Score: inf
ROOT
ATOM      1  C   UNL A   1      32.843  30.174  26.001  1.00  0.00     0.275 C 
ENDROOT
BRANCH   1   2
ATOM      2  C   UNL A   1      31.744  29.152  25.732  1.00  0.00     0.274 C 
BRANCH   2   3
ATOM      3  O   UNL A   1      32.254  27.801  25.688  1.00  0.00    -0.459 OA
BRANCH   3   4
ATOM      4  C   UNL A   1      31.392  26.827  26.100  1.00  0.00     0.350 C 
ATOM      5  O   UNL A   1      30.758  26.892  27.149  1.00  0.00    -0.247 OA
BRANCH   4   6
ATOM      6  C   UNL A   1      31.385  25.584  25.183  1.00  0.00     0.209 C 
ATOM      7  N   UNL A   1      33.691  23.954  25.373  1.00  0.00    -0.353 N 
ATOM      8  C   UNL A   1      32.760  23.831  26.469  1.00  0.00     0.123 C 
ATOM      9  C   UNL A   1      33.895  25.278  24.831  1.00  0.00     0.123 C 
ATOM     10  C   UNL A   1      31.386  24.244  25.958  1.00  0.00     0.082 C 
ATOM     11  C   UNL A   1      32.582  25.714  24.201  1.00  0.00     0.082 C 
BRANCH   7  12
ATOM     12  C   UNL A   1      34.697  23.018  25.217  1.00  0.00     0.171 A 
ATOM     13  C   UNL A   1      34.458  21.677  24.782  1.00  0.00     0.171 A 
ATOM     14  N   UNL A   1      35.435  20.735  24.830  1.00  0.00    -0.234 NA
ATOM     15  C   UNL A   1      36.624  21.132  25.317  1.00  0.00     0.134 A 
ATOM     16  N   UNL A   1      35.927  23.404  25.643  1.00  0.00    -0.234 NA
ATOM     17  C   UNL A   1      36.865  22.433  25.708  1.00  0.00     0.134 A 
BRANCH  13  18
ATOM     18  N   UNL A   1      33.199  21.286  24.301  1.00  0.00    -0.360 N 
ATOM     19  C   UNL A   1      32.904  19.886  24.536  1.00  0.00     0.145 C 
ATOM     20  C   UNL A   1      32.906  21.799  22.972  1.00  0.00     0.145 C 
ENDBRANCH  13  18
ENDBRANCH   7  12
BRANCH   6  21
ATOM     21  O   UNL A   1      30.067  25.783  24.561  1.00  0.00    -0.475 OA
BRANCH  21  22
ATOM     22  C   UNL A   1      29.954  26.879  23.753  1.00  0.00     0.121 A 
ATOM     23  C   UNL A   1      30.936  27.170  22.813  1.00  0.00     0.047 A 
ATOM     24  C   UNL A   1      28.821  27.686  23.859  1.00  0.00     0.055 A 
ATOM     25  C   UNL A   1      30.850  28.338  22.058  1.00  0.00     0.012 A 
ATOM     26  C   UNL A   1      28.712  28.860  23.093  1.00  0.00    -0.015 A 
ATOM     27  C   UNL A   1      29.754  29.199  22.197  1.00  0.00    -0.018 A 
ATOM     28  C   UNL A   1      27.606  29.718  23.208  1.00  0.00     0.009 A 
ATOM     29  C   UNL A   1      29.673  30.392  21.462  1.00  0.00     0.009 A 
ATOM     30  C   UNL A   1      27.536  30.895  22.461  1.00  0.00     0.001 A 
ATOM     31  C   UNL A   1      28.570  31.235  21.595  1.00  0.00     0.001 A 
ENDBRANCH  21  22
ENDBRANCH   6  21
ENDBRANCH   4   6
ENDBRANCH   3   4
ENDBRANCH   2   3
ENDBRANCH   1   2
BRANCH   1  32
ATOM     32  O   UNL A   1      32.702  30.724  27.321  1.00  0.00    -0.458 OA
BRANCH  32  33
ATOM     33  C   UNL A   1      33.500  31.779  27.600  1.00  0.00     0.338 C 
ATOM     34  O   UNL A   1      33.187  32.958  27.621  1.00  0.00    -0.246 OA
BRANCH  33  35
ATOM     35  C   UNL A   1      34.861  31.313  27.906  1.00  0.00     0.060 A 
ATOM     36  C   UNL A   1      35.058  30.005  28.337  1.00  0.00     0.016 A 
ATOM     37  C   UNL A   1      35.919  32.223  27.922  1.00  0.00     0.016 A 
ATOM     38  C   UNL A   1      36.269  29.649  28.926  1.00  0.00     0.010 A 
ATOM     39  C   UNL A   1      37.173  31.821  28.399  1.00  0.00     0.010 A 
ATOM     40  C   UNL A   1      37.347  30.551  28.967  1.00  0.00    -0.014 A 
BRANCH  40  41
ATOM     41  C   UNL A   1      38.629  30.133  29.606  1.00  0.00     0.031 A 
ATOM     42  C   UNL A   1      39.106  30.725  30.912  1.00  0.00     0.074 A 
ATOM     43  C   UNL A   1      39.346  29.139  29.043  1.00  0.00     0.049 A 
ATOM     44  N   UNL A   1      40.043  30.279  31.714  1.00  0.00    -0.248 NA
ATOM     45  C   UNL A   1      38.429  31.930  31.415  1.00  0.00     0.031 C 
ATOM     46  C   UNL A   1      39.020  28.476  27.781  1.00  0.00     0.029 A 
ATOM     47  N   UNL A   1      40.500  28.521  29.456  1.00  0.00    -0.354 N 
ATOM     48  C   UNL A   1      39.997  31.085  32.844  1.00  0.00     0.074 A 
ATOM     49  C   UNL A   1      38.980  32.084  32.612  1.00  0.00     0.031 C 
ATOM     50  C   UNL A   1      39.950  27.547  27.520  1.00  0.00     0.029 A 
ATOM     51  C   UNL A   1      40.969  27.587  28.565  1.00  0.00     0.049 A 
ATOM     52  H   UNL A   1      40.948  28.727  30.309  1.00  0.00     0.167 HD
ATOM     53  C   UNL A   1      40.713  30.987  33.988  1.00  0.00     0.034 A 
ATOM     54  C   UNL A   1      42.111  26.873  28.557  1.00  0.00     0.034 A 
ATOM     55  C   UNL A   1      41.819  30.091  34.178  1.00  0.00     0.049 A 
ATOM     56  C   UNL A   1      43.059  26.999  29.712  1.00  0.00     0.074 A 
ATOM     57  C   UNL A   1      42.607  29.914  35.302  1.00  0.00     0.029 A 
ATOM     58  N   UNL A   1      42.345  29.279  33.188  1.00  0.00    -0.354 N 
ATOM     59  N   UNL A   1      42.881  27.611  30.857  1.00  0.00    -0.248 NA
ATOM     60  C   UNL A   1      44.363  26.336  29.579  1.00  0.00     0.031 C 
ATOM     61  C   UNL A   1      43.652  29.041  34.968  1.00  0.00     0.029 A 
ATOM     62  C   UNL A   1      43.498  28.664  33.643  1.00  0.00     0.049 A 
ATOM     63  H   UNL A   1      41.957  29.157  32.292  1.00  0.00     0.167 HD
ATOM     64  C   UNL A   1      44.044  27.398  31.587  1.00  0.00     0.074 A 
ATOM     65  C   UNL A   1      44.912  26.584  30.762  1.00  0.00     0.031 C 
ATOM     66  C   UNL A   1      44.362  27.851  32.825  1.00  0.00     0.034 A 
BRANCH  53  67
ATOM     67  C   UNL A   1      40.296  31.854  35.143  1.00  0.00     0.023 A 
ATOM     68  C   UNL A   1      40.925  33.104  35.304  1.00  0.00     0.012 A 
ATOM     69  C   UNL A   1      39.271  31.471  36.026  1.00  0.00     0.148 A 
ATOM     70  C   UNL A   1      40.540  33.966  36.330  1.00  0.00     0.002 A 
ATOM     71  C   UNL A   1      38.886  32.339  37.042  1.00  0.00     0.091 A 
ATOM     72  F   UNL A   1      38.715  30.262  35.872  1.00  0.00    -0.205 F 
ATOM     73  C   UNL A   1      39.516  33.587  37.194  1.00  0.00     0.022 A 
BRANCH  71  74
ATOM     74  S   UNL A   1      37.575  31.945  38.205  1.00  0.00     0.127 S 
ATOM     75  O   UNL A   1      37.227  30.582  37.803  1.00  0.00    -0.237 OA
ATOM     76  O   UNL A   1      38.261  32.044  39.493  1.00  0.00    -0.237 OA
ATOM     77  O   UNL A   1      36.538  32.943  37.990  1.00  0.00    -0.744 OA
ENDBRANCH  71  74
ENDBRANCH  53  67
BRANCH  54  78
ATOM     78  C   UNL A   1      42.410  26.000  27.390  1.00  0.00     0.023 A 
ATOM     79  C   UNL A   1      43.226  26.471  26.347  1.00  0.00     0.012 A 
ATOM     80  C   UNL A   1      41.950  24.668  27.355  1.00  0.00     0.148 A 
ATOM     81  C   UNL A   1      43.587  25.626  25.296  1.00  0.00     0.002 A 
ATOM     82  C   UNL A   1      42.369  23.813  26.344  1.00  0.00     0.091 A 
ATOM     83  F   UNL A   1      41.133  24.247  28.332  1.00  0.00    -0.205 F 
ATOM     84  C   UNL A   1      43.179  24.292  25.305  1.00  0.00     0.022 A 
BRANCH  82  85
ATOM     85  S   UNL A   1      42.012  22.055  26.418  1.00  0.00     0.127 S 
ATOM     86  O   UNL A   1      42.736  21.547  25.258  1.00  0.00    -0.237 OA
ATOM     87  O   UNL A   1      42.576  21.670  27.713  1.00  0.00    -0.237 OA
ATOM     88  O   UNL A   1      40.557  21.970  26.362  1.00  0.00    -0.744 OA
ENDBRANCH  82  85
ENDBRANCH  54  78
BRANCH  66  89
ATOM     89  C   UNL A   1      45.726  27.514  33.358  1.00  0.00     0.023 A 
ATOM     90  C   UNL A   1      46.772  28.445  33.202  1.00  0.00     0.012 A 
ATOM     91  C   UNL A   1      45.964  26.322  34.066  1.00  0.00     0.148 A 
ATOM     92  C   UNL A   1      48.039  28.184  33.723  1.00  0.00     0.002 A 
ATOM     93  C   UNL A   1      47.219  26.087  34.619  1.00  0.00     0.091 A 
ATOM     94  F   UNL A   1      44.966  25.432  34.184  1.00  0.00    -0.205 F 
ATOM     95  C   UNL A   1      48.258  27.012  34.441  1.00  0.00     0.022 A 
BRANCH  93  96
ATOM     96  S   UNL A   1      47.540  24.639  35.634  1.00  0.00     0.127 S 
ATOM     97  O   UNL A   1      46.522  24.767  36.673  1.00  0.00    -0.237 OA
ATOM     98  O   UNL A   1      47.321  23.536  34.697  1.00  0.00    -0.237 OA
ATOM     99  O   UNL A   1      48.923  24.778  36.075  1.00  0.00    -0.744 OA
ENDBRANCH  93  96
ENDBRANCH  66  89
ENDBRANCH  40  41
ENDBRANCH  33  35
ENDBRANCH  32  33
ENDBRANCH   1  32
TORSDOF 18
ENDMDL
