MODEL 1
REMARK VINA RESULT:     -11.5      0.000      0.000
REMARK SMILES C[C@@H]1CCC[C@@](Cc2ncccn2)(C(=O)OCCOC(=O)c2ccc(-c3c4nc(c(-c5cccc(S(=O)(=O)[O-])c5F)c5ccc([nH]5)c(-c5cccc(S(=O)(=O)[O-])c5F)c5nc(c(-c6cccc(S(=O)(=O)[O-])c6F)c6ccc3[nH]6)C=C5)C=C4)cc2)C1
REMARK SMILES IDX 18 1 17 2 16 3 14 4 15 5 6 6 1 7 2 8 3 9 85 10 4 11 5 12
REMARK SMILES IDX 7 13 8 14 9 15 13 16 10 17 12 18 11 19 19 20 20 21 21 22
REMARK SMILES IDX 22 23 23 24 84 25 24 26 83 27 25 28 26 29 27 30 77 31 28 32
REMARK SMILES IDX 82 33 76 34 78 35 29 36 81 37 75 38 74 39 30 41 62 42 42 43
REMARK SMILES IDX 61 44 43 45 46 46 60 47 79 48 44 49 45 50 59 52 80 53 47 54
REMARK SMILES IDX 31 55 32 56 40 57 33 58 35 59 41 60 34 61 36 62 37 63 38 64
REMARK SMILES IDX 39 65 63 66 64 67 72 68 65 69 67 70 73 71 66 72 68 73 69 74
REMARK SMILES IDX 70 75 71 76 48 77 49 78 57 79 50 80 52 81 58 82 51 83 53 84
REMARK SMILES IDX 54 85 55 86 56 87
REMARK H PARENT 78 40 46 51
REMARK Flexibility Score: inf
ROOT
ATOM      1  C   UNL A   1      36.291  20.640  25.016  1.00  0.00     0.275 C 
ENDROOT
BRANCH   1   2
ATOM      2  C   UNL A   1      35.446  21.370  26.052  1.00  0.00     0.274 C 
BRANCH   2   3
ATOM      3  O   UNL A   1      35.241  22.745  25.670  1.00  0.00    -0.462 OA
BRANCH   3   4
ATOM      4  C   UNL A   1      34.177  23.364  26.250  1.00  0.00     0.312 C 
ATOM      5  O   UNL A   1      33.794  23.151  27.397  1.00  0.00    -0.252 OA
BRANCH   4   6
ATOM      6  C   UNL A   1      33.444  24.331  25.303  1.00  0.00     0.075 C 
ATOM      7  C   UNL A   1      31.355  27.018  25.152  1.00  0.00     0.007 C 
ATOM      8  C   UNL A   1      32.874  26.919  25.269  1.00  0.00    -0.013 C 
ATOM      9  C   UNL A   1      33.575  27.023  23.911  1.00  0.00     0.003 C 
ATOM     10  C   UNL A   1      33.352  25.689  26.056  1.00  0.00     0.022 C 
ATOM     11  C   UNL A   1      33.607  25.703  23.146  1.00  0.00     0.001 C 
ATOM     12  C   UNL A   1      34.213  24.577  23.986  1.00  0.00     0.019 C 
BRANCH   6  13
ATOM     13  C   UNL A   1      32.042  23.708  25.092  1.00  0.00     0.096 C 
BRANCH  13  14
ATOM     14  C   UNL A   1      32.065  22.384  24.370  1.00  0.00     0.129 A 
ATOM     15  N   UNL A   1      32.038  22.410  23.023  1.00  0.00    -0.241 NA
ATOM     16  N   UNL A   1      32.172  21.262  25.105  1.00  0.00    -0.241 NA
ATOM     17  C   UNL A   1      32.133  21.222  22.399  1.00  0.00     0.115 A 
ATOM     18  C   UNL A   1      32.274  20.105  24.430  1.00  0.00     0.115 A 
ATOM     19  C   UNL A   1      32.263  20.025  23.059  1.00  0.00     0.040 A 
ENDBRANCH  13  14
ENDBRANCH   6  13
ENDBRANCH   4   6
ENDBRANCH   3   4
ENDBRANCH   2   3
ENDBRANCH   1   2
BRANCH   1  20
ATOM     20  O   UNL A   1      37.518  21.357  24.814  1.00  0.00    -0.458 OA
BRANCH  20  21
ATOM     21  C   UNL A   1      38.560  20.971  25.585  1.00  0.00     0.338 C 
ATOM     22  O   UNL A   1      38.986  19.839  25.733  1.00  0.00    -0.246 OA
BRANCH  21  23
ATOM     23  C   UNL A   1      39.158  22.150  26.240  1.00  0.00     0.060 A 
ATOM     24  C   UNL A   1      38.621  23.419  26.035  1.00  0.00     0.016 A 
ATOM     25  C   UNL A   1      40.337  22.005  26.968  1.00  0.00     0.016 A 
ATOM     26  C   UNL A   1      39.321  24.553  26.446  1.00  0.00     0.010 A 
ATOM     27  C   UNL A   1      40.972  23.138  27.486  1.00  0.00     0.010 A 
ATOM     28  C   UNL A   1      40.502  24.431  27.190  1.00  0.00    -0.014 A 
BRANCH  28  29
ATOM     29  C   UNL A   1      41.268  25.632  27.635  1.00  0.00     0.031 A 
ATOM     30  C   UNL A   1      40.589  26.686  28.476  1.00  0.00     0.074 A 
ATOM     31  C   UNL A   1      42.556  25.806  27.273  1.00  0.00     0.049 A 
ATOM     32  N   UNL A   1      40.978  27.906  28.746  1.00  0.00    -0.248 NA
ATOM     33  C   UNL A   1      39.290  26.329  29.071  1.00  0.00     0.031 C 
ATOM     34  C   UNL A   1      43.352  24.869  26.479  1.00  0.00     0.029 A 
ATOM     35  N   UNL A   1      43.419  26.849  27.512  1.00  0.00    -0.354 N 
ATOM     36  C   UNL A   1      39.938  28.488  29.463  1.00  0.00     0.074 A 
ATOM     37  C   UNL A   1      38.907  27.483  29.603  1.00  0.00     0.031 C 
ATOM     38  C   UNL A   1      44.586  25.365  26.313  1.00  0.00     0.029 A 
ATOM     39  C   UNL A   1      44.649  26.693  26.912  1.00  0.00     0.049 A 
ATOM     40  H   UNL A   1      43.182  27.633  28.058  1.00  0.00     0.167 HD
ATOM     41  C   UNL A   1      39.853  29.742  29.967  1.00  0.00     0.034 A 
ATOM     42  C   UNL A   1      45.694  27.537  26.808  1.00  0.00     0.034 A 
ATOM     43  C   UNL A   1      40.916  30.709  29.909  1.00  0.00     0.049 A 
ATOM     44  C   UNL A   1      45.594  28.906  27.421  1.00  0.00     0.074 A 
ATOM     45  C   UNL A   1      40.928  32.007  30.392  1.00  0.00     0.029 A 
ATOM     46  N   UNL A   1      42.170  30.472  29.369  1.00  0.00    -0.354 N 
ATOM     47  N   UNL A   1      44.600  29.438  28.090  1.00  0.00    -0.248 NA
ATOM     48  C   UNL A   1      46.760  29.790  27.271  1.00  0.00     0.031 C 
ATOM     49  C   UNL A   1      42.197  32.548  30.158  1.00  0.00     0.029 A 
ATOM     50  C   UNL A   1      42.972  31.589  29.528  1.00  0.00     0.049 A 
ATOM     51  H   UNL A   1      42.449  29.634  28.936  1.00  0.00     0.167 HD
ATOM     52  C   UNL A   1      45.023  30.713  28.447  1.00  0.00     0.074 A 
ATOM     53  C   UNL A   1      46.377  30.859  27.955  1.00  0.00     0.031 C 
ATOM     54  C   UNL A   1      44.339  31.690  29.091  1.00  0.00     0.034 A 
BRANCH  41  55
ATOM     55  C   UNL A   1      38.581  30.135  30.670  1.00  0.00     0.023 A 
ATOM     56  C   UNL A   1      38.392  29.769  32.017  1.00  0.00     0.012 A 
ATOM     57  C   UNL A   1      37.609  30.924  30.023  1.00  0.00     0.148 A 
ATOM     58  C   UNL A   1      37.245  30.166  32.705  1.00  0.00     0.002 A 
ATOM     59  C   UNL A   1      36.485  31.345  30.725  1.00  0.00     0.091 A 
ATOM     60  F   UNL A   1      37.797  31.242  28.734  1.00  0.00    -0.205 F 
ATOM     61  C   UNL A   1      36.299  30.961  32.064  1.00  0.00     0.022 A 
BRANCH  59  62
ATOM     62  S   UNL A   1      35.245  32.430  30.008  1.00  0.00     0.127 S 
ATOM     63  O   UNL A   1      34.317  32.599  31.126  1.00  0.00    -0.237 OA
ATOM     64  O   UNL A   1      36.029  33.623  29.681  1.00  0.00    -0.237 OA
ATOM     65  O   UNL A   1      34.713  31.721  28.853  1.00  0.00    -0.744 OA
ENDBRANCH  59  62
ENDBRANCH  41  55
BRANCH  42  66
ATOM     66  C   UNL A   1      46.933  27.100  26.103  1.00  0.00     0.023 A 
ATOM     67  C   UNL A   1      47.094  27.401  24.737  1.00  0.00     0.012 A 
ATOM     68  C   UNL A   1      47.971  26.434  26.783  1.00  0.00     0.148 A 
ATOM     69  C   UNL A   1      48.257  27.031  24.060  1.00  0.00     0.002 A 
ATOM     70  C   UNL A   1      49.153  26.127  26.118  1.00  0.00     0.091 A 
ATOM     71  F   UNL A   1      47.796  26.123  28.076  1.00  0.00    -0.205 F 
ATOM     72  C   UNL A   1      49.293  26.409  24.752  1.00  0.00     0.022 A 
BRANCH  70  73
ATOM     73  S   UNL A   1      50.571  25.476  27.008  1.00  0.00     0.127 S 
ATOM     74  O   UNL A   1      51.538  25.271  25.935  1.00  0.00    -0.237 OA
ATOM     75  O   UNL A   1      50.899  26.567  27.929  1.00  0.00    -0.237 OA
ATOM     76  O   UNL A   1      50.070  24.278  27.670  1.00  0.00    -0.744 OA
ENDBRANCH  70  73
ENDBRANCH  42  66
BRANCH  54  77
ATOM     77  C   UNL A   1      45.047  32.997  29.318  1.00  0.00     0.023 A 
ATOM     78  C   UNL A   1      45.801  33.176  30.494  1.00  0.00     0.012 A 
ATOM     79  C   UNL A   1      45.025  34.014  28.345  1.00  0.00     0.148 A 
ATOM     80  C   UNL A   1      46.505  34.359  30.710  1.00  0.00     0.002 A 
ATOM     81  C   UNL A   1      45.756  35.177  28.551  1.00  0.00     0.091 A 
ATOM     82  F   UNL A   1      44.280  33.832  27.244  1.00  0.00    -0.205 F 
ATOM     83  C   UNL A   1      46.491  35.355  29.735  1.00  0.00     0.022 A 
BRANCH  81  84
ATOM     84  S   UNL A   1      45.849  36.474  27.311  1.00  0.00     0.127 S 
ATOM     85  O   UNL A   1      46.484  35.774  26.195  1.00  0.00    -0.237 OA
ATOM     86  O   UNL A   1      44.440  36.810  27.096  1.00  0.00    -0.237 OA
ATOM     87  O   UNL A   1      46.634  37.541  27.917  1.00  0.00    -0.744 OA
ENDBRANCH  81  84
ENDBRANCH  54  77
ENDBRANCH  28  29
ENDBRANCH  21  23
ENDBRANCH  20  21
ENDBRANCH   1  20
TORSDOF 16
ENDMDL
MODEL 2
REMARK VINA RESULT:     -11.4      4.976      9.928
REMARK SMILES C[C@@H]1CCC[C@@](Cc2ncccn2)(C(=O)OCCOC(=O)c2ccc(-c3c4nc(c(-c5cccc(S(=O)(=O)[O-])c5F)c5ccc([nH]5)c(-c5cccc(S(=O)(=O)[O-])c5F)c5nc(c(-c6cccc(S(=O)(=O)[O-])c6F)c6ccc3[nH]6)C=C5)C=C4)cc2)C1
REMARK SMILES IDX 18 1 17 2 16 3 14 4 15 5 6 6 1 7 2 8 3 9 85 10 4 11 5 12
REMARK SMILES IDX 7 13 8 14 9 15 13 16 10 17 12 18 11 19 19 20 20 21 21 22
REMARK SMILES IDX 22 23 23 24 84 25 24 26 83 27 25 28 26 29 27 30 77 31 28 32
REMARK SMILES IDX 82 33 76 34 78 35 29 36 81 37 75 38 74 39 30 41 62 42 42 43
REMARK SMILES IDX 61 44 43 45 46 46 60 47 79 48 44 49 45 50 59 52 80 53 47 54
REMARK SMILES IDX 31 55 32 56 40 57 33 58 35 59 41 60 34 61 36 62 37 63 38 64
REMARK SMILES IDX 39 65 63 66 64 67 72 68 65 69 67 70 73 71 66 72 68 73 69 74
REMARK SMILES IDX 70 75 71 76 48 77 49 78 57 79 50 80 52 81 58 82 51 83 53 84
REMARK SMILES IDX 54 85 55 86 56 87
REMARK H PARENT 78 40 46 51
REMARK Flexibility Score: inf
ROOT
ATOM      1  C   UNL A   1      31.636  29.603  26.105  1.00  0.00     0.275 C 
ENDROOT
BRANCH   1   2
ATOM      2  C   UNL A   1      31.696  28.526  27.182  1.00  0.00     0.274 C 
BRANCH   2   3
ATOM      3  O   UNL A   1      32.354  27.342  26.688  1.00  0.00    -0.462 OA
BRANCH   3   4
ATOM      4  C   UNL A   1      31.552  26.261  26.495  1.00  0.00     0.312 C 
ATOM      5  O   UNL A   1      30.387  26.186  26.875  1.00  0.00    -0.252 OA
BRANCH   4   6
ATOM      6  C   UNL A   1      32.265  25.091  25.794  1.00  0.00     0.075 C 
ATOM      7  C   UNL A   1      34.890  24.235  23.798  1.00  0.00     0.007 C 
ATOM      8  C   UNL A   1      34.774  24.385  25.313  1.00  0.00    -0.013 C 
ATOM      9  C   UNL A   1      34.501  23.052  26.015  1.00  0.00     0.003 C 
ATOM     10  C   UNL A   1      33.774  25.466  25.749  1.00  0.00     0.022 C 
ATOM     11  C   UNL A   1      33.028  22.653  26.002  1.00  0.00     0.001 C 
ATOM     12  C   UNL A   1      32.137  23.760  26.569  1.00  0.00     0.019 C 
BRANCH   6  13
ATOM     13  C   UNL A   1      31.656  25.036  24.371  1.00  0.00     0.096 C 
BRANCH  13  14
ATOM     14  C   UNL A   1      31.393  26.394  23.768  1.00  0.00     0.129 A 
ATOM     15  N   UNL A   1      32.455  27.088  23.312  1.00  0.00    -0.241 NA
ATOM     16  N   UNL A   1      30.116  26.806  23.665  1.00  0.00    -0.241 NA
ATOM     17  C   UNL A   1      32.190  28.262  22.712  1.00  0.00     0.115 A 
ATOM     18  C   UNL A   1      29.909  27.982  23.048  1.00  0.00     0.115 A 
ATOM     19  C   UNL A   1      30.922  28.761  22.544  1.00  0.00     0.040 A 
ENDBRANCH  13  14
ENDBRANCH   6  13
ENDBRANCH   4   6
ENDBRANCH   3   4
ENDBRANCH   2   3
ENDBRANCH   1   2
BRANCH   1  20
ATOM     20  O   UNL A   1      32.930  30.208  25.969  1.00  0.00    -0.458 OA
BRANCH  20  21
ATOM     21  C   UNL A   1      33.243  31.145  26.893  1.00  0.00     0.338 C 
ATOM     22  O   UNL A   1      32.552  32.082  27.255  1.00  0.00    -0.246 OA
BRANCH  21  23
ATOM     23  C   UNL A   1      34.581  30.867  27.449  1.00  0.00     0.060 A 
ATOM     24  C   UNL A   1      34.962  29.561  27.751  1.00  0.00     0.016 A 
ATOM     25  C   UNL A   1      35.417  31.929  27.786  1.00  0.00     0.016 A 
ATOM     26  C   UNL A   1      36.115  29.321  28.499  1.00  0.00     0.010 A 
ATOM     27  C   UNL A   1      36.634  31.674  28.426  1.00  0.00     0.010 A 
ATOM     28  C   UNL A   1      36.977  30.373  28.836  1.00  0.00    -0.014 A 
BRANCH  28  29
ATOM     29  C   UNL A   1      38.213  30.138  29.639  1.00  0.00     0.031 A 
ATOM     30  C   UNL A   1      39.310  29.259  29.087  1.00  0.00     0.074 A 
ATOM     31  C   UNL A   1      38.355  30.675  30.868  1.00  0.00     0.049 A 
ATOM     32  N   UNL A   1      40.328  28.719  29.707  1.00  0.00    -0.248 NA
ATOM     33  C   UNL A   1      39.239  28.925  27.654  1.00  0.00     0.031 C 
ATOM     34  C   UNL A   1      37.391  31.557  31.528  1.00  0.00     0.029 A 
ATOM     35  N   UNL A   1      39.363  30.541  31.793  1.00  0.00    -0.354 N 
ATOM     36  C   UNL A   1      40.965  27.915  28.767  1.00  0.00     0.074 A 
ATOM     37  C   UNL A   1      40.229  28.050  27.529  1.00  0.00     0.031 C 
ATOM     38  C   UNL A   1      37.859  31.900  32.737  1.00  0.00     0.029 A 
ATOM     39  C   UNL A   1      39.114  31.197  32.977  1.00  0.00     0.049 A 
ATOM     40  H   UNL A   1      40.185  30.025  31.626  1.00  0.00     0.167 HD
ATOM     41  C   UNL A   1      42.066  27.143  28.919  1.00  0.00     0.034 A 
ATOM     42  C   UNL A   1      39.787  31.198  34.145  1.00  0.00     0.034 A 
ATOM     43  C   UNL A   1      42.850  27.082  30.123  1.00  0.00     0.049 A 
ATOM     44  C   UNL A   1      41.035  30.371  34.272  1.00  0.00     0.074 A 
ATOM     45  C   UNL A   1      43.985  26.329  30.376  1.00  0.00     0.029 A 
ATOM     46  N   UNL A   1      42.606  27.831  31.263  1.00  0.00    -0.354 N 
ATOM     47  N   UNL A   1      41.616  29.614  33.373  1.00  0.00    -0.248 NA
ATOM     48  C   UNL A   1      41.725  30.402  35.570  1.00  0.00     0.031 C 
ATOM     49  C   UNL A   1      44.435  26.638  31.664  1.00  0.00     0.029 A 
ATOM     50  C   UNL A   1      43.580  27.579  32.212  1.00  0.00     0.049 A 
ATOM     51  H   UNL A   1      41.850  28.451  31.380  1.00  0.00     0.167 HD
ATOM     52  C   UNL A   1      42.742  29.086  33.993  1.00  0.00     0.074 A 
ATOM     53  C   UNL A   1      42.784  29.640  35.331  1.00  0.00     0.031 C 
ATOM     54  C   UNL A   1      43.641  28.192  33.513  1.00  0.00     0.034 A 
BRANCH  41  55
ATOM     55  C   UNL A   1      42.523  26.326  27.739  1.00  0.00     0.023 A 
ATOM     56  C   UNL A   1      43.476  26.863  26.853  1.00  0.00     0.012 A 
ATOM     57  C   UNL A   1      42.065  25.007  27.549  1.00  0.00     0.148 A 
ATOM     58  C   UNL A   1      43.953  26.107  25.782  1.00  0.00     0.002 A 
ATOM     59  C   UNL A   1      42.572  24.247  26.500  1.00  0.00     0.091 A 
ATOM     60  F   UNL A   1      41.141  24.522  28.391  1.00  0.00    -0.205 F 
ATOM     61  C   UNL A   1      43.511  24.798  25.612  1.00  0.00     0.022 A 
BRANCH  59  62
ATOM     62  S   UNL A   1      42.116  22.528  26.242  1.00  0.00     0.127 S 
ATOM     63  O   UNL A   1      42.629  21.900  27.458  1.00  0.00    -0.237 OA
ATOM     64  O   UNL A   1      40.656  22.602  26.164  1.00  0.00    -0.237 OA
ATOM     65  O   UNL A   1      42.767  22.123  25.004  1.00  0.00    -0.744 OA
ENDBRANCH  59  62
ENDBRANCH  41  55
BRANCH  42  66
ATOM     66  C   UNL A   1      39.293  32.025  35.284  1.00  0.00     0.023 A 
ATOM     67  C   UNL A   1      38.409  31.455  36.220  1.00  0.00     0.012 A 
ATOM     68  C   UNL A   1      39.730  33.350  35.474  1.00  0.00     0.148 A 
ATOM     69  C   UNL A   1      37.957  32.196  37.313  1.00  0.00     0.002 A 
ATOM     70  C   UNL A   1      39.325  34.060  36.600  1.00  0.00     0.091 A 
ATOM     71  F   UNL A   1      40.547  33.895  34.561  1.00  0.00    -0.205 F 
ATOM     72  C   UNL A   1      38.426  33.491  37.513  1.00  0.00     0.022 A 
BRANCH  70  73
ATOM     73  S   UNL A   1      40.033  35.667  36.981  1.00  0.00     0.127 S 
ATOM     74  O   UNL A   1      39.650  36.453  35.814  1.00  0.00    -0.237 OA
ATOM     75  O   UNL A   1      39.345  36.033  38.221  1.00  0.00    -0.237 OA
ATOM     76  O   UNL A   1      41.457  35.409  37.152  1.00  0.00    -0.744 OA
ENDBRANCH  70  73
ENDBRANCH  42  66
BRANCH  54  77
ATOM     77  C   UNL A   1      44.756  27.771  34.429  1.00  0.00     0.023 A 
ATOM     78  C   UNL A   1      45.961  28.500  34.428  1.00  0.00     0.012 A 
ATOM     79  C   UNL A   1      44.589  26.705  35.334  1.00  0.00     0.148 A 
ATOM     80  C   UNL A   1      46.994  28.160  35.299  1.00  0.00     0.002 A 
ATOM     81  C   UNL A   1      45.610  26.393  36.223  1.00  0.00     0.091 A 
ATOM     82  F   UNL A   1      43.444  26.009  35.301  1.00  0.00    -0.205 F 
ATOM     83  C   UNL A   1      46.816  27.114  36.203  1.00  0.00     0.022 A 
BRANCH  81  84
ATOM     84  S   UNL A   1      45.429  25.110  37.467  1.00  0.00     0.127 S 
ATOM     85  O   UNL A   1      46.730  25.152  38.132  1.00  0.00    -0.237 OA
ATOM     86  O   UNL A   1      44.316  25.608  38.276  1.00  0.00    -0.237 OA
ATOM     87  O   UNL A   1      45.134  23.888  36.730  1.00  0.00    -0.744 OA
ENDBRANCH  81  84
ENDBRANCH  54  77
ENDBRANCH  28  29
ENDBRANCH  21  23
ENDBRANCH  20  21
ENDBRANCH   1  20
TORSDOF 16
ENDMDL
MODEL 3
REMARK VINA RESULT:     -11.4      1.578      1.949
REMARK SMILES C[C@@H]1CCC[C@@](Cc2ncccn2)(C(=O)OCCOC(=O)c2ccc(-c3c4nc(c(-c5cccc(S(=O)(=O)[O-])c5F)c5ccc([nH]5)c(-c5cccc(S(=O)(=O)[O-])c5F)c5nc(c(-c6cccc(S(=O)(=O)[O-])c6F)c6ccc3[nH]6)C=C5)C=C4)cc2)C1
REMARK SMILES IDX 18 1 17 2 16 3 14 4 15 5 6 6 1 7 2 8 3 9 85 10 4 11 5 12
REMARK SMILES IDX 7 13 8 14 9 15 13 16 10 17 12 18 11 19 19 20 20 21 21 22
REMARK SMILES IDX 22 23 23 24 84 25 24 26 83 27 25 28 26 29 27 30 77 31 28 32
REMARK SMILES IDX 82 33 76 34 78 35 29 36 81 37 75 38 74 39 30 41 62 42 42 43
REMARK SMILES IDX 61 44 43 45 46 46 60 47 79 48 44 49 45 50 59 52 80 53 47 54
REMARK SMILES IDX 31 55 32 56 40 57 33 58 35 59 41 60 34 61 36 62 37 63 38 64
REMARK SMILES IDX 39 65 63 66 64 67 72 68 65 69 67 70 73 71 66 72 68 73 69 74
REMARK SMILES IDX 70 75 71 76 48 77 49 78 57 79 50 80 52 81 58 82 51 83 53 84
REMARK SMILES IDX 54 85 55 86 56 87
REMARK H PARENT 78 40 46 51
REMARK Flexibility Score: inf
ROOT
ATOM      1  C   UNL A   1      37.622  20.417  24.774  1.00  0.00     0.275 C 
ENDROOT
BRANCH   1   2
ATOM      2  C   UNL A   1      36.111  20.265  24.906  1.00  0.00     0.274 C 
BRANCH   2   3
ATOM      3  O   UNL A   1      35.451  21.535  24.742  1.00  0.00    -0.462 OA
BRANCH   3   4
ATOM      4  C   UNL A   1      34.541  21.853  25.701  1.00  0.00     0.312 C 
ATOM      5  O   UNL A   1      34.680  21.607  26.896  1.00  0.00    -0.252 OA
BRANCH   4   6
ATOM      6  C   UNL A   1      33.268  22.510  25.140  1.00  0.00     0.075 C 
ATOM      7  C   UNL A   1      30.622  24.523  25.886  1.00  0.00     0.007 C 
ATOM      8  C   UNL A   1      32.036  24.842  25.405  1.00  0.00    -0.013 C 
ATOM      9  C   UNL A   1      32.112  25.020  23.885  1.00  0.00     0.003 C 
ATOM     10  C   UNL A   1      33.095  23.851  25.909  1.00  0.00     0.022 C 
ATOM     11  C   UNL A   1      32.216  23.699  23.128  1.00  0.00     0.001 C 
ATOM     12  C   UNL A   1      33.380  22.846  23.635  1.00  0.00     0.019 C 
BRANCH   6  13
ATOM     13  C   UNL A   1      32.121  21.522  25.467  1.00  0.00     0.096 C 
BRANCH  13  14
ATOM     14  C   UNL A   1      32.293  20.160  24.841  1.00  0.00     0.129 A 
ATOM     15  N   UNL A   1      32.274  20.088  23.496  1.00  0.00    -0.241 NA
ATOM     16  N   UNL A   1      32.514  19.111  25.654  1.00  0.00    -0.241 NA
ATOM     17  C   UNL A   1      32.503  18.876  22.957  1.00  0.00     0.115 A 
ATOM     18  C   UNL A   1      32.746  17.927  25.063  1.00  0.00     0.115 A 
ATOM     19  C   UNL A   1      32.754  17.750  23.701  1.00  0.00     0.040 A 
ENDBRANCH  13  14
ENDBRANCH   6  13
ENDBRANCH   4   6
ENDBRANCH   3   4
ENDBRANCH   2   3
ENDBRANCH   1   2
BRANCH   1  20
ATOM     20  O   UNL A   1      38.072  21.455  25.657  1.00  0.00    -0.458 OA
BRANCH  20  21
ATOM     21  C   UNL A   1      39.299  21.278  26.198  1.00  0.00     0.338 C 
ATOM     22  O   UNL A   1      39.964  20.255  26.194  1.00  0.00    -0.246 OA
BRANCH  21  23
ATOM     23  C   UNL A   1      39.763  22.540  26.805  1.00  0.00     0.060 A 
ATOM     24  C   UNL A   1      39.236  23.759  26.385  1.00  0.00     0.016 A 
ATOM     25  C   UNL A   1      40.819  22.516  27.713  1.00  0.00     0.016 A 
ATOM     26  C   UNL A   1      39.840  24.955  26.772  1.00  0.00     0.010 A 
ATOM     27  C   UNL A   1      41.342  23.719  28.196  1.00  0.00     0.010 A 
ATOM     28  C   UNL A   1      40.895  24.955  27.695  1.00  0.00    -0.014 A 
BRANCH  28  29
ATOM     29  C   UNL A   1      41.557  26.224  28.119  1.00  0.00     0.031 A 
ATOM     30  C   UNL A   1      40.764  27.271  28.864  1.00  0.00     0.074 A 
ATOM     31  C   UNL A   1      42.850  26.465  27.820  1.00  0.00     0.049 A 
ATOM     32  N   UNL A   1      41.059  28.526  29.091  1.00  0.00    -0.248 NA
ATOM     33  C   UNL A   1      39.457  26.859  29.404  1.00  0.00     0.031 C 
ATOM     34  C   UNL A   1      43.748  25.544  27.122  1.00  0.00     0.029 A 
ATOM     35  N   UNL A   1      43.630  27.573  28.051  1.00  0.00    -0.354 N 
ATOM     36  C   UNL A   1      39.945  29.072  29.718  1.00  0.00     0.074 A 
ATOM     37  C   UNL A   1      38.972  28.010  29.853  1.00  0.00     0.031 C 
ATOM     38  C   UNL A   1      44.957  26.112  26.998  1.00  0.00     0.029 A 
ATOM     39  C   UNL A   1      44.900  27.469  27.529  1.00  0.00     0.049 A 
ATOM     40  H   UNL A   1      43.313  28.365  28.542  1.00  0.00     0.167 HD
ATOM     41  C   UNL A   1      39.752  30.341  30.151  1.00  0.00     0.034 A 
ATOM     42  C   UNL A   1      45.896  28.374  27.440  1.00  0.00     0.034 A 
ATOM     43  C   UNL A   1      40.754  31.372  30.101  1.00  0.00     0.049 A 
ATOM     44  C   UNL A   1      45.674  29.761  27.973  1.00  0.00     0.074 A 
ATOM     45  C   UNL A   1      40.656  32.690  30.515  1.00  0.00     0.029 A 
ATOM     46  N   UNL A   1      42.050  31.192  29.645  1.00  0.00    -0.354 N 
ATOM     47  N   UNL A   1      44.611  30.259  28.558  1.00  0.00    -0.248 NA
ATOM     48  C   UNL A   1      46.789  30.711  27.843  1.00  0.00     0.031 C 
ATOM     49  C   UNL A   1      41.900  33.301  30.324  1.00  0.00     0.029 A 
ATOM     50  C   UNL A   1      42.769  32.365  29.789  1.00  0.00     0.049 A 
ATOM     51  H   UNL A   1      42.406  30.353  29.272  1.00  0.00     0.167 HD
ATOM     52  C   UNL A   1      44.931  31.574  28.871  1.00  0.00     0.074 A 
ATOM     53  C   UNL A   1      46.300  31.785  28.448  1.00  0.00     0.031 C 
ATOM     54  C   UNL A   1      44.151  32.534  29.424  1.00  0.00     0.034 A 
BRANCH  41  55
ATOM     55  C   UNL A   1      38.418  30.684  30.760  1.00  0.00     0.023 A 
ATOM     56  C   UNL A   1      38.157  30.331  32.098  1.00  0.00     0.012 A 
ATOM     57  C   UNL A   1      37.456  31.415  30.035  1.00  0.00     0.148 A 
ATOM     58  C   UNL A   1      36.950  30.683  32.701  1.00  0.00     0.002 A 
ATOM     59  C   UNL A   1      36.269  31.793  30.654  1.00  0.00     0.091 A 
ATOM     60  F   UNL A   1      37.715  31.721  28.756  1.00  0.00    -0.205 F 
ATOM     61  C   UNL A   1      36.012  31.422  31.984  1.00  0.00     0.022 A 
BRANCH  59  62
ATOM     62  S   UNL A   1      35.031  32.806  29.836  1.00  0.00     0.127 S 
ATOM     63  O   UNL A   1      34.496  31.875  28.844  1.00  0.00    -0.237 OA
ATOM     64  O   UNL A   1      34.114  33.121  30.933  1.00  0.00    -0.237 OA
ATOM     65  O   UNL A   1      35.746  33.954  29.298  1.00  0.00    -0.744 OA
ENDBRANCH  59  62
ENDBRANCH  41  55
BRANCH  42  66
ATOM     66  C   UNL A   1      47.198  27.984  26.828  1.00  0.00     0.023 A 
ATOM     67  C   UNL A   1      48.257  27.573  27.659  1.00  0.00     0.012 A 
ATOM     68  C   UNL A   1      47.380  27.969  25.431  1.00  0.00     0.148 A 
ATOM     69  C   UNL A   1      49.477  27.172  27.111  1.00  0.00     0.002 A 
ATOM     70  C   UNL A   1      48.575  27.507  24.891  1.00  0.00     0.091 A 
ATOM     71  F   UNL A   1      46.376  28.392  24.649  1.00  0.00    -0.205 F 
ATOM     72  C   UNL A   1      49.632  27.123  25.728  1.00  0.00     0.022 A 
BRANCH  70  73
ATOM     73  S   UNL A   1      48.757  27.273  23.119  1.00  0.00     0.127 S 
ATOM     74  O   UNL A   1      48.022  28.414  22.583  1.00  0.00    -0.237 OA
ATOM     75  O   UNL A   1      50.209  27.337  22.935  1.00  0.00    -0.237 OA
ATOM     76  O   UNL A   1      48.188  25.956  22.863  1.00  0.00    -0.744 OA
ENDBRANCH  70  73
ENDBRANCH  42  66
BRANCH  54  77
ATOM     77  C   UNL A   1      44.762  33.894  29.621  1.00  0.00     0.023 A 
ATOM     78  C   UNL A   1      45.400  34.192  30.840  1.00  0.00     0.012 A 
ATOM     79  C   UNL A   1      44.764  34.847  28.585  1.00  0.00     0.148 A 
ATOM     80  C   UNL A   1      46.014  35.427  31.034  1.00  0.00     0.002 A 
ATOM     81  C   UNL A   1      45.407  36.064  28.772  1.00  0.00     0.091 A 
ATOM     82  F   UNL A   1      44.128  34.552  27.441  1.00  0.00    -0.205 F 
ATOM     83  C   UNL A   1      46.027  36.359  29.998  1.00  0.00     0.022 A 
BRANCH  81  84
ATOM     84  S   UNL A   1      45.531  37.286  27.461  1.00  0.00     0.127 S 
ATOM     85  O   UNL A   1      44.129  37.636  27.245  1.00  0.00    -0.237 OA
ATOM     86  O   UNL A   1      46.333  38.340  28.085  1.00  0.00    -0.237 OA
ATOM     87  O   UNL A   1      46.191  36.607  26.354  1.00  0.00    -0.744 OA
ENDBRANCH  81  84
ENDBRANCH  54  77
ENDBRANCH  28  29
ENDBRANCH  21  23
ENDBRANCH  20  21
ENDBRANCH   1  20
TORSDOF 16
ENDMDL
