MODEL 1
REMARK VINA RESULT:     -10.7      0.000      0.000
REMARK SMILES CCC(CC)NC(=O)NC[C@H]1CC[C@H](C(=O)OCCOC(=O)c2ccc(-c3c4nc(c(-c5cccc(S(=O)(=O)[O-])c5F)c5ccc([nH]5)c(-c5cccc(S(=O)(=O)[O-])c5F)c5nc(c(-c6cccc(S(=O)(=O)[O-])c6F)c6ccc3[nH]6)C=C5)C=C4)cc2)O1
REMARK SMILES IDX 18 1 17 2 15 3 16 4 14 5 11 6 12 7 86 8 13 9 10 10 9 11 6 12
REMARK SMILES IDX 7 13 8 15 3 17 2 18 1 19 4 20 5 21 19 22 20 23 21 24 22 25
REMARK SMILES IDX 23 26 24 27 85 28 25 29 84 30 26 31 27 32 28 33 78 34 29 35
REMARK SMILES IDX 83 36 77 37 79 38 30 39 82 40 76 41 75 42 31 44 63 45 43 46
REMARK SMILES IDX 62 47 44 48 47 49 61 50 80 51 45 52 46 53 60 55 81 56 48 57
REMARK SMILES IDX 32 58 33 59 41 60 34 61 36 62 42 63 35 64 37 65 38 66 39 67
REMARK SMILES IDX 40 68 64 69 65 70 73 71 66 72 68 73 74 74 67 75 69 76 70 77
REMARK SMILES IDX 71 78 72 79 49 80 50 81 58 82 51 83 53 84 59 85 52 86 54 87
REMARK SMILES IDX 55 88 56 89 57 90
REMARK H PARENT 6 14 9 16 79 43 47 54
REMARK Flexibility Score: inf
ROOT
ATOM      1  C   UNL A   1      31.689  29.858  25.675  1.00  0.00     0.274 C 
ENDROOT
BRANCH   1   2
ATOM      2  O   UNL A   1      32.510  28.777  26.158  1.00  0.00    -0.460 OA
BRANCH   2   3
ATOM      3  C   UNL A   1      31.846  27.770  26.789  1.00  0.00     0.335 C 
ATOM      4  O   UNL A   1      31.137  27.917  27.778  1.00  0.00    -0.249 OA
BRANCH   3   5
ATOM      5  C   UNL A   1      32.072  26.409  26.126  1.00  0.00     0.228 C 
ATOM      6  C   UNL A   1      33.713  25.280  24.928  1.00  0.00     0.138 C 
ATOM      7  C   UNL A   1      32.860  26.001  23.903  1.00  0.00     0.037 C 
ATOM      8  O   UNL A   1      33.443  25.978  26.156  1.00  0.00    -0.361 OA
ATOM      9  C   UNL A   1      31.600  26.305  24.676  1.00  0.00     0.047 C 
BRANCH   6  10
ATOM     10  C   UNL A   1      33.359  23.786  25.097  1.00  0.00     0.149 C 
BRANCH  10  11
ATOM     11  N   UNL A   1      33.351  23.349  26.476  1.00  0.00    -0.336 N 
ATOM     12  N   UNL A   1      34.260  21.167  26.481  1.00  0.00    -0.335 N 
ATOM     13  C   UNL A   1      33.724  22.226  27.095  1.00  0.00     0.315 C 
ATOM     14  H   UNL A   1      34.408  20.415  27.097  1.00  0.00     0.165 HD
ATOM     15  O   UNL A   1      33.554  22.154  28.314  1.00  0.00    -0.249 OA
ATOM     16  H   UNL A   1      32.993  24.027  27.093  1.00  0.00     0.165 HD
BRANCH  12  17
ATOM     17  C   UNL A   1      34.681  20.855  25.116  1.00  0.00     0.083 C 
BRANCH  17  18
ATOM     18  C   UNL A   1      36.214  20.880  25.031  1.00  0.00     0.021 C 
ATOM     19  C   UNL A   1      36.755  22.183  24.460  1.00  0.00     0.006 C 
ENDBRANCH  17  18
BRANCH  17  20
ATOM     20  C   UNL A   1      34.016  19.547  24.648  1.00  0.00     0.021 C 
ATOM     21  C   UNL A   1      32.516  19.628  24.403  1.00  0.00     0.006 C 
ENDBRANCH  17  20
ENDBRANCH  12  17
ENDBRANCH  10  11
ENDBRANCH   6  10
ENDBRANCH   3   5
ENDBRANCH   2   3
ENDBRANCH   1   2
BRANCH   1  22
ATOM     22  C   UNL A   1      31.887  31.126  26.511  1.00  0.00     0.275 C 
BRANCH  22  23
ATOM     23  O   UNL A   1      32.898  30.949  27.522  1.00  0.00    -0.458 OA
BRANCH  23  24
ATOM     24  C   UNL A   1      33.752  31.986  27.675  1.00  0.00     0.338 C 
ATOM     25  O   UNL A   1      33.488  33.176  27.572  1.00  0.00    -0.246 OA
BRANCH  24  26
ATOM     26  C   UNL A   1      35.067  31.509  28.130  1.00  0.00     0.060 A 
ATOM     27  C   UNL A   1      35.168  30.183  28.560  1.00  0.00     0.016 A 
ATOM     28  C   UNL A   1      36.162  32.368  28.228  1.00  0.00     0.016 A 
ATOM     29  C   UNL A   1      36.363  29.709  29.097  1.00  0.00     0.010 A 
ATOM     30  C   UNL A   1      37.363  31.892  28.772  1.00  0.00     0.010 A 
ATOM     31  C   UNL A   1      37.465  30.565  29.222  1.00  0.00    -0.014 A 
BRANCH  31  32
ATOM     32  C   UNL A   1      38.703  30.056  29.859  1.00  0.00     0.031 A 
ATOM     33  C   UNL A   1      39.102  30.527  31.229  1.00  0.00     0.074 A 
ATOM     34  C   UNL A   1      39.453  29.142  29.215  1.00  0.00     0.049 A 
ATOM     35  N   UNL A   1      40.119  30.157  31.964  1.00  0.00    -0.248 NA
ATOM     36  C   UNL A   1      38.246  31.547  31.855  1.00  0.00     0.031 C 
ATOM     37  C   UNL A   1      39.177  28.619  27.877  1.00  0.00     0.029 A 
ATOM     38  N   UNL A   1      40.603  28.498  29.598  1.00  0.00    -0.354 N 
ATOM     39  C   UNL A   1      40.043  30.912  33.127  1.00  0.00     0.074 A 
ATOM     40  C   UNL A   1      38.884  31.770  32.997  1.00  0.00     0.031 C 
ATOM     41  C   UNL A   1      40.136  27.737  27.547  1.00  0.00     0.029 A 
ATOM     42  C   UNL A   1      41.097  27.644  28.642  1.00  0.00     0.049 A 
ATOM     43  H   UNL A   1      41.032  28.634  30.474  1.00  0.00     0.167 HD
ATOM     44  C   UNL A   1      40.853  30.881  34.213  1.00  0.00     0.034 A 
ATOM     45  C   UNL A   1      42.203  26.873  28.647  1.00  0.00     0.034 A 
ATOM     46  C   UNL A   1      41.988  30.006  34.356  1.00  0.00     0.049 A 
ATOM     47  C   UNL A   1      43.071  26.841  29.876  1.00  0.00     0.074 A 
ATOM     48  C   UNL A   1      42.843  29.876  35.437  1.00  0.00     0.029 A 
ATOM     49  N   UNL A   1      42.429  29.116  33.390  1.00  0.00    -0.354 N 
ATOM     50  N   UNL A   1      42.912  27.470  31.015  1.00  0.00    -0.248 NA
ATOM     51  C   UNL A   1      44.252  25.964  29.832  1.00  0.00     0.031 C 
ATOM     52  C   UNL A   1      43.806  28.909  35.120  1.00  0.00     0.029 A 
ATOM     53  C   UNL A   1      43.545  28.434  33.845  1.00  0.00     0.049 A 
ATOM     54  H   UNL A   1      42.010  28.989  32.508  1.00  0.00     0.167 HD
ATOM     55  C   UNL A   1      43.957  27.050  31.832  1.00  0.00     0.074 A 
ATOM     56  C   UNL A   1      44.723  26.087  31.066  1.00  0.00     0.031 C 
ATOM     57  C   UNL A   1      44.268  27.443  33.092  1.00  0.00     0.034 A 
BRANCH  44  58
ATOM     58  C   UNL A   1      40.512  31.794  35.361  1.00  0.00     0.023 A 
ATOM     59  C   UNL A   1      41.303  32.937  35.591  1.00  0.00     0.012 A 
ATOM     60  C   UNL A   1      39.385  31.556  36.172  1.00  0.00     0.148 A 
ATOM     61  C   UNL A   1      40.992  33.818  36.626  1.00  0.00     0.002 A 
ATOM     62  C   UNL A   1      39.063  32.457  37.181  1.00  0.00     0.091 A 
ATOM     63  F   UNL A   1      38.662  30.448  35.955  1.00  0.00    -0.205 F 
ATOM     64  C   UNL A   1      39.868  33.583  37.414  1.00  0.00     0.022 A 
BRANCH  62  65
ATOM     65  S   UNL A   1      37.598  32.271  38.203  1.00  0.00     0.127 S 
ATOM     66  O   UNL A   1      36.609  33.039  37.447  1.00  0.00    -0.237 OA
ATOM     67  O   UNL A   1      37.385  30.823  38.186  1.00  0.00    -0.237 OA
ATOM     68  O   UNL A   1      37.953  32.814  39.508  1.00  0.00    -0.744 OA
ENDBRANCH  62  65
ENDBRANCH  44  58
BRANCH  45  69
ATOM     69  C   UNL A   1      42.512  26.016  27.468  1.00  0.00     0.023 A 
ATOM     70  C   UNL A   1      43.283  26.541  26.414  1.00  0.00     0.012 A 
ATOM     71  C   UNL A   1      42.079  24.678  27.403  1.00  0.00     0.148 A 
ATOM     72  C   UNL A   1      43.598  25.757  25.304  1.00  0.00     0.002 A 
ATOM     73  C   UNL A   1      42.443  23.886  26.321  1.00  0.00     0.091 A 
ATOM     74  F   UNL A   1      41.324  24.203  28.403  1.00  0.00    -0.205 F 
ATOM     75  C   UNL A   1      43.190  24.426  25.264  1.00  0.00     0.022 A 
BRANCH  73  76
ATOM     76  S   UNL A   1      42.069  22.128  26.262  1.00  0.00     0.127 S 
ATOM     77  O   UNL A   1      42.866  21.690  25.120  1.00  0.00    -0.237 OA
ATOM     78  O   UNL A   1      42.552  21.667  27.565  1.00  0.00    -0.237 OA
ATOM     79  O   UNL A   1      40.624  22.049  26.102  1.00  0.00    -0.744 OA
ENDBRANCH  73  76
ENDBRANCH  45  69
BRANCH  57  80
ATOM     80  C   UNL A   1      45.489  26.826  33.725  1.00  0.00     0.023 A 
ATOM     81  C   UNL A   1      46.726  27.496  33.638  1.00  0.00     0.012 A 
ATOM     82  C   UNL A   1      45.407  25.617  34.442  1.00  0.00     0.148 A 
ATOM     83  C   UNL A   1      47.869  26.953  34.224  1.00  0.00     0.002 A 
ATOM     84  C   UNL A   1      46.544  25.104  35.058  1.00  0.00     0.091 A 
ATOM     85  F   UNL A   1      44.229  24.978  34.497  1.00  0.00    -0.205 F 
ATOM     86  C   UNL A   1      47.777  25.763  34.942  1.00  0.00     0.022 A 
BRANCH  84  87
ATOM     87  S   UNL A   1      46.474  23.619  36.069  1.00  0.00     0.127 S 
ATOM     88  O   UNL A   1      46.179  22.590  35.074  1.00  0.00    -0.237 OA
ATOM     89  O   UNL A   1      47.825  23.550  36.632  1.00  0.00    -0.237 OA
ATOM     90  O   UNL A   1      45.431  23.873  37.054  1.00  0.00    -0.744 OA
ENDBRANCH  84  87
ENDBRANCH  57  80
ENDBRANCH  31  32
ENDBRANCH  24  26
ENDBRANCH  23  24
ENDBRANCH  22  23
ENDBRANCH   1  22
TORSDOF 19
ENDMDL
MODEL 2
REMARK VINA RESULT:     -10.6      5.049     10.287
REMARK SMILES CCC(CC)NC(=O)NC[C@H]1CC[C@H](C(=O)OCCOC(=O)c2ccc(-c3c4nc(c(-c5cccc(S(=O)(=O)[O-])c5F)c5ccc([nH]5)c(-c5cccc(S(=O)(=O)[O-])c5F)c5nc(c(-c6cccc(S(=O)(=O)[O-])c6F)c6ccc3[nH]6)C=C5)C=C4)cc2)O1
REMARK SMILES IDX 18 1 17 2 15 3 16 4 14 5 11 6 12 7 86 8 13 9 10 10 9 11 6 12
REMARK SMILES IDX 7 13 8 15 3 17 2 18 1 19 4 20 5 21 19 22 20 23 21 24 22 25
REMARK SMILES IDX 23 26 24 27 85 28 25 29 84 30 26 31 27 32 28 33 78 34 29 35
REMARK SMILES IDX 83 36 77 37 79 38 30 39 82 40 76 41 75 42 31 44 63 45 43 46
REMARK SMILES IDX 62 47 44 48 47 49 61 50 80 51 45 52 46 53 60 55 81 56 48 57
REMARK SMILES IDX 32 58 33 59 41 60 34 61 36 62 42 63 35 64 37 65 38 66 39 67
REMARK SMILES IDX 40 68 64 69 65 70 73 71 66 72 68 73 74 74 67 75 69 76 70 77
REMARK SMILES IDX 71 78 72 79 49 80 50 81 58 82 51 83 53 84 59 85 52 86 54 87
REMARK SMILES IDX 55 88 56 89 57 90
REMARK H PARENT 6 14 9 16 79 43 47 54
REMARK Flexibility Score: inf
ROOT
ATOM      1  C   UNL A   1      35.913  21.226  24.616  1.00  0.00     0.274 C 
ENDROOT
BRANCH   1   2
ATOM      2  O   UNL A   1      34.715  20.760  25.265  1.00  0.00    -0.460 OA
BRANCH   2   3
ATOM      3  C   UNL A   1      34.120  21.646  26.111  1.00  0.00     0.335 C 
ATOM      4  O   UNL A   1      34.410  21.778  27.296  1.00  0.00    -0.249 OA
BRANCH   3   5
ATOM      5  C   UNL A   1      33.036  22.480  25.426  1.00  0.00     0.228 C 
ATOM      6  C   UNL A   1      32.461  24.709  25.106  1.00  0.00     0.138 C 
ATOM      7  C   UNL A   1      31.775  24.274  26.385  1.00  0.00     0.037 C 
ATOM      8  O   UNL A   1      33.511  23.742  24.929  1.00  0.00    -0.361 OA
ATOM      9  C   UNL A   1      31.801  22.769  26.280  1.00  0.00     0.047 C 
BRANCH   6  10
ATOM     10  C   UNL A   1      31.539  24.699  23.866  1.00  0.00     0.149 C 
BRANCH  10  11
ATOM     11  N   UNL A   1      32.261  24.690  22.612  1.00  0.00    -0.336 N 
ATOM     12  N   UNL A   1      32.463  26.950  21.952  1.00  0.00    -0.335 N 
ATOM     13  C   UNL A   1      32.662  25.643  21.766  1.00  0.00     0.315 C 
ATOM     14  H   UNL A   1      32.774  27.487  21.188  1.00  0.00     0.165 HD
ATOM     15  O   UNL A   1      33.247  25.294  20.738  1.00  0.00    -0.249 OA
ATOM     16  H   UNL A   1      32.511  23.785  22.318  1.00  0.00     0.165 HD
BRANCH  12  17
ATOM     17  C   UNL A   1      31.895  27.779  23.014  1.00  0.00     0.083 C 
BRANCH  17  18
ATOM     18  C   UNL A   1      32.947  28.789  23.498  1.00  0.00     0.021 C 
ATOM     19  C   UNL A   1      33.697  28.318  24.735  1.00  0.00     0.006 C 
ENDBRANCH  17  18
BRANCH  17  20
ATOM     20  C   UNL A   1      30.561  28.390  22.548  1.00  0.00     0.021 C 
ATOM     21  C   UNL A   1      29.319  27.859  23.250  1.00  0.00     0.006 C 
ENDBRANCH  17  20
ENDBRANCH  12  17
ENDBRANCH  10  11
ENDBRANCH   6  10
ENDBRANCH   3   5
ENDBRANCH   2   3
ENDBRANCH   1   2
BRANCH   1  22
ATOM     22  C   UNL A   1      37.168  20.769  25.366  1.00  0.00     0.275 C 
BRANCH  22  23
ATOM     23  O   UNL A   1      38.210  21.764  25.322  1.00  0.00    -0.458 OA
BRANCH  23  24
ATOM     24  C   UNL A   1      39.267  21.531  26.132  1.00  0.00     0.338 C 
ATOM     25  O   UNL A   1      39.851  20.467  26.290  1.00  0.00    -0.246 OA
BRANCH  24  26
ATOM     26  C   UNL A   1      39.745  22.786  26.733  1.00  0.00     0.060 A 
ATOM     27  C   UNL A   1      39.241  23.986  26.224  1.00  0.00     0.016 A 
ATOM     28  C   UNL A   1      40.741  22.796  27.710  1.00  0.00     0.016 A 
ATOM     29  C   UNL A   1      39.735  25.205  26.684  1.00  0.00     0.010 A 
ATOM     30  C   UNL A   1      41.240  24.022  28.169  1.00  0.00     0.010 A 
ATOM     31  C   UNL A   1      40.750  25.232  27.649  1.00  0.00    -0.014 A 
BRANCH  31  32
ATOM     32  C   UNL A   1      41.306  26.540  28.072  1.00  0.00     0.031 A 
ATOM     33  C   UNL A   1      42.746  26.875  27.806  1.00  0.00     0.074 A 
ATOM     34  C   UNL A   1      40.503  27.439  28.670  1.00  0.00     0.049 A 
ATOM     35  N   UNL A   1      43.394  27.984  28.056  1.00  0.00    -0.248 NA
ATOM     36  C   UNL A   1      43.565  25.828  27.174  1.00  0.00     0.031 C 
ATOM     37  C   UNL A   1      39.093  27.224  28.995  1.00  0.00     0.029 A 
ATOM     38  N   UNL A   1      40.761  28.712  29.116  1.00  0.00    -0.354 N 
ATOM     39  C   UNL A   1      44.701  27.764  27.639  1.00  0.00     0.074 A 
ATOM     40  C   UNL A   1      44.756  26.411  27.126  1.00  0.00     0.031 C 
ATOM     41  C   UNL A   1      38.610  28.326  29.594  1.00  0.00     0.029 A 
ATOM     42  C   UNL A   1      39.678  29.316  29.706  1.00  0.00     0.049 A 
ATOM     43  H   UNL A   1      41.638  29.150  29.019  1.00  0.00     0.167 HD
ATOM     44  C   UNL A   1      45.753  28.618  27.662  1.00  0.00     0.034 A 
ATOM     45  C   UNL A   1      39.558  30.532  30.277  1.00  0.00     0.034 A 
ATOM     46  C   UNL A   1      45.690  29.973  28.143  1.00  0.00     0.049 A 
ATOM     47  C   UNL A   1      40.738  31.467  30.267  1.00  0.00     0.074 A 
ATOM     48  C   UNL A   1      46.695  30.925  28.169  1.00  0.00     0.029 A 
ATOM     49  N   UNL A   1      44.563  30.569  28.687  1.00  0.00    -0.354 N 
ATOM     50  N   UNL A   1      41.930  31.285  29.754  1.00  0.00    -0.248 NA
ATOM     51  C   UNL A   1      40.543  32.788  30.883  1.00  0.00     0.031 C 
ATOM     52  C   UNL A   1      46.176  32.096  28.734  1.00  0.00     0.029 A 
ATOM     53  C   UNL A   1      44.845  31.875  29.053  1.00  0.00     0.049 A 
ATOM     54  H   UNL A   1      43.690  30.129  28.797  1.00  0.00     0.167 HD
ATOM     55  C   UNL A   1      42.621  32.474  29.964  1.00  0.00     0.074 A 
ATOM     56  C   UNL A   1      41.701  33.380  30.621  1.00  0.00     0.031 C 
ATOM     57  C   UNL A   1      43.907  32.781  29.662  1.00  0.00     0.034 A 
BRANCH  44  58
ATOM     58  C   UNL A   1      47.061  28.122  27.105  1.00  0.00     0.023 A 
ATOM     59  C   UNL A   1      48.108  27.796  27.991  1.00  0.00     0.012 A 
ATOM     60  C   UNL A   1      47.237  27.926  25.722  1.00  0.00     0.148 A 
ATOM     61  C   UNL A   1      49.319  27.305  27.507  1.00  0.00     0.002 A 
ATOM     62  C   UNL A   1      48.436  27.404  25.249  1.00  0.00     0.091 A 
ATOM     63  F   UNL A   1      46.240  28.269  24.894  1.00  0.00    -0.205 F 
ATOM     64  C   UNL A   1      49.480  27.100  26.139  1.00  0.00     0.022 A 
BRANCH  62  65
ATOM     65  S   UNL A   1      48.710  27.045  23.511  1.00  0.00     0.127 S 
ATOM     66  O   UNL A   1      48.192  28.254  22.874  1.00  0.00    -0.237 OA
ATOM     67  O   UNL A   1      50.165  26.899  23.446  1.00  0.00    -0.237 OA
ATOM     68  O   UNL A   1      47.969  25.821  23.237  1.00  0.00    -0.744 OA
ENDBRANCH  62  65
ENDBRANCH  44  58
BRANCH  45  69
ATOM     69  C   UNL A   1      38.249  30.956  30.845  1.00  0.00     0.023 A 
ATOM     70  C   UNL A   1      37.973  30.714  32.204  1.00  0.00     0.012 A 
ATOM     71  C   UNL A   1      37.294  31.629  30.059  1.00  0.00     0.148 A 
ATOM     72  C   UNL A   1      36.760  31.113  32.765  1.00  0.00     0.002 A 
ATOM     73  C   UNL A   1      36.110  32.073  30.638  1.00  0.00     0.091 A 
ATOM     74  F   UNL A   1      37.563  31.828  28.761  1.00  0.00    -0.205 F 
ATOM     75  C   UNL A   1      35.834  31.804  31.986  1.00  0.00     0.022 A 
BRANCH  73  76
ATOM     76  S   UNL A   1      34.932  33.085  29.734  1.00  0.00     0.127 S 
ATOM     77  O   UNL A   1      35.797  34.109  29.156  1.00  0.00    -0.237 OA
ATOM     78  O   UNL A   1      34.379  32.130  28.772  1.00  0.00    -0.237 OA
ATOM     79  O   UNL A   1      33.976  33.544  30.732  1.00  0.00    -0.744 OA
ENDBRANCH  73  76
ENDBRANCH  45  69
BRANCH  57  80
ATOM     80  C   UNL A   1      44.395  34.157  30.036  1.00  0.00     0.023 A 
ATOM     81  C   UNL A   1      45.189  34.320  31.189  1.00  0.00     0.012 A 
ATOM     82  C   UNL A   1      44.110  35.276  29.230  1.00  0.00     0.148 A 
ATOM     83  C   UNL A   1      45.662  35.580  31.553  1.00  0.00     0.002 A 
ATOM     84  C   UNL A   1      44.620  36.523  29.578  1.00  0.00     0.091 A 
ATOM     85  F   UNL A   1      43.334  35.112  28.149  1.00  0.00    -0.205 F 
ATOM     86  C   UNL A   1      45.386  36.680  30.743  1.00  0.00     0.022 A 
BRANCH  84  87
ATOM     87  S   UNL A   1      44.373  37.963  28.532  1.00  0.00     0.127 S 
ATOM     88  O   UNL A   1      42.933  38.180  28.652  1.00  0.00    -0.237 OA
ATOM     89  O   UNL A   1      45.199  38.981  29.186  1.00  0.00    -0.237 OA
ATOM     90  O   UNL A   1      44.850  37.567  27.213  1.00  0.00    -0.744 OA
ENDBRANCH  84  87
ENDBRANCH  57  80
ENDBRANCH  31  32
ENDBRANCH  24  26
ENDBRANCH  23  24
ENDBRANCH  22  23
ENDBRANCH   1  22
TORSDOF 19
ENDMDL
MODEL 3
REMARK VINA RESULT:     -10.5      1.808      2.321
REMARK SMILES CCC(CC)NC(=O)NC[C@H]1CC[C@H](C(=O)OCCOC(=O)c2ccc(-c3c4nc(c(-c5cccc(S(=O)(=O)[O-])c5F)c5ccc([nH]5)c(-c5cccc(S(=O)(=O)[O-])c5F)c5nc(c(-c6cccc(S(=O)(=O)[O-])c6F)c6ccc3[nH]6)C=C5)C=C4)cc2)O1
REMARK SMILES IDX 18 1 17 2 15 3 16 4 14 5 11 6 12 7 86 8 13 9 10 10 9 11 6 12
REMARK SMILES IDX 7 13 8 15 3 17 2 18 1 19 4 20 5 21 19 22 20 23 21 24 22 25
REMARK SMILES IDX 23 26 24 27 85 28 25 29 84 30 26 31 27 32 28 33 78 34 29 35
REMARK SMILES IDX 83 36 77 37 79 38 30 39 82 40 76 41 75 42 31 44 63 45 43 46
REMARK SMILES IDX 62 47 44 48 47 49 61 50 80 51 45 52 46 53 60 55 81 56 48 57
REMARK SMILES IDX 32 58 33 59 41 60 34 61 36 62 42 63 35 64 37 65 38 66 39 67
REMARK SMILES IDX 40 68 64 69 65 70 73 71 66 72 68 73 74 74 67 75 69 76 70 77
REMARK SMILES IDX 71 78 72 79 49 80 50 81 58 82 51 83 53 84 59 85 52 86 54 87
REMARK SMILES IDX 55 88 56 89 57 90
REMARK H PARENT 6 14 9 16 79 43 47 54
REMARK Flexibility Score: inf
ROOT
ATOM      1  C   UNL A   1      31.107  30.110  24.880  1.00  0.00     0.274 C 
ENDROOT
BRANCH   1   2
ATOM      2  O   UNL A   1      30.776  28.829  24.311  1.00  0.00    -0.460 OA
BRANCH   2   3
ATOM      3  C   UNL A   1      30.984  28.708  22.971  1.00  0.00     0.335 C 
ATOM      4  O   UNL A   1      30.470  29.426  22.119  1.00  0.00    -0.249 OA
BRANCH   3   5
ATOM      5  C   UNL A   1      31.945  27.569  22.623  1.00  0.00     0.228 C 
ATOM      6  C   UNL A   1      32.838  25.655  23.593  1.00  0.00     0.138 C 
ATOM      7  C   UNL A   1      33.787  26.786  23.936  1.00  0.00     0.037 C 
ATOM      8  O   UNL A   1      31.610  26.323  23.256  1.00  0.00    -0.361 OA
ATOM      9  C   UNL A   1      33.418  27.845  22.927  1.00  0.00     0.047 C 
BRANCH   6  10
ATOM     10  C   UNL A   1      33.299  24.792  22.398  1.00  0.00     0.149 C 
BRANCH  10  11
ATOM     11  N   UNL A   1      32.535  23.572  22.241  1.00  0.00    -0.336 N 
ATOM     12  N   UNL A   1      33.466  22.013  23.754  1.00  0.00    -0.335 N 
ATOM     13  C   UNL A   1      32.593  22.363  22.805  1.00  0.00     0.315 C 
ATOM     14  H   UNL A   1      33.392  21.061  23.995  1.00  0.00     0.165 HD
ATOM     15  O   UNL A   1      31.795  21.506  22.418  1.00  0.00    -0.249 OA
ATOM     16  H   UNL A   1      31.817  23.651  21.573  1.00  0.00     0.165 HD
BRANCH  12  17
ATOM     17  C   UNL A   1      34.504  22.699  24.522  1.00  0.00     0.083 C 
BRANCH  17  18
ATOM     18  C   UNL A   1      34.293  22.437  26.020  1.00  0.00     0.021 C 
ATOM     19  C   UNL A   1      32.917  21.870  26.336  1.00  0.00     0.006 C 
ENDBRANCH  17  18
BRANCH  17  20
ATOM     20  C   UNL A   1      35.894  22.325  23.977  1.00  0.00     0.021 C 
ATOM     21  C   UNL A   1      37.002  23.326  24.271  1.00  0.00     0.006 C 
ENDBRANCH  17  20
ENDBRANCH  12  17
ENDBRANCH  10  11
ENDBRANCH   6  10
ENDBRANCH   3   5
ENDBRANCH   2   3
ENDBRANCH   1   2
BRANCH   1  22
ATOM     22  C   UNL A   1      32.472  30.077  25.574  1.00  0.00     0.275 C 
BRANCH  22  23
ATOM     23  O   UNL A   1      32.388  30.519  26.943  1.00  0.00    -0.458 OA
BRANCH  23  24
ATOM     24  C   UNL A   1      33.108  31.625  27.239  1.00  0.00     0.338 C 
ATOM     25  O   UNL A   1      32.724  32.786  27.192  1.00  0.00    -0.246 OA
BRANCH  24  26
ATOM     26  C   UNL A   1      34.426  31.254  27.776  1.00  0.00     0.060 A 
ATOM     27  C   UNL A   1      34.631  29.921  28.143  1.00  0.00     0.016 A 
ATOM     28  C   UNL A   1      35.416  32.210  28.009  1.00  0.00     0.016 A 
ATOM     29  C   UNL A   1      35.823  29.536  28.751  1.00  0.00     0.010 A 
ATOM     30  C   UNL A   1      36.613  31.824  28.625  1.00  0.00     0.010 A 
ATOM     31  C   UNL A   1      36.818  30.488  29.012  1.00  0.00    -0.014 A 
BRANCH  31  32
ATOM     32  C   UNL A   1      38.049  30.066  29.722  1.00  0.00     0.031 A 
ATOM     33  C   UNL A   1      38.327  30.554  31.116  1.00  0.00     0.074 A 
ATOM     34  C   UNL A   1      38.903  29.217  29.122  1.00  0.00     0.049 A 
ATOM     35  N   UNL A   1      39.322  30.254  31.910  1.00  0.00    -0.248 NA
ATOM     36  C   UNL A   1      37.361  31.503  31.692  1.00  0.00     0.031 C 
ATOM     37  C   UNL A   1      38.749  28.686  27.767  1.00  0.00     0.029 A 
ATOM     38  N   UNL A   1      40.072  28.656  29.571  1.00  0.00    -0.354 N 
ATOM     39  C   UNL A   1      39.120  30.992  33.070  1.00  0.00     0.074 A 
ATOM     40  C   UNL A   1      37.910  31.763  32.872  1.00  0.00     0.031 C 
ATOM     41  C   UNL A   1      39.788  27.880  27.493  1.00  0.00     0.029 A 
ATOM     42  C   UNL A   1      40.686  27.849  28.645  1.00  0.00     0.049 A 
ATOM     43  H   UNL A   1      40.435  28.816  30.473  1.00  0.00     0.167 HD
ATOM     44  C   UNL A   1      39.862  31.011  34.203  1.00  0.00     0.034 A 
ATOM     45  C   UNL A   1      41.844  27.162  28.714  1.00  0.00     0.034 A 
ATOM     46  C   UNL A   1      41.048  30.222  34.412  1.00  0.00     0.049 A 
ATOM     47  C   UNL A   1      42.635  27.184  29.995  1.00  0.00     0.074 A 
ATOM     48  C   UNL A   1      41.843  30.146  35.543  1.00  0.00     0.029 A 
ATOM     49  N   UNL A   1      41.612  29.375  33.471  1.00  0.00    -0.354 N 
ATOM     50  N   UNL A   1      42.360  27.790  31.124  1.00  0.00    -0.248 NA
ATOM     51  C   UNL A   1      43.878  26.398  30.020  1.00  0.00     0.031 C 
ATOM     52  C   UNL A   1      42.892  29.256  35.282  1.00  0.00     0.029 A 
ATOM     53  C   UNL A   1      42.746  28.773  33.991  1.00  0.00     0.049 A 
ATOM     54  H   UNL A   1      41.259  29.225  32.565  1.00  0.00     0.167 HD
ATOM     55  C   UNL A   1      43.382  27.441  32.002  1.00  0.00     0.074 A 
ATOM     56  C   UNL A   1      44.263  26.544  31.281  1.00  0.00     0.031 C 
ATOM     57  C   UNL A   1      43.586  27.845  33.280  1.00  0.00     0.034 A 
BRANCH  44  58
ATOM     58  C   UNL A   1      39.384  31.886  35.331  1.00  0.00     0.023 A 
ATOM     59  C   UNL A   1      38.469  31.364  36.269  1.00  0.00     0.012 A 
ATOM     60  C   UNL A   1      39.876  33.195  35.498  1.00  0.00     0.148 A 
ATOM     61  C   UNL A   1      38.034  32.140  37.342  1.00  0.00     0.002 A 
ATOM     62  C   UNL A   1      39.462  33.950  36.590  1.00  0.00     0.091 A 
ATOM     63  F   UNL A   1      40.723  33.683  34.580  1.00  0.00    -0.205 F 
ATOM     64  C   UNL A   1      38.536  33.428  37.507  1.00  0.00     0.022 A 
BRANCH  62  65
ATOM     65  S   UNL A   1      40.106  35.594  36.921  1.00  0.00     0.127 S 
ATOM     66  O   UNL A   1      39.626  36.340  35.757  1.00  0.00    -0.237 OA
ATOM     67  O   UNL A   1      39.446  35.942  38.180  1.00  0.00    -0.237 OA
ATOM     68  O   UNL A   1      41.551  35.442  37.019  1.00  0.00    -0.744 OA
ENDBRANCH  62  65
ENDBRANCH  44  58
BRANCH  45  69
ATOM     69  C   UNL A   1      42.286  26.341  27.554  1.00  0.00     0.023 A 
ATOM     70  C   UNL A   1      43.141  26.909  26.589  1.00  0.00     0.012 A 
ATOM     71  C   UNL A   1      41.898  24.994  27.419  1.00  0.00     0.148 A 
ATOM     72  C   UNL A   1      43.582  26.158  25.500  1.00  0.00     0.002 A 
ATOM     73  C   UNL A   1      42.385  24.236  26.361  1.00  0.00     0.091 A 
ATOM     74  F   UNL A   1      41.064  24.478  28.332  1.00  0.00    -0.205 F 
ATOM     75  C   UNL A   1      43.215  24.819  25.392  1.00  0.00     0.022 A 
BRANCH  73  76
ATOM     76  S   UNL A   1      42.066  22.472  26.230  1.00  0.00     0.127 S 
ATOM     77  O   UNL A   1      42.651  21.969  27.469  1.00  0.00    -0.237 OA
ATOM     78  O   UNL A   1      40.604  22.426  26.175  1.00  0.00    -0.237 OA
ATOM     79  O   UNL A   1      42.720  22.055  24.997  1.00  0.00    -0.744 OA
ENDBRANCH  73  76
ENDBRANCH  45  69
BRANCH  57  80
ATOM     80  C   UNL A   1      44.808  27.315  33.985  1.00  0.00     0.023 A 
ATOM     81  C   UNL A   1      46.013  28.043  33.920  1.00  0.00     0.012 A 
ATOM     82  C   UNL A   1      44.756  26.132  34.745  1.00  0.00     0.148 A 
ATOM     83  C   UNL A   1      47.156  27.581  34.572  1.00  0.00     0.002 A 
ATOM     84  C   UNL A   1      45.890  25.699  35.426  1.00  0.00     0.091 A 
ATOM     85  F   UNL A   1      43.609  25.436  34.779  1.00  0.00    -0.205 F 
ATOM     86  C   UNL A   1      47.093  26.415  35.332  1.00  0.00     0.022 A 
BRANCH  84  87
ATOM     87  S   UNL A   1      45.852  24.252  36.490  1.00  0.00     0.127 S 
ATOM     88  O   UNL A   1      45.366  23.219  35.578  1.00  0.00    -0.237 OA
ATOM     89  O   UNL A   1      47.255  24.106  36.883  1.00  0.00    -0.237 OA
ATOM     90  O   UNL A   1      44.960  24.605  37.587  1.00  0.00    -0.744 OA
ENDBRANCH  84  87
ENDBRANCH  57  80
ENDBRANCH  31  32
ENDBRANCH  24  26
ENDBRANCH  23  24
ENDBRANCH  22  23
ENDBRANCH   1  22
TORSDOF 19
ENDMDL
