MODEL 1
REMARK VINA RESULT:     -12.1      0.000      0.000
REMARK SMILES CC[C@@H]1CCC[C@@](C[C@@H]2CSc3ccccc32)(C(=O)OCCOC(=O)c2ccc(-c3c4nc(c(-c5cccc(S(=O)(=O)[O-])c5F)c5ccc([nH]5)c(-c5cccc(S(=O)(=O)[O-])c5F)c5nc(c(-c6cccc(S(=O)(=O)[O-])c6F)c6ccc3[nH]6)C=C5)C=C4)cc2)C1
REMARK SMILES IDX 22 1 21 2 20 3 18 4 19 5 7 6 3 7 4 8 89 9 5 10 6 11 2 12
REMARK SMILES IDX 1 13 8 14 9 15 10 16 17 17 11 18 12 19 16 20 13 21 15 22
REMARK SMILES IDX 14 23 23 24 24 25 25 26 26 27 27 28 88 29 28 30 87 31 29 32
REMARK SMILES IDX 30 33 31 34 81 35 32 36 86 37 80 38 82 39 33 40 85 41 79 42
REMARK SMILES IDX 78 43 34 45 66 46 46 47 65 48 47 49 50 50 64 51 83 52 48 53
REMARK SMILES IDX 49 54 63 56 84 57 51 58 35 59 36 60 44 61 37 62 39 63 45 64
REMARK SMILES IDX 38 65 40 66 41 67 42 68 43 69 67 70 68 71 76 72 69 73 71 74
REMARK SMILES IDX 77 75 70 76 72 77 73 78 74 79 75 80 52 81 53 82 61 83 54 84
REMARK SMILES IDX 56 85 62 86 55 87 57 88 58 89 59 90 60 91
REMARK H PARENT 82 44 50 55
REMARK Flexibility Score: inf
ROOT
ATOM      1  C   UNL A   1      31.776  29.872  26.854  1.00  0.00     0.275 C 
ENDROOT
BRANCH   1   2
ATOM      2  C   UNL A   1      31.701  28.533  27.575  1.00  0.00     0.274 C 
BRANCH   2   3
ATOM      3  O   UNL A   1      31.430  27.464  26.643  1.00  0.00    -0.462 OA
BRANCH   3   4
ATOM      4  C   UNL A   1      32.504  26.905  26.021  1.00  0.00     0.312 C 
ATOM      5  O   UNL A   1      33.632  26.880  26.503  1.00  0.00    -0.252 OA
BRANCH   4   6
ATOM      6  C   UNL A   1      32.202  26.466  24.574  1.00  0.00     0.069 C 
ATOM      7  C   UNL A   1      30.763  28.484  23.626  1.00  0.00    -0.010 C 
ATOM      8  C   UNL A   1      31.854  28.755  22.597  1.00  0.00     0.003 C 
ATOM      9  C   UNL A   1      30.803  27.027  24.136  1.00  0.00     0.022 C 
ATOM     10  C   UNL A   1      33.206  28.420  23.197  1.00  0.00     0.001 C 
ATOM     11  C   UNL A   1      33.264  26.942  23.561  1.00  0.00     0.019 C 
BRANCH   7  12
ATOM     12  C   UNL A   1      29.356  28.818  23.091  1.00  0.00     0.000 C 
ATOM     13  C   UNL A   1      29.349  29.901  22.020  1.00  0.00     0.004 C 
ENDBRANCH   7  12
BRANCH   6  14
ATOM     14  C   UNL A   1      32.040  24.890  24.673  1.00  0.00     0.028 C 
BRANCH  14  15
ATOM     15  C   UNL A   1      32.746  23.902  23.709  1.00  0.00     0.032 C 
ATOM     16  C   UNL A   1      31.871  22.782  23.122  1.00  0.00     0.083 C 
ATOM     17  C   UNL A   1      33.987  23.282  24.296  1.00  0.00    -0.030 A 
ATOM     18  S   UNL A   1      32.529  21.168  23.652  1.00  0.00    -0.125 SA
ATOM     19  C   UNL A   1      33.958  21.891  24.401  1.00  0.00     0.011 A 
ATOM     20  C   UNL A   1      35.049  24.008  24.839  1.00  0.00     0.005 A 
ATOM     21  C   UNL A   1      34.927  21.215  25.128  1.00  0.00     0.015 A 
ATOM     22  C   UNL A   1      36.031  23.333  25.563  1.00  0.00     0.000 A 
ATOM     23  C   UNL A   1      35.959  21.946  25.725  1.00  0.00     0.001 A 
ENDBRANCH  14  15
ENDBRANCH   6  14
ENDBRANCH   4   6
ENDBRANCH   3   4
ENDBRANCH   2   3
ENDBRANCH   1   2
BRANCH   1  24
ATOM     24  O   UNL A   1      33.157  30.189  26.636  1.00  0.00    -0.458 OA
BRANCH  24  25
ATOM     25  C   UNL A   1      33.648  31.233  27.337  1.00  0.00     0.338 C 
ATOM     26  O   UNL A   1      33.064  32.270  27.617  1.00  0.00    -0.246 OA
BRANCH  25  27
ATOM     27  C   UNL A   1      35.034  30.934  27.746  1.00  0.00     0.060 A 
ATOM     28  C   UNL A   1      35.923  31.974  27.995  1.00  0.00     0.016 A 
ATOM     29  C   UNL A   1      35.426  29.620  27.995  1.00  0.00     0.016 A 
ATOM     30  C   UNL A   1      37.201  31.686  28.486  1.00  0.00     0.010 A 
ATOM     31  C   UNL A   1      36.647  29.352  28.612  1.00  0.00     0.010 A 
ATOM     32  C   UNL A   1      37.569  30.372  28.846  1.00  0.00    -0.014 A 
BRANCH  32  33
ATOM     33  C   UNL A   1      38.888  30.104  29.489  1.00  0.00     0.031 A 
ATOM     34  C   UNL A   1      39.254  30.670  30.842  1.00  0.00     0.074 A 
ATOM     35  C   UNL A   1      39.799  29.347  28.837  1.00  0.00     0.049 A 
ATOM     36  N   UNL A   1      40.260  30.343  31.615  1.00  0.00    -0.248 NA
ATOM     37  C   UNL A   1      38.432  31.764  31.386  1.00  0.00     0.031 C 
ATOM     38  C   UNL A   1      39.689  28.893  27.447  1.00  0.00     0.029 A 
ATOM     39  N   UNL A   1      40.985  28.802  29.264  1.00  0.00    -0.354 N 
ATOM     40  C   UNL A   1      40.203  31.203  32.706  1.00  0.00     0.074 A 
ATOM     41  C   UNL A   1      39.112  32.115  32.467  1.00  0.00     0.031 C 
ATOM     42  C   UNL A   1      40.711  28.072  27.166  1.00  0.00     0.029 A 
ATOM     43  C   UNL A   1      41.545  27.931  28.356  1.00  0.00     0.049 A 
ATOM     44  H   UNL A   1      41.395  29.012  30.135  1.00  0.00     0.167 HD
ATOM     45  C   UNL A   1      40.935  31.187  33.844  1.00  0.00     0.034 A 
ATOM     46  C   UNL A   1      42.567  27.061  28.485  1.00  0.00     0.034 A 
ATOM     47  C   UNL A   1      41.932  30.200  34.136  1.00  0.00     0.049 A 
ATOM     48  C   UNL A   1      43.252  26.925  29.815  1.00  0.00     0.074 A 
ATOM     49  C   UNL A   1      42.597  29.973  35.327  1.00  0.00     0.029 A 
ATOM     50  N   UNL A   1      42.393  29.262  33.228  1.00  0.00    -0.354 N 
ATOM     51  N   UNL A   1      43.014  27.570  30.930  1.00  0.00    -0.248 NA
ATOM     52  C   UNL A   1      44.313  25.910  29.922  1.00  0.00     0.031 C 
ATOM     53  C   UNL A   1      43.454  28.884  35.142  1.00  0.00     0.029 A 
ATOM     54  C   UNL A   1      43.330  28.447  33.832  1.00  0.00     0.049 A 
ATOM     55  H   UNL A   1      42.097  29.187  32.292  1.00  0.00     0.167 HD
ATOM     56  C   UNL A   1      43.875  27.028  31.875  1.00  0.00     0.074 A 
ATOM     57  C   UNL A   1      44.632  25.989  31.209  1.00  0.00     0.031 C 
ATOM     58  C   UNL A   1      44.034  27.378  33.174  1.00  0.00     0.034 A 
BRANCH  45  59
ATOM     59  C   UNL A   1      40.574  32.173  34.921  1.00  0.00     0.023 A 
ATOM     60  C   UNL A   1      41.319  33.367  35.015  1.00  0.00     0.012 A 
ATOM     61  C   UNL A   1      39.488  31.962  35.791  1.00  0.00     0.148 A 
ATOM     62  C   UNL A   1      41.011  34.325  35.979  1.00  0.00     0.002 A 
ATOM     63  C   UNL A   1      39.168  32.935  36.732  1.00  0.00     0.091 A 
ATOM     64  F   UNL A   1      38.797  30.818  35.687  1.00  0.00    -0.205 F 
ATOM     65  C   UNL A   1      39.933  34.112  36.833  1.00  0.00     0.022 A 
BRANCH  63  66
ATOM     66  S   UNL A   1      37.774  32.792  37.856  1.00  0.00     0.127 S 
ATOM     67  O   UNL A   1      38.108  33.792  38.870  1.00  0.00    -0.237 OA
ATOM     68  O   UNL A   1      36.648  33.152  36.994  1.00  0.00    -0.237 OA
ATOM     69  O   UNL A   1      37.771  31.414  38.325  1.00  0.00    -0.744 OA
ENDBRANCH  63  66
ENDBRANCH  45  59
BRANCH  46  70
ATOM     70  C   UNL A   1      42.866  26.123  27.368  1.00  0.00     0.023 A 
ATOM     71  C   UNL A   1      43.788  26.522  26.380  1.00  0.00     0.012 A 
ATOM     72  C   UNL A   1      42.311  24.831  27.314  1.00  0.00     0.148 A 
ATOM     73  C   UNL A   1      44.143  25.655  25.346  1.00  0.00     0.002 A 
ATOM     74  C   UNL A   1      42.691  23.961  26.297  1.00  0.00     0.091 A 
ATOM     75  F   UNL A   1      41.440  24.476  28.268  1.00  0.00    -0.205 F 
ATOM     76  C   UNL A   1      43.601  24.374  25.309  1.00  0.00     0.022 A 
BRANCH  74  77
ATOM     77  S   UNL A   1      42.117  22.261  26.204  1.00  0.00     0.127 S 
ATOM     78  O   UNL A   1      42.794  21.784  25.000  1.00  0.00    -0.237 OA
ATOM     79  O   UNL A   1      42.624  21.703  27.457  1.00  0.00    -0.237 OA
ATOM     80  O   UNL A   1      40.665  22.338  26.119  1.00  0.00    -0.744 OA
ENDBRANCH  74  77
ENDBRANCH  46  70
BRANCH  58  81
ATOM     81  C   UNL A   1      45.067  26.657  33.991  1.00  0.00     0.023 A 
ATOM     82  C   UNL A   1      46.361  27.203  34.078  1.00  0.00     0.012 A 
ATOM     83  C   UNL A   1      44.712  25.564  34.803  1.00  0.00     0.148 A 
ATOM     84  C   UNL A   1      47.290  26.675  34.972  1.00  0.00     0.002 A 
ATOM     85  C   UNL A   1      45.632  25.061  35.713  1.00  0.00     0.091 A 
ATOM     86  F   UNL A   1      43.472  25.065  34.694  1.00  0.00    -0.205 F 
ATOM     87  C   UNL A   1      46.922  25.615  35.798  1.00  0.00     0.022 A 
BRANCH  85  88
ATOM     88  S   UNL A   1      45.233  23.756  36.881  1.00  0.00     0.127 S 
ATOM     89  O   UNL A   1      44.273  24.424  37.759  1.00  0.00    -0.237 OA
ATOM     90  O   UNL A   1      44.655  22.732  36.012  1.00  0.00    -0.237 OA
ATOM     91  O   UNL A   1      46.490  23.381  37.515  1.00  0.00    -0.744 OA
ENDBRANCH  85  88
ENDBRANCH  58  81
ENDBRANCH  32  33
ENDBRANCH  25  27
ENDBRANCH  24  25
ENDBRANCH   1  24
TORSDOF 17
ENDMDL
MODEL 2
REMARK VINA RESULT:     -12.0      1.642      2.884
REMARK SMILES CC[C@@H]1CCC[C@@](C[C@@H]2CSc3ccccc32)(C(=O)OCCOC(=O)c2ccc(-c3c4nc(c(-c5cccc(S(=O)(=O)[O-])c5F)c5ccc([nH]5)c(-c5cccc(S(=O)(=O)[O-])c5F)c5nc(c(-c6cccc(S(=O)(=O)[O-])c6F)c6ccc3[nH]6)C=C5)C=C4)cc2)C1
REMARK SMILES IDX 22 1 21 2 20 3 18 4 19 5 7 6 3 7 4 8 89 9 5 10 6 11 2 12
REMARK SMILES IDX 1 13 8 14 9 15 10 16 17 17 11 18 12 19 16 20 13 21 15 22
REMARK SMILES IDX 14 23 23 24 24 25 25 26 26 27 27 28 88 29 28 30 87 31 29 32
REMARK SMILES IDX 30 33 31 34 81 35 32 36 86 37 80 38 82 39 33 40 85 41 79 42
REMARK SMILES IDX 78 43 34 45 66 46 46 47 65 48 47 49 50 50 64 51 83 52 48 53
REMARK SMILES IDX 49 54 63 56 84 57 51 58 35 59 36 60 44 61 37 62 39 63 45 64
REMARK SMILES IDX 38 65 40 66 41 67 42 68 43 69 67 70 68 71 76 72 69 73 71 74
REMARK SMILES IDX 77 75 70 76 72 77 73 78 74 79 75 80 52 81 53 82 61 83 54 84
REMARK SMILES IDX 56 85 62 86 55 87 57 88 58 89 59 90 60 91
REMARK H PARENT 82 44 50 55
REMARK Flexibility Score: inf
ROOT
ATOM      1  C   UNL A   1      32.061  29.486  24.626  1.00  0.00     0.275 C 
ENDROOT
BRANCH   1   2
ATOM      2  C   UNL A   1      32.537  28.927  23.291  1.00  0.00     0.274 C 
BRANCH   2   3
ATOM      3  O   UNL A   1      33.632  28.007  23.483  1.00  0.00    -0.462 OA
BRANCH   3   4
ATOM      4  C   UNL A   1      33.564  26.825  22.813  1.00  0.00     0.312 C 
ATOM      5  O   UNL A   1      33.710  26.720  21.600  1.00  0.00    -0.252 OA
BRANCH   4   6
ATOM      6  C   UNL A   1      33.109  25.652  23.706  1.00  0.00     0.069 C 
ATOM      7  C   UNL A   1      35.292  24.153  23.882  1.00  0.00    -0.010 C 
ATOM      8  C   UNL A   1      35.318  24.399  25.386  1.00  0.00     0.003 C 
ATOM      9  C   UNL A   1      33.878  24.347  23.292  1.00  0.00     0.022 C 
ATOM     10  C   UNL A   1      34.788  25.791  25.677  1.00  0.00     0.001 C 
ATOM     11  C   UNL A   1      33.343  25.907  25.209  1.00  0.00     0.019 C 
BRANCH   7  12
ATOM     12  C   UNL A   1      35.834  22.759  23.506  1.00  0.00     0.000 C 
ATOM     13  C   UNL A   1      37.099  22.371  24.261  1.00  0.00     0.004 C 
ENDBRANCH   7  12
BRANCH   6  14
ATOM     14  C   UNL A   1      31.591  25.423  23.301  1.00  0.00     0.028 C 
BRANCH  14  15
ATOM     15  C   UNL A   1      30.660  24.420  24.028  1.00  0.00     0.032 C 
ATOM     16  C   UNL A   1      30.278  24.773  25.476  1.00  0.00     0.083 C 
ATOM     17  C   UNL A   1      31.174  23.004  24.000  1.00  0.00    -0.030 A 
ATOM     18  S   UNL A   1      30.892  23.470  26.591  1.00  0.00    -0.125 SA
ATOM     19  C   UNL A   1      31.417  22.440  25.253  1.00  0.00     0.011 A 
ATOM     20  C   UNL A   1      31.532  22.318  22.838  1.00  0.00     0.005 A 
ATOM     21  C   UNL A   1      32.102  21.240  25.369  1.00  0.00     0.015 A 
ATOM     22  C   UNL A   1      32.214  21.108  22.948  1.00  0.00     0.000 A 
ATOM     23  C   UNL A   1      32.516  20.581  24.207  1.00  0.00     0.001 A 
ENDBRANCH  14  15
ENDBRANCH   6  14
ENDBRANCH   4   6
ENDBRANCH   3   4
ENDBRANCH   2   3
ENDBRANCH   1   2
BRANCH   1  24
ATOM     24  O   UNL A   1      33.198  29.616  25.490  1.00  0.00    -0.458 OA
BRANCH  24  25
ATOM     25  C   UNL A   1      33.119  30.571  26.441  1.00  0.00     0.338 C 
ATOM     26  O   UNL A   1      32.225  31.393  26.585  1.00  0.00    -0.246 OA
BRANCH  25  27
ATOM     27  C   UNL A   1      34.296  30.473  27.325  1.00  0.00     0.060 A 
ATOM     28  C   UNL A   1      34.795  29.224  27.680  1.00  0.00     0.016 A 
ATOM     29  C   UNL A   1      34.981  31.623  27.714  1.00  0.00     0.016 A 
ATOM     30  C   UNL A   1      35.974  29.140  28.429  1.00  0.00     0.010 A 
ATOM     31  C   UNL A   1      36.223  31.527  28.338  1.00  0.00     0.010 A 
ATOM     32  C   UNL A   1      36.733  30.290  28.732  1.00  0.00    -0.014 A 
BRANCH  32  33
ATOM     33  C   UNL A   1      38.052  30.168  29.418  1.00  0.00     0.031 A 
ATOM     34  C   UNL A   1      38.298  30.733  30.798  1.00  0.00     0.074 A 
ATOM     35  C   UNL A   1      39.073  29.550  28.781  1.00  0.00     0.049 A 
ATOM     36  N   UNL A   1      39.310  30.509  31.600  1.00  0.00    -0.248 NA
ATOM     37  C   UNL A   1      37.327  31.699  31.339  1.00  0.00     0.031 C 
ATOM     38  C   UNL A   1      39.068  29.129  27.377  1.00  0.00     0.029 A 
ATOM     39  N   UNL A   1      40.302  29.143  29.239  1.00  0.00    -0.354 N 
ATOM     40  C   UNL A   1      39.107  31.322  32.710  1.00  0.00     0.074 A 
ATOM     41  C   UNL A   1      37.920  32.099  32.454  1.00  0.00     0.031 C 
ATOM     42  C   UNL A   1      40.194  28.450  27.114  1.00  0.00     0.029 A 
ATOM     43  C   UNL A   1      40.997  28.377  28.330  1.00  0.00     0.049 A 
ATOM     44  H   UNL A   1      40.652  29.376  30.129  1.00  0.00     0.167 HD
ATOM     45  C   UNL A   1      39.796  31.362  33.874  1.00  0.00     0.034 A 
ATOM     46  C   UNL A   1      42.115  27.637  28.475  1.00  0.00     0.034 A 
ATOM     47  C   UNL A   1      40.898  30.498  34.178  1.00  0.00     0.049 A 
ATOM     48  C   UNL A   1      42.766  27.546  29.826  1.00  0.00     0.074 A 
ATOM     49  C   UNL A   1      41.545  30.319  35.387  1.00  0.00     0.029 A 
ATOM     50  N   UNL A   1      41.504  29.653  33.264  1.00  0.00    -0.354 N 
ATOM     51  N   UNL A   1      42.410  28.122  30.948  1.00  0.00    -0.248 NA
ATOM     52  C   UNL A   1      43.941  26.668  29.947  1.00  0.00     0.031 C 
ATOM     53  C   UNL A   1      42.537  29.350  35.206  1.00  0.00     0.029 A 
ATOM     54  C   UNL A   1      42.514  28.942  33.881  1.00  0.00     0.049 A 
ATOM     55  H   UNL A   1      41.252  29.570  32.315  1.00  0.00     0.167 HD
ATOM     56  C   UNL A   1      43.300  27.662  31.911  1.00  0.00     0.074 A 
ATOM     57  C   UNL A   1      44.203  26.746  31.247  1.00  0.00     0.031 C 
ATOM     58  C   UNL A   1      43.368  27.990  33.224  1.00  0.00     0.034 A 
BRANCH  45  59
ATOM     59  C   UNL A   1      39.278  32.263  34.962  1.00  0.00     0.023 A 
ATOM     60  C   UNL A   1      38.243  31.786  35.793  1.00  0.00     0.012 A 
ATOM     61  C   UNL A   1      39.834  33.534  35.205  1.00  0.00     0.148 A 
ATOM     62  C   UNL A   1      37.744  32.571  36.830  1.00  0.00     0.002 A 
ATOM     63  C   UNL A   1      39.350  34.300  36.260  1.00  0.00     0.091 A 
ATOM     64  F   UNL A   1      40.814  33.968  34.400  1.00  0.00    -0.205 F 
ATOM     65  C   UNL A   1      38.301  33.824  37.067  1.00  0.00     0.022 A 
BRANCH  63  66
ATOM     66  S   UNL A   1      40.020  35.911  36.690  1.00  0.00     0.127 S 
ATOM     67  O   UNL A   1      41.437  35.601  36.876  1.00  0.00    -0.237 OA
ATOM     68  O   UNL A   1      39.719  36.696  35.493  1.00  0.00    -0.237 OA
ATOM     69  O   UNL A   1      39.317  36.333  37.893  1.00  0.00    -0.744 OA
ENDBRANCH  63  66
ENDBRANCH  45  59
BRANCH  46  70
ATOM     70  C   UNL A   1      42.568  26.777  27.346  1.00  0.00     0.023 A 
ATOM     71  C   UNL A   1      43.447  27.326  26.391  1.00  0.00     0.012 A 
ATOM     72  C   UNL A   1      42.200  25.423  27.250  1.00  0.00     0.148 A 
ATOM     73  C   UNL A   1      43.943  26.543  25.349  1.00  0.00     0.002 A 
ATOM     74  C   UNL A   1      42.721  24.640  26.225  1.00  0.00     0.091 A 
ATOM     75  F   UNL A   1      41.366  24.926  28.173  1.00  0.00    -0.205 F 
ATOM     76  C   UNL A   1      43.586  25.200  25.270  1.00  0.00     0.022 A 
BRANCH  74  77
ATOM     77  S   UNL A   1      42.392  22.879  26.080  1.00  0.00     0.127 S 
ATOM     78  O   UNL A   1      43.019  22.564  24.798  1.00  0.00    -0.237 OA
ATOM     79  O   UNL A   1      43.086  22.347  27.252  1.00  0.00    -0.237 OA
ATOM     80  O   UNL A   1      40.943  22.743  26.120  1.00  0.00    -0.744 OA
ENDBRANCH  74  77
ENDBRANCH  46  70
BRANCH  58  81
ATOM     81  C   UNL A   1      44.455  27.377  34.059  1.00  0.00     0.023 A 
ATOM     82  C   UNL A   1      45.674  28.068  34.195  1.00  0.00     0.012 A 
ATOM     83  C   UNL A   1      44.207  26.235  34.844  1.00  0.00     0.148 A 
ATOM     84  C   UNL A   1      46.632  27.634  35.108  1.00  0.00     0.002 A 
ATOM     85  C   UNL A   1      45.153  25.825  35.773  1.00  0.00     0.091 A 
ATOM     86  F   UNL A   1      43.037  25.598  34.689  1.00  0.00    -0.205 F 
ATOM     87  C   UNL A   1      46.367  26.523  35.906  1.00  0.00     0.022 A 
BRANCH  85  88
ATOM     88  S   UNL A   1      44.875  24.461  36.908  1.00  0.00     0.127 S 
ATOM     89  O   UNL A   1      44.639  23.350  35.988  1.00  0.00    -0.237 OA
ATOM     90  O   UNL A   1      46.146  24.397  37.629  1.00  0.00    -0.237 OA
ATOM     91  O   UNL A   1      43.729  24.839  37.724  1.00  0.00    -0.744 OA
ENDBRANCH  85  88
ENDBRANCH  58  81
ENDBRANCH  32  33
ENDBRANCH  25  27
ENDBRANCH  24  25
ENDBRANCH   1  24
TORSDOF 17
ENDMDL
MODEL 3
REMARK VINA RESULT:     -11.7      4.904      9.836
REMARK SMILES CC[C@@H]1CCC[C@@](C[C@@H]2CSc3ccccc32)(C(=O)OCCOC(=O)c2ccc(-c3c4nc(c(-c5cccc(S(=O)(=O)[O-])c5F)c5ccc([nH]5)c(-c5cccc(S(=O)(=O)[O-])c5F)c5nc(c(-c6cccc(S(=O)(=O)[O-])c6F)c6ccc3[nH]6)C=C5)C=C4)cc2)C1
REMARK SMILES IDX 22 1 21 2 20 3 18 4 19 5 7 6 3 7 4 8 89 9 5 10 6 11 2 12
REMARK SMILES IDX 1 13 8 14 9 15 10 16 17 17 11 18 12 19 16 20 13 21 15 22
REMARK SMILES IDX 14 23 23 24 24 25 25 26 26 27 27 28 88 29 28 30 87 31 29 32
REMARK SMILES IDX 30 33 31 34 81 35 32 36 86 37 80 38 82 39 33 40 85 41 79 42
REMARK SMILES IDX 78 43 34 45 66 46 46 47 65 48 47 49 50 50 64 51 83 52 48 53
REMARK SMILES IDX 49 54 63 56 84 57 51 58 35 59 36 60 44 61 37 62 39 63 45 64
REMARK SMILES IDX 38 65 40 66 41 67 42 68 43 69 67 70 68 71 76 72 69 73 71 74
REMARK SMILES IDX 77 75 70 76 72 77 73 78 74 79 75 80 52 81 53 82 61 83 54 84
REMARK SMILES IDX 56 85 62 86 55 87 57 88 58 89 59 90 60 91
REMARK H PARENT 82 44 50 55
REMARK Flexibility Score: inf
ROOT
ATOM      1  C   UNL A   1      36.011  20.764  25.134  1.00  0.00     0.275 C 
ENDROOT
BRANCH   1   2
ATOM      2  C   UNL A   1      34.905  21.227  26.073  1.00  0.00     0.274 C 
BRANCH   2   3
ATOM      3  O   UNL A   1      35.012  22.643  26.333  1.00  0.00    -0.462 OA
BRANCH   3   4
ATOM      4  C   UNL A   1      33.879  23.281  26.733  1.00  0.00     0.312 C 
ATOM      5  O   UNL A   1      33.265  22.998  27.756  1.00  0.00    -0.252 OA
BRANCH   4   6
ATOM      6  C   UNL A   1      33.343  24.274  25.682  1.00  0.00     0.069 C 
ATOM      7  C   UNL A   1      32.307  22.683  23.829  1.00  0.00    -0.010 C 
ATOM      8  C   UNL A   1      30.934  23.283  24.106  1.00  0.00     0.003 C 
ATOM      9  C   UNL A   1      33.447  23.634  24.253  1.00  0.00     0.022 C 
ATOM     10  C   UNL A   1      30.831  23.644  25.577  1.00  0.00     0.001 C 
ATOM     11  C   UNL A   1      31.879  24.690  25.932  1.00  0.00     0.019 C 
BRANCH   7  12
ATOM     12  C   UNL A   1      32.481  22.274  22.352  1.00  0.00     0.000 C 
ATOM     13  C   UNL A   1      33.243  23.296  21.520  1.00  0.00     0.004 C 
ENDBRANCH   7  12
BRANCH   6  14
ATOM     14  C   UNL A   1      34.386  25.471  25.713  1.00  0.00     0.028 C 
BRANCH  14  15
ATOM     15  C   UNL A   1      33.988  26.951  25.475  1.00  0.00     0.032 C 
ATOM     16  C   UNL A   1      33.443  27.713  26.695  1.00  0.00     0.083 C 
ATOM     17  C   UNL A   1      33.027  27.130  24.329  1.00  0.00    -0.030 A 
ATOM     18  S   UNL A   1      31.735  28.244  26.354  1.00  0.00    -0.125 SA
ATOM     19  C   UNL A   1      31.801  27.702  24.672  1.00  0.00     0.011 A 
ATOM     20  C   UNL A   1      33.242  26.649  23.036  1.00  0.00     0.005 A 
ATOM     21  C   UNL A   1      30.748  27.714  23.770  1.00  0.00     0.015 A 
ATOM     22  C   UNL A   1      32.190  26.665  22.123  1.00  0.00     0.000 A 
ATOM     23  C   UNL A   1      30.942  27.176  22.494  1.00  0.00     0.001 A 
ENDBRANCH  14  15
ENDBRANCH   6  14
ENDBRANCH   4   6
ENDBRANCH   3   4
ENDBRANCH   2   3
ENDBRANCH   1   2
BRANCH   1  24
ATOM     24  O   UNL A   1      37.028  21.774  25.105  1.00  0.00    -0.458 OA
BRANCH  24  25
ATOM     25  C   UNL A   1      38.262  21.391  25.496  1.00  0.00     0.338 C 
ATOM     26  O   UNL A   1      38.805  20.319  25.269  1.00  0.00    -0.246 OA
BRANCH  25  27
ATOM     27  C   UNL A   1      38.895  22.490  26.251  1.00  0.00     0.060 A 
ATOM     28  C   UNL A   1      40.011  22.234  27.041  1.00  0.00     0.016 A 
ATOM     29  C   UNL A   1      38.454  23.801  26.087  1.00  0.00     0.016 A 
ATOM     30  C   UNL A   1      40.670  23.299  27.667  1.00  0.00     0.010 A 
ATOM     31  C   UNL A   1      39.194  24.865  26.599  1.00  0.00     0.010 A 
ATOM     32  C   UNL A   1      40.300  24.637  27.420  1.00  0.00    -0.014 A 
BRANCH  32  33
ATOM     33  C   UNL A   1      41.095  25.761  27.993  1.00  0.00     0.031 A 
ATOM     34  C   UNL A   1      42.546  25.984  27.635  1.00  0.00     0.074 A 
ATOM     35  C   UNL A   1      40.511  26.600  28.878  1.00  0.00     0.049 A 
ATOM     36  N   UNL A   1      43.291  27.036  27.876  1.00  0.00    -0.248 NA
ATOM     37  C   UNL A   1      43.277  24.892  26.969  1.00  0.00     0.031 C 
ATOM     38  C   UNL A   1      39.189  26.411  29.483  1.00  0.00     0.029 A 
ATOM     39  N   UNL A   1      40.941  27.795  29.401  1.00  0.00    -0.354 N 
ATOM     40  C   UNL A   1      44.565  26.717  27.420  1.00  0.00     0.074 A 
ATOM     41  C   UNL A   1      44.519  25.353  26.955  1.00  0.00     0.031 C 
ATOM     42  C   UNL A   1      38.882  27.488  30.221  1.00  0.00     0.029 A 
ATOM     43  C   UNL A   1      39.977  28.449  30.135  1.00  0.00     0.049 A 
ATOM     44  H   UNL A   1      41.850  28.150  29.265  1.00  0.00     0.167 HD
ATOM     45  C   UNL A   1      45.658  27.509  27.318  1.00  0.00     0.034 A 
ATOM     46  C   UNL A   1      39.942  29.706  30.621  1.00  0.00     0.034 A 
ATOM     47  C   UNL A   1      45.667  28.901  27.660  1.00  0.00     0.049 A 
ATOM     48  C   UNL A   1      41.090  30.634  30.340  1.00  0.00     0.074 A 
ATOM     49  C   UNL A   1      46.653  29.840  27.421  1.00  0.00     0.029 A 
ATOM     50  N   UNL A   1      44.628  29.556  28.300  1.00  0.00    -0.354 N 
ATOM     51  N   UNL A   1      42.193  30.396  29.675  1.00  0.00    -0.248 NA
ATOM     52  C   UNL A   1      40.970  32.016  30.832  1.00  0.00     0.031 C 
ATOM     53  C   UNL A   1      46.202  31.072  27.906  1.00  0.00     0.029 A 
ATOM     54  C   UNL A   1      44.944  30.890  28.459  1.00  0.00     0.049 A 
ATOM     55  H   UNL A   1      43.790  29.132  28.597  1.00  0.00     0.167 HD
ATOM     56  C   UNL A   1      42.889  31.598  29.649  1.00  0.00     0.074 A 
ATOM     57  C   UNL A   1      42.077  32.570  30.350  1.00  0.00     0.031 C 
ATOM     58  C   UNL A   1      44.102  31.861  29.106  1.00  0.00     0.034 A 
BRANCH  45  59
ATOM     59  C   UNL A   1      46.885  26.928  26.670  1.00  0.00     0.023 A 
ATOM     60  C   UNL A   1      47.002  27.001  25.266  1.00  0.00     0.012 A 
ATOM     61  C   UNL A   1      47.934  26.371  27.426  1.00  0.00     0.148 A 
ATOM     62  C   UNL A   1      48.128  26.500  24.618  1.00  0.00     0.002 A 
ATOM     63  C   UNL A   1      49.068  25.899  26.775  1.00  0.00     0.091 A 
ATOM     64  F   UNL A   1      47.799  26.308  28.758  1.00  0.00    -0.205 F 
ATOM     65  C   UNL A   1      49.164  25.955  25.373  1.00  0.00     0.022 A 
BRANCH  63  66
ATOM     66  S   UNL A   1      50.485  25.216  27.643  1.00  0.00     0.127 S 
ATOM     67  O   UNL A   1      49.882  24.084  28.347  1.00  0.00    -0.237 OA
ATOM     68  O   UNL A   1      51.371  24.845  26.539  1.00  0.00    -0.237 OA
ATOM     69  O   UNL A   1      50.986  26.280  28.501  1.00  0.00    -0.744 OA
ENDBRANCH  63  66
ENDBRANCH  45  59
BRANCH  46  70
ATOM     70  C   UNL A   1      38.691  30.204  31.258  1.00  0.00     0.023 A 
ATOM     71  C   UNL A   1      38.522  30.022  32.645  1.00  0.00     0.012 A 
ATOM     72  C   UNL A   1      37.716  30.908  30.529  1.00  0.00     0.148 A 
ATOM     73  C   UNL A   1      37.394  30.521  33.295  1.00  0.00     0.002 A 
ATOM     74  C   UNL A   1      36.607  31.428  31.188  1.00  0.00     0.091 A 
ATOM     75  F   UNL A   1      37.904  31.069  29.212  1.00  0.00    -0.205 F 
ATOM     76  C   UNL A   1      36.441  31.230  32.569  1.00  0.00     0.022 A 
BRANCH  74  77
ATOM     77  S   UNL A   1      35.363  32.428  30.362  1.00  0.00     0.127 S 
ATOM     78  O   UNL A   1      36.141  33.597  29.957  1.00  0.00    -0.237 OA
ATOM     79  O   UNL A   1      34.954  31.552  29.264  1.00  0.00    -0.237 OA
ATOM     80  O   UNL A   1      34.330  32.676  31.357  1.00  0.00    -0.744 OA
ENDBRANCH  74  77
ENDBRANCH  46  70
BRANCH  58  81
ATOM     81  C   UNL A   1      44.662  33.248  29.240  1.00  0.00     0.023 A 
ATOM     82  C   UNL A   1      45.468  33.546  30.355  1.00  0.00     0.012 A 
ATOM     83  C   UNL A   1      44.546  34.179  28.190  1.00  0.00     0.148 A 
ATOM     84  C   UNL A   1      46.160  34.753  30.421  1.00  0.00     0.002 A 
ATOM     85  C   UNL A   1      45.262  35.367  28.248  1.00  0.00     0.091 A 
ATOM     86  F   UNL A   1      43.769  33.864  27.144  1.00  0.00    -0.205 F 
ATOM     87  C   UNL A   1      46.069  35.656  29.363  1.00  0.00     0.022 A 
BRANCH  85  88
ATOM     88  S   UNL A   1      45.282  36.558  26.903  1.00  0.00     0.127 S 
ATOM     89  O   UNL A   1      43.855  36.753  26.656  1.00  0.00    -0.237 OA
ATOM     90  O   UNL A   1      45.959  37.701  27.515  1.00  0.00    -0.237 OA
ATOM     91  O   UNL A   1      46.015  35.926  25.814  1.00  0.00    -0.744 OA
ENDBRANCH  85  88
ENDBRANCH  58  81
ENDBRANCH  32  33
ENDBRANCH  25  27
ENDBRANCH  24  25
ENDBRANCH   1  24
TORSDOF 17
ENDMDL
