MODEL 1
REMARK VINA RESULT:     -11.9      0.000      0.000
REMARK SMILES CCc1noc(C)c1C(=O)Nc1cc(Cl)ccc1C(=O)OCCOC(=O)c1ccc(-c2c3nc(c(-c4cccc(S(=O)(=O)[O-])c4F)c4ccc([nH]4)c(-c4cccc(S(=O)(=O)[O-])c4F)c4nc(c(-c5cccc(S(=O)(=O)[O-])c5F)c5ccc2[nH]5)C=C4)C=C3)cc1
REMARK SMILES IDX 22 1 21 2 19 3 20 4 18 5 12 6 13 7 14 8 17 9 15 10 16 11
REMARK SMILES IDX 11 12 9 13 10 14 8 16 3 17 4 18 5 19 6 20 7 21 2 22 1 23
REMARK SMILES IDX 23 24 24 25 25 26 26 27 27 28 28 29 89 30 29 31 88 32 30 33
REMARK SMILES IDX 31 34 32 35 82 36 33 37 87 38 81 39 83 40 34 41 86 42 80 43
REMARK SMILES IDX 79 44 35 46 67 47 47 48 66 49 48 50 51 51 65 52 84 53 49 54
REMARK SMILES IDX 50 55 64 57 85 58 52 59 36 60 37 61 45 62 38 63 40 64 46 65
REMARK SMILES IDX 39 66 41 67 42 68 43 69 44 70 68 71 69 72 77 73 70 74 72 75
REMARK SMILES IDX 78 76 71 77 73 78 74 79 75 80 76 81 53 82 54 83 62 84 55 85
REMARK SMILES IDX 57 86 63 87 56 88 58 89 59 90 60 91 61 92
REMARK H PARENT 11 15 83 45 51 56
REMARK Flexibility Score: inf
ROOT
ATOM      1  C   UNL A   1      33.134  29.240  24.565  1.00  0.00     0.275 C 
ENDROOT
BRANCH   1   2
ATOM      2  O   UNL A   1      33.236  27.819  24.810  1.00  0.00    -0.458 OA
BRANCH   2   3
ATOM      3  C   UNL A   1      32.541  27.002  23.978  1.00  0.00     0.340 C 
ATOM      4  O   UNL A   1      32.519  27.090  22.760  1.00  0.00    -0.246 OA
BRANCH   3   5
ATOM      5  C   UNL A   1      31.791  25.929  24.708  1.00  0.00     0.083 A 
ATOM      6  C   UNL A   1      31.857  24.552  24.410  1.00  0.00     0.057 A 
ATOM      7  C   UNL A   1      31.210  23.635  25.254  1.00  0.00     0.047 A 
ATOM      8  C   UNL A   1      30.377  24.086  26.279  1.00  0.00     0.043 A 
ATOM      9  C   UNL A   1      30.946  26.359  25.749  1.00  0.00     0.019 A 
ATOM     10  Cl  UNL A   1      29.528  22.950  27.251  1.00  0.00    -0.084 Cl
ATOM     11  C   UNL A   1      30.206  25.446  26.501  1.00  0.00     0.021 A 
BRANCH   6  12
ATOM     12  N   UNL A   1      32.574  24.116  23.287  1.00  0.00    -0.321 N 
ATOM     13  C   UNL A   1      33.672  23.310  23.117  1.00  0.00     0.261 C 
ATOM     14  O   UNL A   1      34.197  23.357  22.001  1.00  0.00    -0.269 OA
ATOM     15  H   UNL A   1      32.212  24.462  22.440  1.00  0.00     0.170 HD
BRANCH  13  16
ATOM     16  C   UNL A   1      34.172  22.404  24.142  1.00  0.00     0.105 A 
ATOM     17  C   UNL A   1      33.621  21.119  24.468  1.00  0.00     0.096 A 
ATOM     18  N   UNL A   1      34.361  20.489  25.387  1.00  0.00    -0.084 NA
ATOM     19  O   UNL A   1      35.277  21.412  25.821  1.00  0.00    -0.361 OA
ATOM     20  C   UNL A   1      35.109  22.582  25.150  1.00  0.00     0.146 A 
ATOM     21  C   UNL A   1      35.909  23.690  25.715  1.00  0.00     0.092 C 
BRANCH  17  22
ATOM     22  C   UNL A   1      32.375  20.465  23.958  1.00  0.00     0.057 C 
ATOM     23  C   UNL A   1      32.579  19.001  23.581  1.00  0.00     0.011 C 
ENDBRANCH  17  22
ENDBRANCH  13  16
ENDBRANCH   6  12
ENDBRANCH   3   5
ENDBRANCH   2   3
ENDBRANCH   1   2
BRANCH   1  24
ATOM     24  C   UNL A   1      32.065  29.905  25.437  1.00  0.00     0.275 C 
BRANCH  24  25
ATOM     25  O   UNL A   1      32.486  29.990  26.808  1.00  0.00    -0.458 OA
BRANCH  25  26
ATOM     26  C   UNL A   1      33.039  31.173  27.157  1.00  0.00     0.338 C 
ATOM     27  O   UNL A   1      32.478  32.253  27.252  1.00  0.00    -0.246 OA
BRANCH  26  28
ATOM     28  C   UNL A   1      34.425  30.970  27.601  1.00  0.00     0.060 A 
ATOM     29  C   UNL A   1      34.779  29.670  27.949  1.00  0.00     0.016 A 
ATOM     30  C   UNL A   1      35.300  32.026  27.835  1.00  0.00     0.016 A 
ATOM     31  C   UNL A   1      35.975  29.418  28.605  1.00  0.00     0.010 A 
ATOM     32  C   UNL A   1      36.542  31.760  28.434  1.00  0.00     0.010 A 
ATOM     33  C   UNL A   1      36.878  30.459  28.857  1.00  0.00    -0.014 A 
BRANCH  33  34
ATOM     34  C   UNL A   1      38.140  30.170  29.597  1.00  0.00     0.031 A 
ATOM     35  C   UNL A   1      39.179  29.253  29.005  1.00  0.00     0.074 A 
ATOM     36  C   UNL A   1      38.369  30.748  30.795  1.00  0.00     0.049 A 
ATOM     37  N   UNL A   1      40.275  28.790  29.547  1.00  0.00    -0.248 NA
ATOM     38  C   UNL A   1      38.952  28.786  27.628  1.00  0.00     0.031 C 
ATOM     39  C   UNL A   1      37.456  31.669  31.477  1.00  0.00     0.029 A 
ATOM     40  N   UNL A   1      39.432  30.641  31.658  1.00  0.00    -0.354 N 
ATOM     41  C   UNL A   1      40.824  27.914  28.615  1.00  0.00     0.074 A 
ATOM     42  C   UNL A   1      39.948  27.925  27.464  1.00  0.00     0.031 C 
ATOM     43  C   UNL A   1      38.001  32.052  32.641  1.00  0.00     0.029 A 
ATOM     44  C   UNL A   1      39.258  31.339  32.832  1.00  0.00     0.049 A 
ATOM     45  H   UNL A   1      40.240  30.116  31.457  1.00  0.00     0.167 HD
ATOM     46  C   UNL A   1      41.954  27.173  28.709  1.00  0.00     0.034 A 
ATOM     47  C   UNL A   1      39.994  31.365  33.960  1.00  0.00     0.034 A 
ATOM     48  C   UNL A   1      42.859  27.221  29.827  1.00  0.00     0.049 A 
ATOM     49  C   UNL A   1      41.248  30.541  34.032  1.00  0.00     0.074 A 
ATOM     50  C   UNL A   1      44.062  26.555  29.985  1.00  0.00     0.029 A 
ATOM     51  N   UNL A   1      42.667  27.973  30.974  1.00  0.00    -0.354 N 
ATOM     52  N   UNL A   1      41.782  29.771  33.116  1.00  0.00    -0.248 NA
ATOM     53  C   UNL A   1      42.011  30.600  35.287  1.00  0.00     0.031 C 
ATOM     54  C   UNL A   1      44.582  26.882  31.242  1.00  0.00     0.029 A 
ATOM     55  C   UNL A   1      43.721  27.780  31.851  1.00  0.00     0.049 A 
ATOM     56  H   UNL A   1      41.894  28.561  31.141  1.00  0.00     0.167 HD
ATOM     57  C   UNL A   1      42.954  29.274  33.673  1.00  0.00     0.074 A 
ATOM     58  C   UNL A   1      43.066  29.853  34.996  1.00  0.00     0.031 C 
ATOM     59  C   UNL A   1      43.846  28.402  33.144  1.00  0.00     0.034 A 
BRANCH  46  60
ATOM     60  C   UNL A   1      42.286  26.240  27.573  1.00  0.00     0.023 A 
ATOM     61  C   UNL A   1      43.115  26.670  26.519  1.00  0.00     0.012 A 
ATOM     62  C   UNL A   1      41.829  24.906  27.591  1.00  0.00     0.148 A 
ATOM     63  C   UNL A   1      43.458  25.798  25.485  1.00  0.00     0.002 A 
ATOM     64  C   UNL A   1      42.213  24.031  26.583  1.00  0.00     0.091 A 
ATOM     65  F   UNL A   1      41.025  24.520  28.592  1.00  0.00    -0.205 F 
ATOM     66  C   UNL A   1      43.017  24.478  25.523  1.00  0.00     0.022 A 
BRANCH  64  67
ATOM     67  S   UNL A   1      41.766  22.291  26.588  1.00  0.00     0.127 S 
ATOM     68  O   UNL A   1      40.307  22.361  26.501  1.00  0.00    -0.237 OA
ATOM     69  O   UNL A   1      42.425  21.800  25.376  1.00  0.00    -0.237 OA
ATOM     70  O   UNL A   1      42.291  21.742  27.830  1.00  0.00    -0.744 OA
ENDBRANCH  64  67
ENDBRANCH  46  60
BRANCH  47  71
ATOM     71  C   UNL A   1      39.550  32.192  35.119  1.00  0.00     0.023 A 
ATOM     72  C   UNL A   1      39.797  33.578  35.126  1.00  0.00     0.012 A 
ATOM     73  C   UNL A   1      38.854  31.614  36.200  1.00  0.00     0.148 A 
ATOM     74  C   UNL A   1      39.383  34.367  36.200  1.00  0.00     0.002 A 
ATOM     75  C   UNL A   1      38.388  32.415  37.234  1.00  0.00     0.091 A 
ATOM     76  F   UNL A   1      38.648  30.289  36.187  1.00  0.00    -0.205 F 
ATOM     77  C   UNL A   1      38.668  33.790  37.246  1.00  0.00     0.022 A 
BRANCH  75  78
ATOM     78  S   UNL A   1      37.330  31.777  38.537  1.00  0.00     0.127 S 
ATOM     79  O   UNL A   1      38.176  31.940  39.716  1.00  0.00    -0.237 OA
ATOM     80  O   UNL A   1      36.184  32.685  38.470  1.00  0.00    -0.237 OA
ATOM     81  O   UNL A   1      37.026  30.404  38.157  1.00  0.00    -0.744 OA
ENDBRANCH  75  78
ENDBRANCH  47  71
BRANCH  59  82
ATOM     82  C   UNL A   1      45.051  28.050  33.976  1.00  0.00     0.023 A 
ATOM     83  C   UNL A   1      46.211  28.845  33.905  1.00  0.00     0.012 A 
ATOM     84  C   UNL A   1      45.007  26.967  34.875  1.00  0.00     0.148 A 
ATOM     85  C   UNL A   1      47.323  28.546  34.692  1.00  0.00     0.002 A 
ATOM     86  C   UNL A   1      46.099  26.707  35.694  1.00  0.00     0.091 A 
ATOM     87  F   UNL A   1      43.900  26.211  34.913  1.00  0.00    -0.205 F 
ATOM     88  C   UNL A   1      47.262  27.486  35.594  1.00  0.00     0.022 A 
BRANCH  86  89
ATOM     89  S   UNL A   1      46.074  25.425  36.951  1.00  0.00     0.127 S 
ATOM     90  O   UNL A   1      47.416  25.537  37.518  1.00  0.00    -0.237 OA
ATOM     91  O   UNL A   1      44.999  25.878  37.835  1.00  0.00    -0.237 OA
ATOM     92  O   UNL A   1      45.793  24.179  36.249  1.00  0.00    -0.744 OA
ENDBRANCH  86  89
ENDBRANCH  59  82
ENDBRANCH  33  34
ENDBRANCH  26  28
ENDBRANCH  25  26
ENDBRANCH  24  25
ENDBRANCH   1  24
TORSDOF 17
ENDMDL
MODEL 2
REMARK VINA RESULT:     -11.9      5.162      9.794
REMARK SMILES CCc1noc(C)c1C(=O)Nc1cc(Cl)ccc1C(=O)OCCOC(=O)c1ccc(-c2c3nc(c(-c4cccc(S(=O)(=O)[O-])c4F)c4ccc([nH]4)c(-c4cccc(S(=O)(=O)[O-])c4F)c4nc(c(-c5cccc(S(=O)(=O)[O-])c5F)c5ccc2[nH]5)C=C4)C=C3)cc1
REMARK SMILES IDX 22 1 21 2 19 3 20 4 18 5 12 6 13 7 14 8 17 9 15 10 16 11
REMARK SMILES IDX 11 12 9 13 10 14 8 16 3 17 4 18 5 19 6 20 7 21 2 22 1 23
REMARK SMILES IDX 23 24 24 25 25 26 26 27 27 28 28 29 89 30 29 31 88 32 30 33
REMARK SMILES IDX 31 34 32 35 82 36 33 37 87 38 81 39 83 40 34 41 86 42 80 43
REMARK SMILES IDX 79 44 35 46 67 47 47 48 66 49 48 50 51 51 65 52 84 53 49 54
REMARK SMILES IDX 50 55 64 57 85 58 52 59 36 60 37 61 45 62 38 63 40 64 46 65
REMARK SMILES IDX 39 66 41 67 42 68 43 69 44 70 68 71 69 72 77 73 70 74 72 75
REMARK SMILES IDX 78 76 71 77 73 78 74 79 75 80 76 81 53 82 54 83 62 84 55 85
REMARK SMILES IDX 57 86 63 87 56 88 58 89 59 90 60 91 61 92
REMARK H PARENT 11 15 83 45 51 56
REMARK Flexibility Score: inf
ROOT
ATOM      1  C   UNL A   1      34.946  21.476  26.068  1.00  0.00     0.275 C 
ENDROOT
BRANCH   1   2
ATOM      2  O   UNL A   1      34.545  22.771  25.567  1.00  0.00    -0.458 OA
BRANCH   2   3
ATOM      3  C   UNL A   1      33.220  22.954  25.333  1.00  0.00     0.340 C 
ATOM      4  O   UNL A   1      32.321  22.657  26.104  1.00  0.00    -0.246 OA
BRANCH   3   5
ATOM      5  C   UNL A   1      32.947  23.596  24.006  1.00  0.00     0.083 A 
ATOM      6  C   UNL A   1      31.904  24.511  23.752  1.00  0.00     0.057 A 
ATOM      7  C   UNL A   1      31.836  25.143  22.500  1.00  0.00     0.047 A 
ATOM      8  C   UNL A   1      32.687  24.752  21.465  1.00  0.00     0.043 A 
ATOM      9  C   UNL A   1      33.794  23.220  22.947  1.00  0.00     0.019 A 
ATOM     10  Cl  UNL A   1      32.535  25.479  19.914  1.00  0.00    -0.084 Cl
ATOM     11  C   UNL A   1      33.636  23.759  21.671  1.00  0.00     0.021 A 
BRANCH   6  12
ATOM     12  N   UNL A   1      30.960  24.787  24.750  1.00  0.00    -0.321 N 
ATOM     13  C   UNL A   1      30.713  25.876  25.548  1.00  0.00     0.261 C 
ATOM     14  O   UNL A   1      29.965  25.673  26.509  1.00  0.00    -0.269 OA
ATOM     15  H   UNL A   1      30.342  24.038  24.915  1.00  0.00     0.170 HD
BRANCH  13  16
ATOM     16  C   UNL A   1      31.231  27.209  25.273  1.00  0.00     0.105 A 
ATOM     17  C   UNL A   1      30.666  28.157  24.354  1.00  0.00     0.096 A 
ATOM     18  N   UNL A   1      31.315  29.326  24.396  1.00  0.00    -0.084 NA
ATOM     19  O   UNL A   1      32.421  29.107  25.176  1.00  0.00    -0.361 OA
ATOM     20  C   UNL A   1      32.425  27.823  25.624  1.00  0.00     0.146 A 
ATOM     21  C   UNL A   1      33.693  27.448  26.286  1.00  0.00     0.092 C 
BRANCH  17  22
ATOM     22  C   UNL A   1      29.532  27.984  23.392  1.00  0.00     0.057 C 
ATOM     23  C   UNL A   1      29.507  29.048  22.299  1.00  0.00     0.011 C 
ENDBRANCH  17  22
ENDBRANCH  13  16
ENDBRANCH   6  12
ENDBRANCH   3   5
ENDBRANCH   2   3
ENDBRANCH   1   2
BRANCH   1  24
ATOM     24  C   UNL A   1      35.986  20.802  25.168  1.00  0.00     0.275 C 
BRANCH  24  25
ATOM     25  O   UNL A   1      37.132  21.646  24.968  1.00  0.00    -0.458 OA
BRANCH  25  26
ATOM     26  C   UNL A   1      38.262  21.219  25.576  1.00  0.00     0.338 C 
ATOM     27  O   UNL A   1      38.796  20.128  25.460  1.00  0.00    -0.246 OA
BRANCH  26  28
ATOM     28  C   UNL A   1      38.902  22.332  26.289  1.00  0.00     0.060 A 
ATOM     29  C   UNL A   1      38.424  23.607  26.003  1.00  0.00     0.016 A 
ATOM     30  C   UNL A   1      40.037  22.165  27.076  1.00  0.00     0.016 A 
ATOM     31  C   UNL A   1      39.116  24.731  26.433  1.00  0.00     0.010 A 
ATOM     32  C   UNL A   1      40.696  23.301  27.571  1.00  0.00     0.010 A 
ATOM     33  C   UNL A   1      40.262  24.597  27.226  1.00  0.00    -0.014 A 
BRANCH  33  34
ATOM     34  C   UNL A   1      41.010  25.817  27.644  1.00  0.00     0.031 A 
ATOM     35  C   UNL A   1      40.334  26.880  28.471  1.00  0.00     0.074 A 
ATOM     36  C   UNL A   1      42.307  25.966  27.301  1.00  0.00     0.049 A 
ATOM     37  N   UNL A   1      40.780  28.058  28.825  1.00  0.00    -0.248 NA
ATOM     38  C   UNL A   1      38.975  26.588  28.955  1.00  0.00     0.031 C 
ATOM     39  C   UNL A   1      43.090  25.007  26.518  1.00  0.00     0.029 A 
ATOM     40  N   UNL A   1      43.195  26.982  27.557  1.00  0.00    -0.354 N 
ATOM     41  C   UNL A   1      39.732  28.679  29.497  1.00  0.00     0.074 A 
ATOM     42  C   UNL A   1      38.633  27.739  29.518  1.00  0.00     0.031 C 
ATOM     43  C   UNL A   1      44.339  25.472  26.368  1.00  0.00     0.029 A 
ATOM     44  C   UNL A   1      44.425  26.798  26.967  1.00  0.00     0.049 A 
ATOM     45  H   UNL A   1      42.973  27.767  28.110  1.00  0.00     0.167 HD
ATOM     46  C   UNL A   1      39.692  29.915  30.048  1.00  0.00     0.034 A 
ATOM     47  C   UNL A   1      45.488  27.620  26.867  1.00  0.00     0.034 A 
ATOM     48  C   UNL A   1      40.812  30.818  30.088  1.00  0.00     0.049 A 
ATOM     49  C   UNL A   1      45.418  28.982  27.497  1.00  0.00     0.074 A 
ATOM     50  C   UNL A   1      40.886  32.067  30.681  1.00  0.00     0.029 A 
ATOM     51  N   UNL A   1      42.049  30.574  29.516  1.00  0.00    -0.354 N 
ATOM     52  N   UNL A   1      44.442  29.524  28.183  1.00  0.00    -0.248 NA
ATOM     53  C   UNL A   1      46.601  29.842  27.354  1.00  0.00     0.031 C 
ATOM     54  C   UNL A   1      42.161  32.590  30.440  1.00  0.00     0.029 A 
ATOM     55  C   UNL A   1      42.892  31.652  29.730  1.00  0.00     0.049 A 
ATOM     56  H   UNL A   1      42.295  29.753  29.030  1.00  0.00     0.167 HD
ATOM     57  C   UNL A   1      44.901  30.776  28.574  1.00  0.00     0.074 A 
ATOM     58  C   UNL A   1      46.254  30.900  28.072  1.00  0.00     0.031 C 
ATOM     59  C   UNL A   1      44.254  31.743  29.269  1.00  0.00     0.034 A 
BRANCH  46  60
ATOM     60  C   UNL A   1      38.393  30.376  30.660  1.00  0.00     0.023 A 
ATOM     61  C   UNL A   1      38.125  30.138  32.021  1.00  0.00     0.012 A 
ATOM     62  C   UNL A   1      37.468  31.113  29.892  1.00  0.00     0.148 A 
ATOM     63  C   UNL A   1      36.943  30.598  32.602  1.00  0.00     0.002 A 
ATOM     64  C   UNL A   1      36.315  31.608  30.489  1.00  0.00     0.091 A 
ATOM     65  F   UNL A   1      37.731  31.313  28.593  1.00  0.00    -0.205 F 
ATOM     66  C   UNL A   1      36.044  31.341  31.840  1.00  0.00     0.022 A 
BRANCH  64  67
ATOM     67  S   UNL A   1      35.138  32.645  29.613  1.00  0.00     0.127 S 
ATOM     68  O   UNL A   1      34.180  32.964  30.670  1.00  0.00    -0.237 OA
ATOM     69  O   UNL A   1      35.975  33.769  29.190  1.00  0.00    -0.237 OA
ATOM     70  O   UNL A   1      34.617  31.833  28.524  1.00  0.00    -0.744 OA
ENDBRANCH  64  67
ENDBRANCH  46  60
BRANCH  47  71
ATOM     71  C   UNL A   1      46.703  27.177  26.124  1.00  0.00     0.023 A 
ATOM     72  C   UNL A   1      46.821  27.450  24.748  1.00  0.00     0.012 A 
ATOM     73  C   UNL A   1      47.757  26.514  26.785  1.00  0.00     0.148 A 
ATOM     74  C   UNL A   1      47.954  27.048  24.039  1.00  0.00     0.002 A 
ATOM     75  C   UNL A   1      48.909  26.175  26.088  1.00  0.00     0.091 A 
ATOM     76  F   UNL A   1      47.617  26.243  28.091  1.00  0.00    -0.205 F 
ATOM     77  C   UNL A   1      49.002  26.424  24.710  1.00  0.00     0.022 A 
BRANCH  75  78
ATOM     78  S   UNL A   1      50.362  25.510  26.906  1.00  0.00     0.127 S 
ATOM     79  O   UNL A   1      51.292  25.361  25.791  1.00  0.00    -0.237 OA
ATOM     80  O   UNL A   1      50.695  26.578  27.849  1.00  0.00    -0.237 OA
ATOM     81  O   UNL A   1      49.922  24.273  27.538  1.00  0.00    -0.744 OA
ENDBRANCH  75  78
ENDBRANCH  47  71
BRANCH  59  82
ATOM     82  C   UNL A   1      45.012  33.008  29.571  1.00  0.00     0.023 A 
ATOM     83  C   UNL A   1      45.789  33.100  30.741  1.00  0.00     0.012 A 
ATOM     84  C   UNL A   1      45.003  34.081  28.659  1.00  0.00     0.148 A 
ATOM     85  C   UNL A   1      46.520  34.256  31.016  1.00  0.00     0.002 A 
ATOM     86  C   UNL A   1      45.774  35.208  28.914  1.00  0.00     0.091 A 
ATOM     87  F   UNL A   1      44.241  33.981  27.560  1.00  0.00    -0.205 F 
ATOM     88  C   UNL A   1      46.521  35.303  30.098  1.00  0.00     0.022 A 
BRANCH  86  89
ATOM     89  S   UNL A   1      45.912  36.564  27.744  1.00  0.00     0.127 S 
ATOM     90  O   UNL A   1      46.251  35.859  26.509  1.00  0.00    -0.237 OA
ATOM     91  O   UNL A   1      44.566  37.135  27.771  1.00  0.00    -0.237 OA
ATOM     92  O   UNL A   1      46.950  37.442  28.267  1.00  0.00    -0.744 OA
ENDBRANCH  86  89
ENDBRANCH  59  82
ENDBRANCH  33  34
ENDBRANCH  26  28
ENDBRANCH  25  26
ENDBRANCH  24  25
ENDBRANCH   1  24
TORSDOF 17
ENDMDL
MODEL 3
REMARK VINA RESULT:     -11.9      5.257      9.688
REMARK SMILES CCc1noc(C)c1C(=O)Nc1cc(Cl)ccc1C(=O)OCCOC(=O)c1ccc(-c2c3nc(c(-c4cccc(S(=O)(=O)[O-])c4F)c4ccc([nH]4)c(-c4cccc(S(=O)(=O)[O-])c4F)c4nc(c(-c5cccc(S(=O)(=O)[O-])c5F)c5ccc2[nH]5)C=C4)C=C3)cc1
REMARK SMILES IDX 22 1 21 2 19 3 20 4 18 5 12 6 13 7 14 8 17 9 15 10 16 11
REMARK SMILES IDX 11 12 9 13 10 14 8 16 3 17 4 18 5 19 6 20 7 21 2 22 1 23
REMARK SMILES IDX 23 24 24 25 25 26 26 27 27 28 28 29 89 30 29 31 88 32 30 33
REMARK SMILES IDX 31 34 32 35 82 36 33 37 87 38 81 39 83 40 34 41 86 42 80 43
REMARK SMILES IDX 79 44 35 46 67 47 47 48 66 49 48 50 51 51 65 52 84 53 49 54
REMARK SMILES IDX 50 55 64 57 85 58 52 59 36 60 37 61 45 62 38 63 40 64 46 65
REMARK SMILES IDX 39 66 41 67 42 68 43 69 44 70 68 71 69 72 77 73 70 74 72 75
REMARK SMILES IDX 78 76 71 77 73 78 74 79 75 80 76 81 53 82 54 83 62 84 55 85
REMARK SMILES IDX 57 86 63 87 56 88 58 89 59 90 60 91 61 92
REMARK H PARENT 11 15 83 45 51 56
REMARK Flexibility Score: inf
ROOT
ATOM      1  C   UNL A   1      36.835  22.477  23.357  1.00  0.00     0.275 C 
ENDROOT
BRANCH   1   2
ATOM      2  O   UNL A   1      35.927  23.422  23.968  1.00  0.00    -0.458 OA
BRANCH   2   3
ATOM      3  C   UNL A   1      34.775  23.684  23.300  1.00  0.00     0.340 C 
ATOM      4  O   UNL A   1      34.324  23.015  22.382  1.00  0.00    -0.246 OA
BRANCH   3   5
ATOM      5  C   UNL A   1      34.066  24.899  23.817  1.00  0.00     0.083 A 
ATOM      6  C   UNL A   1      33.936  25.240  25.180  1.00  0.00     0.057 A 
ATOM      7  C   UNL A   1      33.365  26.474  25.527  1.00  0.00     0.047 A 
ATOM      8  C   UNL A   1      32.783  27.282  24.549  1.00  0.00     0.043 A 
ATOM      9  C   UNL A   1      33.473  25.732  22.849  1.00  0.00     0.019 A 
ATOM     10  Cl  UNL A   1      32.015  28.752  25.004  1.00  0.00    -0.084 Cl
ATOM     11  C   UNL A   1      32.794  26.894  23.216  1.00  0.00     0.021 A 
BRANCH   6  12
ATOM     12  N   UNL A   1      34.389  24.352  26.165  1.00  0.00    -0.321 N 
ATOM     13  C   UNL A   1      33.897  23.182  26.687  1.00  0.00     0.261 C 
ATOM     14  O   UNL A   1      34.426  22.804  27.736  1.00  0.00    -0.269 OA
ATOM     15  H   UNL A   1      35.243  24.627  26.569  1.00  0.00     0.170 HD
BRANCH  13  16
ATOM     16  C   UNL A   1      32.864  22.384  26.040  1.00  0.00     0.105 A 
ATOM     17  C   UNL A   1      31.451  22.631  26.101  1.00  0.00     0.096 A 
ATOM     18  N   UNL A   1      30.772  21.779  25.324  1.00  0.00    -0.084 NA
ATOM     19  O   UNL A   1      31.688  20.848  24.908  1.00  0.00    -0.361 OA
ATOM     20  C   UNL A   1      32.916  21.150  25.407  1.00  0.00     0.146 A 
ATOM     21  C   UNL A   1      33.908  20.075  25.187  1.00  0.00     0.092 C 
BRANCH  17  22
ATOM     22  C   UNL A   1      30.700  23.642  26.909  1.00  0.00     0.057 C 
ATOM     23  C   UNL A   1      30.330  24.890  26.112  1.00  0.00     0.011 C 
ENDBRANCH  17  22
ENDBRANCH  13  16
ENDBRANCH   6  12
ENDBRANCH   3   5
ENDBRANCH   2   3
ENDBRANCH   1   2
BRANCH   1  24
ATOM     24  C   UNL A   1      37.027  21.220  24.211  1.00  0.00     0.275 C 
BRANCH  24  25
ATOM     25  O   UNL A   1      37.344  21.555  25.573  1.00  0.00    -0.458 OA
BRANCH  25  26
ATOM     26  C   UNL A   1      38.608  21.258  25.948  1.00  0.00     0.338 C 
ATOM     27  O   UNL A   1      39.242  20.250  25.680  1.00  0.00    -0.246 OA
BRANCH  26  28
ATOM     28  C   UNL A   1      39.226  22.421  26.599  1.00  0.00     0.060 A 
ATOM     29  C   UNL A   1      38.722  23.669  26.247  1.00  0.00     0.016 A 
ATOM     30  C   UNL A   1      40.365  22.320  27.392  1.00  0.00     0.016 A 
ATOM     31  C   UNL A   1      39.390  24.828  26.614  1.00  0.00     0.010 A 
ATOM     32  C   UNL A   1      41.001  23.495  27.824  1.00  0.00     0.010 A 
ATOM     33  C   UNL A   1      40.540  24.761  27.410  1.00  0.00    -0.014 A 
BRANCH  33  34
ATOM     34  C   UNL A   1      41.263  26.016  27.760  1.00  0.00     0.031 A 
ATOM     35  C   UNL A   1      40.595  27.072  28.604  1.00  0.00     0.074 A 
ATOM     36  C   UNL A   1      42.532  26.206  27.341  1.00  0.00     0.049 A 
ATOM     37  N   UNL A   1      41.015  28.273  28.908  1.00  0.00    -0.248 NA
ATOM     38  C   UNL A   1      39.278  26.739  29.171  1.00  0.00     0.031 C 
ATOM     39  C   UNL A   1      43.305  25.260  26.533  1.00  0.00     0.029 A 
ATOM     40  N   UNL A   1      43.393  27.260  27.526  1.00  0.00    -0.354 N 
ATOM     41  C   UNL A   1      39.983  28.868  29.627  1.00  0.00     0.074 A 
ATOM     42  C   UNL A   1      38.923  27.889  29.730  1.00  0.00     0.031 C 
ATOM     43  C   UNL A   1      44.525  25.768  26.303  1.00  0.00     0.029 A 
ATOM     44  C   UNL A   1      44.594  27.110  26.869  1.00  0.00     0.049 A 
ATOM     45  H   UNL A   1      43.173  28.048  28.075  1.00  0.00     0.167 HD
ATOM     46  C   UNL A   1      39.926  30.114  30.156  1.00  0.00     0.034 A 
ATOM     47  C   UNL A   1      45.617  27.968  26.692  1.00  0.00     0.034 A 
ATOM     48  C   UNL A   1      41.011  31.059  30.114  1.00  0.00     0.049 A 
ATOM     49  C   UNL A   1      45.531  29.340  27.299  1.00  0.00     0.074 A 
ATOM     50  C   UNL A   1      41.071  32.322  30.676  1.00  0.00     0.029 A 
ATOM     51  N   UNL A   1      42.223  30.848  29.476  1.00  0.00    -0.354 N 
ATOM     52  N   UNL A   1      44.575  29.860  28.029  1.00  0.00    -0.248 NA
ATOM     53  C   UNL A   1      46.670  30.239  27.071  1.00  0.00     0.031 C 
ATOM     54  C   UNL A   1      42.309  32.887  30.353  1.00  0.00     0.029 A 
ATOM     55  C   UNL A   1      43.034  31.962  29.620  1.00  0.00     0.049 A 
ATOM     56  H   UNL A   1      42.473  30.027  28.993  1.00  0.00     0.167 HD
ATOM     57  C   UNL A   1      45.006  31.136  28.368  1.00  0.00     0.074 A 
ATOM     58  C   UNL A   1      46.323  31.300  27.787  1.00  0.00     0.031 C 
ATOM     59  C   UNL A   1      44.363  32.093  29.080  1.00  0.00     0.034 A 
BRANCH  46  60
ATOM     60  C   UNL A   1      38.648  30.540  30.832  1.00  0.00     0.023 A 
ATOM     61  C   UNL A   1      38.473  30.337  32.214  1.00  0.00     0.012 A 
ATOM     62  C   UNL A   1      37.645  31.209  30.100  1.00  0.00     0.148 A 
ATOM     63  C   UNL A   1      37.309  30.766  32.852  1.00  0.00     0.002 A 
ATOM     64  C   UNL A   1      36.509  31.674  30.751  1.00  0.00     0.091 A 
ATOM     65  F   UNL A   1      37.820  31.376  28.781  1.00  0.00    -0.205 F 
ATOM     66  C   UNL A   1      36.334  31.443  32.124  1.00  0.00     0.022 A 
BRANCH  64  67
ATOM     67  S   UNL A   1      35.237  32.630  29.917  1.00  0.00     0.127 S 
ATOM     68  O   UNL A   1      34.728  31.661  28.948  1.00  0.00    -0.237 OA
ATOM     69  O   UNL A   1      34.316  32.938  31.013  1.00  0.00    -0.237 OA
ATOM     70  O   UNL A   1      35.910  33.787  29.346  1.00  0.00    -0.744 OA
ENDBRANCH  64  67
ENDBRANCH  46  60
BRANCH  47  71
ATOM     71  C   UNL A   1      46.804  27.555  25.890  1.00  0.00     0.023 A 
ATOM     72  C   UNL A   1      46.833  27.801  24.504  1.00  0.00     0.012 A 
ATOM     73  C   UNL A   1      47.919  26.947  26.502  1.00  0.00     0.148 A 
ATOM     74  C   UNL A   1      47.938  27.426  23.739  1.00  0.00     0.002 A 
ATOM     75  C   UNL A   1      49.042  26.636  25.747  1.00  0.00     0.091 A 
ATOM     76  F   UNL A   1      47.864  26.699  27.819  1.00  0.00    -0.205 F 
ATOM     77  C   UNL A   1      49.047  26.857  24.361  1.00  0.00     0.022 A 
BRANCH  75  78
ATOM     78  S   UNL A   1      50.564  26.044  26.494  1.00  0.00     0.127 S 
ATOM     79  O   UNL A   1      50.135  24.779  27.084  1.00  0.00    -0.237 OA
ATOM     80  O   UNL A   1      51.442  25.915  25.330  1.00  0.00    -0.237 OA
ATOM     81  O   UNL A   1      50.967  27.081  27.433  1.00  0.00    -0.744 OA
ENDBRANCH  75  78
ENDBRANCH  47  71
BRANCH  59  82
ATOM     82  C   UNL A   1      45.088  33.392  29.313  1.00  0.00     0.023 A 
ATOM     83  C   UNL A   1      45.876  33.560  30.467  1.00  0.00     0.012 A 
ATOM     84  C   UNL A   1      45.037  34.421  28.352  1.00  0.00     0.148 A 
ATOM     85  C   UNL A   1      46.576  34.748  30.679  1.00  0.00     0.002 A 
ATOM     86  C   UNL A   1      45.779  35.580  28.545  1.00  0.00     0.091 A 
ATOM     87  F   UNL A   1      44.265  34.248  27.270  1.00  0.00    -0.205 F 
ATOM     88  C   UNL A   1      46.537  35.751  29.713  1.00  0.00     0.022 A 
BRANCH  86  89
ATOM     89  S   UNL A   1      45.864  36.882  27.311  1.00  0.00     0.127 S 
ATOM     90  O   UNL A   1      46.446  36.177  26.172  1.00  0.00    -0.237 OA
ATOM     91  O   UNL A   1      44.456  37.247  27.148  1.00  0.00    -0.237 OA
ATOM     92  O   UNL A   1      46.695  37.930  27.890  1.00  0.00    -0.744 OA
ENDBRANCH  86  89
ENDBRANCH  59  82
ENDBRANCH  33  34
ENDBRANCH  26  28
ENDBRANCH  25  26
ENDBRANCH  24  25
ENDBRANCH   1  24
TORSDOF 17
ENDMDL
