MODEL 1
REMARK VINA RESULT:     -10.7      0.000      0.000
REMARK SMILES C[C@H]([C@H](C)C(=O)OCCOC(=O)c1ccc(-c2c3nc(c(-c4cccc(S(=O)(=O)[O-])c4F)c4ccc([nH]4)c(-c4cccc(S(=O)(=O)[O-])c4F)c4nc(c(-c5cccc(S(=O)(=O)[O-])c5F)c5ccc2[nH]5)C=C4)C=C3)cc1)[C@H](O)c1cncn1C1CC1
REMARK SMILES IDX 8 1 7 2 5 3 6 4 3 5 4 6 2 7 1 8 76 9 78 10 79 11 82 12 80 13
REMARK SMILES IDX 81 14 83 15 84 16 85 17 77 18 9 20 10 21 11 22 12 23 13 24
REMARK SMILES IDX 14 25 75 26 15 27 74 28 16 29 17 30 18 31 68 32 19 33 73 34
REMARK SMILES IDX 67 35 69 36 20 37 72 38 66 39 65 40 21 42 53 43 33 44 52 45
REMARK SMILES IDX 34 46 37 47 51 48 70 49 35 50 36 51 50 53 71 54 38 55 22 56
REMARK SMILES IDX 23 57 31 58 24 59 26 60 32 61 25 62 27 63 28 64 29 65 30 66
REMARK SMILES IDX 54 67 55 68 63 69 56 70 58 71 64 72 57 73 59 74 60 75 61 76
REMARK SMILES IDX 62 77 39 78 40 79 48 80 41 81 43 82 49 83 42 84 44 85 45 86
REMARK SMILES IDX 46 87 47 88
REMARK H PARENT 77 19 69 41 37 52
REMARK Flexibility Score: inf
ROOT
ATOM      1  C   UNL A   1      35.538  20.592  25.000  1.00  0.00     0.274 C 
ENDROOT
BRANCH   1   2
ATOM      2  O   UNL A   1      35.252  21.791  25.751  1.00  0.00    -0.462 OA
BRANCH   2   3
ATOM      3  C   UNL A   1      34.784  22.854  25.050  1.00  0.00     0.309 C 
ATOM      4  O   UNL A   1      35.476  23.772  24.624  1.00  0.00    -0.252 OA
BRANCH   3   5
ATOM      5  C   UNL A   1      33.269  22.821  24.854  1.00  0.00     0.102 C 
ATOM      6  C   UNL A   1      32.461  23.166  26.104  1.00  0.00     0.020 C 
BRANCH   5   7
ATOM      7  C   UNL A   1      32.872  23.604  23.576  1.00  0.00     0.035 C 
ATOM      8  C   UNL A   1      32.881  22.670  22.353  1.00  0.00     0.012 C 
BRANCH   7   9
ATOM      9  C   UNL A   1      31.539  24.376  23.684  1.00  0.00     0.166 C 
BRANCH   9  10
ATOM     10  C   UNL A   1      31.596  25.784  23.205  1.00  0.00     0.067 A 
ATOM     11  C   UNL A   1      30.799  26.362  22.226  1.00  0.00     0.137 A 
ATOM     12  N   UNL A   1      32.349  26.839  23.676  1.00  0.00    -0.329 N 
ATOM     13  N   UNL A   1      30.985  27.712  22.146  1.00  0.00    -0.245 NA
ATOM     14  C   UNL A   1      31.891  27.975  23.058  1.00  0.00     0.199 A 
BRANCH  12  15
ATOM     15  C   UNL A   1      33.488  26.913  24.569  1.00  0.00     0.088 C 
ATOM     16  C   UNL A   1      33.881  27.998  25.541  1.00  0.00     0.027 C 
ATOM     17  C   UNL A   1      33.300  26.729  26.064  1.00  0.00     0.027 C 
ENDBRANCH  12  15
ENDBRANCH   9  10
BRANCH   9  18
ATOM     18  O   UNL A   1      30.484  23.744  22.973  1.00  0.00    -0.387 OA
ATOM     19  H   UNL A   1      30.635  23.838  22.020  1.00  0.00     0.211 HD
ENDBRANCH   9  18
ENDBRANCH   7   9
ENDBRANCH   5   7
ENDBRANCH   3   5
ENDBRANCH   2   3
ENDBRANCH   1   2
BRANCH   1  20
ATOM     20  C   UNL A   1      37.037  20.302  25.001  1.00  0.00     0.275 C 
BRANCH  20  21
ATOM     21  O   UNL A   1      37.774  21.422  25.518  1.00  0.00    -0.458 OA
BRANCH  21  22
ATOM     22  C   UNL A   1      38.977  21.110  26.053  1.00  0.00     0.338 C 
ATOM     23  O   UNL A   1      39.561  20.041  26.007  1.00  0.00    -0.246 OA
BRANCH  22  24
ATOM     24  C   UNL A   1      39.578  22.325  26.610  1.00  0.00     0.060 A 
ATOM     25  C   UNL A   1      39.103  23.560  26.165  1.00  0.00     0.016 A 
ATOM     26  C   UNL A   1      40.654  22.250  27.491  1.00  0.00     0.016 A 
ATOM     27  C   UNL A   1      39.716  24.736  26.573  1.00  0.00     0.010 A 
ATOM     28  C   UNL A   1      41.262  23.432  27.915  1.00  0.00     0.010 A 
ATOM     29  C   UNL A   1      40.810  24.677  27.440  1.00  0.00    -0.014 A 
BRANCH  29  30
ATOM     30  C   UNL A   1      41.532  25.916  27.801  1.00  0.00     0.031 A 
ATOM     31  C   UNL A   1      40.817  26.977  28.586  1.00  0.00     0.074 A 
ATOM     32  C   UNL A   1      42.806  26.088  27.407  1.00  0.00     0.049 A 
ATOM     33  N   UNL A   1      41.205  28.189  28.878  1.00  0.00    -0.248 NA
ATOM     34  C   UNL A   1      39.481  26.629  29.098  1.00  0.00     0.031 C 
ATOM     35  C   UNL A   1      43.598  25.106  26.663  1.00  0.00     0.029 A 
ATOM     36  N   UNL A   1      43.647  27.161  27.550  1.00  0.00    -0.354 N 
ATOM     37  C   UNL A   1      40.142  28.769  29.561  1.00  0.00     0.074 A 
ATOM     38  C   UNL A   1      39.095  27.775  29.642  1.00  0.00     0.031 C 
ATOM     39  C   UNL A   1      44.801  25.635  26.389  1.00  0.00     0.029 A 
ATOM     40  C   UNL A   1      44.847  27.003  26.897  1.00  0.00     0.049 A 
ATOM     41  H   UNL A   1      43.416  27.964  28.070  1.00  0.00     0.167 HD
ATOM     42  C   UNL A   1      40.056  30.017  30.077  1.00  0.00     0.034 A 
ATOM     43  C   UNL A   1      45.849  27.878  26.697  1.00  0.00     0.034 A 
ATOM     44  C   UNL A   1      41.123  30.979  30.022  1.00  0.00     0.049 A 
ATOM     45  C   UNL A   1      45.728  29.260  27.280  1.00  0.00     0.074 A 
ATOM     46  C   UNL A   1      41.157  32.259  30.543  1.00  0.00     0.029 A 
ATOM     47  N   UNL A   1      42.348  30.763  29.408  1.00  0.00    -0.354 N 
ATOM     48  N   UNL A   1      44.748  29.774  27.985  1.00  0.00    -0.248 NA
ATOM     49  C   UNL A   1      46.855  30.176  27.060  1.00  0.00     0.031 C 
ATOM     50  C   UNL A   1      42.400  32.823  30.232  1.00  0.00     0.029 A 
ATOM     51  C   UNL A   1      43.146  31.885  29.535  1.00  0.00     0.049 A 
ATOM     52  H   UNL A   1      42.611  29.932  28.949  1.00  0.00     0.167 HD
ATOM     53  C   UNL A   1      45.151  31.061  28.318  1.00  0.00     0.074 A 
ATOM     54  C   UNL A   1      46.475  31.241  27.756  1.00  0.00     0.031 C 
ATOM     55  C   UNL A   1      44.482  32.017  29.010  1.00  0.00     0.034 A 
BRANCH  42  56
ATOM     56  C   UNL A   1      38.772  30.400  30.763  1.00  0.00     0.023 A 
ATOM     57  C   UNL A   1      38.591  30.095  32.127  1.00  0.00     0.012 A 
ATOM     58  C   UNL A   1      37.759  31.089  30.069  1.00  0.00     0.148 A 
ATOM     59  C   UNL A   1      37.409  30.441  32.782  1.00  0.00     0.002 A 
ATOM     60  C   UNL A   1      36.600  31.468  30.740  1.00  0.00     0.091 A 
ATOM     61  F   UNL A   1      37.937  31.347  28.766  1.00  0.00    -0.205 F 
ATOM     62  C   UNL A   1      36.420  31.135  32.091  1.00  0.00     0.022 A 
BRANCH  60  63
ATOM     63  S   UNL A   1      35.298  32.424  29.954  1.00  0.00     0.127 S 
ATOM     64  O   UNL A   1      36.032  33.601  29.494  1.00  0.00    -0.237 OA
ATOM     65  O   UNL A   1      34.856  31.525  28.886  1.00  0.00    -0.237 OA
ATOM     66  O   UNL A   1      34.303  32.669  30.988  1.00  0.00    -0.744 OA
ENDBRANCH  60  63
ENDBRANCH  42  56
BRANCH  43  67
ATOM     67  C   UNL A   1      47.058  27.459  25.934  1.00  0.00     0.023 A 
ATOM     68  C   UNL A   1      48.031  26.661  26.564  1.00  0.00     0.012 A 
ATOM     69  C   UNL A   1      47.224  27.803  24.577  1.00  0.00     0.148 A 
ATOM     70  C   UNL A   1      49.158  26.230  25.864  1.00  0.00     0.002 A 
ATOM     71  C   UNL A   1      48.321  27.324  23.871  1.00  0.00     0.091 A 
ATOM     72  F   UNL A   1      46.297  28.580  23.999  1.00  0.00    -0.205 F 
ATOM     73  C   UNL A   1      49.298  26.549  24.515  1.00  0.00     0.022 A 
BRANCH  71  74
ATOM     74  S   UNL A   1      48.507  27.573  22.100  1.00  0.00     0.127 S 
ATOM     75  O   UNL A   1      48.666  26.203  21.621  1.00  0.00    -0.237 OA
ATOM     76  O   UNL A   1      47.235  28.206  21.746  1.00  0.00    -0.237 OA
ATOM     77  O   UNL A   1      49.668  28.439  21.947  1.00  0.00    -0.744 OA
ENDBRANCH  71  74
ENDBRANCH  43  67
BRANCH  55  78
ATOM     78  C   UNL A   1      45.180  33.333  29.223  1.00  0.00     0.023 A 
ATOM     79  C   UNL A   1      45.980  33.520  30.368  1.00  0.00     0.012 A 
ATOM     80  C   UNL A   1      45.109  34.350  28.252  1.00  0.00     0.148 A 
ATOM     81  C   UNL A   1      46.676  34.713  30.556  1.00  0.00     0.002 A 
ATOM     82  C   UNL A   1      45.842  35.518  28.425  1.00  0.00     0.091 A 
ATOM     83  F   UNL A   1      44.326  34.160  27.181  1.00  0.00    -0.205 F 
ATOM     84  C   UNL A   1      46.617  35.706  29.581  1.00  0.00     0.022 A 
BRANCH  82  85
ATOM     85  S   UNL A   1      45.898  36.808  27.175  1.00  0.00     0.127 S 
ATOM     86  O   UNL A   1      46.378  36.070  26.008  1.00  0.00    -0.237 OA
ATOM     87  O   UNL A   1      44.498  37.229  27.097  1.00  0.00    -0.237 OA
ATOM     88  O   UNL A   1      46.804  37.825  27.692  1.00  0.00    -0.744 OA
ENDBRANCH  82  85
ENDBRANCH  55  78
ENDBRANCH  29  30
ENDBRANCH  22  24
ENDBRANCH  21  22
ENDBRANCH  20  21
ENDBRANCH   1  20
TORSDOF 19
ENDMDL
MODEL 2
REMARK VINA RESULT:     -10.3      5.286     10.098
REMARK SMILES C[C@H]([C@H](C)C(=O)OCCOC(=O)c1ccc(-c2c3nc(c(-c4cccc(S(=O)(=O)[O-])c4F)c4ccc([nH]4)c(-c4cccc(S(=O)(=O)[O-])c4F)c4nc(c(-c5cccc(S(=O)(=O)[O-])c5F)c5ccc2[nH]5)C=C4)C=C3)cc1)[C@H](O)c1cncn1C1CC1
REMARK SMILES IDX 8 1 7 2 5 3 6 4 3 5 4 6 2 7 1 8 76 9 78 10 79 11 82 12 80 13
REMARK SMILES IDX 81 14 83 15 84 16 85 17 77 18 9 20 10 21 11 22 12 23 13 24
REMARK SMILES IDX 14 25 75 26 15 27 74 28 16 29 17 30 18 31 68 32 19 33 73 34
REMARK SMILES IDX 67 35 69 36 20 37 72 38 66 39 65 40 21 42 53 43 33 44 52 45
REMARK SMILES IDX 34 46 37 47 51 48 70 49 35 50 36 51 50 53 71 54 38 55 22 56
REMARK SMILES IDX 23 57 31 58 24 59 26 60 32 61 25 62 27 63 28 64 29 65 30 66
REMARK SMILES IDX 54 67 55 68 63 69 56 70 58 71 64 72 57 73 59 74 60 75 61 76
REMARK SMILES IDX 62 77 39 78 40 79 48 80 41 81 43 82 49 83 42 84 44 85 45 86
REMARK SMILES IDX 46 87 47 88
REMARK H PARENT 77 19 69 41 37 52
REMARK Flexibility Score: inf
ROOT
ATOM      1  C   UNL A   1      31.320  29.409  24.573  1.00  0.00     0.274 C 
ENDROOT
BRANCH   1   2
ATOM      2  O   UNL A   1      32.211  28.330  24.227  1.00  0.00    -0.462 OA
BRANCH   2   3
ATOM      3  C   UNL A   1      31.741  27.069  24.403  1.00  0.00     0.309 C 
ATOM      4  O   UNL A   1      31.245  26.645  25.442  1.00  0.00    -0.252 OA
BRANCH   3   5
ATOM      5  C   UNL A   1      31.912  26.188  23.167  1.00  0.00     0.102 C 
ATOM      6  C   UNL A   1      33.049  26.614  22.238  1.00  0.00     0.020 C 
BRANCH   5   7
ATOM      7  C   UNL A   1      31.912  24.690  23.566  1.00  0.00     0.035 C 
ATOM      8  C   UNL A   1      30.521  24.075  23.333  1.00  0.00     0.012 C 
BRANCH   7   9
ATOM      9  C   UNL A   1      33.020  23.847  22.895  1.00  0.00     0.166 C 
BRANCH   9  10
ATOM     10  C   UNL A   1      34.121  23.432  23.805  1.00  0.00     0.067 A 
ATOM     11  C   UNL A   1      35.484  23.491  23.543  1.00  0.00     0.137 A 
ATOM     12  N   UNL A   1      34.061  23.010  25.117  1.00  0.00    -0.329 N 
ATOM     13  N   UNL A   1      36.231  23.200  24.647  1.00  0.00    -0.245 NA
ATOM     14  C   UNL A   1      35.349  22.957  25.588  1.00  0.00     0.199 A 
BRANCH  12  15
ATOM     15  C   UNL A   1      32.966  22.577  25.962  1.00  0.00     0.088 C 
ATOM     16  C   UNL A   1      32.941  22.315  27.447  1.00  0.00     0.027 C 
ATOM     17  C   UNL A   1      32.308  23.556  26.919  1.00  0.00     0.027 C 
ENDBRANCH  12  15
ENDBRANCH   9  10
BRANCH   9  18
ATOM     18  O   UNL A   1      32.514  22.662  22.297  1.00  0.00    -0.387 OA
ATOM     19  H   UNL A   1      32.512  21.946  22.950  1.00  0.00     0.211 HD
ENDBRANCH   9  18
ENDBRANCH   7   9
ENDBRANCH   5   7
ENDBRANCH   3   5
ENDBRANCH   2   3
ENDBRANCH   1   2
BRANCH   1  20
ATOM     20  C   UNL A   1      31.649  29.954  25.962  1.00  0.00     0.275 C 
BRANCH  20  21
ATOM     21  O   UNL A   1      33.054  30.229  26.083  1.00  0.00    -0.458 OA
BRANCH  21  22
ATOM     22  C   UNL A   1      33.363  31.232  26.937  1.00  0.00     0.338 C 
ATOM     23  O   UNL A   1      32.654  32.159  27.289  1.00  0.00    -0.246 OA
BRANCH  22  24
ATOM     24  C   UNL A   1      34.685  30.973  27.515  1.00  0.00     0.060 A 
ATOM     25  C   UNL A   1      35.013  29.657  27.845  1.00  0.00     0.016 A 
ATOM     26  C   UNL A   1      35.554  32.021  27.809  1.00  0.00     0.016 A 
ATOM     27  C   UNL A   1      36.203  29.374  28.502  1.00  0.00     0.010 A 
ATOM     28  C   UNL A   1      36.757  31.737  28.455  1.00  0.00     0.010 A 
ATOM     29  C   UNL A   1      37.076  30.416  28.823  1.00  0.00    -0.014 A 
BRANCH  29  30
ATOM     30  C   UNL A   1      38.297  30.139  29.609  1.00  0.00     0.031 A 
ATOM     31  C   UNL A   1      39.328  29.200  29.054  1.00  0.00     0.074 A 
ATOM     32  C   UNL A   1      38.460  30.709  30.816  1.00  0.00     0.049 A 
ATOM     33  N   UNL A   1      40.389  28.705  29.630  1.00  0.00    -0.248 NA
ATOM     34  C   UNL A   1      39.128  28.751  27.665  1.00  0.00     0.031 C 
ATOM     35  C   UNL A   1      37.530  31.655  31.435  1.00  0.00     0.029 A 
ATOM     36  N   UNL A   1      39.451  30.552  31.750  1.00  0.00    -0.354 N 
ATOM     37  C   UNL A   1      40.955  27.844  28.698  1.00  0.00     0.074 A 
ATOM     38  C   UNL A   1      40.122  27.887  27.517  1.00  0.00     0.031 C 
ATOM     39  C   UNL A   1      37.979  31.971  32.659  1.00  0.00     0.029 A 
ATOM     40  C   UNL A   1      39.201  31.218  32.927  1.00  0.00     0.049 A 
ATOM     41  H   UNL A   1      40.262  30.016  31.594  1.00  0.00     0.167 HD
ATOM     42  C   UNL A   1      42.074  27.092  28.820  1.00  0.00     0.034 A 
ATOM     43  C   UNL A   1      39.861  31.189  34.099  1.00  0.00     0.034 A 
ATOM     44  C   UNL A   1      42.913  27.092  29.988  1.00  0.00     0.049 A 
ATOM     45  C   UNL A   1      41.101  30.343  34.209  1.00  0.00     0.074 A 
ATOM     46  C   UNL A   1      44.088  26.396  30.205  1.00  0.00     0.029 A 
ATOM     47  N   UNL A   1      42.663  27.827  31.137  1.00  0.00    -0.354 N 
ATOM     48  N   UNL A   1      41.667  29.589  33.298  1.00  0.00    -0.248 NA
ATOM     49  C   UNL A   1      41.806  30.361  35.498  1.00  0.00     0.031 C 
ATOM     50  C   UNL A   1      44.542  26.702  31.493  1.00  0.00     0.029 A 
ATOM     51  C   UNL A   1      43.660  27.603  32.069  1.00  0.00     0.049 A 
ATOM     52  H   UNL A   1      41.890  28.422  31.269  1.00  0.00     0.167 HD
ATOM     53  C   UNL A   1      42.808  29.063  33.891  1.00  0.00     0.074 A 
ATOM     54  C   UNL A   1      42.865  29.606  35.234  1.00  0.00     0.031 C 
ATOM     55  C   UNL A   1      43.719  28.197  33.381  1.00  0.00     0.034 A 
BRANCH  42  56
ATOM     56  C   UNL A   1      42.462  26.226  27.651  1.00  0.00     0.023 A 
ATOM     57  C   UNL A   1      43.274  26.756  26.629  1.00  0.00     0.012 A 
ATOM     58  C   UNL A   1      42.052  24.880  27.580  1.00  0.00     0.148 A 
ATOM     59  C   UNL A   1      43.646  25.971  25.537  1.00  0.00     0.002 A 
ATOM     60  C   UNL A   1      42.460  24.092  26.509  1.00  0.00     0.091 A 
ATOM     61  F   UNL A   1      41.257  24.401  28.547  1.00  0.00    -0.205 F 
ATOM     62  C   UNL A   1      43.247  24.638  25.483  1.00  0.00     0.022 A 
BRANCH  60  63
ATOM     63  S   UNL A   1      42.054  22.346  26.385  1.00  0.00     0.127 S 
ATOM     64  O   UNL A   1      40.617  22.394  26.124  1.00  0.00    -0.237 OA
ATOM     65  O   UNL A   1      42.866  21.921  25.244  1.00  0.00    -0.237 OA
ATOM     66  O   UNL A   1      42.442  21.754  27.658  1.00  0.00    -0.744 OA
ENDBRANCH  60  63
ENDBRANCH  42  56
BRANCH  43  67
ATOM     67  C   UNL A   1      39.373  32.007  35.245  1.00  0.00     0.023 A 
ATOM     68  C   UNL A   1      38.502  31.428  36.186  1.00  0.00     0.012 A 
ATOM     69  C   UNL A   1      39.806  33.335  35.435  1.00  0.00     0.148 A 
ATOM     70  C   UNL A   1      38.053  32.162  37.285  1.00  0.00     0.002 A 
ATOM     71  C   UNL A   1      39.400  34.042  36.560  1.00  0.00     0.091 A 
ATOM     72  F   UNL A   1      40.621  33.876  34.517  1.00  0.00    -0.205 F 
ATOM     73  C   UNL A   1      38.512  33.464  37.480  1.00  0.00     0.022 A 
BRANCH  71  74
ATOM     74  S   UNL A   1      40.050  35.670  36.958  1.00  0.00     0.127 S 
ATOM     75  O   UNL A   1      39.405  35.943  38.240  1.00  0.00    -0.237 OA
ATOM     76  O   UNL A   1      41.489  35.414  37.034  1.00  0.00    -0.237 OA
ATOM     77  O   UNL A   1      39.653  36.530  35.852  1.00  0.00    -0.744 OA
ENDBRANCH  71  74
ENDBRANCH  43  67
BRANCH  55  78
ATOM     78  C   UNL A   1      44.870  27.803  34.266  1.00  0.00     0.023 A 
ATOM     79  C   UNL A   1      46.051  28.572  34.257  1.00  0.00     0.012 A 
ATOM     80  C   UNL A   1      44.752  26.723  35.161  1.00  0.00     0.148 A 
ATOM     81  C   UNL A   1      47.108  28.253  35.108  1.00  0.00     0.002 A 
ATOM     82  C   UNL A   1      45.792  26.439  36.038  1.00  0.00     0.091 A 
ATOM     83  F   UNL A   1      43.628  25.992  35.138  1.00  0.00    -0.205 F 
ATOM     84  C   UNL A   1      46.974  27.196  36.006  1.00  0.00     0.022 A 
BRANCH  82  85
ATOM     85  S   UNL A   1      45.666  25.157  37.290  1.00  0.00     0.127 S 
ATOM     86  O   UNL A   1      44.527  25.623  38.080  1.00  0.00    -0.237 OA
ATOM     87  O   UNL A   1      45.403  23.961  36.488  1.00  0.00    -0.237 OA
ATOM     88  O   UNL A   1      46.948  25.147  37.981  1.00  0.00    -0.744 OA
ENDBRANCH  82  85
ENDBRANCH  55  78
ENDBRANCH  29  30
ENDBRANCH  22  24
ENDBRANCH  21  22
ENDBRANCH  20  21
ENDBRANCH   1  20
TORSDOF 19
ENDMDL
MODEL 3
REMARK VINA RESULT:     -10.3      1.660      2.072
REMARK SMILES C[C@H]([C@H](C)C(=O)OCCOC(=O)c1ccc(-c2c3nc(c(-c4cccc(S(=O)(=O)[O-])c4F)c4ccc([nH]4)c(-c4cccc(S(=O)(=O)[O-])c4F)c4nc(c(-c5cccc(S(=O)(=O)[O-])c5F)c5ccc2[nH]5)C=C4)C=C3)cc1)[C@H](O)c1cncn1C1CC1
REMARK SMILES IDX 8 1 7 2 5 3 6 4 3 5 4 6 2 7 1 8 76 9 78 10 79 11 82 12 80 13
REMARK SMILES IDX 81 14 83 15 84 16 85 17 77 18 9 20 10 21 11 22 12 23 13 24
REMARK SMILES IDX 14 25 75 26 15 27 74 28 16 29 17 30 18 31 68 32 19 33 73 34
REMARK SMILES IDX 67 35 69 36 20 37 72 38 66 39 65 40 21 42 53 43 33 44 52 45
REMARK SMILES IDX 34 46 37 47 51 48 70 49 35 50 36 51 50 53 71 54 38 55 22 56
REMARK SMILES IDX 23 57 31 58 24 59 26 60 32 61 25 62 27 63 28 64 29 65 30 66
REMARK SMILES IDX 54 67 55 68 63 69 56 70 58 71 64 72 57 73 59 74 60 75 61 76
REMARK SMILES IDX 62 77 39 78 40 79 48 80 41 81 43 82 49 83 42 84 44 85 45 86
REMARK SMILES IDX 46 87 47 88
REMARK H PARENT 77 19 69 41 37 52
REMARK Flexibility Score: inf
ROOT
ATOM      1  C   UNL A   1      35.683  20.655  24.947  1.00  0.00     0.274 C 
ENDROOT
BRANCH   1   2
ATOM      2  O   UNL A   1      35.204  21.389  26.093  1.00  0.00    -0.462 OA
BRANCH   2   3
ATOM      3  C   UNL A   1      34.243  22.319  25.865  1.00  0.00     0.309 C 
ATOM      4  O   UNL A   1      34.100  23.351  26.512  1.00  0.00    -0.252 OA
BRANCH   3   5
ATOM      5  C   UNL A   1      33.311  21.947  24.714  1.00  0.00     0.102 C 
ATOM      6  C   UNL A   1      32.102  21.106  25.125  1.00  0.00     0.020 C 
BRANCH   5   7
ATOM      7  C   UNL A   1      32.984  23.196  23.856  1.00  0.00     0.035 C 
ATOM      8  C   UNL A   1      33.321  22.932  22.378  1.00  0.00     0.012 C 
BRANCH   7   9
ATOM      9  C   UNL A   1      31.543  23.728  24.018  1.00  0.00     0.166 C 
BRANCH   9  10
ATOM     10  C   UNL A   1      31.419  24.933  24.882  1.00  0.00     0.067 A 
ATOM     11  C   UNL A   1      30.528  25.117  25.930  1.00  0.00     0.137 A 
ATOM     12  N   UNL A   1      32.204  26.067  24.919  1.00  0.00    -0.329 N 
ATOM     13  N   UNL A   1      30.789  26.260  26.630  1.00  0.00    -0.245 NA
ATOM     14  C   UNL A   1      31.827  26.787  26.025  1.00  0.00     0.199 A 
BRANCH  12  15
ATOM     15  C   UNL A   1      33.203  26.603  24.016  1.00  0.00     0.088 C 
ATOM     16  C   UNL A   1      33.217  26.640  22.508  1.00  0.00     0.027 C 
ATOM     17  C   UNL A   1      32.935  27.894  23.262  1.00  0.00     0.027 C 
ENDBRANCH  12  15
ENDBRANCH   9  10
BRANCH   9  18
ATOM     18  O   UNL A   1      30.940  24.052  22.774  1.00  0.00    -0.387 OA
ATOM     19  H   UNL A   1      31.299  24.892  22.449  1.00  0.00     0.211 HD
ENDBRANCH   9  18
ENDBRANCH   7   9
ENDBRANCH   5   7
ENDBRANCH   3   5
ENDBRANCH   2   3
ENDBRANCH   1   2
BRANCH   1  20
ATOM     20  C   UNL A   1      37.171  20.917  24.724  1.00  0.00     0.275 C 
BRANCH  20  21
ATOM     21  O   UNL A   1      37.708  21.740  25.772  1.00  0.00    -0.458 OA
BRANCH  21  22
ATOM     22  C   UNL A   1      38.991  21.468  26.105  1.00  0.00     0.338 C 
ATOM     23  O   UNL A   1      39.624  20.454  25.871  1.00  0.00    -0.246 OA
BRANCH  22  24
ATOM     24  C   UNL A   1      39.591  22.666  26.700  1.00  0.00     0.060 A 
ATOM     25  C   UNL A   1      39.202  23.912  26.206  1.00  0.00     0.016 A 
ATOM     26  C   UNL A   1      40.587  22.560  27.667  1.00  0.00     0.016 A 
ATOM     27  C   UNL A   1      39.826  25.069  26.653  1.00  0.00     0.010 A 
ATOM     28  C   UNL A   1      41.204  23.723  28.129  1.00  0.00     0.010 A 
ATOM     29  C   UNL A   1      40.842  24.979  27.607  1.00  0.00    -0.014 A 
BRANCH  29  30
ATOM     30  C   UNL A   1      41.579  26.193  28.015  1.00  0.00     0.031 A 
ATOM     31  C   UNL A   1      40.866  27.253  28.803  1.00  0.00     0.074 A 
ATOM     32  C   UNL A   1      42.868  26.346  27.660  1.00  0.00     0.049 A 
ATOM     33  N   UNL A   1      41.271  28.449  29.133  1.00  0.00    -0.248 NA
ATOM     34  C   UNL A   1      39.508  26.924  29.271  1.00  0.00     0.031 C 
ATOM     35  C   UNL A   1      43.659  25.364  26.917  1.00  0.00     0.029 A 
ATOM     36  N   UNL A   1      43.727  27.397  27.850  1.00  0.00    -0.354 N 
ATOM     37  C   UNL A   1      40.202  29.038  29.799  1.00  0.00     0.074 A 
ATOM     38  C   UNL A   1      39.132  28.066  29.829  1.00  0.00     0.031 C 
ATOM     39  C   UNL A   1      44.880  25.871  26.688  1.00  0.00     0.029 A 
ATOM     40  C   UNL A   1      44.941  27.226  27.227  1.00  0.00     0.049 A 
ATOM     41  H   UNL A   1      43.498  28.194  28.381  1.00  0.00     0.167 HD
ATOM     42  C   UNL A   1      40.128  30.276  30.340  1.00  0.00     0.034 A 
ATOM     43  C   UNL A   1      45.967  28.084  27.074  1.00  0.00     0.034 A 
ATOM     44  C   UNL A   1      41.217  31.216  30.336  1.00  0.00     0.049 A 
ATOM     45  C   UNL A   1      45.859  29.456  27.684  1.00  0.00     0.074 A 
ATOM     46  C   UNL A   1      41.263  32.483  30.886  1.00  0.00     0.029 A 
ATOM     47  N   UNL A   1      42.453  30.985  29.751  1.00  0.00    -0.354 N 
ATOM     48  N   UNL A   1      44.871  29.976  28.373  1.00  0.00    -0.248 NA
ATOM     49  C   UNL A   1      47.011  30.350  27.516  1.00  0.00     0.031 C 
ATOM     50  C   UNL A   1      42.526  33.026  30.622  1.00  0.00     0.029 A 
ATOM     51  C   UNL A   1      43.272  32.087  29.924  1.00  0.00     0.049 A 
ATOM     52  H   UNL A   1      42.711  30.159  29.282  1.00  0.00     0.167 HD
ATOM     53  C   UNL A   1      45.291  31.246  28.745  1.00  0.00     0.074 A 
ATOM     54  C   UNL A   1      46.634  31.408  28.224  1.00  0.00     0.031 C 
ATOM     55  C   UNL A   1      44.624  32.201  29.440  1.00  0.00     0.034 A 
BRANCH  42  56
ATOM     56  C   UNL A   1      38.834  30.672  30.999  1.00  0.00     0.023 A 
ATOM     57  C   UNL A   1      38.652  30.440  32.377  1.00  0.00     0.012 A 
ATOM     58  C   UNL A   1      37.811  31.303  30.264  1.00  0.00     0.148 A 
ATOM     59  C   UNL A   1      37.461  30.800  33.007  1.00  0.00     0.002 A 
ATOM     60  C   UNL A   1      36.643  31.696  30.907  1.00  0.00     0.091 A 
ATOM     61  F   UNL A   1      37.990  31.490  28.949  1.00  0.00    -0.205 F 
ATOM     62  C   UNL A   1      36.462  31.435  32.275  1.00  0.00     0.022 A 
BRANCH  60  63
ATOM     63  S   UNL A   1      35.326  32.582  30.064  1.00  0.00     0.127 S 
ATOM     64  O   UNL A   1      34.983  31.650  28.992  1.00  0.00    -0.237 OA
ATOM     65  O   UNL A   1      34.314  32.703  31.114  1.00  0.00    -0.237 OA
ATOM     66  O   UNL A   1      35.907  33.846  29.636  1.00  0.00    -0.744 OA
ENDBRANCH  60  63
ENDBRANCH  42  56
BRANCH  43  67
ATOM     67  C   UNL A   1      47.187  27.655  26.336  1.00  0.00     0.023 A 
ATOM     68  C   UNL A   1      48.183  26.925  27.011  1.00  0.00     0.012 A 
ATOM     69  C   UNL A   1      47.344  27.921  24.961  1.00  0.00     0.148 A 
ATOM     70  C   UNL A   1      49.323  26.485  26.336  1.00  0.00     0.002 A 
ATOM     71  C   UNL A   1      48.454  27.433  24.282  1.00  0.00     0.091 A 
ATOM     72  F   UNL A   1      46.394  28.635  24.339  1.00  0.00    -0.205 F 
ATOM     73  C   UNL A   1      49.452  26.727  24.970  1.00  0.00     0.022 A 
BRANCH  71  74
ATOM     74  S   UNL A   1      48.632  27.580  22.500  1.00  0.00     0.127 S 
ATOM     75  O   UNL A   1      49.889  28.316  22.385  1.00  0.00    -0.237 OA
ATOM     76  O   UNL A   1      48.698  26.179  22.082  1.00  0.00    -0.237 OA
ATOM     77  O   UNL A   1      47.441  28.284  22.045  1.00  0.00    -0.744 OA
ENDBRANCH  71  74
ENDBRANCH  43  67
BRANCH  55  78
ATOM     78  C   UNL A   1      45.344  33.496  29.701  1.00  0.00     0.023 A 
ATOM     79  C   UNL A   1      45.210  34.564  28.791  1.00  0.00     0.012 A 
ATOM     80  C   UNL A   1      46.084  33.682  30.884  1.00  0.00     0.148 A 
ATOM     81  C   UNL A   1      45.827  35.788  29.042  1.00  0.00     0.002 A 
ATOM     82  C   UNL A   1      46.659  34.919  31.149  1.00  0.00     0.091 A 
ATOM     83  F   UNL A   1      46.217  32.646  31.725  1.00  0.00    -0.205 F 
ATOM     84  C   UNL A   1      46.540  35.970  30.225  1.00  0.00     0.022 A 
BRANCH  82  85
ATOM     85  S   UNL A   1      47.513  35.267  32.691  1.00  0.00     0.127 S 
ATOM     86  O   UNL A   1      46.420  35.200  33.659  1.00  0.00    -0.237 OA
ATOM     87  O   UNL A   1      48.471  34.164  32.774  1.00  0.00    -0.237 OA
ATOM     88  O   UNL A   1      48.122  36.580  32.521  1.00  0.00    -0.744 OA
ENDBRANCH  82  85
ENDBRANCH  55  78
ENDBRANCH  29  30
ENDBRANCH  22  24
ENDBRANCH  21  22
ENDBRANCH  20  21
ENDBRANCH   1  20
TORSDOF 19
ENDMDL
