MODEL 1
REMARK VINA RESULT:     -11.8      0.000      0.000
REMARK SMILES Cc1noc2c1-c1c(c(C(=O)OCCOC(=O)c3ccc(-c4c5nc(c(-c6cccc(S(=O)(=O)[O-])c6F)c6ccc([nH]6)c(-c6cccc(S(=O)(=O)[O-])c6F)c6nc(c(-c7cccc(S(=O)(=O)[O-])c7F)c7ccc4[nH]7)C=C6)C=C5)cc3)nn1C)CC2
REMARK SMILES IDX 15 1 14 2 13 3 12 4 10 5 11 6 9 7 1 8 2 9 3 10 6 11 4 12
REMARK SMILES IDX 5 13 7 14 85 15 8 16 82 17 84 18 81 19 83 20 16 21 17 22
REMARK SMILES IDX 18 23 19 24 80 25 20 26 79 27 21 28 22 29 23 30 73 31 24 32
REMARK SMILES IDX 78 33 72 34 74 35 25 36 77 37 71 38 70 39 26 41 58 42 38 43
REMARK SMILES IDX 57 44 39 45 42 46 56 47 75 48 40 49 41 50 55 52 76 53 43 54
REMARK SMILES IDX 27 55 28 56 36 57 29 58 31 59 37 60 30 61 32 62 33 63 34 64
REMARK SMILES IDX 35 65 59 66 60 67 68 68 61 69 63 70 69 71 62 72 64 73 65 74
REMARK SMILES IDX 66 75 67 76 44 77 45 78 53 79 46 80 48 81 54 82 47 83 49 84
REMARK SMILES IDX 50 85 51 86 52 87
REMARK H PARENT 74 40 42 51
REMARK Flexibility Score: inf
ROOT
ATOM      1  O   UNL A   1      39.986  19.403  26.096  1.00  0.00    -0.458 OA
ENDROOT
BRANCH   1   2
ATOM      2  C   UNL A   1      39.215  19.664  24.927  1.00  0.00     0.275 C 
BRANCH   2   3
ATOM      3  C   UNL A   1      37.809  20.117  25.285  1.00  0.00     0.275 C 
BRANCH   3   4
ATOM      4  O   UNL A   1      37.458  21.308  24.566  1.00  0.00    -0.457 OA
BRANCH   4   5
ATOM      5  C   UNL A   1      37.254  22.433  25.321  1.00  0.00     0.359 C 
ATOM      6  O   UNL A   1      38.104  22.905  26.075  1.00  0.00    -0.244 OA
BRANCH   5   7
ATOM      7  C   UNL A   1      35.919  23.022  25.107  1.00  0.00     0.174 A 
ATOM      8  C   UNL A   1      30.686  25.196  24.579  1.00  0.00     0.071 C 
ATOM      9  C   UNL A   1      31.190  24.352  25.682  1.00  0.00     0.090 A 
ATOM     10  N   UNL A   1      30.358  24.098  26.712  1.00  0.00    -0.084 NA
ATOM     11  C   UNL A   1      32.432  23.717  25.877  1.00  0.00     0.066 A 
ATOM     12  O   UNL A   1      31.064  23.299  27.598  1.00  0.00    -0.360 OA
ATOM     13  C   UNL A   1      32.290  23.075  27.085  1.00  0.00     0.146 A 
ATOM     14  C   UNL A   1      33.763  23.603  25.241  1.00  0.00     0.077 A 
ATOM     15  C   UNL A   1      33.298  22.310  27.859  1.00  0.00     0.084 C 
ATOM     16  C   UNL A   1      34.705  22.747  25.800  1.00  0.00     0.014 A 
ATOM     17  N   UNL A   1      34.376  24.185  24.176  1.00  0.00    -0.267 N 
ATOM     18  C   UNL A   1      34.394  21.778  26.909  1.00  0.00     0.048 C 
ATOM     19  N   UNL A   1      35.704  23.952  24.151  1.00  0.00    -0.165 NA
ATOM     20  C   UNL A   1      33.817  25.027  23.152  1.00  0.00     0.174 C 
ENDBRANCH   5   7
ENDBRANCH   4   5
ENDBRANCH   3   4
ENDBRANCH   2   3
ENDBRANCH   1   2
BRANCH   1  21
ATOM     21  C   UNL A   1      41.325  19.502  25.923  1.00  0.00     0.338 C 
ATOM     22  O   UNL A   1      42.063  18.665  25.430  1.00  0.00    -0.246 OA
BRANCH  21  23
ATOM     23  C   UNL A   1      41.813  20.656  26.682  1.00  0.00     0.060 A 
ATOM     24  C   UNL A   1      41.355  20.817  27.992  1.00  0.00     0.016 A 
ATOM     25  C   UNL A   1      42.479  21.685  26.000  1.00  0.00     0.016 A 
ATOM     26  C   UNL A   1      41.454  22.065  28.576  1.00  0.00     0.010 A 
ATOM     27  C   UNL A   1      42.545  22.934  26.568  1.00  0.00     0.010 A 
ATOM     28  C   UNL A   1      41.990  23.123  27.830  1.00  0.00    -0.014 A 
BRANCH  28  29
ATOM     29  C   UNL A   1      42.193  24.399  28.488  1.00  0.00     0.031 A 
ATOM     30  C   UNL A   1      41.073  25.328  28.205  1.00  0.00     0.074 A 
ATOM     31  C   UNL A   1      43.198  24.628  29.357  1.00  0.00     0.049 A 
ATOM     32  N   UNL A   1      41.106  26.396  27.477  1.00  0.00    -0.248 NA
ATOM     33  C   UNL A   1      39.710  24.899  28.566  1.00  0.00     0.031 C 
ATOM     34  C   UNL A   1      44.149  23.646  29.889  1.00  0.00     0.029 A 
ATOM     35  N   UNL A   1      43.495  25.754  30.064  1.00  0.00    -0.354 N 
ATOM     36  C   UNL A   1      39.815  26.914  27.546  1.00  0.00     0.074 A 
ATOM     37  C   UNL A   1      38.974  25.833  27.967  1.00  0.00     0.031 C 
ATOM     38  C   UNL A   1      44.737  24.153  30.996  1.00  0.00     0.029 A 
ATOM     39  C   UNL A   1      44.293  25.524  31.186  1.00  0.00     0.049 A 
ATOM     40  H   UNL A   1      43.175  26.649  29.807  1.00  0.00     0.167 HD
ATOM     41  C   UNL A   1      39.624  28.261  27.604  1.00  0.00     0.034 A 
ATOM     42  C   UNL A   1      44.498  26.372  32.228  1.00  0.00     0.034 A 
ATOM     43  C   UNL A   1      40.805  28.955  27.142  1.00  0.00     0.049 A 
ATOM     44  C   UNL A   1      44.103  27.723  31.776  1.00  0.00     0.074 A 
ATOM     45  C   UNL A   1      41.555  28.961  25.984  1.00  0.00     0.029 A 
ATOM     46  N   UNL A   1      41.599  29.497  28.122  1.00  0.00    -0.354 N 
ATOM     47  N   UNL A   1      44.762  28.409  30.888  1.00  0.00    -0.248 NA
ATOM     48  C   UNL A   1      42.735  28.150  32.015  1.00  0.00     0.031 C 
ATOM     49  C   UNL A   1      42.905  29.128  26.414  1.00  0.00     0.029 A 
ATOM     50  C   UNL A   1      42.909  29.296  27.800  1.00  0.00     0.049 A 
ATOM     51  H   UNL A   1      41.274  29.957  28.930  1.00  0.00     0.167 HD
ATOM     52  C   UNL A   1      43.768  29.002  30.123  1.00  0.00     0.074 A 
ATOM     53  C   UNL A   1      42.560  28.921  30.940  1.00  0.00     0.031 C 
ATOM     54  C   UNL A   1      43.962  29.212  28.787  1.00  0.00     0.034 A 
BRANCH  41  55
ATOM     55  C   UNL A   1      38.618  28.947  28.522  1.00  0.00     0.023 A 
ATOM     56  C   UNL A   1      37.856  29.990  27.942  1.00  0.00     0.012 A 
ATOM     57  C   UNL A   1      38.585  28.860  29.935  1.00  0.00     0.148 A 
ATOM     58  C   UNL A   1      37.207  30.954  28.719  1.00  0.00     0.002 A 
ATOM     59  C   UNL A   1      37.885  29.783  30.705  1.00  0.00     0.091 A 
ATOM     60  F   UNL A   1      39.309  27.947  30.579  1.00  0.00    -0.205 F 
ATOM     61  C   UNL A   1      37.228  30.856  30.104  1.00  0.00     0.022 A 
BRANCH  59  62
ATOM     62  S   UNL A   1      37.844  29.684  32.502  1.00  0.00     0.127 S 
ATOM     63  O   UNL A   1      39.219  30.032  32.845  1.00  0.00    -0.237 OA
ATOM     64  O   UNL A   1      36.845  30.702  32.827  1.00  0.00    -0.237 OA
ATOM     65  O   UNL A   1      37.438  28.322  32.824  1.00  0.00    -0.744 OA
ENDBRANCH  59  62
ENDBRANCH  41  55
BRANCH  42  66
ATOM     66  C   UNL A   1      44.770  26.112  33.664  1.00  0.00     0.023 A 
ATOM     67  C   UNL A   1      46.099  26.190  34.142  1.00  0.00     0.012 A 
ATOM     68  C   UNL A   1      43.729  26.096  34.615  1.00  0.00     0.148 A 
ATOM     69  C   UNL A   1      46.374  26.302  35.510  1.00  0.00     0.002 A 
ATOM     70  C   UNL A   1      44.007  26.201  35.976  1.00  0.00     0.091 A 
ATOM     71  F   UNL A   1      42.461  26.078  34.184  1.00  0.00    -0.205 F 
ATOM     72  C   UNL A   1      45.328  26.320  36.427  1.00  0.00     0.022 A 
BRANCH  70  73
ATOM     73  S   UNL A   1      42.706  26.266  37.216  1.00  0.00     0.127 S 
ATOM     74  O   UNL A   1      43.475  26.329  38.459  1.00  0.00    -0.237 OA
ATOM     75  O   UNL A   1      42.013  27.501  36.861  1.00  0.00    -0.237 OA
ATOM     76  O   UNL A   1      41.937  25.039  37.049  1.00  0.00    -0.744 OA
ENDBRANCH  70  73
ENDBRANCH  42  66
BRANCH  54  77
ATOM     77  C   UNL A   1      45.370  29.158  28.259  1.00  0.00     0.023 A 
ATOM     78  C   UNL A   1      46.264  30.246  28.311  1.00  0.00     0.012 A 
ATOM     79  C   UNL A   1      45.840  27.908  27.824  1.00  0.00     0.148 A 
ATOM     80  C   UNL A   1      47.595  30.090  27.912  1.00  0.00     0.002 A 
ATOM     81  C   UNL A   1      47.173  27.744  27.483  1.00  0.00     0.091 A 
ATOM     82  F   UNL A   1      44.970  26.887  27.771  1.00  0.00    -0.205 F 
ATOM     83  C   UNL A   1      48.054  28.835  27.513  1.00  0.00     0.022 A 
BRANCH  81  84
ATOM     84  S   UNL A   1      47.828  26.123  27.092  1.00  0.00     0.127 S 
ATOM     85  O   UNL A   1      49.246  26.409  26.881  1.00  0.00    -0.237 OA
ATOM     86  O   UNL A   1      47.531  25.359  28.305  1.00  0.00    -0.237 OA
ATOM     87  O   UNL A   1      47.095  25.670  25.916  1.00  0.00    -0.744 OA
ENDBRANCH  81  84
ENDBRANCH  54  77
ENDBRANCH  28  29
ENDBRANCH  21  23
ENDBRANCH   1  21
TORSDOF 14
ENDMDL
MODEL 2
REMARK VINA RESULT:     -11.6      3.268      7.747
REMARK SMILES Cc1noc2c1-c1c(c(C(=O)OCCOC(=O)c3ccc(-c4c5nc(c(-c6cccc(S(=O)(=O)[O-])c6F)c6ccc([nH]6)c(-c6cccc(S(=O)(=O)[O-])c6F)c6nc(c(-c7cccc(S(=O)(=O)[O-])c7F)c7ccc4[nH]7)C=C6)C=C5)cc3)nn1C)CC2
REMARK SMILES IDX 15 1 14 2 13 3 12 4 10 5 11 6 9 7 1 8 2 9 3 10 6 11 4 12
REMARK SMILES IDX 5 13 7 14 85 15 8 16 82 17 84 18 81 19 83 20 16 21 17 22
REMARK SMILES IDX 18 23 19 24 80 25 20 26 79 27 21 28 22 29 23 30 73 31 24 32
REMARK SMILES IDX 78 33 72 34 74 35 25 36 77 37 71 38 70 39 26 41 58 42 38 43
REMARK SMILES IDX 57 44 39 45 42 46 56 47 75 48 40 49 41 50 55 52 76 53 43 54
REMARK SMILES IDX 27 55 28 56 36 57 29 58 31 59 37 60 30 61 32 62 33 63 34 64
REMARK SMILES IDX 35 65 59 66 60 67 68 68 61 69 63 70 69 71 62 72 64 73 65 74
REMARK SMILES IDX 66 75 67 76 44 77 45 78 53 79 46 80 48 81 54 82 47 83 49 84
REMARK SMILES IDX 50 85 51 86 52 87
REMARK H PARENT 74 40 42 51
REMARK Flexibility Score: inf
ROOT
ATOM      1  O   UNL A   1      34.765  31.734  27.593  1.00  0.00    -0.458 OA
ENDROOT
BRANCH   1   2
ATOM      2  C   UNL A   1      33.404  31.313  27.581  1.00  0.00     0.275 C 
BRANCH   2   3
ATOM      3  C   UNL A   1      33.207  30.111  26.672  1.00  0.00     0.275 C 
BRANCH   3   4
ATOM      4  O   UNL A   1      33.054  28.910  27.442  1.00  0.00    -0.457 OA
BRANCH   4   5
ATOM      5  C   UNL A   1      31.960  28.138  27.149  1.00  0.00     0.359 C 
ATOM      6  O   UNL A   1      31.078  27.876  27.967  1.00  0.00    -0.244 OA
BRANCH   5   7
ATOM      7  C   UNL A   1      31.949  27.684  25.746  1.00  0.00     0.174 A 
ATOM      8  C   UNL A   1      32.077  25.670  20.424  1.00  0.00     0.071 C 
ATOM      9  C   UNL A   1      32.806  25.138  21.594  1.00  0.00     0.090 A 
ATOM     10  N   UNL A   1      33.547  24.025  21.421  1.00  0.00    -0.084 NA
ATOM     11  C   UNL A   1      32.893  25.591  22.924  1.00  0.00     0.066 A 
ATOM     12  O   UNL A   1      34.117  23.737  22.651  1.00  0.00    -0.360 OA
ATOM     13  C   UNL A   1      33.727  24.680  23.531  1.00  0.00     0.146 A 
ATOM     14  C   UNL A   1      32.341  26.644  23.805  1.00  0.00     0.077 A 
ATOM     15  C   UNL A   1      34.122  24.584  24.957  1.00  0.00     0.084 C 
ATOM     16  C   UNL A   1      32.810  26.745  25.110  1.00  0.00     0.014 A 
ATOM     17  N   UNL A   1      31.391  27.608  23.677  1.00  0.00    -0.267 N 
ATOM     18  C   UNL A   1      33.989  25.968  25.632  1.00  0.00     0.048 C 
ATOM     19  N   UNL A   1      31.047  28.158  24.859  1.00  0.00    -0.165 NA
ATOM     20  C   UNL A   1      30.699  28.054  22.496  1.00  0.00     0.174 C 
ENDBRANCH   5   7
ENDBRANCH   4   5
ENDBRANCH   3   4
ENDBRANCH   2   3
ENDBRANCH   1   2
BRANCH   1  21
ATOM     21  C   UNL A   1      35.345  31.734  28.816  1.00  0.00     0.338 C 
ATOM     22  O   UNL A   1      34.972  32.347  29.803  1.00  0.00    -0.246 OA
BRANCH  21  23
ATOM     23  C   UNL A   1      36.668  31.112  28.710  1.00  0.00     0.060 A 
ATOM     24  C   UNL A   1      36.726  29.749  28.409  1.00  0.00     0.016 A 
ATOM     25  C   UNL A   1      37.788  31.815  29.178  1.00  0.00     0.016 A 
ATOM     26  C   UNL A   1      37.886  29.059  28.703  1.00  0.00     0.010 A 
ATOM     27  C   UNL A   1      38.928  31.121  29.502  1.00  0.00     0.010 A 
ATOM     28  C   UNL A   1      38.949  29.743  29.305  1.00  0.00    -0.014 A 
BRANCH  28  29
ATOM     29  C   UNL A   1      40.200  29.038  29.507  1.00  0.00     0.031 A 
ATOM     30  C   UNL A   1      40.422  28.746  30.943  1.00  0.00     0.074 A 
ATOM     31  C   UNL A   1      40.963  28.588  28.491  1.00  0.00     0.049 A 
ATOM     32  N   UNL A   1      41.306  29.274  31.723  1.00  0.00    -0.248 NA
ATOM     33  C   UNL A   1      39.396  27.962  31.655  1.00  0.00     0.031 C 
ATOM     34  C   UNL A   1      40.631  28.598  27.063  1.00  0.00     0.029 A 
ATOM     35  N   UNL A   1      42.136  27.894  28.527  1.00  0.00    -0.354 N 
ATOM     36  C   UNL A   1      41.113  28.652  32.955  1.00  0.00     0.074 A 
ATOM     37  C   UNL A   1      39.790  28.102  32.920  1.00  0.00     0.031 C 
ATOM     38  C   UNL A   1      41.443  27.734  26.413  1.00  0.00     0.029 A 
ATOM     39  C   UNL A   1      42.418  27.200  27.349  1.00  0.00     0.049 A 
ATOM     40  H   UNL A   1      42.730  27.883  29.312  1.00  0.00     0.167 HD
ATOM     41  C   UNL A   1      42.184  28.338  33.734  1.00  0.00     0.034 A 
ATOM     42  C   UNL A   1      43.328  26.204  27.189  1.00  0.00     0.034 A 
ATOM     43  C   UNL A   1      43.340  29.108  33.332  1.00  0.00     0.049 A 
ATOM     44  C   UNL A   1      44.264  26.279  28.331  1.00  0.00     0.074 A 
ATOM     45  C   UNL A   1      43.635  30.450  33.208  1.00  0.00     0.029 A 
ATOM     46  N   UNL A   1      44.275  28.433  32.589  1.00  0.00    -0.354 N 
ATOM     47  N   UNL A   1      45.120  27.244  28.501  1.00  0.00    -0.248 NA
ATOM     48  C   UNL A   1      43.965  25.485  29.511  1.00  0.00     0.031 C 
ATOM     49  C   UNL A   1      44.485  30.541  32.066  1.00  0.00     0.029 A 
ATOM     50  C   UNL A   1      44.734  29.250  31.597  1.00  0.00     0.049 A 
ATOM     51  H   UNL A   1      44.569  27.507  32.746  1.00  0.00     0.167 HD
ATOM     52  C   UNL A   1      45.079  27.487  29.866  1.00  0.00     0.074 A 
ATOM     53  C   UNL A   1      44.465  26.296  30.447  1.00  0.00     0.031 C 
ATOM     54  C   UNL A   1      45.259  28.753  30.345  1.00  0.00     0.034 A 
BRANCH  41  55
ATOM     55  C   UNL A   1      42.340  27.022  34.489  1.00  0.00     0.023 A 
ATOM     56  C   UNL A   1      41.934  27.030  35.845  1.00  0.00     0.012 A 
ATOM     57  C   UNL A   1      43.113  25.911  34.074  1.00  0.00     0.148 A 
ATOM     58  C   UNL A   1      42.371  26.063  36.755  1.00  0.00     0.002 A 
ATOM     59  C   UNL A   1      43.493  24.915  34.968  1.00  0.00     0.091 A 
ATOM     60  F   UNL A   1      43.587  25.834  32.833  1.00  0.00    -0.205 F 
ATOM     61  C   UNL A   1      43.159  25.007  36.318  1.00  0.00     0.022 A 
BRANCH  59  62
ATOM     62  S   UNL A   1      44.482  23.502  34.451  1.00  0.00     0.127 S 
ATOM     63  O   UNL A   1      45.768  24.133  34.171  1.00  0.00    -0.237 OA
ATOM     64  O   UNL A   1      44.446  22.666  35.652  1.00  0.00    -0.237 OA
ATOM     65  O   UNL A   1      43.797  22.927  33.300  1.00  0.00    -0.744 OA
ENDBRANCH  59  62
ENDBRANCH  41  55
BRANCH  42  66
ATOM     66  C   UNL A   1      43.345  25.028  26.282  1.00  0.00     0.023 A 
ATOM     67  C   UNL A   1      44.359  24.923  25.303  1.00  0.00     0.012 A 
ATOM     68  C   UNL A   1      42.581  23.876  26.565  1.00  0.00     0.148 A 
ATOM     69  C   UNL A   1      44.635  23.706  24.668  1.00  0.00     0.002 A 
ATOM     70  C   UNL A   1      42.855  22.669  25.927  1.00  0.00     0.091 A 
ATOM     71  F   UNL A   1      41.653  23.937  27.528  1.00  0.00    -0.205 F 
ATOM     72  C   UNL A   1      43.891  22.575  24.989  1.00  0.00     0.022 A 
BRANCH  70  73
ATOM     73  S   UNL A   1      41.959  21.158  26.316  1.00  0.00     0.127 S 
ATOM     74  O   UNL A   1      42.592  20.191  25.418  1.00  0.00    -0.237 OA
ATOM     75  O   UNL A   1      42.273  20.976  27.730  1.00  0.00    -0.237 OA
ATOM     76  O   UNL A   1      40.562  21.434  26.008  1.00  0.00    -0.744 OA
ENDBRANCH  70  73
ENDBRANCH  42  66
BRANCH  54  77
ATOM     77  C   UNL A   1      45.878  29.775  29.429  1.00  0.00     0.023 A 
ATOM     78  C   UNL A   1      47.269  29.936  29.267  1.00  0.00     0.012 A 
ATOM     79  C   UNL A   1      45.007  30.498  28.599  1.00  0.00     0.148 A 
ATOM     80  C   UNL A   1      47.775  30.821  28.310  1.00  0.00     0.002 A 
ATOM     81  C   UNL A   1      45.511  31.332  27.615  1.00  0.00     0.091 A 
ATOM     82  F   UNL A   1      43.685  30.340  28.777  1.00  0.00    -0.205 F 
ATOM     83  C   UNL A   1      46.895  31.508  27.473  1.00  0.00     0.022 A 
BRANCH  81  84
ATOM     84  S   UNL A   1      44.421  32.129  26.437  1.00  0.00     0.127 S 
ATOM     85  O   UNL A   1      43.910  33.259  27.209  1.00  0.00    -0.237 OA
ATOM     86  O   UNL A   1      45.335  32.491  25.352  1.00  0.00    -0.237 OA
ATOM     87  O   UNL A   1      43.434  31.121  26.065  1.00  0.00    -0.744 OA
ENDBRANCH  81  84
ENDBRANCH  54  77
ENDBRANCH  28  29
ENDBRANCH  21  23
ENDBRANCH   1  21
TORSDOF 14
ENDMDL
MODEL 3
REMARK VINA RESULT:     -11.5      3.555      7.222
REMARK SMILES Cc1noc2c1-c1c(c(C(=O)OCCOC(=O)c3ccc(-c4c5nc(c(-c6cccc(S(=O)(=O)[O-])c6F)c6ccc([nH]6)c(-c6cccc(S(=O)(=O)[O-])c6F)c6nc(c(-c7cccc(S(=O)(=O)[O-])c7F)c7ccc4[nH]7)C=C6)C=C5)cc3)nn1C)CC2
REMARK SMILES IDX 15 1 14 2 13 3 12 4 10 5 11 6 9 7 1 8 2 9 3 10 6 11 4 12
REMARK SMILES IDX 5 13 7 14 85 15 8 16 82 17 84 18 81 19 83 20 16 21 17 22
REMARK SMILES IDX 18 23 19 24 80 25 20 26 79 27 21 28 22 29 23 30 73 31 24 32
REMARK SMILES IDX 78 33 72 34 74 35 25 36 77 37 71 38 70 39 26 41 58 42 38 43
REMARK SMILES IDX 57 44 39 45 42 46 56 47 75 48 40 49 41 50 55 52 76 53 43 54
REMARK SMILES IDX 27 55 28 56 36 57 29 58 31 59 37 60 30 61 32 62 33 63 34 64
REMARK SMILES IDX 35 65 59 66 60 67 68 68 61 69 63 70 69 71 62 72 64 73 65 74
REMARK SMILES IDX 66 75 67 76 44 77 45 78 53 79 46 80 48 81 54 82 47 83 49 84
REMARK SMILES IDX 50 85 51 86 52 87
REMARK H PARENT 74 40 42 51
REMARK Flexibility Score: inf
ROOT
ATOM      1  O   UNL A   1      39.399  22.733  26.159  1.00  0.00    -0.458 OA
ENDROOT
BRANCH   1   2
ATOM      2  C   UNL A   1      39.032  21.403  25.803  1.00  0.00     0.275 C 
BRANCH   2   3
ATOM      3  C   UNL A   1      37.750  21.385  24.988  1.00  0.00     0.275 C 
BRANCH   3   4
ATOM      4  O   UNL A   1      37.361  22.716  24.619  1.00  0.00    -0.457 OA
BRANCH   4   5
ATOM      5  C   UNL A   1      36.354  22.819  23.695  1.00  0.00     0.359 C 
ATOM      6  O   UNL A   1      36.554  22.970  22.490  1.00  0.00    -0.244 OA
BRANCH   5   7
ATOM      7  C   UNL A   1      35.016  22.703  24.303  1.00  0.00     0.174 A 
ATOM      8  C   UNL A   1      29.834  22.578  26.653  1.00  0.00     0.071 C 
ATOM      9  C   UNL A   1      30.680  23.769  26.430  1.00  0.00     0.090 A 
ATOM     10  N   UNL A   1      30.172  24.973  26.761  1.00  0.00    -0.084 NA
ATOM     11  C   UNL A   1      31.986  23.902  25.921  1.00  0.00     0.066 A 
ATOM     12  O   UNL A   1      31.149  25.908  26.455  1.00  0.00    -0.360 OA
ATOM     13  C   UNL A   1      32.222  25.257  25.965  1.00  0.00     0.146 A 
ATOM     14  C   UNL A   1      33.069  23.079  25.337  1.00  0.00     0.077 A 
ATOM     15  C   UNL A   1      33.400  26.014  25.476  1.00  0.00     0.084 C 
ATOM     16  C   UNL A   1      34.283  23.682  25.032  1.00  0.00     0.014 A 
ATOM     17  N   UNL A   1      33.194  21.780  24.959  1.00  0.00    -0.267 N 
ATOM     18  C   UNL A   1      34.637  25.089  25.435  1.00  0.00     0.048 C 
ATOM     19  N   UNL A   1      34.301  21.559  24.221  1.00  0.00    -0.165 NA
ATOM     20  C   UNL A   1      32.303  20.673  25.190  1.00  0.00     0.174 C 
ENDBRANCH   5   7
ENDBRANCH   4   5
ENDBRANCH   3   4
ENDBRANCH   2   3
ENDBRANCH   1   2
BRANCH   1  21
ATOM     21  C   UNL A   1      40.334  22.820  27.134  1.00  0.00     0.338 C 
ATOM     22  O   UNL A   1      40.745  21.911  27.836  1.00  0.00    -0.246 OA
BRANCH  21  23
ATOM     23  C   UNL A   1      40.581  24.234  27.425  1.00  0.00     0.060 A 
ATOM     24  C   UNL A   1      41.742  24.564  28.128  1.00  0.00     0.016 A 
ATOM     25  C   UNL A   1      39.538  25.156  27.245  1.00  0.00     0.016 A 
ATOM     26  C   UNL A   1      41.802  25.788  28.765  1.00  0.00     0.010 A 
ATOM     27  C   UNL A   1      39.583  26.358  27.908  1.00  0.00     0.010 A 
ATOM     28  C   UNL A   1      40.694  26.642  28.699  1.00  0.00    -0.014 A 
BRANCH  28  29
ATOM     29  C   UNL A   1      40.807  27.968  29.275  1.00  0.00     0.031 A 
ATOM     30  C   UNL A   1      41.815  28.779  28.551  1.00  0.00     0.074 A 
ATOM     31  C   UNL A   1      39.984  28.425  30.240  1.00  0.00     0.049 A 
ATOM     32  N   UNL A   1      42.970  29.164  28.986  1.00  0.00    -0.248 NA
ATOM     33  C   UNL A   1      41.630  28.981  27.102  1.00  0.00     0.031 C 
ATOM     34  C   UNL A   1      38.790  27.760  30.772  1.00  0.00     0.029 A 
ATOM     35  N   UNL A   1      39.953  29.642  30.851  1.00  0.00    -0.354 N 
ATOM     36  C   UNL A   1      43.516  29.906  27.941  1.00  0.00     0.074 A 
ATOM     37  C   UNL A   1      42.800  29.518  26.761  1.00  0.00     0.031 C 
ATOM     38  C   UNL A   1      38.029  28.669  31.423  1.00  0.00     0.029 A 
ATOM     39  C   UNL A   1      38.730  29.942  31.452  1.00  0.00     0.049 A 
ATOM     40  H   UNL A   1      40.723  30.255  30.866  1.00  0.00     0.167 HD
ATOM     41  C   UNL A   1      44.246  31.023  28.208  1.00  0.00     0.034 A 
ATOM     42  C   UNL A   1      38.301  31.165  31.862  1.00  0.00     0.034 A 
ATOM     43  C   UNL A   1      44.700  31.008  29.580  1.00  0.00     0.049 A 
ATOM     44  C   UNL A   1      39.495  32.032  31.972  1.00  0.00     0.074 A 
ATOM     45  C   UNL A   1      45.448  30.152  30.362  1.00  0.00     0.029 A 
ATOM     46  N   UNL A   1      44.010  31.821  30.445  1.00  0.00    -0.354 N 
ATOM     47  N   UNL A   1      40.416  31.881  32.877  1.00  0.00    -0.248 NA
ATOM     48  C   UNL A   1      39.872  32.823  30.812  1.00  0.00     0.031 C 
ATOM     49  C   UNL A   1      44.859  30.219  31.658  1.00  0.00     0.029 A 
ATOM     50  C   UNL A   1      43.836  31.169  31.630  1.00  0.00     0.049 A 
ATOM     51  H   UNL A   1      43.691  32.730  30.242  1.00  0.00     0.167 HD
ATOM     52  C   UNL A   1      41.598  32.117  32.191  1.00  0.00     0.074 A 
ATOM     53  C   UNL A   1      41.198  32.821  30.975  1.00  0.00     0.031 C 
ATOM     54  C   UNL A   1      42.736  31.442  32.528  1.00  0.00     0.034 A 
BRANCH  41  55
ATOM     55  C   UNL A   1      44.129  32.332  27.433  1.00  0.00     0.023 A 
ATOM     56  C   UNL A   1      45.009  32.484  26.334  1.00  0.00     0.012 A 
ATOM     57  C   UNL A   1      43.466  33.503  27.871  1.00  0.00     0.148 A 
ATOM     58  C   UNL A   1      45.302  33.738  25.789  1.00  0.00     0.002 A 
ATOM     59  C   UNL A   1      43.712  34.740  27.285  1.00  0.00     0.091 A 
ATOM     60  F   UNL A   1      42.659  33.475  28.929  1.00  0.00    -0.205 F 
ATOM     61  C   UNL A   1      44.659  34.870  26.270  1.00  0.00     0.022 A 
BRANCH  59  62
ATOM     62  S   UNL A   1      42.878  36.236  27.841  1.00  0.00     0.127 S 
ATOM     63  O   UNL A   1      43.463  37.241  26.958  1.00  0.00    -0.237 OA
ATOM     64  O   UNL A   1      41.478  35.908  27.569  1.00  0.00    -0.237 OA
ATOM     65  O   UNL A   1      43.198  36.377  29.255  1.00  0.00    -0.744 OA
ENDBRANCH  59  62
ENDBRANCH  41  55
BRANCH  42  66
ATOM     66  C   UNL A   1      36.939  31.752  31.939  1.00  0.00     0.023 A 
ATOM     67  C   UNL A   1      36.423  32.139  33.197  1.00  0.00     0.012 A 
ATOM     68  C   UNL A   1      36.277  32.218  30.784  1.00  0.00     0.148 A 
ATOM     69  C   UNL A   1      35.322  32.997  33.298  1.00  0.00     0.002 A 
ATOM     70  C   UNL A   1      35.178  33.066  30.889  1.00  0.00     0.091 A 
ATOM     71  F   UNL A   1      36.782  31.910  29.582  1.00  0.00    -0.205 F 
ATOM     72  C   UNL A   1      34.706  33.472  32.144  1.00  0.00     0.022 A 
BRANCH  70  73
ATOM     73  S   UNL A   1      34.355  33.747  29.442  1.00  0.00     0.127 S 
ATOM     74  O   UNL A   1      33.263  34.511  30.046  1.00  0.00    -0.237 OA
ATOM     75  O   UNL A   1      35.413  34.558  28.846  1.00  0.00    -0.237 OA
ATOM     76  O   UNL A   1      33.919  32.600  28.657  1.00  0.00    -0.744 OA
ENDBRANCH  70  73
ENDBRANCH  42  66
BRANCH  54  77
ATOM     77  C   UNL A   1      42.783  30.758  33.868  1.00  0.00     0.023 A 
ATOM     78  C   UNL A   1      43.040  31.433  35.079  1.00  0.00     0.012 A 
ATOM     79  C   UNL A   1      42.411  29.405  33.906  1.00  0.00     0.148 A 
ATOM     80  C   UNL A   1      42.949  30.758  36.300  1.00  0.00     0.002 A 
ATOM     81  C   UNL A   1      42.267  28.755  35.121  1.00  0.00     0.091 A 
ATOM     82  F   UNL A   1      42.181  28.778  32.742  1.00  0.00    -0.205 F 
ATOM     83  C   UNL A   1      42.547  29.422  36.322  1.00  0.00     0.022 A 
BRANCH  81  84
ATOM     84  S   UNL A   1      41.627  27.082  35.198  1.00  0.00     0.127 S 
ATOM     85  O   UNL A   1      40.565  27.115  34.195  1.00  0.00    -0.237 OA
ATOM     86  O   UNL A   1      42.794  26.279  34.829  1.00  0.00    -0.237 OA
ATOM     87  O   UNL A   1      41.189  26.888  36.575  1.00  0.00    -0.744 OA
ENDBRANCH  81  84
ENDBRANCH  54  77
ENDBRANCH  28  29
ENDBRANCH  21  23
ENDBRANCH   1  21
TORSDOF 14
ENDMDL
