MODEL 1
REMARK VINA RESULT:     -12.1      0.000      0.000
REMARK SMILES Cc1c(CC(=O)OCCOC(=O)c2ccc(-c3c4nc(c(-c5cccc(S(=O)(=O)[O-])c5F)c5ccc([nH]5)c(-c5cccc(S(=O)(=O)[O-])c5F)c5nc(c(-c6cccc(S(=O)(=O)[O-])c6F)c6ccc3[nH]6)C=C5)C=C4)cc2)c(O)oc2cc(=O)cc(O)c1-2
REMARK SMILES IDX 9 1 8 2 7 3 5 4 6 5 4 6 3 7 1 8 2 9 86 10 76 11 79 12 84 13
REMARK SMILES IDX 78 14 80 15 83 16 81 17 82 18 77 19 85 21 10 23 11 24 12 25
REMARK SMILES IDX 13 26 14 27 75 28 15 29 74 30 16 31 17 32 18 33 68 34 19 35
REMARK SMILES IDX 73 36 67 37 69 38 20 39 72 40 66 41 65 42 21 44 53 45 33 46
REMARK SMILES IDX 52 47 34 48 37 49 51 50 70 51 35 52 36 53 50 55 71 56 38 57
REMARK SMILES IDX 22 58 23 59 31 60 24 61 26 62 32 63 25 64 27 65 28 66 29 67
REMARK SMILES IDX 30 68 54 69 55 70 63 71 56 72 58 73 64 74 57 75 59 76 60 77
REMARK SMILES IDX 61 78 62 79 39 80 40 81 48 82 41 83 43 84 49 85 42 86 44 87
REMARK SMILES IDX 45 88 46 89 47 90
REMARK H PARENT 77 20 85 22 69 43 37 54
REMARK Flexibility Score: inf
ROOT
ATOM      1  C   UNL A   1      36.479  20.270  24.964  1.00  0.00     0.275 C 
ENDROOT
BRANCH   1   2
ATOM      2  C   UNL A   1      34.985  20.570  24.946  1.00  0.00     0.274 C 
BRANCH   2   3
ATOM      3  O   UNL A   1      34.783  21.998  24.903  1.00  0.00    -0.462 OA
BRANCH   3   4
ATOM      4  C   UNL A   1      34.137  22.475  23.809  1.00  0.00     0.310 C 
ATOM      5  O   UNL A   1      33.164  21.945  23.280  1.00  0.00    -0.252 OA
BRANCH   4   6
ATOM      6  C   UNL A   1      34.675  23.809  23.312  1.00  0.00     0.166 C 
BRANCH   6   7
ATOM      7  C   UNL A   1      33.653  24.913  23.130  1.00  0.00     0.048 A 
ATOM      8  C   UNL A   1      34.060  25.655  25.556  1.00  0.00     0.046 C 
ATOM      9  C   UNL A   1      33.453  25.925  24.197  1.00  0.00    -0.026 A 
ATOM     10  C   UNL A   1      32.694  27.028  23.949  1.00  0.00     0.063 A 
ATOM     11  C   UNL A   1      32.939  25.023  21.986  1.00  0.00     0.286 A 
ATOM     12  C   UNL A   1      31.895  27.060  22.716  1.00  0.00     0.146 A 
ATOM     13  C   UNL A   1      32.589  28.195  24.847  1.00  0.00     0.130 A 
ATOM     14  O   UNL A   1      32.058  26.064  21.771  1.00  0.00    -0.425 OA
ATOM     15  C   UNL A   1      30.948  27.986  22.524  1.00  0.00     0.100 A 
ATOM     16  C   UNL A   1      31.646  29.130  24.669  1.00  0.00     0.099 A 
ATOM     17  C   UNL A   1      30.710  29.039  23.528  1.00  0.00     0.186 A 
ATOM     18  O   UNL A   1      29.794  29.843  23.399  1.00  0.00    -0.290 OA
BRANCH  11  19
ATOM     19  O   UNL A   1      33.037  24.133  20.937  1.00  0.00    -0.480 OA
ATOM     20  H   UNL A   1      33.759  24.187  20.342  1.00  0.00     0.297 HD
ENDBRANCH  11  19
BRANCH  13  21
ATOM     21  O   UNL A   1      33.567  28.343  25.807  1.00  0.00    -0.507 OA
ATOM     22  H   UNL A   1      33.495  29.022  26.449  1.00  0.00     0.293 HD
ENDBRANCH  13  21
ENDBRANCH   6   7
ENDBRANCH   4   6
ENDBRANCH   3   4
ENDBRANCH   2   3
ENDBRANCH   1   2
BRANCH   1  23
ATOM     23  O   UNL A   1      37.166  21.351  25.618  1.00  0.00    -0.458 OA
BRANCH  23  24
ATOM     24  C   UNL A   1      38.486  21.148  25.839  1.00  0.00     0.338 C 
ATOM     25  O   UNL A   1      39.108  20.114  25.656  1.00  0.00    -0.246 OA
BRANCH  24  26
ATOM     26  C   UNL A   1      39.117  22.385  26.350  1.00  0.00     0.060 A 
ATOM     27  C   UNL A   1      38.574  23.647  26.090  1.00  0.00     0.016 A 
ATOM     28  C   UNL A   1      40.336  22.277  27.021  1.00  0.00     0.016 A 
ATOM     29  C   UNL A   1      39.288  24.797  26.437  1.00  0.00     0.010 A 
ATOM     30  C   UNL A   1      41.002  23.428  27.449  1.00  0.00     0.010 A 
ATOM     31  C   UNL A   1      40.500  24.702  27.139  1.00  0.00    -0.014 A 
BRANCH  31  32
ATOM     32  C   UNL A   1      41.238  25.917  27.584  1.00  0.00     0.031 A 
ATOM     33  C   UNL A   1      40.558  26.970  28.420  1.00  0.00     0.074 A 
ATOM     34  C   UNL A   1      42.512  26.107  27.185  1.00  0.00     0.049 A 
ATOM     35  N   UNL A   1      40.990  28.157  28.762  1.00  0.00    -0.248 NA
ATOM     36  C   UNL A   1      39.210  26.657  28.927  1.00  0.00     0.031 C 
ATOM     37  C   UNL A   1      43.286  25.175  26.364  1.00  0.00     0.029 A 
ATOM     38  N   UNL A   1      43.373  27.155  27.397  1.00  0.00    -0.354 N 
ATOM     39  C   UNL A   1      39.957  28.751  29.476  1.00  0.00     0.074 A 
ATOM     40  C   UNL A   1      38.871  27.795  29.519  1.00  0.00     0.031 C 
ATOM     41  C   UNL A   1      44.511  25.680  26.159  1.00  0.00     0.029 A 
ATOM     42  C   UNL A   1      44.590  27.002  26.773  1.00  0.00     0.049 A 
ATOM     43  H   UNL A   1      43.143  27.942  27.944  1.00  0.00     0.167 HD
ATOM     44  C   UNL A   1      39.920  29.973  30.059  1.00  0.00     0.034 A 
ATOM     45  C   UNL A   1      45.643  27.837  26.674  1.00  0.00     0.034 A 
ATOM     46  C   UNL A   1      41.021  30.901  30.071  1.00  0.00     0.049 A 
ATOM     47  C   UNL A   1      45.575  29.188  27.325  1.00  0.00     0.074 A 
ATOM     48  C   UNL A   1      41.089  32.142  30.683  1.00  0.00     0.029 A 
ATOM     49  N   UNL A   1      42.245  30.692  29.456  1.00  0.00    -0.354 N 
ATOM     50  N   UNL A   1      44.615  29.703  28.054  1.00  0.00    -0.248 NA
ATOM     51  C   UNL A   1      46.737  30.072  27.150  1.00  0.00     0.031 C 
ATOM     52  C   UNL A   1      42.354  32.684  30.433  1.00  0.00     0.029 A 
ATOM     53  C   UNL A   1      43.074  31.780  29.670  1.00  0.00     0.049 A 
ATOM     54  H   UNL A   1      42.488  29.888  28.942  1.00  0.00     0.167 HD
ATOM     55  C   UNL A   1      45.058  30.965  28.433  1.00  0.00     0.074 A 
ATOM     56  C   UNL A   1      46.387  31.125  27.879  1.00  0.00     0.031 C 
ATOM     57  C   UNL A   1      44.411  31.913  29.152  1.00  0.00     0.034 A 
BRANCH  44  58
ATOM     58  C   UNL A   1      38.667  30.370  30.794  1.00  0.00     0.023 A 
ATOM     59  C   UNL A   1      38.561  30.094  32.171  1.00  0.00     0.012 A 
ATOM     60  C   UNL A   1      37.647  31.101  30.153  1.00  0.00     0.148 A 
ATOM     61  C   UNL A   1      37.452  30.527  32.897  1.00  0.00     0.002 A 
ATOM     62  C   UNL A   1      36.560  31.557  30.891  1.00  0.00     0.091 A 
ATOM     63  F   UNL A   1      37.756  31.333  28.836  1.00  0.00    -0.205 F 
ATOM     64  C   UNL A   1      36.459  31.267  32.261  1.00  0.00     0.022 A 
BRANCH  62  65
ATOM     65  S   UNL A   1      35.268  32.579  30.173  1.00  0.00     0.127 S 
ATOM     66  O   UNL A   1      34.786  31.726  29.089  1.00  0.00    -0.237 OA
ATOM     67  O   UNL A   1      34.335  32.732  31.290  1.00  0.00    -0.237 OA
ATOM     68  O   UNL A   1      35.922  33.814  29.760  1.00  0.00    -0.744 OA
ENDBRANCH  62  65
ENDBRANCH  44  58
BRANCH  45  69
ATOM     69  C   UNL A   1      46.870  27.381  25.961  1.00  0.00     0.023 A 
ATOM     70  C   UNL A   1      47.723  26.457  26.594  1.00  0.00     0.012 A 
ATOM     71  C   UNL A   1      47.148  27.781  24.639  1.00  0.00     0.148 A 
ATOM     72  C   UNL A   1      48.831  25.940  25.923  1.00  0.00     0.002 A 
ATOM     73  C   UNL A   1      48.217  27.215  23.956  1.00  0.00     0.091 A 
ATOM     74  F   UNL A   1      46.339  28.682  24.064  1.00  0.00    -0.205 F 
ATOM     75  C   UNL A   1      49.068  26.304  24.600  1.00  0.00     0.022 A 
BRANCH  73  76
ATOM     76  S   UNL A   1      48.490  27.505  22.204  1.00  0.00     0.127 S 
ATOM     77  O   UNL A   1      49.678  28.352  22.220  1.00  0.00    -0.237 OA
ATOM     78  O   UNL A   1      48.705  26.149  21.697  1.00  0.00    -0.237 OA
ATOM     79  O   UNL A   1      47.266  28.133  21.722  1.00  0.00    -0.744 OA
ENDBRANCH  73  76
ENDBRANCH  45  69
BRANCH  57  80
ATOM     80  C   UNL A   1      45.118  33.221  29.382  1.00  0.00     0.023 A 
ATOM     81  C   UNL A   1      45.944  33.365  30.513  1.00  0.00     0.012 A 
ATOM     82  C   UNL A   1      45.045  34.265  28.440  1.00  0.00     0.148 A 
ATOM     83  C   UNL A   1      46.675  34.536  30.713  1.00  0.00     0.002 A 
ATOM     84  C   UNL A   1      45.806  35.414  28.626  1.00  0.00     0.091 A 
ATOM     85  F   UNL A   1      44.236  34.117  27.380  1.00  0.00    -0.205 F 
ATOM     86  C   UNL A   1      46.616  35.553  29.764  1.00  0.00     0.022 A 
BRANCH  84  87
ATOM     87  S   UNL A   1      45.857  36.737  27.410  1.00  0.00     0.127 S 
ATOM     88  O   UNL A   1      44.450  37.122  27.330  1.00  0.00    -0.237 OA
ATOM     89  O   UNL A   1      46.724  37.724  28.055  1.00  0.00    -0.237 OA
ATOM     90  O   UNL A   1      46.417  36.144  26.202  1.00  0.00    -0.744 OA
ENDBRANCH  84  87
ENDBRANCH  57  80
ENDBRANCH  31  32
ENDBRANCH  24  26
ENDBRANCH  23  24
ENDBRANCH   1  23
TORSDOF 17
ENDMDL
MODEL 2
REMARK VINA RESULT:     -12.0      5.098      9.986
REMARK SMILES Cc1c(CC(=O)OCCOC(=O)c2ccc(-c3c4nc(c(-c5cccc(S(=O)(=O)[O-])c5F)c5ccc([nH]5)c(-c5cccc(S(=O)(=O)[O-])c5F)c5nc(c(-c6cccc(S(=O)(=O)[O-])c6F)c6ccc3[nH]6)C=C5)C=C4)cc2)c(O)oc2cc(=O)cc(O)c1-2
REMARK SMILES IDX 9 1 8 2 7 3 5 4 6 5 4 6 3 7 1 8 2 9 86 10 76 11 79 12 84 13
REMARK SMILES IDX 78 14 80 15 83 16 81 17 82 18 77 19 85 21 10 23 11 24 12 25
REMARK SMILES IDX 13 26 14 27 75 28 15 29 74 30 16 31 17 32 18 33 68 34 19 35
REMARK SMILES IDX 73 36 67 37 69 38 20 39 72 40 66 41 65 42 21 44 53 45 33 46
REMARK SMILES IDX 52 47 34 48 37 49 51 50 70 51 35 52 36 53 50 55 71 56 38 57
REMARK SMILES IDX 22 58 23 59 31 60 24 61 26 62 32 63 25 64 27 65 28 66 29 67
REMARK SMILES IDX 30 68 54 69 55 70 63 71 56 72 58 73 64 74 57 75 59 76 60 77
REMARK SMILES IDX 61 78 62 79 39 80 40 81 48 82 41 83 43 84 49 85 42 86 44 87
REMARK SMILES IDX 45 88 46 89 47 90
REMARK H PARENT 77 20 85 22 69 43 37 54
REMARK Flexibility Score: inf
ROOT
ATOM      1  C   UNL A   1      31.706  29.453  25.690  1.00  0.00     0.275 C 
ENDROOT
BRANCH   1   2
ATOM      2  C   UNL A   1      31.026  29.667  24.343  1.00  0.00     0.274 C 
BRANCH   2   3
ATOM      3  O   UNL A   1      31.590  28.761  23.372  1.00  0.00    -0.462 OA
BRANCH   3   4
ATOM      4  C   UNL A   1      30.718  28.228  22.479  1.00  0.00     0.310 C 
ATOM      5  O   UNL A   1      30.002  28.878  21.723  1.00  0.00    -0.252 OA
BRANCH   4   6
ATOM      6  C   UNL A   1      30.752  26.708  22.419  1.00  0.00     0.166 C 
BRANCH   6   7
ATOM      7  C   UNL A   1      31.992  26.047  22.987  1.00  0.00     0.048 A 
ATOM      8  C   UNL A   1      30.855  25.952  25.290  1.00  0.00     0.046 C 
ATOM      9  C   UNL A   1      31.990  25.535  24.380  1.00  0.00    -0.026 A 
ATOM     10  C   UNL A   1      33.020  24.759  24.817  1.00  0.00     0.063 A 
ATOM     11  C   UNL A   1      33.100  25.872  22.231  1.00  0.00     0.286 A 
ATOM     12  C   UNL A   1      34.221  24.659  23.975  1.00  0.00     0.146 A 
ATOM     13  C   UNL A   1      33.036  24.026  26.098  1.00  0.00     0.130 A 
ATOM     14  O   UNL A   1      34.211  25.205  22.706  1.00  0.00    -0.425 OA
ATOM     15  C   UNL A   1      35.356  24.125  24.442  1.00  0.00     0.100 A 
ATOM     16  C   UNL A   1      34.165  23.487  26.579  1.00  0.00     0.099 A 
ATOM     17  C   UNL A   1      35.422  23.572  25.807  1.00  0.00     0.186 A 
ATOM     18  O   UNL A   1      36.476  23.153  26.271  1.00  0.00    -0.290 OA
BRANCH  11  19
ATOM     19  O   UNL A   1      33.214  26.318  20.930  1.00  0.00    -0.480 OA
ATOM     20  H   UNL A   1      34.050  26.318  20.506  1.00  0.00     0.297 HD
ENDBRANCH  11  19
BRANCH  13  21
ATOM     21  O   UNL A   1      31.825  23.823  26.725  1.00  0.00    -0.507 OA
ATOM     22  H   UNL A   1      31.659  24.211  27.561  1.00  0.00     0.293 HD
ENDBRANCH  13  21
ENDBRANCH   6   7
ENDBRANCH   4   6
ENDBRANCH   3   4
ENDBRANCH   2   3
ENDBRANCH   1   2
BRANCH   1  23
ATOM     23  O   UNL A   1      32.909  30.238  25.738  1.00  0.00    -0.458 OA
BRANCH  23  24
ATOM     24  C   UNL A   1      32.961  31.161  26.728  1.00  0.00     0.338 C 
ATOM     25  O   UNL A   1      32.136  32.029  26.960  1.00  0.00    -0.246 OA
BRANCH  24  26
ATOM     26  C   UNL A   1      34.188  30.982  27.534  1.00  0.00     0.060 A 
ATOM     27  C   UNL A   1      35.060  32.045  27.787  1.00  0.00     0.016 A 
ATOM     28  C   UNL A   1      34.518  29.695  27.961  1.00  0.00     0.016 A 
ATOM     29  C   UNL A   1      36.292  31.804  28.402  1.00  0.00     0.010 A 
ATOM     30  C   UNL A   1      35.708  29.474  28.657  1.00  0.00     0.010 A 
ATOM     31  C   UNL A   1      36.622  30.519  28.862  1.00  0.00    -0.014 A 
BRANCH  31  32
ATOM     32  C   UNL A   1      37.897  30.256  29.586  1.00  0.00     0.031 A 
ATOM     33  C   UNL A   1      38.958  29.371  28.985  1.00  0.00     0.074 A 
ATOM     34  C   UNL A   1      38.080  30.766  30.821  1.00  0.00     0.049 A 
ATOM     35  N   UNL A   1      40.051  28.905  29.534  1.00  0.00    -0.248 NA
ATOM     36  C   UNL A   1      38.760  28.940  27.590  1.00  0.00     0.031 C 
ATOM     37  C   UNL A   1      37.130  31.628  31.527  1.00  0.00     0.029 A 
ATOM     38  N   UNL A   1      39.116  30.619  31.710  1.00  0.00    -0.354 N 
ATOM     39  C   UNL A   1      40.643  28.090  28.577  1.00  0.00     0.074 A 
ATOM     40  C   UNL A   1      39.788  28.121  27.410  1.00  0.00     0.031 C 
ATOM     41  C   UNL A   1      37.633  31.949  32.727  1.00  0.00     0.029 A 
ATOM     42  C   UNL A   1      38.909  31.262  32.909  1.00  0.00     0.049 A 
ATOM     43  H   UNL A   1      39.930  30.102  31.510  1.00  0.00     0.167 HD
ATOM     44  C   UNL A   1      41.803  27.393  28.655  1.00  0.00     0.034 A 
ATOM     45  C   UNL A   1      39.640  31.279  34.040  1.00  0.00     0.034 A 
ATOM     46  C   UNL A   1      42.686  27.411  29.791  1.00  0.00     0.049 A 
ATOM     47  C   UNL A   1      40.918  30.494  34.102  1.00  0.00     0.074 A 
ATOM     48  C   UNL A   1      43.907  26.775  29.937  1.00  0.00     0.029 A 
ATOM     49  N   UNL A   1      42.453  28.101  30.970  1.00  0.00    -0.354 N 
ATOM     50  N   UNL A   1      41.494  29.785  33.163  1.00  0.00    -0.248 NA
ATOM     51  C   UNL A   1      41.653  30.517  35.375  1.00  0.00     0.031 C 
ATOM     52  C   UNL A   1      44.411  27.078  31.206  1.00  0.00     0.029 A 
ATOM     53  C   UNL A   1      43.505  27.906  31.849  1.00  0.00     0.049 A 
ATOM     54  H   UNL A   1      41.656  28.649  31.155  1.00  0.00     0.167 HD
ATOM     55  C   UNL A   1      42.663  29.285  33.725  1.00  0.00     0.074 A 
ATOM     56  C   UNL A   1      42.729  29.798  35.078  1.00  0.00     0.031 C 
ATOM     57  C   UNL A   1      43.584  28.456  33.177  1.00  0.00     0.034 A 
BRANCH  44  58
ATOM     58  C   UNL A   1      42.229  26.591  27.454  1.00  0.00     0.023 A 
ATOM     59  C   UNL A   1      43.008  27.208  26.457  1.00  0.00     0.012 A 
ATOM     60  C   UNL A   1      41.949  25.213  27.362  1.00  0.00     0.148 A 
ATOM     61  C   UNL A   1      43.492  26.469  25.377  1.00  0.00     0.002 A 
ATOM     62  C   UNL A   1      42.462  24.477  26.300  1.00  0.00     0.091 A 
ATOM     63  F   UNL A   1      41.185  24.650  28.310  1.00  0.00    -0.205 F 
ATOM     64  C   UNL A   1      43.229  25.104  25.305  1.00  0.00     0.022 A 
BRANCH  62  65
ATOM     65  S   UNL A   1      42.237  22.699  26.160  1.00  0.00     0.127 S 
ATOM     66  O   UNL A   1      42.939  22.411  24.912  1.00  0.00    -0.237 OA
ATOM     67  O   UNL A   1      42.906  22.204  27.365  1.00  0.00    -0.237 OA
ATOM     68  O   UNL A   1      40.796  22.482  26.138  1.00  0.00    -0.744 OA
ENDBRANCH  62  65
ENDBRANCH  44  58
BRANCH  45  69
ATOM     69  C   UNL A   1      39.187  32.115  35.188  1.00  0.00     0.023 A 
ATOM     70  C   UNL A   1      38.358  31.537  36.168  1.00  0.00     0.012 A 
ATOM     71  C   UNL A   1      39.641  33.438  35.363  1.00  0.00     0.148 A 
ATOM     72  C   UNL A   1      37.987  32.261  37.300  1.00  0.00     0.002 A 
ATOM     73  C   UNL A   1      39.319  34.131  36.524  1.00  0.00     0.091 A 
ATOM     74  F   UNL A   1      40.407  33.979  34.406  1.00  0.00    -0.205 F 
ATOM     75  C   UNL A   1      38.481  33.550  37.488  1.00  0.00     0.022 A 
BRANCH  73  76
ATOM     76  S   UNL A   1      40.048  35.725  36.915  1.00  0.00     0.127 S 
ATOM     77  O   UNL A   1      41.470  35.399  36.973  1.00  0.00    -0.237 OA
ATOM     78  O   UNL A   1      39.648  36.537  35.765  1.00  0.00    -0.237 OA
ATOM     79  O   UNL A   1      39.436  36.133  38.173  1.00  0.00    -0.744 OA
ENDBRANCH  73  76
ENDBRANCH  45  69
BRANCH  57  80
ATOM     80  C   UNL A   1      44.745  28.034  34.036  1.00  0.00     0.023 A 
ATOM     81  C   UNL A   1      45.895  28.847  34.083  1.00  0.00     0.012 A 
ATOM     82  C   UNL A   1      44.666  26.897  34.864  1.00  0.00     0.148 A 
ATOM     83  C   UNL A   1      46.956  28.526  34.929  1.00  0.00     0.002 A 
ATOM     84  C   UNL A   1      45.711  26.605  35.733  1.00  0.00     0.091 A 
ATOM     85  F   UNL A   1      43.572  26.125  34.788  1.00  0.00    -0.205 F 
ATOM     86  C   UNL A   1      46.858  27.414  35.762  1.00  0.00     0.022 A 
BRANCH  84  87
ATOM     87  S   UNL A   1      45.632  25.242  36.902  1.00  0.00     0.127 S 
ATOM     88  O   UNL A   1      44.436  25.578  37.671  1.00  0.00    -0.237 OA
ATOM     89  O   UNL A   1      45.486  24.081  36.023  1.00  0.00    -0.237 OA
ATOM     90  O   UNL A   1      46.888  25.281  37.641  1.00  0.00    -0.744 OA
ENDBRANCH  84  87
ENDBRANCH  57  80
ENDBRANCH  31  32
ENDBRANCH  24  26
ENDBRANCH  23  24
ENDBRANCH   1  23
TORSDOF 17
ENDMDL
MODEL 3
REMARK VINA RESULT:     -12.0      5.159     10.171
REMARK SMILES Cc1c(CC(=O)OCCOC(=O)c2ccc(-c3c4nc(c(-c5cccc(S(=O)(=O)[O-])c5F)c5ccc([nH]5)c(-c5cccc(S(=O)(=O)[O-])c5F)c5nc(c(-c6cccc(S(=O)(=O)[O-])c6F)c6ccc3[nH]6)C=C5)C=C4)cc2)c(O)oc2cc(=O)cc(O)c1-2
REMARK SMILES IDX 9 1 8 2 7 3 5 4 6 5 4 6 3 7 1 8 2 9 86 10 76 11 79 12 84 13
REMARK SMILES IDX 78 14 80 15 83 16 81 17 82 18 77 19 85 21 10 23 11 24 12 25
REMARK SMILES IDX 13 26 14 27 75 28 15 29 74 30 16 31 17 32 18 33 68 34 19 35
REMARK SMILES IDX 73 36 67 37 69 38 20 39 72 40 66 41 65 42 21 44 53 45 33 46
REMARK SMILES IDX 52 47 34 48 37 49 51 50 70 51 35 52 36 53 50 55 71 56 38 57
REMARK SMILES IDX 22 58 23 59 31 60 24 61 26 62 32 63 25 64 27 65 28 66 29 67
REMARK SMILES IDX 30 68 54 69 55 70 63 71 56 72 58 73 64 74 57 75 59 76 60 77
REMARK SMILES IDX 61 78 62 79 39 80 40 81 48 82 41 83 43 84 49 85 42 86 44 87
REMARK SMILES IDX 45 88 46 89 47 90
REMARK H PARENT 77 20 85 22 69 43 37 54
REMARK Flexibility Score: inf
ROOT
ATOM      1  C   UNL A   1      31.658  29.587  25.397  1.00  0.00     0.275 C 
ENDROOT
BRANCH   1   2
ATOM      2  C   UNL A   1      31.692  28.104  25.752  1.00  0.00     0.274 C 
BRANCH   2   3
ATOM      3  O   UNL A   1      30.762  27.389  24.912  1.00  0.00    -0.462 OA
BRANCH   3   4
ATOM      4  C   UNL A   1      30.385  26.162  25.352  1.00  0.00     0.310 C 
ATOM      5  O   UNL A   1      29.905  25.929  26.458  1.00  0.00    -0.252 OA
BRANCH   4   6
ATOM      6  C   UNL A   1      30.529  25.064  24.308  1.00  0.00     0.166 C 
BRANCH   6   7
ATOM      7  C   UNL A   1      31.819  24.272  24.348  1.00  0.00     0.048 A 
ATOM      8  C   UNL A   1      30.654  22.495  25.792  1.00  0.00     0.046 C 
ATOM      9  C   UNL A   1      31.845  22.920  24.961  1.00  0.00    -0.026 A 
ATOM     10  C   UNL A   1      32.942  22.129  24.810  1.00  0.00     0.063 A 
ATOM     11  C   UNL A   1      32.955  24.756  23.794  1.00  0.00     0.286 A 
ATOM     12  C   UNL A   1      34.163  22.732  24.256  1.00  0.00     0.146 A 
ATOM     13  C   UNL A   1      33.010  20.705  25.189  1.00  0.00     0.130 A 
ATOM     14  O   UNL A   1      34.121  24.019  23.753  1.00  0.00    -0.425 OA
ATOM     15  C   UNL A   1      35.338  22.094  24.306  1.00  0.00     0.100 A 
ATOM     16  C   UNL A   1      34.179  20.053  25.246  1.00  0.00     0.099 A 
ATOM     17  C   UNL A   1      35.436  20.738  24.877  1.00  0.00     0.186 A 
ATOM     18  O   UNL A   1      36.519  20.178  24.999  1.00  0.00    -0.290 OA
BRANCH  11  19
ATOM     19  O   UNL A   1      33.047  26.002  23.209  1.00  0.00    -0.480 OA
ATOM     20  H   UNL A   1      32.351  26.318  22.667  1.00  0.00     0.297 HD
ENDBRANCH  11  19
BRANCH  13  21
ATOM     21  O   UNL A   1      31.815  20.043  25.376  1.00  0.00    -0.507 OA
ATOM     22  H   UNL A   1      31.014  20.428  25.080  1.00  0.00     0.293 HD
ENDBRANCH  13  21
ENDBRANCH   6   7
ENDBRANCH   4   6
ENDBRANCH   3   4
ENDBRANCH   2   3
ENDBRANCH   1   2
BRANCH   1  23
ATOM     23  O   UNL A   1      32.950  30.161  25.660  1.00  0.00    -0.458 OA
BRANCH  23  24
ATOM     24  C   UNL A   1      32.985  31.075  26.658  1.00  0.00     0.338 C 
ATOM     25  O   UNL A   1      32.164  31.951  26.876  1.00  0.00    -0.246 OA
BRANCH  24  26
ATOM     26  C   UNL A   1      34.190  30.878  27.493  1.00  0.00     0.060 A 
ATOM     27  C   UNL A   1      35.038  31.940  27.820  1.00  0.00     0.016 A 
ATOM     28  C   UNL A   1      34.526  29.577  27.873  1.00  0.00     0.016 A 
ATOM     29  C   UNL A   1      36.254  31.689  28.461  1.00  0.00     0.010 A 
ATOM     30  C   UNL A   1      35.697  29.342  28.596  1.00  0.00     0.010 A 
ATOM     31  C   UNL A   1      36.590  30.389  28.875  1.00  0.00    -0.014 A 
BRANCH  31  32
ATOM     32  C   UNL A   1      37.845  30.112  29.626  1.00  0.00     0.031 A 
ATOM     33  C   UNL A   1      38.906  29.209  29.050  1.00  0.00     0.074 A 
ATOM     34  C   UNL A   1      38.010  30.625  30.862  1.00  0.00     0.049 A 
ATOM     35  N   UNL A   1      39.981  28.731  29.623  1.00  0.00    -0.248 NA
ATOM     36  C   UNL A   1      38.730  28.775  27.653  1.00  0.00     0.031 C 
ATOM     37  C   UNL A   1      37.059  31.503  31.545  1.00  0.00     0.029 A 
ATOM     38  N   UNL A   1      39.026  30.467  31.772  1.00  0.00    -0.354 N 
ATOM     39  C   UNL A   1      40.581  27.904  28.682  1.00  0.00     0.074 A 
ATOM     40  C   UNL A   1      39.750  27.941  27.497  1.00  0.00     0.031 C 
ATOM     41  C   UNL A   1      37.541  31.822  32.753  1.00  0.00     0.029 A 
ATOM     42  C   UNL A   1      38.803  31.119  32.964  1.00  0.00     0.049 A 
ATOM     43  H   UNL A   1      39.837  29.938  31.591  1.00  0.00     0.167 HD
ATOM     44  C   UNL A   1      41.729  27.191  28.787  1.00  0.00     0.034 A 
ATOM     45  C   UNL A   1      39.511  31.131  34.110  1.00  0.00     0.034 A 
ATOM     46  C   UNL A   1      42.588  27.201  29.940  1.00  0.00     0.049 A 
ATOM     47  C   UNL A   1      40.777  30.328  34.201  1.00  0.00     0.074 A 
ATOM     48  C   UNL A   1      43.798  26.549  30.114  1.00  0.00     0.029 A 
ATOM     49  N   UNL A   1      42.342  27.900  31.111  1.00  0.00    -0.354 N 
ATOM     50  N   UNL A   1      41.362  29.607  33.277  1.00  0.00    -0.248 NA
ATOM     51  C   UNL A   1      41.486  30.346  35.489  1.00  0.00     0.031 C 
ATOM     52  C   UNL A   1      44.280  26.851  31.391  1.00  0.00     0.029 A 
ATOM     53  C   UNL A   1      43.373  27.694  32.012  1.00  0.00     0.049 A 
ATOM     54  H   UNL A   1      41.549  28.460  31.277  1.00  0.00     0.167 HD
ATOM     55  C   UNL A   1      42.512  29.093  33.865  1.00  0.00     0.074 A 
ATOM     56  C   UNL A   1      42.558  29.612  35.217  1.00  0.00     0.031 C 
ATOM     57  C   UNL A   1      43.432  28.249  33.340  1.00  0.00     0.034 A 
BRANCH  44  58
ATOM     58  C   UNL A   1      42.168  26.377  27.598  1.00  0.00     0.023 A 
ATOM     59  C   UNL A   1      43.040  26.954  26.655  1.00  0.00     0.012 A 
ATOM     60  C   UNL A   1      41.804  25.022  27.468  1.00  0.00     0.148 A 
ATOM     61  C   UNL A   1      43.534  26.199  25.591  1.00  0.00     0.002 A 
ATOM     62  C   UNL A   1      42.327  24.267  26.424  1.00  0.00     0.091 A 
ATOM     63  F   UNL A   1      40.954  24.498  28.364  1.00  0.00    -0.205 F 
ATOM     64  C   UNL A   1      43.188  24.855  25.483  1.00  0.00     0.022 A 
BRANCH  62  65
ATOM     65  S   UNL A   1      41.995  22.510  26.244  1.00  0.00     0.127 S 
ATOM     66  O   UNL A   1      42.703  22.202  25.003  1.00  0.00    -0.237 OA
ATOM     67  O   UNL A   1      42.608  21.951  27.450  1.00  0.00    -0.237 OA
ATOM     68  O   UNL A   1      40.545  22.384  26.191  1.00  0.00    -0.744 OA
ENDBRANCH  62  65
ENDBRANCH  44  58
BRANCH  45  69
ATOM     69  C   UNL A   1      39.047  31.978  35.245  1.00  0.00     0.023 A 
ATOM     70  C   UNL A   1      38.174  31.421  36.199  1.00  0.00     0.012 A 
ATOM     71  C   UNL A   1      39.530  33.288  35.434  1.00  0.00     0.148 A 
ATOM     72  C   UNL A   1      37.789  32.155  37.321  1.00  0.00     0.002 A 
ATOM     73  C   UNL A   1      39.192  33.989  36.586  1.00  0.00     0.091 A 
ATOM     74  F   UNL A   1      40.338  33.810  34.501  1.00  0.00    -0.205 F 
ATOM     75  C   UNL A   1      38.312  33.430  37.525  1.00  0.00     0.022 A 
BRANCH  73  76
ATOM     76  S   UNL A   1      39.951  35.564  36.999  1.00  0.00     0.127 S 
ATOM     77  O   UNL A   1      39.294  35.893  38.261  1.00  0.00    -0.237 OA
ATOM     78  O   UNL A   1      41.365  35.203  37.115  1.00  0.00    -0.237 OA
ATOM     79  O   UNL A   1      39.652  36.443  35.876  1.00  0.00    -0.744 OA
ENDBRANCH  73  76
ENDBRANCH  45  69
BRANCH  57  80
ATOM     80  C   UNL A   1      44.570  27.815  34.224  1.00  0.00     0.023 A 
ATOM     81  C   UNL A   1      45.688  28.659  34.368  1.00  0.00     0.012 A 
ATOM     82  C   UNL A   1      44.494  26.629  34.981  1.00  0.00     0.148 A 
ATOM     83  C   UNL A   1      46.722  28.323  35.241  1.00  0.00     0.002 A 
ATOM     84  C   UNL A   1      45.511  26.320  35.878  1.00  0.00     0.091 A 
ATOM     85  F   UNL A   1      43.432  25.829  34.813  1.00  0.00    -0.205 F 
ATOM     86  C   UNL A   1      46.628  27.162  36.004  1.00  0.00     0.022 A 
BRANCH  84  87
ATOM     87  S   UNL A   1      45.429  24.889  36.962  1.00  0.00     0.127 S 
ATOM     88  O   UNL A   1      45.809  23.807  36.057  1.00  0.00    -0.237 OA
ATOM     89  O   UNL A   1      46.428  25.210  37.983  1.00  0.00    -0.237 OA
ATOM     90  O   UNL A   1      44.059  24.845  37.457  1.00  0.00    -0.744 OA
ENDBRANCH  84  87
ENDBRANCH  57  80
ENDBRANCH  31  32
ENDBRANCH  24  26
ENDBRANCH  23  24
ENDBRANCH   1  23
TORSDOF 17
ENDMDL
