MODEL 1
REMARK VINA RESULT:     -11.9      0.000      0.000
REMARK SMILES COc1ccc2c(c1OC)C(=O)O[C@@H]2Nc1nonc1C(=O)OCCOC(=O)c1ccc(-c2c3nc(c(-c4cccc(S(=O)(=O)[O-])c4F)c4ccc([nH]4)c(-c4cccc(S(=O)(=O)[O-])c4F)c4nc(c(-c5cccc(S(=O)(=O)[O-])c5F)c5ccc2[nH]5)C=C4)C=C3)cc1
REMARK SMILES IDX 24 1 23 2 21 3 22 4 20 5 16 6 17 7 18 8 19 9 15 10 14 12
REMARK SMILES IDX 3 13 4 14 8 15 5 16 7 17 6 18 11 19 12 20 13 21 2 22 1 23
REMARK SMILES IDX 9 24 10 25 25 26 26 27 27 28 28 29 29 30 30 31 91 32 31 33
REMARK SMILES IDX 90 34 32 35 33 36 34 37 84 38 35 39 89 40 83 41 85 42 36 43
REMARK SMILES IDX 88 44 82 45 81 46 37 48 69 49 49 50 68 51 50 52 53 53 67 54
REMARK SMILES IDX 86 55 51 56 52 57 66 59 87 60 54 61 38 62 39 63 47 64 40 65
REMARK SMILES IDX 42 66 48 67 41 68 43 69 44 70 45 71 46 72 70 73 71 74 79 75
REMARK SMILES IDX 72 76 74 77 80 78 73 79 75 80 76 81 77 82 78 83 55 84 56 85
REMARK SMILES IDX 64 86 57 87 59 88 65 89 58 90 60 91 61 92 62 93 63 94
REMARK H PARENT 15 11 85 47 53 58
REMARK Flexibility Score: inf
ROOT
ATOM      1  C   UNL A   1      34.741  20.867  25.146  1.00  0.00     0.275 C 
ENDROOT
BRANCH   1   2
ATOM      2  O   UNL A   1      33.570  21.587  24.691  1.00  0.00    -0.457 OA
BRANCH   2   3
ATOM      3  C   UNL A   1      32.350  21.222  25.191  1.00  0.00     0.364 C 
ATOM      4  O   UNL A   1      31.878  20.101  25.049  1.00  0.00    -0.244 OA
BRANCH   3   5
ATOM      5  C   UNL A   1      31.703  22.283  25.960  1.00  0.00     0.236 A 
ATOM      6  C   UNL A   1      32.180  23.538  26.425  1.00  0.00     0.209 A 
ATOM      7  N   UNL A   1      31.289  24.060  27.267  1.00  0.00    -0.031 NA
ATOM      8  O   UNL A   1      30.202  23.205  27.232  1.00  0.00    -0.241 OA
ATOM      9  N   UNL A   1      30.431  22.149  26.370  1.00  0.00    -0.040 NA
BRANCH   6  10
ATOM     10  N   UNL A   1      33.305  24.202  26.065  1.00  0.00    -0.326 N 
ATOM     11  H   UNL A   1      34.154  24.039  26.537  1.00  0.00     0.166 HD
BRANCH  10  12
ATOM     12  C   UNL A   1      33.246  25.147  24.988  1.00  0.00     0.307 C 
ATOM     13  C   UNL A   1      31.838  29.042  25.527  1.00  0.00     0.161 A 
ATOM     14  C   UNL A   1      32.708  28.564  26.515  1.00  0.00     0.051 A 
ATOM     15  C   UNL A   1      31.356  28.229  24.478  1.00  0.00     0.175 A 
ATOM     16  C   UNL A   1      33.132  27.248  26.473  1.00  0.00     0.014 A 
ATOM     17  C   UNL A   1      31.827  26.922  24.445  1.00  0.00     0.114 A 
ATOM     18  C   UNL A   1      32.725  26.464  25.403  1.00  0.00     0.032 A 
ATOM     19  C   UNL A   1      31.597  25.789  23.529  1.00  0.00     0.344 C 
ATOM     20  O   UNL A   1      30.870  25.729  22.562  1.00  0.00    -0.246 OA
ATOM     21  O   UNL A   1      32.312  24.725  24.003  1.00  0.00    -0.434 OA
BRANCH  13  22
ATOM     22  O   UNL A   1      31.505  30.374  25.604  1.00  0.00    -0.493 OA
ATOM     23  C   UNL A   1      32.043  30.934  26.799  1.00  0.00     0.278 C 
ENDBRANCH  13  22
BRANCH  15  24
ATOM     24  O   UNL A   1      30.541  28.866  23.591  1.00  0.00    -0.492 OA
ATOM     25  C   UNL A   1      31.072  29.226  22.326  1.00  0.00     0.278 C 
ENDBRANCH  15  24
ENDBRANCH  10  12
ENDBRANCH   6  10
ENDBRANCH   3   5
ENDBRANCH   2   3
ENDBRANCH   1   2
BRANCH   1  26
ATOM     26  C   UNL A   1      36.018  21.605  24.719  1.00  0.00     0.275 C 
BRANCH  26  27
ATOM     27  O   UNL A   1      36.806  21.947  25.870  1.00  0.00    -0.458 OA
BRANCH  27  28
ATOM     28  C   UNL A   1      38.071  21.464  25.870  1.00  0.00     0.338 C 
ATOM     29  O   UNL A   1      38.456  20.418  25.378  1.00  0.00    -0.246 OA
BRANCH  28  30
ATOM     30  C   UNL A   1      38.961  22.544  26.316  1.00  0.00     0.060 A 
ATOM     31  C   UNL A   1      38.642  23.837  25.900  1.00  0.00     0.016 A 
ATOM     32  C   UNL A   1      40.049  22.319  27.155  1.00  0.00     0.016 A 
ATOM     33  C   UNL A   1      39.382  24.924  26.329  1.00  0.00     0.010 A 
ATOM     34  C   UNL A   1      40.796  23.412  27.594  1.00  0.00     0.010 A 
ATOM     35  C   UNL A   1      40.458  24.718  27.189  1.00  0.00    -0.014 A 
BRANCH  35  36
ATOM     36  C   UNL A   1      41.244  25.876  27.654  1.00  0.00     0.031 A 
ATOM     37  C   UNL A   1      40.576  26.926  28.482  1.00  0.00     0.074 A 
ATOM     38  C   UNL A   1      42.541  25.974  27.312  1.00  0.00     0.049 A 
ATOM     39  N   UNL A   1      41.037  28.080  28.879  1.00  0.00    -0.248 NA
ATOM     40  C   UNL A   1      39.199  26.639  28.914  1.00  0.00     0.031 C 
ATOM     41  C   UNL A   1      43.293  24.970  26.557  1.00  0.00     0.029 A 
ATOM     42  N   UNL A   1      43.448  26.975  27.537  1.00  0.00    -0.354 N 
ATOM     43  C   UNL A   1      39.992  28.684  29.564  1.00  0.00     0.074 A 
ATOM     44  C   UNL A   1      38.872  27.769  29.525  1.00  0.00     0.031 C 
ATOM     45  C   UNL A   1      44.546  25.414  26.367  1.00  0.00     0.029 A 
ATOM     46  C   UNL A   1      44.662  26.753  26.932  1.00  0.00     0.049 A 
ATOM     47  H   UNL A   1      43.250  27.773  28.078  1.00  0.00     0.167 HD
ATOM     48  C   UNL A   1      39.976  29.896  30.168  1.00  0.00     0.034 A 
ATOM     49  C   UNL A   1      45.731  27.562  26.814  1.00  0.00     0.034 A 
ATOM     50  C   UNL A   1      41.108  30.781  30.197  1.00  0.00     0.049 A 
ATOM     51  C   UNL A   1      45.660  28.935  27.425  1.00  0.00     0.074 A 
ATOM     52  C   UNL A   1      41.221  32.016  30.806  1.00  0.00     0.029 A 
ATOM     53  N   UNL A   1      42.322  30.531  29.570  1.00  0.00    -0.354 N 
ATOM     54  N   UNL A   1      44.696  29.473  28.133  1.00  0.00    -0.248 NA
ATOM     55  C   UNL A   1      46.825  29.808  27.228  1.00  0.00     0.031 C 
ATOM     56  C   UNL A   1      42.486  32.534  30.506  1.00  0.00     0.029 A 
ATOM     57  C   UNL A   1      43.179  31.603  29.746  1.00  0.00     0.049 A 
ATOM     58  H   UNL A   1      42.540  29.711  29.070  1.00  0.00     0.167 HD
ATOM     59  C   UNL A   1      45.147  30.737  28.494  1.00  0.00     0.074 A 
ATOM     60  C   UNL A   1      46.480  30.875  27.938  1.00  0.00     0.031 C 
ATOM     61  C   UNL A   1      44.515  31.700  29.209  1.00  0.00     0.034 A 
BRANCH  48  62
ATOM     62  C   UNL A   1      38.686  30.325  30.817  1.00  0.00     0.023 A 
ATOM     63  C   UNL A   1      38.411  29.963  32.153  1.00  0.00     0.012 A 
ATOM     64  C   UNL A   1      37.739  31.079  30.098  1.00  0.00     0.148 A 
ATOM     65  C   UNL A   1      37.190  30.296  32.742  1.00  0.00     0.002 A 
ATOM     66  C   UNL A   1      36.547  31.450  30.709  1.00  0.00     0.091 A 
ATOM     67  F   UNL A   1      38.005  31.393  28.822  1.00  0.00    -0.205 F 
ATOM     68  C   UNL A   1      36.263  31.045  32.023  1.00  0.00     0.022 A 
BRANCH  66  69
ATOM     69  S   UNL A   1      35.323  32.478  29.891  1.00  0.00     0.127 S 
ATOM     70  O   UNL A   1      34.886  31.607  28.802  1.00  0.00    -0.237 OA
ATOM     71  O   UNL A   1      34.332  32.677  30.949  1.00  0.00    -0.237 OA
ATOM     72  O   UNL A   1      36.024  33.689  29.482  1.00  0.00    -0.744 OA
ENDBRANCH  66  69
ENDBRANCH  48  62
BRANCH  49  73
ATOM     73  C   UNL A   1      46.954  27.083  26.111  1.00  0.00     0.023 A 
ATOM     74  C   UNL A   1      47.074  27.294  24.725  1.00  0.00     0.012 A 
ATOM     75  C   UNL A   1      48.015  26.469  26.808  1.00  0.00     0.148 A 
ATOM     76  C   UNL A   1      48.219  26.887  24.040  1.00  0.00     0.002 A 
ATOM     77  C   UNL A   1      49.174  26.112  26.128  1.00  0.00     0.091 A 
ATOM     78  F   UNL A   1      47.878  26.270  28.126  1.00  0.00    -0.205 F 
ATOM     79  C   UNL A   1      49.271  26.306  24.741  1.00  0.00     0.022 A 
BRANCH  77  80
ATOM     80  S   UNL A   1      50.628  25.463  26.961  1.00  0.00     0.127 S 
ATOM     81  O   UNL A   1      50.988  26.573  27.841  1.00  0.00    -0.237 OA
ATOM     82  O   UNL A   1      50.085  24.289  27.643  1.00  0.00    -0.237 OA
ATOM     83  O   UNL A   1      51.589  25.162  25.908  1.00  0.00    -0.744 OA
ENDBRANCH  77  80
ENDBRANCH  49  73
BRANCH  61  84
ATOM     84  C   UNL A   1      45.261  32.986  29.453  1.00  0.00     0.023 A 
ATOM     85  C   UNL A   1      46.123  33.095  30.561  1.00  0.00     0.012 A 
ATOM     86  C   UNL A   1      45.175  34.049  28.532  1.00  0.00     0.148 A 
ATOM     87  C   UNL A   1      46.873  34.253  30.762  1.00  0.00     0.002 A 
ATOM     88  C   UNL A   1      45.965  35.177  28.709  1.00  0.00     0.091 A 
ATOM     89  F   UNL A   1      44.336  33.926  27.493  1.00  0.00    -0.205 F 
ATOM     90  C   UNL A   1      46.804  35.287  29.829  1.00  0.00     0.022 A 
BRANCH  88  91
ATOM     91  S   UNL A   1      46.023  36.516  27.512  1.00  0.00     0.127 S 
ATOM     92  O   UNL A   1      46.518  37.623  28.329  1.00  0.00    -0.237 OA
ATOM     93  O   UNL A   1      46.979  36.007  26.530  1.00  0.00    -0.237 OA
ATOM     94  O   UNL A   1      44.664  36.675  27.015  1.00  0.00    -0.744 OA
ENDBRANCH  88  91
ENDBRANCH  61  84
ENDBRANCH  35  36
ENDBRANCH  28  30
ENDBRANCH  27  28
ENDBRANCH  26  27
ENDBRANCH   1  26
TORSDOF 18
ENDMDL
MODEL 2
REMARK VINA RESULT:     -11.5      4.740      9.994
REMARK SMILES COc1ccc2c(c1OC)C(=O)O[C@@H]2Nc1nonc1C(=O)OCCOC(=O)c1ccc(-c2c3nc(c(-c4cccc(S(=O)(=O)[O-])c4F)c4ccc([nH]4)c(-c4cccc(S(=O)(=O)[O-])c4F)c4nc(c(-c5cccc(S(=O)(=O)[O-])c5F)c5ccc2[nH]5)C=C4)C=C3)cc1
REMARK SMILES IDX 24 1 23 2 21 3 22 4 20 5 16 6 17 7 18 8 19 9 15 10 14 12
REMARK SMILES IDX 3 13 4 14 8 15 5 16 7 17 6 18 11 19 12 20 13 21 2 22 1 23
REMARK SMILES IDX 9 24 10 25 25 26 26 27 27 28 28 29 29 30 30 31 91 32 31 33
REMARK SMILES IDX 90 34 32 35 33 36 34 37 84 38 35 39 89 40 83 41 85 42 36 43
REMARK SMILES IDX 88 44 82 45 81 46 37 48 69 49 49 50 68 51 50 52 53 53 67 54
REMARK SMILES IDX 86 55 51 56 52 57 66 59 87 60 54 61 38 62 39 63 47 64 40 65
REMARK SMILES IDX 42 66 48 67 41 68 43 69 44 70 45 71 46 72 70 73 71 74 79 75
REMARK SMILES IDX 72 76 74 77 80 78 73 79 75 80 76 81 77 82 78 83 55 84 56 85
REMARK SMILES IDX 64 86 57 87 59 88 65 89 58 90 60 91 61 92 62 93 63 94
REMARK H PARENT 15 11 85 47 53 58
REMARK Flexibility Score: inf
ROOT
ATOM      1  C   UNL A   1      31.308  29.466  24.444  1.00  0.00     0.275 C 
ENDROOT
BRANCH   1   2
ATOM      2  O   UNL A   1      32.129  28.277  24.548  1.00  0.00    -0.457 OA
BRANCH   2   3
ATOM      3  C   UNL A   1      31.538  27.062  24.343  1.00  0.00     0.364 C 
ATOM      4  O   UNL A   1      30.458  26.753  24.831  1.00  0.00    -0.244 OA
BRANCH   3   5
ATOM      5  C   UNL A   1      32.293  26.200  23.435  1.00  0.00     0.236 A 
ATOM      6  C   UNL A   1      33.557  25.566  23.568  1.00  0.00     0.209 A 
ATOM      7  N   UNL A   1      33.920  25.061  22.389  1.00  0.00    -0.031 NA
ATOM      8  O   UNL A   1      32.836  25.262  21.553  1.00  0.00    -0.241 OA
ATOM      9  N   UNL A   1      31.807  25.899  22.219  1.00  0.00    -0.040 NA
BRANCH   6  10
ATOM     10  N   UNL A   1      34.302  25.389  24.686  1.00  0.00    -0.326 N 
ATOM     11  H   UNL A   1      35.004  26.037  24.926  1.00  0.00     0.166 HD
BRANCH  10  12
ATOM     12  C   UNL A   1      34.057  24.246  25.518  1.00  0.00     0.307 C 
ATOM     13  C   UNL A   1      35.984  20.594  24.894  1.00  0.00     0.161 A 
ATOM     14  C   UNL A   1      36.794  21.734  24.814  1.00  0.00     0.051 A 
ATOM     15  C   UNL A   1      34.582  20.665  25.047  1.00  0.00     0.175 A 
ATOM     16  C   UNL A   1      36.216  22.988  24.896  1.00  0.00     0.014 A 
ATOM     17  C   UNL A   1      34.038  21.938  25.161  1.00  0.00     0.114 A 
ATOM     18  C   UNL A   1      34.850  23.065  25.124  1.00  0.00     0.032 A 
ATOM     19  C   UNL A   1      32.662  22.433  25.353  1.00  0.00     0.344 C 
ATOM     20  O   UNL A   1      31.630  21.804  25.421  1.00  0.00    -0.246 OA
ATOM     21  O   UNL A   1      32.716  23.799  25.371  1.00  0.00    -0.434 OA
BRANCH  13  22
ATOM     22  O   UNL A   1      36.635  19.383  24.859  1.00  0.00    -0.493 OA
ATOM     23  C   UNL A   1      38.038  19.590  25.004  1.00  0.00     0.278 C 
ENDBRANCH  13  22
BRANCH  15  24
ATOM     24  O   UNL A   1      33.957  19.457  25.135  1.00  0.00    -0.492 OA
ATOM     25  C   UNL A   1      33.192  19.012  24.027  1.00  0.00     0.278 C 
ENDBRANCH  15  24
ENDBRANCH  10  12
ENDBRANCH   6  10
ENDBRANCH   3   5
ENDBRANCH   2   3
ENDBRANCH   1   2
BRANCH   1  26
ATOM     26  C   UNL A   1      31.487  30.345  25.690  1.00  0.00     0.275 C 
BRANCH  26  27
ATOM     27  O   UNL A   1      32.862  30.353  26.104  1.00  0.00    -0.458 OA
BRANCH  27  28
ATOM     28  C   UNL A   1      33.212  31.366  26.933  1.00  0.00     0.338 C 
ATOM     29  O   UNL A   1      32.529  32.325  27.246  1.00  0.00    -0.246 OA
BRANCH  28  30
ATOM     30  C   UNL A   1      34.451  30.975  27.617  1.00  0.00     0.060 A 
ATOM     31  C   UNL A   1      35.355  31.994  27.917  1.00  0.00     0.016 A 
ATOM     32  C   UNL A   1      34.710  29.662  28.003  1.00  0.00     0.016 A 
ATOM     33  C   UNL A   1      36.515  31.730  28.624  1.00  0.00     0.010 A 
ATOM     34  C   UNL A   1      35.877  29.391  28.719  1.00  0.00     0.010 A 
ATOM     35  C   UNL A   1      36.777  30.426  29.039  1.00  0.00    -0.014 A 
BRANCH  35  36
ATOM     36  C   UNL A   1      38.009  30.143  29.798  1.00  0.00     0.031 A 
ATOM     37  C   UNL A   1      39.025  29.213  29.218  1.00  0.00     0.074 A 
ATOM     38  C   UNL A   1      38.188  30.713  31.002  1.00  0.00     0.049 A 
ATOM     39  N   UNL A   1      40.104  28.725  29.766  1.00  0.00    -0.248 NA
ATOM     40  C   UNL A   1      38.790  28.767  27.835  1.00  0.00     0.031 C 
ATOM     41  C   UNL A   1      37.279  31.678  31.624  1.00  0.00     0.029 A 
ATOM     42  N   UNL A   1      39.184  30.546  31.927  1.00  0.00    -0.354 N 
ATOM     43  C   UNL A   1      40.652  27.872  28.818  1.00  0.00     0.074 A 
ATOM     44  C   UNL A   1      39.784  27.908  27.660  1.00  0.00     0.031 C 
ATOM     45  C   UNL A   1      37.751  32.006  32.836  1.00  0.00     0.029 A 
ATOM     46  C   UNL A   1      38.958  31.230  33.097  1.00  0.00     0.049 A 
ATOM     47  H   UNL A   1      39.982  29.991  31.770  1.00  0.00     0.167 HD
ATOM     48  C   UNL A   1      41.779  27.129  28.912  1.00  0.00     0.034 A 
ATOM     49  C   UNL A   1      39.630  31.198  34.263  1.00  0.00     0.034 A 
ATOM     50  C   UNL A   1      42.627  27.119  30.073  1.00  0.00     0.049 A 
ATOM     51  C   UNL A   1      40.834  30.302  34.370  1.00  0.00     0.074 A 
ATOM     52  C   UNL A   1      43.810  26.434  30.270  1.00  0.00     0.029 A 
ATOM     53  N   UNL A   1      42.368  27.818  31.244  1.00  0.00    -0.354 N 
ATOM     54  N   UNL A   1      41.389  29.553  33.447  1.00  0.00    -0.248 NA
ATOM     55  C   UNL A   1      41.508  30.252  35.673  1.00  0.00     0.031 C 
ATOM     56  C   UNL A   1      44.241  26.679  31.578  1.00  0.00     0.029 A 
ATOM     57  C   UNL A   1      43.349  27.553  32.183  1.00  0.00     0.049 A 
ATOM     58  H   UNL A   1      41.598  28.414  31.387  1.00  0.00     0.167 HD
ATOM     59  C   UNL A   1      42.495  28.964  34.047  1.00  0.00     0.074 A 
ATOM     60  C   UNL A   1      42.539  29.460  35.409  1.00  0.00     0.031 C 
ATOM     61  C   UNL A   1      43.387  28.087  33.524  1.00  0.00     0.034 A 
BRANCH  48  62
ATOM     62  C   UNL A   1      42.130  26.257  27.734  1.00  0.00     0.023 A 
ATOM     63  C   UNL A   1      42.850  26.792  26.646  1.00  0.00     0.012 A 
ATOM     64  C   UNL A   1      41.734  24.905  27.701  1.00  0.00     0.148 A 
ATOM     65  C   UNL A   1      43.120  26.013  25.520  1.00  0.00     0.002 A 
ATOM     66  C   UNL A   1      42.052  24.122  26.598  1.00  0.00     0.091 A 
ATOM     67  F   UNL A   1      41.029  24.419  28.732  1.00  0.00    -0.205 F 
ATOM     68  C   UNL A   1      42.728  24.677  25.500  1.00  0.00     0.022 A 
BRANCH  66  69
ATOM     69  S   UNL A   1      41.655  22.373  26.511  1.00  0.00     0.127 S 
ATOM     70  O   UNL A   1      42.301  21.985  25.258  1.00  0.00    -0.237 OA
ATOM     71  O   UNL A   1      42.300  21.851  27.716  1.00  0.00    -0.237 OA
ATOM     72  O   UNL A   1      40.201  22.290  26.518  1.00  0.00    -0.744 OA
ENDBRANCH  66  69
ENDBRANCH  48  62
BRANCH  49  73
ATOM     73  C   UNL A   1      39.191  32.052  35.401  1.00  0.00     0.023 A 
ATOM     74  C   UNL A   1      38.294  31.523  36.348  1.00  0.00     0.012 A 
ATOM     75  C   UNL A   1      39.688  33.359  35.581  1.00  0.00     0.148 A 
ATOM     76  C   UNL A   1      37.885  32.285  37.443  1.00  0.00     0.002 A 
ATOM     77  C   UNL A   1      39.317  34.093  36.701  1.00  0.00     0.091 A 
ATOM     78  F   UNL A   1      40.536  33.847  34.663  1.00  0.00    -0.205 F 
ATOM     79  C   UNL A   1      38.403  33.563  37.626  1.00  0.00     0.022 A 
BRANCH  77  80
ATOM     80  S   UNL A   1      40.018  35.703  37.084  1.00  0.00     0.127 S 
ATOM     81  O   UNL A   1      39.649  36.479  35.902  1.00  0.00    -0.237 OA
ATOM     82  O   UNL A   1      39.296  36.061  38.304  1.00  0.00    -0.237 OA
ATOM     83  O   UNL A   1      41.445  35.482  37.267  1.00  0.00    -0.744 OA
ENDBRANCH  77  80
ENDBRANCH  49  73
BRANCH  61  84
ATOM     84  C   UNL A   1      44.504  27.616  34.419  1.00  0.00     0.023 A 
ATOM     85  C   UNL A   1      45.609  28.456  34.659  1.00  0.00     0.012 A 
ATOM     86  C   UNL A   1      44.411  26.382  35.090  1.00  0.00     0.148 A 
ATOM     87  C   UNL A   1      46.617  28.064  35.538  1.00  0.00     0.002 A 
ATOM     88  C   UNL A   1      45.392  26.021  36.005  1.00  0.00     0.091 A 
ATOM     89  F   UNL A   1      43.357  25.594  34.834  1.00  0.00    -0.205 F 
ATOM     90  C   UNL A   1      46.501  26.854  36.221  1.00  0.00     0.022 A 
BRANCH  88  91
ATOM     91  S   UNL A   1      45.281  24.535  37.007  1.00  0.00     0.127 S 
ATOM     92  O   UNL A   1      46.589  24.518  37.661  1.00  0.00    -0.237 OA
ATOM     93  O   UNL A   1      44.160  24.846  37.895  1.00  0.00    -0.237 OA
ATOM     94  O   UNL A   1      45.039  23.438  36.081  1.00  0.00    -0.744 OA
ENDBRANCH  88  91
ENDBRANCH  61  84
ENDBRANCH  35  36
ENDBRANCH  28  30
ENDBRANCH  27  28
ENDBRANCH  26  27
ENDBRANCH   1  26
TORSDOF 18
ENDMDL
MODEL 3
REMARK VINA RESULT:     -11.4      1.723      2.444
REMARK SMILES COc1ccc2c(c1OC)C(=O)O[C@@H]2Nc1nonc1C(=O)OCCOC(=O)c1ccc(-c2c3nc(c(-c4cccc(S(=O)(=O)[O-])c4F)c4ccc([nH]4)c(-c4cccc(S(=O)(=O)[O-])c4F)c4nc(c(-c5cccc(S(=O)(=O)[O-])c5F)c5ccc2[nH]5)C=C4)C=C3)cc1
REMARK SMILES IDX 24 1 23 2 21 3 22 4 20 5 16 6 17 7 18 8 19 9 15 10 14 12
REMARK SMILES IDX 3 13 4 14 8 15 5 16 7 17 6 18 11 19 12 20 13 21 2 22 1 23
REMARK SMILES IDX 9 24 10 25 25 26 26 27 27 28 28 29 29 30 30 31 91 32 31 33
REMARK SMILES IDX 90 34 32 35 33 36 34 37 84 38 35 39 89 40 83 41 85 42 36 43
REMARK SMILES IDX 88 44 82 45 81 46 37 48 69 49 49 50 68 51 50 52 53 53 67 54
REMARK SMILES IDX 86 55 51 56 52 57 66 59 87 60 54 61 38 62 39 63 47 64 40 65
REMARK SMILES IDX 42 66 48 67 41 68 43 69 44 70 45 71 46 72 70 73 71 74 79 75
REMARK SMILES IDX 72 76 74 77 80 78 73 79 75 80 76 81 77 82 78 83 55 84 56 85
REMARK SMILES IDX 64 86 57 87 59 88 65 89 58 90 60 91 61 92 62 93 63 94
REMARK H PARENT 15 11 85 47 53 58
REMARK Flexibility Score: inf
ROOT
ATOM      1  C   UNL A   1      35.962  20.330  25.050  1.00  0.00     0.275 C 
ENDROOT
BRANCH   1   2
ATOM      2  O   UNL A   1      34.955  21.352  25.253  1.00  0.00    -0.457 OA
BRANCH   2   3
ATOM      3  C   UNL A   1      33.895  21.396  24.392  1.00  0.00     0.364 C 
ATOM      4  O   UNL A   1      33.013  20.545  24.373  1.00  0.00    -0.244 OA
BRANCH   3   5
ATOM      5  C   UNL A   1      33.889  22.588  23.545  1.00  0.00     0.236 A 
ATOM      6  C   UNL A   1      32.855  23.207  22.793  1.00  0.00     0.209 A 
ATOM      7  N   UNL A   1      33.385  24.147  22.011  1.00  0.00    -0.031 NA
ATOM      8  O   UNL A   1      34.722  24.208  22.362  1.00  0.00    -0.241 OA
ATOM      9  N   UNL A   1      35.015  23.297  23.360  1.00  0.00    -0.040 NA
BRANCH   6  10
ATOM     10  N   UNL A   1      31.518  22.993  22.856  1.00  0.00    -0.326 N 
ATOM     11  H   UNL A   1      31.077  22.400  22.205  1.00  0.00     0.166 HD
BRANCH  10  12
ATOM     12  C   UNL A   1      30.752  23.642  23.880  1.00  0.00     0.307 C 
ATOM     13  C   UNL A   1      30.795  27.786  24.394  1.00  0.00     0.161 A 
ATOM     14  C   UNL A   1      30.692  27.335  23.072  1.00  0.00     0.051 A 
ATOM     15  C   UNL A   1      31.002  26.912  25.483  1.00  0.00     0.175 A 
ATOM     16  C   UNL A   1      30.783  25.982  22.804  1.00  0.00     0.014 A 
ATOM     17  C   UNL A   1      31.055  25.556  25.184  1.00  0.00     0.114 A 
ATOM     18  C   UNL A   1      30.909  25.110  23.876  1.00  0.00     0.032 A 
ATOM     19  C   UNL A   1      31.226  24.347  26.011  1.00  0.00     0.344 C 
ATOM     20  O   UNL A   1      31.408  24.261  27.205  1.00  0.00    -0.246 OA
ATOM     21  O   UNL A   1      31.223  23.270  25.169  1.00  0.00    -0.434 OA
BRANCH  13  22
ATOM     22  O   UNL A   1      30.640  29.139  24.588  1.00  0.00    -0.493 OA
ATOM     23  C   UNL A   1      30.021  29.719  23.442  1.00  0.00     0.278 C 
ENDBRANCH  13  22
BRANCH  15  24
ATOM     24  O   UNL A   1      31.050  27.521  26.701  1.00  0.00    -0.492 OA
ATOM     25  C   UNL A   1      32.320  27.834  27.249  1.00  0.00     0.278 C 
ENDBRANCH  15  24
ENDBRANCH  10  12
ENDBRANCH   6  10
ENDBRANCH   3   5
ENDBRANCH   2   3
ENDBRANCH   1   2
BRANCH   1  26
ATOM     26  C   UNL A   1      37.314  20.975  24.713  1.00  0.00     0.275 C 
BRANCH  26  27
ATOM     27  O   UNL A   1      37.752  21.813  25.794  1.00  0.00    -0.458 OA
BRANCH  27  28
ATOM     28  C   UNL A   1      39.020  21.597  26.217  1.00  0.00     0.338 C 
ATOM     29  O   UNL A   1      39.686  20.591  26.051  1.00  0.00    -0.246 OA
BRANCH  28  30
ATOM     30  C   UNL A   1      39.566  22.885  26.666  1.00  0.00     0.060 A 
ATOM     31  C   UNL A   1      40.571  22.842  27.632  1.00  0.00     0.016 A 
ATOM     32  C   UNL A   1      39.151  24.101  26.129  1.00  0.00     0.016 A 
ATOM     33  C   UNL A   1      41.194  24.000  28.062  1.00  0.00     0.010 A 
ATOM     34  C   UNL A   1      39.778  25.272  26.557  1.00  0.00     0.010 A 
ATOM     35  C   UNL A   1      40.807  25.223  27.517  1.00  0.00    -0.014 A 
BRANCH  35  36
ATOM     36  C   UNL A   1      41.474  26.458  27.969  1.00  0.00     0.031 A 
ATOM     37  C   UNL A   1      40.677  27.493  28.696  1.00  0.00     0.074 A 
ATOM     38  C   UNL A   1      42.780  26.638  27.705  1.00  0.00     0.049 A 
ATOM     39  N   UNL A   1      41.025  28.696  29.060  1.00  0.00    -0.248 NA
ATOM     40  C   UNL A   1      39.298  27.123  29.055  1.00  0.00     0.031 C 
ATOM     41  C   UNL A   1      43.652  25.660  27.052  1.00  0.00     0.029 A 
ATOM     42  N   UNL A   1      43.594  27.715  27.933  1.00  0.00    -0.354 N 
ATOM     43  C   UNL A   1      39.895  29.251  29.644  1.00  0.00     0.074 A 
ATOM     44  C   UNL A   1      38.850  28.253  29.584  1.00  0.00     0.031 C 
ATOM     45  C   UNL A   1      44.879  26.188  26.919  1.00  0.00     0.029 A 
ATOM     46  C   UNL A   1      44.859  27.557  27.419  1.00  0.00     0.049 A 
ATOM     47  H   UNL A   1      43.303  28.521  28.417  1.00  0.00     0.167 HD
ATOM     48  C   UNL A   1      39.751  30.486  30.182  1.00  0.00     0.034 A 
ATOM     49  C   UNL A   1      45.872  28.439  27.326  1.00  0.00     0.034 A 
ATOM     50  C   UNL A   1      40.811  31.455  30.235  1.00  0.00     0.049 A 
ATOM     51  C   UNL A   1      45.660  29.830  27.857  1.00  0.00     0.074 A 
ATOM     52  C   UNL A   1      40.792  32.723  30.784  1.00  0.00     0.029 A 
ATOM     53  N   UNL A   1      42.078  31.268  29.699  1.00  0.00    -0.354 N 
ATOM     54  N   UNL A   1      44.614  30.327  28.474  1.00  0.00    -0.248 NA
ATOM     55  C   UNL A   1      46.768  30.779  27.689  1.00  0.00     0.031 C 
ATOM     56  C   UNL A   1      42.033  33.321  30.537  1.00  0.00     0.029 A 
ATOM     57  C   UNL A   1      42.841  32.410  29.872  1.00  0.00     0.049 A 
ATOM     58  H   UNL A   1      42.389  30.445  29.259  1.00  0.00     0.167 HD
ATOM     59  C   UNL A   1      44.947  31.638  28.794  1.00  0.00     0.074 A 
ATOM     60  C   UNL A   1      46.300  31.849  28.317  1.00  0.00     0.031 C 
ATOM     61  C   UNL A   1      44.199  32.583  29.416  1.00  0.00     0.034 A 
BRANCH  48  62
ATOM     62  C   UNL A   1      38.392  30.846  30.725  1.00  0.00     0.023 A 
ATOM     63  C   UNL A   1      38.029  30.467  32.034  1.00  0.00     0.012 A 
ATOM     64  C   UNL A   1      37.468  31.552  29.930  1.00  0.00     0.148 A 
ATOM     65  C   UNL A   1      36.750  30.735  32.523  1.00  0.00     0.002 A 
ATOM     66  C   UNL A   1      36.214  31.860  30.443  1.00  0.00     0.091 A 
ATOM     67  F   UNL A   1      37.819  31.883  28.680  1.00  0.00    -0.205 F 
ATOM     68  C   UNL A   1      35.846  31.438  31.731  1.00  0.00     0.022 A 
BRANCH  66  69
ATOM     69  S   UNL A   1      35.008  32.826  29.528  1.00  0.00     0.127 S 
ATOM     70  O   UNL A   1      34.509  31.843  28.568  1.00  0.00    -0.237 OA
ATOM     71  O   UNL A   1      34.053  33.196  30.573  1.00  0.00    -0.237 OA
ATOM     72  O   UNL A   1      35.742  33.946  28.954  1.00  0.00    -0.744 OA
ENDBRANCH  66  69
ENDBRANCH  48  62
BRANCH  49  73
ATOM     73  C   UNL A   1      47.171  28.022  26.728  1.00  0.00     0.023 A 
ATOM     74  C   UNL A   1      48.242  27.693  27.580  1.00  0.00     0.012 A 
ATOM     75  C   UNL A   1      47.339  27.900  25.333  1.00  0.00     0.148 A 
ATOM     76  C   UNL A   1      49.463  27.269  27.055  1.00  0.00     0.002 A 
ATOM     77  C   UNL A   1      48.541  27.429  24.820  1.00  0.00     0.091 A 
ATOM     78  F   UNL A   1      46.309  28.225  24.539  1.00  0.00    -0.205 F 
ATOM     79  C   UNL A   1      49.610  27.127  25.679  1.00  0.00     0.022 A 
BRANCH  77  80
ATOM     80  S   UNL A   1      48.789  27.102  23.070  1.00  0.00     0.127 S 
ATOM     81  O   UNL A   1      50.246  27.113  22.968  1.00  0.00    -0.237 OA
ATOM     82  O   UNL A   1      48.172  25.784  22.921  1.00  0.00    -0.237 OA
ATOM     83  O   UNL A   1      48.104  28.175  22.364  1.00  0.00    -0.744 OA
ENDBRANCH  77  80
ENDBRANCH  49  73
BRANCH  61  84
ATOM     84  C   UNL A   1      44.832  33.932  29.638  1.00  0.00     0.023 A 
ATOM     85  C   UNL A   1      45.547  34.183  30.826  1.00  0.00     0.012 A 
ATOM     86  C   UNL A   1      44.793  34.915  28.630  1.00  0.00     0.148 A 
ATOM     87  C   UNL A   1      46.195  35.402  31.016  1.00  0.00     0.002 A 
ATOM     88  C   UNL A   1      45.486  36.106  28.804  1.00  0.00     0.091 A 
ATOM     89  F   UNL A   1      44.094  34.658  27.515  1.00  0.00    -0.205 F 
ATOM     90  C   UNL A   1      46.177  36.357  30.000  1.00  0.00     0.022 A 
BRANCH  88  91
ATOM     91  S   UNL A   1      45.606  37.353  27.516  1.00  0.00     0.127 S 
ATOM     92  O   UNL A   1      46.013  38.531  28.281  1.00  0.00    -0.237 OA
ATOM     93  O   UNL A   1      46.646  36.799  26.650  1.00  0.00    -0.237 OA
ATOM     94  O   UNL A   1      44.286  37.436  26.908  1.00  0.00    -0.744 OA
ENDBRANCH  88  91
ENDBRANCH  61  84
ENDBRANCH  35  36
ENDBRANCH  28  30
ENDBRANCH  27  28
ENDBRANCH  26  27
ENDBRANCH   1  26
TORSDOF 18
ENDMDL
