MODEL 1
REMARK VINA RESULT:     -11.8      0.000      0.000
REMARK SMILES COc1ccc(-c2ncn(CC(=O)OCCOC(=O)c3ccc(-c4c5nc(c(-c6cccc(S(=O)(=O)[O-])c6F)c6ccc([nH]6)c(-c6cccc(S(=O)(=O)[O-])c6F)c6nc(c(-c7cccc(S(=O)(=O)[O-])c7F)c7ccc4[nH]7)C=C6)C=C5)cc3)c2-c2ccc(OC)cc2)cc1
REMARK SMILES IDX 15 1 14 2 12 3 13 4 11 5 10 6 7 7 8 8 83 9 9 10 6 11 3 12
REMARK SMILES IDX 4 13 93 14 5 15 92 16 2 17 1 18 84 19 85 20 91 21 86 22
REMARK SMILES IDX 90 23 87 24 88 25 89 26 16 27 17 28 18 29 19 30 20 31 21 32
REMARK SMILES IDX 82 33 22 34 81 35 23 36 24 37 25 38 75 39 26 40 80 41 74 42
REMARK SMILES IDX 76 43 27 44 79 45 73 46 72 47 28 49 60 50 40 51 59 52 41 53
REMARK SMILES IDX 44 54 58 55 77 56 42 57 43 58 57 60 78 61 45 62 29 63 30 64
REMARK SMILES IDX 38 65 31 66 33 67 39 68 32 69 34 70 35 71 36 72 37 73 61 74
REMARK SMILES IDX 62 75 70 76 63 77 65 78 71 79 64 80 66 81 67 82 68 83 69 84
REMARK SMILES IDX 46 85 47 86 55 87 48 88 50 89 56 90 49 91 51 92 52 93 53 94
REMARK SMILES IDX 54 95
REMARK H PARENT 76 48 44 59
REMARK Flexibility Score: inf
ROOT
ATOM      1  C   UNL A   1      34.374  29.078  26.996  1.00  0.00     0.274 C 
ENDROOT
BRANCH   1   2
ATOM      2  O   UNL A   1      33.686  29.165  25.732  1.00  0.00    -0.461 OA
BRANCH   2   3
ATOM      3  C   UNL A   1      32.641  28.313  25.545  1.00  0.00     0.326 C 
ATOM      4  O   UNL A   1      31.791  28.063  26.397  1.00  0.00    -0.250 OA
BRANCH   3   5
ATOM      5  C   UNL A   1      32.572  27.762  24.138  1.00  0.00     0.246 C 
BRANCH   5   6
ATOM      6  N   UNL A   1      31.964  26.447  24.014  1.00  0.00    -0.319 N 
ATOM      7  C   UNL A   1      31.493  24.320  23.849  1.00  0.00     0.096 A 
ATOM      8  N   UNL A   1      30.322  24.985  23.606  1.00  0.00    -0.236 NA
ATOM      9  C   UNL A   1      32.553  25.204  24.033  1.00  0.00     0.076 A 
ATOM     10  C   UNL A   1      30.638  26.257  23.707  1.00  0.00     0.201 A 
BRANCH   7  11
ATOM     11  C   UNL A   1      31.658  22.872  23.883  1.00  0.00     0.003 A 
ATOM     12  C   UNL A   1      32.400  20.154  23.983  1.00  0.00     0.118 A 
ATOM     13  C   UNL A   1      32.232  20.884  25.157  1.00  0.00     0.047 A 
ATOM     14  C   UNL A   1      32.180  20.782  22.755  1.00  0.00     0.047 A 
ATOM     15  C   UNL A   1      31.847  22.225  25.111  1.00  0.00     0.014 A 
ATOM     16  C   UNL A   1      31.811  22.138  22.704  1.00  0.00     0.014 A 
BRANCH  12  17
ATOM     17  O   UNL A   1      32.740  18.845  24.181  1.00  0.00    -0.497 OA
ATOM     18  C   UNL A   1      32.708  17.977  23.056  1.00  0.00     0.278 C 
ENDBRANCH  12  17
ENDBRANCH   7  11
BRANCH   9  19
ATOM     19  C   UNL A   1      33.950  24.812  24.208  1.00  0.00     0.001 A 
ATOM     20  C   UNL A   1      34.460  24.747  25.506  1.00  0.00     0.014 A 
ATOM     21  C   UNL A   1      34.556  24.047  23.199  1.00  0.00     0.014 A 
ATOM     22  C   UNL A   1      35.460  23.824  25.815  1.00  0.00     0.047 A 
ATOM     23  C   UNL A   1      35.576  23.140  23.510  1.00  0.00     0.047 A 
ATOM     24  C   UNL A   1      36.005  23.002  24.827  1.00  0.00     0.118 A 
BRANCH  24  25
ATOM     25  O   UNL A   1      36.926  22.103  25.274  1.00  0.00    -0.497 OA
ATOM     26  C   UNL A   1      36.616  20.720  25.129  1.00  0.00     0.278 C 
ENDBRANCH  24  25
ENDBRANCH   9  19
ENDBRANCH   5   6
ENDBRANCH   3   5
ENDBRANCH   2   3
ENDBRANCH   1   2
BRANCH   1  27
ATOM     27  C   UNL A   1      34.614  30.492  27.514  1.00  0.00     0.275 C 
BRANCH  27  28
ATOM     28  O   UNL A   1      35.128  30.554  28.858  1.00  0.00    -0.458 OA
BRANCH  28  29
ATOM     29  C   UNL A   1      36.398  31.005  29.022  1.00  0.00     0.338 C 
ATOM     30  O   UNL A   1      36.746  32.143  29.209  1.00  0.00    -0.246 OA
BRANCH  29  31
ATOM     31  C   UNL A   1      37.347  29.925  28.700  1.00  0.00     0.060 A 
ATOM     32  C   UNL A   1      37.478  28.912  29.650  1.00  0.00     0.016 A 
ATOM     33  C   UNL A   1      38.244  30.040  27.631  1.00  0.00     0.016 A 
ATOM     34  C   UNL A   1      38.635  28.164  29.647  1.00  0.00     0.010 A 
ATOM     35  C   UNL A   1      39.406  29.293  27.640  1.00  0.00     0.010 A 
ATOM     36  C   UNL A   1      39.645  28.447  28.717  1.00  0.00    -0.014 A 
BRANCH  36  37
ATOM     37  C   UNL A   1      40.897  27.703  28.850  1.00  0.00     0.031 A 
ATOM     38  C   UNL A   1      41.675  28.189  30.017  1.00  0.00     0.074 A 
ATOM     39  C   UNL A   1      41.266  26.718  27.999  1.00  0.00     0.049 A 
ATOM     40  N   UNL A   1      42.866  28.698  30.027  1.00  0.00    -0.248 NA
ATOM     41  C   UNL A   1      40.941  28.350  31.289  1.00  0.00     0.031 C 
ATOM     42  C   UNL A   1      40.458  26.146  26.916  1.00  0.00     0.029 A 
ATOM     43  N   UNL A   1      42.398  25.943  27.965  1.00  0.00    -0.354 N 
ATOM     44  C   UNL A   1      43.111  28.982  31.365  1.00  0.00     0.074 A 
ATOM     45  C   UNL A   1      41.843  28.975  32.043  1.00  0.00     0.031 C 
ATOM     46  C   UNL A   1      41.009  24.984  26.506  1.00  0.00     0.029 A 
ATOM     47  C   UNL A   1      42.227  24.750  27.256  1.00  0.00     0.049 A 
ATOM     48  H   UNL A   1      43.245  26.200  28.397  1.00  0.00     0.167 HD
ATOM     49  C   UNL A   1      44.351  28.796  31.884  1.00  0.00     0.034 A 
ATOM     50  C   UNL A   1      42.942  23.598  27.375  1.00  0.00     0.034 A 
ATOM     51  C   UNL A   1      45.377  28.898  30.885  1.00  0.00     0.049 A 
ATOM     52  C   UNL A   1      44.226  23.938  28.016  1.00  0.00     0.074 A 
ATOM     53  C   UNL A   1      45.848  29.881  30.043  1.00  0.00     0.029 A 
ATOM     54  N   UNL A   1      45.870  27.710  30.415  1.00  0.00    -0.354 N 
ATOM     55  N   UNL A   1      45.163  24.638  27.445  1.00  0.00    -0.248 NA
ATOM     56  C   UNL A   1      44.291  23.863  29.465  1.00  0.00     0.031 C 
ATOM     57  C   UNL A   1      46.324  29.199  28.888  1.00  0.00     0.029 A 
ATOM     58  C   UNL A   1      46.148  27.827  29.083  1.00  0.00     0.049 A 
ATOM     59  H   UNL A   1      46.002  26.897  30.954  1.00  0.00     0.167 HD
ATOM     60  C   UNL A   1      45.629  25.468  28.454  1.00  0.00     0.074 A 
ATOM     61  C   UNL A   1      45.136  24.870  29.693  1.00  0.00     0.031 C 
ATOM     62  C   UNL A   1      46.120  26.708  28.163  1.00  0.00     0.034 A 
BRANCH  49  63
ATOM     63  C   UNL A   1      44.546  28.032  33.173  1.00  0.00     0.023 A 
ATOM     64  C   UNL A   1      45.306  28.638  34.191  1.00  0.00     0.012 A 
ATOM     65  C   UNL A   1      44.254  26.652  33.325  1.00  0.00     0.148 A 
ATOM     66  C   UNL A   1      45.749  27.904  35.297  1.00  0.00     0.002 A 
ATOM     67  C   UNL A   1      44.602  25.958  34.472  1.00  0.00     0.091 A 
ATOM     68  F   UNL A   1      43.778  25.948  32.294  1.00  0.00    -0.205 F 
ATOM     69  C   UNL A   1      45.378  26.571  35.452  1.00  0.00     0.022 A 
BRANCH  67  70
ATOM     70  S   UNL A   1      44.074  24.259  34.724  1.00  0.00     0.127 S 
ATOM     71  O   UNL A   1      44.753  23.922  35.970  1.00  0.00    -0.237 OA
ATOM     72  O   UNL A   1      42.622  24.411  34.827  1.00  0.00    -0.237 OA
ATOM     73  O   UNL A   1      44.509  23.537  33.534  1.00  0.00    -0.744 OA
ENDBRANCH  67  70
ENDBRANCH  49  63
BRANCH  50  74
ATOM     74  C   UNL A   1      42.448  22.190  27.318  1.00  0.00     0.023 A 
ATOM     75  C   UNL A   1      41.132  21.876  27.720  1.00  0.00     0.012 A 
ATOM     76  C   UNL A   1      43.167  21.196  26.616  1.00  0.00     0.148 A 
ATOM     77  C   UNL A   1      40.555  20.632  27.417  1.00  0.00     0.002 A 
ATOM     78  C   UNL A   1      42.602  19.954  26.341  1.00  0.00     0.091 A 
ATOM     79  F   UNL A   1      44.372  21.493  26.118  1.00  0.00    -0.205 F 
ATOM     80  C   UNL A   1      41.289  19.671  26.727  1.00  0.00     0.022 A 
BRANCH  78  81
ATOM     81  S   UNL A   1      43.512  18.684  25.449  1.00  0.00     0.127 S 
ATOM     82  O   UNL A   1      42.654  17.512  25.631  1.00  0.00    -0.237 OA
ATOM     83  O   UNL A   1      43.533  19.224  24.092  1.00  0.00    -0.237 OA
ATOM     84  O   UNL A   1      44.807  18.582  26.111  1.00  0.00    -0.744 OA
ENDBRANCH  78  81
ENDBRANCH  50  74
BRANCH  62  85
ATOM     85  C   UNL A   1      46.478  27.001  26.727  1.00  0.00     0.023 A 
ATOM     86  C   UNL A   1      45.546  27.464  25.775  1.00  0.00     0.012 A 
ATOM     87  C   UNL A   1      47.835  26.929  26.370  1.00  0.00     0.148 A 
ATOM     88  C   UNL A   1      45.962  27.841  24.493  1.00  0.00     0.002 A 
ATOM     89  C   UNL A   1      48.249  27.340  25.111  1.00  0.00     0.091 A 
ATOM     90  F   UNL A   1      48.706  26.484  27.288  1.00  0.00    -0.205 F 
ATOM     91  C   UNL A   1      47.315  27.790  24.165  1.00  0.00     0.022 A 
BRANCH  89  92
ATOM     92  S   UNL A   1      49.986  27.404  24.669  1.00  0.00     0.127 S 
ATOM     93  O   UNL A   1      50.411  28.664  25.274  1.00  0.00    -0.237 OA
ATOM     94  O   UNL A   1      50.515  26.202  25.318  1.00  0.00    -0.237 OA
ATOM     95  O   UNL A   1      50.035  27.363  23.212  1.00  0.00    -0.744 OA
ENDBRANCH  89  92
ENDBRANCH  62  85
ENDBRANCH  36  37
ENDBRANCH  29  31
ENDBRANCH  28  29
ENDBRANCH  27  28
ENDBRANCH   1  27
TORSDOF 19
ENDMDL
MODEL 2
REMARK VINA RESULT:     -11.7      2.683      3.289
REMARK SMILES COc1ccc(-c2ncn(CC(=O)OCCOC(=O)c3ccc(-c4c5nc(c(-c6cccc(S(=O)(=O)[O-])c6F)c6ccc([nH]6)c(-c6cccc(S(=O)(=O)[O-])c6F)c6nc(c(-c7cccc(S(=O)(=O)[O-])c7F)c7ccc4[nH]7)C=C6)C=C5)cc3)c2-c2ccc(OC)cc2)cc1
REMARK SMILES IDX 15 1 14 2 12 3 13 4 11 5 10 6 7 7 8 8 83 9 9 10 6 11 3 12
REMARK SMILES IDX 4 13 93 14 5 15 92 16 2 17 1 18 84 19 85 20 91 21 86 22
REMARK SMILES IDX 90 23 87 24 88 25 89 26 16 27 17 28 18 29 19 30 20 31 21 32
REMARK SMILES IDX 82 33 22 34 81 35 23 36 24 37 25 38 75 39 26 40 80 41 74 42
REMARK SMILES IDX 76 43 27 44 79 45 73 46 72 47 28 49 60 50 40 51 59 52 41 53
REMARK SMILES IDX 44 54 58 55 77 56 42 57 43 58 57 60 78 61 45 62 29 63 30 64
REMARK SMILES IDX 38 65 31 66 33 67 39 68 32 69 34 70 35 71 36 72 37 73 61 74
REMARK SMILES IDX 62 75 70 76 63 77 65 78 71 79 64 80 66 81 67 82 68 83 69 84
REMARK SMILES IDX 46 85 47 86 55 87 48 88 50 89 56 90 49 91 51 92 52 93 53 94
REMARK SMILES IDX 54 95
REMARK H PARENT 76 48 44 59
REMARK Flexibility Score: inf
ROOT
ATOM      1  C   UNL A   1      33.935  29.626  27.108  1.00  0.00     0.274 C 
ENDROOT
BRANCH   1   2
ATOM      2  O   UNL A   1      32.511  29.492  26.921  1.00  0.00    -0.461 OA
BRANCH   2   3
ATOM      3  C   UNL A   1      32.048  28.246  26.633  1.00  0.00     0.326 C 
ATOM      4  O   UNL A   1      31.494  27.508  27.445  1.00  0.00    -0.250 OA
BRANCH   3   5
ATOM      5  C   UNL A   1      32.199  27.881  25.171  1.00  0.00     0.246 C 
BRANCH   5   6
ATOM      6  N   UNL A   1      31.659  26.585  24.794  1.00  0.00    -0.319 N 
ATOM      7  C   UNL A   1      31.292  24.499  24.258  1.00  0.00     0.096 A 
ATOM      8  N   UNL A   1      30.114  25.159  24.034  1.00  0.00    -0.236 NA
ATOM      9  C   UNL A   1      32.298  25.375  24.662  1.00  0.00     0.076 A 
ATOM     10  C   UNL A   1      30.367  26.407  24.360  1.00  0.00     0.201 A 
BRANCH   7  11
ATOM     11  C   UNL A   1      31.516  23.071  24.074  1.00  0.00     0.003 A 
ATOM     12  C   UNL A   1      32.366  20.399  23.780  1.00  0.00     0.118 A 
ATOM     13  C   UNL A   1      32.134  20.931  25.047  1.00  0.00     0.047 A 
ATOM     14  C   UNL A   1      32.157  21.202  22.657  1.00  0.00     0.047 A 
ATOM     15  C   UNL A   1      31.695  22.248  25.194  1.00  0.00     0.014 A 
ATOM     16  C   UNL A   1      31.734  22.535  22.802  1.00  0.00     0.014 A 
BRANCH  12  17
ATOM     17  O   UNL A   1      32.755  19.088  23.786  1.00  0.00    -0.497 OA
ATOM     18  C   UNL A   1      32.867  18.439  25.045  1.00  0.00     0.278 C 
ENDBRANCH  12  17
ENDBRANCH   7  11
BRANCH   9  19
ATOM     19  C   UNL A   1      33.694  25.002  24.879  1.00  0.00     0.001 A 
ATOM     20  C   UNL A   1      34.071  24.569  26.152  1.00  0.00     0.014 A 
ATOM     21  C   UNL A   1      34.454  24.601  23.769  1.00  0.00     0.014 A 
ATOM     22  C   UNL A   1      35.099  23.635  26.292  1.00  0.00     0.047 A 
ATOM     23  C   UNL A   1      35.501  23.683  23.919  1.00  0.00     0.047 A 
ATOM     24  C   UNL A   1      35.801  23.171  25.179  1.00  0.00     0.118 A 
BRANCH  24  25
ATOM     25  O   UNL A   1      36.734  22.216  25.446  1.00  0.00    -0.497 OA
ATOM     26  C   UNL A   1      37.267  21.491  24.342  1.00  0.00     0.278 C 
ENDBRANCH  24  25
ENDBRANCH   9  19
ENDBRANCH   5   6
ENDBRANCH   3   5
ENDBRANCH   2   3
ENDBRANCH   1   2
BRANCH   1  27
ATOM     27  C   UNL A   1      34.224  31.030  27.628  1.00  0.00     0.275 C 
BRANCH  27  28
ATOM     28  O   UNL A   1      35.561  31.214  28.131  1.00  0.00    -0.458 OA
BRANCH  28  29
ATOM     29  C   UNL A   1      35.698  31.516  29.448  1.00  0.00     0.338 C 
ATOM     30  O   UNL A   1      35.132  32.390  30.055  1.00  0.00    -0.246 OA
BRANCH  29  31
ATOM     31  C   UNL A   1      36.835  30.766  30.008  1.00  0.00     0.060 A 
ATOM     32  C   UNL A   1      37.959  31.515  30.358  1.00  0.00     0.016 A 
ATOM     33  C   UNL A   1      36.880  29.368  29.958  1.00  0.00     0.016 A 
ATOM     34  C   UNL A   1      39.173  30.870  30.431  1.00  0.00     0.010 A 
ATOM     35  C   UNL A   1      38.104  28.729  30.023  1.00  0.00     0.010 A 
ATOM     36  C   UNL A   1      39.254  29.501  30.138  1.00  0.00    -0.014 A 
BRANCH  36  37
ATOM     37  C   UNL A   1      40.588  28.906  30.109  1.00  0.00     0.031 A 
ATOM     38  C   UNL A   1      41.139  28.785  31.482  1.00  0.00     0.074 A 
ATOM     39  C   UNL A   1      41.209  28.536  28.966  1.00  0.00     0.049 A 
ATOM     40  N   UNL A   1      42.220  29.315  31.959  1.00  0.00    -0.248 NA
ATOM     41  C   UNL A   1      40.250  28.204  32.509  1.00  0.00     0.031 C 
ATOM     42  C   UNL A   1      40.634  28.538  27.615  1.00  0.00     0.029 A 
ATOM     43  N   UNL A   1      42.451  27.990  28.757  1.00  0.00    -0.354 N 
ATOM     44  C   UNL A   1      42.263  28.888  33.281  1.00  0.00     0.074 A 
ATOM     45  C   UNL A   1      40.946  28.425  33.623  1.00  0.00     0.031 C 
ATOM     46  C   UNL A   1      41.413  27.806  26.791  1.00  0.00     0.029 A 
ATOM     47  C   UNL A   1      42.561  27.324  27.532  1.00  0.00     0.049 A 
ATOM     48  H   UNL A   1      43.189  28.058  29.405  1.00  0.00     0.167 HD
ATOM     49  C   UNL A   1      43.450  28.568  33.854  1.00  0.00     0.034 A 
ATOM     50  C   UNL A   1      43.439  26.341  27.192  1.00  0.00     0.034 A 
ATOM     51  C   UNL A   1      44.551  29.257  33.243  1.00  0.00     0.049 A 
ATOM     52  C   UNL A   1      44.569  26.411  28.138  1.00  0.00     0.074 A 
ATOM     53  C   UNL A   1      44.943  30.570  33.100  1.00  0.00     0.029 A 
ATOM     54  N   UNL A   1      45.284  28.529  32.344  1.00  0.00    -0.354 N 
ATOM     55  N   UNL A   1      45.434  27.382  28.170  1.00  0.00    -0.248 NA
ATOM     56  C   UNL A   1      44.482  25.605  29.344  1.00  0.00     0.031 C 
ATOM     57  C   UNL A   1      45.653  30.625  31.867  1.00  0.00     0.029 A 
ATOM     58  C   UNL A   1      45.686  29.340  31.321  1.00  0.00     0.049 A 
ATOM     59  H   UNL A   1      45.488  27.569  32.422  1.00  0.00     0.167 HD
ATOM     60  C   UNL A   1      45.640  27.609  29.523  1.00  0.00     0.074 A 
ATOM     61  C   UNL A   1      45.118  26.418  30.190  1.00  0.00     0.031 C 
ATOM     62  C   UNL A   1      45.948  28.858  29.980  1.00  0.00     0.034 A 
BRANCH  49  63
ATOM     63  C   UNL A   1      43.624  27.268  34.606  1.00  0.00     0.023 A 
ATOM     64  C   UNL A   1      43.109  26.095  34.026  1.00  0.00     0.012 A 
ATOM     65  C   UNL A   1      44.020  27.191  35.966  1.00  0.00     0.148 A 
ATOM     66  C   UNL A   1      42.996  24.911  34.764  1.00  0.00     0.002 A 
ATOM     67  C   UNL A   1      44.008  25.991  36.659  1.00  0.00     0.091 A 
ATOM     68  F   UNL A   1      44.264  28.307  36.661  1.00  0.00    -0.205 F 
ATOM     69  C   UNL A   1      43.466  24.851  36.073  1.00  0.00     0.022 A 
BRANCH  67  70
ATOM     70  S   UNL A   1      44.675  25.875  38.324  1.00  0.00     0.127 S 
ATOM     71  O   UNL A   1      44.656  24.434  38.548  1.00  0.00    -0.237 OA
ATOM     72  O   UNL A   1      46.005  26.462  38.153  1.00  0.00    -0.237 OA
ATOM     73  O   UNL A   1      43.781  26.671  39.157  1.00  0.00    -0.744 OA
ENDBRANCH  67  70
ENDBRANCH  49  63
BRANCH  50  74
ATOM     74  C   UNL A   1      43.196  25.129  26.357  1.00  0.00     0.023 A 
ATOM     75  C   UNL A   1      44.019  24.849  25.244  1.00  0.00     0.012 A 
ATOM     76  C   UNL A   1      42.335  24.100  26.801  1.00  0.00     0.148 A 
ATOM     77  C   UNL A   1      43.995  23.592  24.618  1.00  0.00     0.002 A 
ATOM     78  C   UNL A   1      42.294  22.864  26.163  1.00  0.00     0.091 A 
ATOM     79  F   UNL A   1      41.624  24.284  27.920  1.00  0.00    -0.205 F 
ATOM     80  C   UNL A   1      43.134  22.599  25.077  1.00  0.00     0.022 A 
BRANCH  78  81
ATOM     81  S   UNL A   1      41.201  21.551  26.724  1.00  0.00     0.127 S 
ATOM     82  O   UNL A   1      41.432  20.514  25.718  1.00  0.00    -0.237 OA
ATOM     83  O   UNL A   1      41.740  21.253  28.048  1.00  0.00    -0.237 OA
ATOM     84  O   UNL A   1      39.856  22.114  26.698  1.00  0.00    -0.744 OA
ENDBRANCH  78  81
ENDBRANCH  50  74
BRANCH  62  85
ATOM     85  C   UNL A   1      46.412  29.878  28.970  1.00  0.00     0.023 A 
ATOM     86  C   UNL A   1      47.746  29.975  28.523  1.00  0.00     0.012 A 
ATOM     87  C   UNL A   1      45.431  30.676  28.357  1.00  0.00     0.148 A 
ATOM     88  C   UNL A   1      48.093  30.854  27.491  1.00  0.00     0.002 A 
ATOM     89  C   UNL A   1      45.771  31.519  27.308  1.00  0.00     0.091 A 
ATOM     90  F   UNL A   1      44.168  30.572  28.797  1.00  0.00    -0.205 F 
ATOM     91  C   UNL A   1      47.103  31.618  26.876  1.00  0.00     0.022 A 
BRANCH  89  92
ATOM     92  S   UNL A   1      44.526  32.442  26.405  1.00  0.00     0.127 S 
ATOM     93  O   UNL A   1      43.646  31.379  25.924  1.00  0.00    -0.237 OA
ATOM     94  O   UNL A   1      43.950  33.290  27.450  1.00  0.00    -0.237 OA
ATOM     95  O   UNL A   1      45.240  33.177  25.368  1.00  0.00    -0.744 OA
ENDBRANCH  89  92
ENDBRANCH  62  85
ENDBRANCH  36  37
ENDBRANCH  29  31
ENDBRANCH  28  29
ENDBRANCH  27  28
ENDBRANCH   1  27
TORSDOF 19
ENDMDL
MODEL 3
REMARK VINA RESULT:     -11.5      2.970      4.002
REMARK SMILES COc1ccc(-c2ncn(CC(=O)OCCOC(=O)c3ccc(-c4c5nc(c(-c6cccc(S(=O)(=O)[O-])c6F)c6ccc([nH]6)c(-c6cccc(S(=O)(=O)[O-])c6F)c6nc(c(-c7cccc(S(=O)(=O)[O-])c7F)c7ccc4[nH]7)C=C6)C=C5)cc3)c2-c2ccc(OC)cc2)cc1
REMARK SMILES IDX 15 1 14 2 12 3 13 4 11 5 10 6 7 7 8 8 83 9 9 10 6 11 3 12
REMARK SMILES IDX 4 13 93 14 5 15 92 16 2 17 1 18 84 19 85 20 91 21 86 22
REMARK SMILES IDX 90 23 87 24 88 25 89 26 16 27 17 28 18 29 19 30 20 31 21 32
REMARK SMILES IDX 82 33 22 34 81 35 23 36 24 37 25 38 75 39 26 40 80 41 74 42
REMARK SMILES IDX 76 43 27 44 79 45 73 46 72 47 28 49 60 50 40 51 59 52 41 53
REMARK SMILES IDX 44 54 58 55 77 56 42 57 43 58 57 60 78 61 45 62 29 63 30 64
REMARK SMILES IDX 38 65 31 66 33 67 39 68 32 69 34 70 35 71 36 72 37 73 61 74
REMARK SMILES IDX 62 75 70 76 63 77 65 78 71 79 64 80 66 81 67 82 68 83 69 84
REMARK SMILES IDX 46 85 47 86 55 87 48 88 50 89 56 90 49 91 51 92 52 93 53 94
REMARK SMILES IDX 54 95
REMARK H PARENT 76 48 44 59
REMARK Flexibility Score: inf
ROOT
ATOM      1  C   UNL A   1      31.970  29.512  25.508  1.00  0.00     0.274 C 
ENDROOT
BRANCH   1   2
ATOM      2  O   UNL A   1      31.611  28.136  25.272  1.00  0.00    -0.461 OA
BRANCH   2   3
ATOM      3  C   UNL A   1      31.706  27.690  23.989  1.00  0.00     0.326 C 
ATOM      4  O   UNL A   1      31.022  28.111  23.058  1.00  0.00    -0.250 OA
BRANCH   3   5
ATOM      5  C   UNL A   1      32.811  26.675  23.795  1.00  0.00     0.246 C 
BRANCH   5   6
ATOM      6  N   UNL A   1      32.401  25.283  23.886  1.00  0.00    -0.319 N 
ATOM      7  C   UNL A   1      32.243  23.110  24.044  1.00  0.00     0.096 A 
ATOM      8  N   UNL A   1      30.980  23.560  23.769  1.00  0.00    -0.236 NA
ATOM      9  C   UNL A   1      33.167  24.153  24.049  1.00  0.00     0.076 A 
ATOM     10  C   UNL A   1      31.108  24.865  23.676  1.00  0.00     0.201 A 
BRANCH   7  11
ATOM     11  C   UNL A   1      32.621  21.721  24.270  1.00  0.00     0.003 A 
ATOM     12  C   UNL A   1      32.937  18.969  24.798  1.00  0.00     0.118 A 
ATOM     13  C   UNL A   1      32.519  19.404  23.542  1.00  0.00     0.047 A 
ATOM     14  C   UNL A   1      33.212  19.916  25.788  1.00  0.00     0.047 A 
ATOM     15  C   UNL A   1      32.380  20.766  23.272  1.00  0.00     0.014 A 
ATOM     16  C   UNL A   1      33.055  21.288  25.526  1.00  0.00     0.014 A 
BRANCH  12  17
ATOM     17  O   UNL A   1      33.066  17.613  24.907  1.00  0.00    -0.497 OA
ATOM     18  C   UNL A   1      34.274  17.025  24.447  1.00  0.00     0.278 C 
ENDBRANCH  12  17
ENDBRANCH   7  11
BRANCH   9  19
ATOM     19  C   UNL A   1      34.611  23.992  24.206  1.00  0.00     0.001 A 
ATOM     20  C   UNL A   1      35.149  24.078  25.491  1.00  0.00     0.014 A 
ATOM     21  C   UNL A   1      35.309  23.276  23.221  1.00  0.00     0.014 A 
ATOM     22  C   UNL A   1      36.286  23.339  25.820  1.00  0.00     0.047 A 
ATOM     23  C   UNL A   1      36.465  22.556  23.550  1.00  0.00     0.047 A 
ATOM     24  C   UNL A   1      36.934  22.559  24.861  1.00  0.00     0.118 A 
BRANCH  24  25
ATOM     25  O   UNL A   1      37.993  21.839  25.328  1.00  0.00    -0.497 OA
ATOM     26  C   UNL A   1      38.915  22.507  26.183  1.00  0.00     0.278 C 
ENDBRANCH  24  25
ENDBRANCH   9  19
ENDBRANCH   5   6
ENDBRANCH   3   5
ENDBRANCH   2   3
ENDBRANCH   1   2
BRANCH   1  27
ATOM     27  C   UNL A   1      33.416  29.558  25.991  1.00  0.00     0.275 C 
BRANCH  27  28
ATOM     28  O   UNL A   1      33.570  29.950  27.368  1.00  0.00    -0.458 OA
BRANCH  28  29
ATOM     29  C   UNL A   1      34.141  31.157  27.615  1.00  0.00     0.338 C 
ATOM     30  O   UNL A   1      33.883  32.205  27.079  1.00  0.00    -0.246 OA
BRANCH  29  31
ATOM     31  C   UNL A   1      35.315  30.976  28.485  1.00  0.00     0.060 A 
ATOM     32  C   UNL A   1      36.197  32.054  28.567  1.00  0.00     0.016 A 
ATOM     33  C   UNL A   1      35.656  29.718  28.994  1.00  0.00     0.016 A 
ATOM     34  C   UNL A   1      37.495  31.805  28.954  1.00  0.00     0.010 A 
ATOM     35  C   UNL A   1      36.963  29.472  29.371  1.00  0.00     0.010 A 
ATOM     36  C   UNL A   1      37.898  30.491  29.232  1.00  0.00    -0.014 A 
BRANCH  36  37
ATOM     37  C   UNL A   1      39.317  30.277  29.511  1.00  0.00     0.031 A 
ATOM     38  C   UNL A   1      39.704  30.926  30.789  1.00  0.00     0.074 A 
ATOM     39  C   UNL A   1      40.138  29.586  28.687  1.00  0.00     0.049 A 
ATOM     40  N   UNL A   1      40.591  31.850  30.979  1.00  0.00    -0.248 NA
ATOM     41  C   UNL A   1      38.826  30.684  31.952  1.00  0.00     0.031 C 
ATOM     42  C   UNL A   1      39.748  28.840  27.485  1.00  0.00     0.029 A 
ATOM     43  N   UNL A   1      41.479  29.311  28.783  1.00  0.00    -0.354 N 
ATOM     44  C   UNL A   1      40.551  32.093  32.347  1.00  0.00     0.074 A 
ATOM     45  C   UNL A   1      39.319  31.542  32.843  1.00  0.00     0.031 C 
ATOM     46  C   UNL A   1      40.753  28.018  27.116  1.00  0.00     0.029 A 
ATOM     47  C   UNL A   1      41.871  28.208  28.018  1.00  0.00     0.049 A 
ATOM     48  H   UNL A   1      42.102  29.836  29.336  1.00  0.00     0.167 HD
ATOM     49  C   UNL A   1      41.696  32.355  33.025  1.00  0.00     0.034 A 
ATOM     50  C   UNL A   1      42.962  27.414  28.196  1.00  0.00     0.034 A 
ATOM     51  C   UNL A   1      42.707  32.927  32.182  1.00  0.00     0.049 A 
ATOM     52  C   UNL A   1      43.928  28.167  29.019  1.00  0.00     0.074 A 
ATOM     53  C   UNL A   1      42.846  34.083  31.445  1.00  0.00     0.029 A 
ATOM     54  N   UNL A   1      43.676  32.065  31.745  1.00  0.00    -0.354 N 
ATOM     55  N   UNL A   1      44.573  29.218  28.606  1.00  0.00    -0.248 NA
ATOM     56  C   UNL A   1      43.851  28.001  30.460  1.00  0.00     0.031 C 
ATOM     57  C   UNL A   1      43.681  33.736  30.344  1.00  0.00     0.029 A 
ATOM     58  C   UNL A   1      44.035  32.391  30.468  1.00  0.00     0.049 A 
ATOM     59  H   UNL A   1      44.054  31.322  32.270  1.00  0.00     0.167 HD
ATOM     60  C   UNL A   1      44.558  30.075  29.696  1.00  0.00     0.074 A 
ATOM     61  C   UNL A   1      44.202  29.232  30.835  1.00  0.00     0.031 C 
ATOM     62  C   UNL A   1      44.554  31.429  29.517  1.00  0.00     0.034 A 
BRANCH  49  63
ATOM     63  C   UNL A   1      42.027  31.620  34.304  1.00  0.00     0.023 A 
ATOM     64  C   UNL A   1      42.499  32.372  35.395  1.00  0.00     0.012 A 
ATOM     65  C   UNL A   1      42.157  30.210  34.391  1.00  0.00     0.148 A 
ATOM     66  C   UNL A   1      43.068  31.749  36.511  1.00  0.00     0.002 A 
ATOM     67  C   UNL A   1      42.621  29.594  35.542  1.00  0.00     0.091 A 
ATOM     68  F   UNL A   1      41.986  29.449  33.306  1.00  0.00    -0.205 F 
ATOM     69  C   UNL A   1      43.109  30.359  36.598  1.00  0.00     0.022 A 
BRANCH  67  70
ATOM     70  S   UNL A   1      42.616  27.804  35.702  1.00  0.00     0.127 S 
ATOM     71  O   UNL A   1      43.098  27.630  37.068  1.00  0.00    -0.237 OA
ATOM     72  O   UNL A   1      41.202  27.490  35.495  1.00  0.00    -0.237 OA
ATOM     73  O   UNL A   1      43.491  27.317  34.641  1.00  0.00    -0.744 OA
ENDBRANCH  67  70
ENDBRANCH  49  63
BRANCH  50  74
ATOM     74  C   UNL A   1      43.071  25.935  28.025  1.00  0.00     0.023 A 
ATOM     75  C   UNL A   1      42.043  25.084  28.487  1.00  0.00     0.012 A 
ATOM     76  C   UNL A   1      44.045  25.371  27.171  1.00  0.00     0.148 A 
ATOM     77  C   UNL A   1      41.983  23.736  28.096  1.00  0.00     0.002 A 
ATOM     78  C   UNL A   1      43.998  24.029  26.807  1.00  0.00     0.091 A 
ATOM     79  F   UNL A   1      44.968  26.168  26.621  1.00  0.00    -0.205 F 
ATOM     80  C   UNL A   1      42.959  23.209  27.256  1.00  0.00     0.022 A 
BRANCH  78  81
ATOM     81  S   UNL A   1      45.235  23.305  25.721  1.00  0.00     0.127 S 
ATOM     82  O   UNL A   1      46.455  23.440  26.518  1.00  0.00    -0.237 OA
ATOM     83  O   UNL A   1      44.746  21.937  25.574  1.00  0.00    -0.237 OA
ATOM     84  O   UNL A   1      45.225  24.116  24.509  1.00  0.00    -0.744 OA
ENDBRANCH  78  81
ENDBRANCH  50  74
BRANCH  62  85
ATOM     85  C   UNL A   1      44.930  31.956  28.154  1.00  0.00     0.023 A 
ATOM     86  C   UNL A   1      43.986  32.232  27.143  1.00  0.00     0.012 A 
ATOM     87  C   UNL A   1      46.273  32.309  27.944  1.00  0.00     0.148 A 
ATOM     88  C   UNL A   1      44.378  32.841  25.946  1.00  0.00     0.002 A 
ATOM     89  C   UNL A   1      46.653  32.947  26.771  1.00  0.00     0.091 A 
ATOM     90  F   UNL A   1      47.156  32.037  28.916  1.00  0.00    -0.205 F 
ATOM     91  C   UNL A   1      45.710  33.208  25.764  1.00  0.00     0.022 A 
BRANCH  89  92
ATOM     92  S   UNL A   1      48.326  33.544  26.527  1.00  0.00     0.127 S 
ATOM     93  O   UNL A   1      49.086  32.300  26.441  1.00  0.00    -0.237 OA
ATOM     94  O   UNL A   1      48.211  34.282  25.268  1.00  0.00    -0.237 OA
ATOM     95  O   UNL A   1      48.630  34.382  27.681  1.00  0.00    -0.744 OA
ENDBRANCH  89  92
ENDBRANCH  62  85
ENDBRANCH  36  37
ENDBRANCH  29  31
ENDBRANCH  28  29
ENDBRANCH  27  28
ENDBRANCH   1  27
TORSDOF 19
ENDMDL
