MODEL 1
REMARK VINA RESULT:     -11.1      0.000      0.000
REMARK SMILES CC[C@@H](C)[C@H](NC(=O)[C@H](C)N1C(=O)N2CCC3=c4cc(OC)ccc4=N[C@@H]3[C@@]2(C)C1=O)C(=O)OCCOC(=O)c1ccc(-c2c3nc(c(-c4cccc(S(=O)(=O)[O-])c4F)c4ccc([nH]4)c(-c4cccc(S(=O)(=O)[O-])c4F)c4nc(c(-c5cccc(S(=O)(=O)[O-])c5F)c5ccc2[nH]5)C=C4)C=C3)cc1
REMARK SMILES IDX 35 1 34 2 32 3 33 4 5 5 3 6 4 7 2 8 1 9 6 10 7 11 8 13 9 14
REMARK SMILES IDX 10 15 11 16 12 17 30 18 14 19 13 20 28 21 31 22 15 23 27 24
REMARK SMILES IDX 29 25 16 26 17 27 26 28 18 29 25 30 19 31 24 32 20 33 23 34
REMARK SMILES IDX 21 35 22 36 36 37 37 38 38 39 39 40 40 41 41 42 102 43 42 44
REMARK SMILES IDX 101 45 43 46 44 47 45 48 95 49 46 50 100 51 94 52 96 53
REMARK SMILES IDX 47 54 99 55 93 56 92 57 48 59 80 60 60 61 79 62 61 63 64 64
REMARK SMILES IDX 78 65 97 66 62 67 63 68 77 70 98 71 65 72 49 73 50 74 58 75
REMARK SMILES IDX 51 76 53 77 59 78 52 79 54 80 55 81 56 82 57 83 81 84 82 85
REMARK SMILES IDX 90 86 83 87 85 88 91 89 84 90 86 91 87 92 88 93 89 94 66 95
REMARK SMILES IDX 67 96 75 97 68 98 70 99 76 100 69 101 71 102 72 103 73 104
REMARK SMILES IDX 74 105
REMARK H PARENT 6 12 96 58 64 69
REMARK Flexibility Score: inf
ROOT
ATOM      1  C   UNL A   1      36.758  22.480  24.086  1.00  0.00     0.274 C 
ENDROOT
BRANCH   1   2
ATOM      2  O   UNL A   1      35.549  23.141  24.499  1.00  0.00    -0.461 OA
BRANCH   2   3
ATOM      3  C   UNL A   1      34.385  22.729  23.907  1.00  0.00     0.329 C 
ATOM      4  O   UNL A   1      34.229  22.588  22.702  1.00  0.00    -0.250 OA
BRANCH   3   5
ATOM      5  C   UNL A   1      33.264  22.528  24.951  1.00  0.00     0.195 C 
BRANCH   5   6
ATOM      6  C   UNL A   1      33.367  21.161  25.664  1.00  0.00     0.019 C 
ATOM      7  C   UNL A   1      34.128  21.310  26.983  1.00  0.00     0.010 C 
BRANCH   6   8
ATOM      8  C   UNL A   1      33.957  20.062  24.748  1.00  0.00     0.002 C 
ATOM      9  C   UNL A   1      32.917  19.137  24.133  1.00  0.00     0.004 C 
ENDBRANCH   6   8
ENDBRANCH   5   6
BRANCH   5  10
ATOM     10  N   UNL A   1      31.988  22.661  24.276  1.00  0.00    -0.341 N 
ATOM     11  C   UNL A   1      31.330  23.731  23.794  1.00  0.00     0.243 C 
ATOM     12  H   UNL A   1      31.514  21.808  24.146  1.00  0.00     0.164 HD
ATOM     13  O   UNL A   1      30.238  23.469  23.272  1.00  0.00    -0.273 OA
BRANCH  11  14
ATOM     14  C   UNL A   1      31.818  25.203  23.929  1.00  0.00     0.181 C 
ATOM     15  C   UNL A   1      32.512  25.766  22.727  1.00  0.00     0.042 C 
BRANCH  14  16
ATOM     16  N   UNL A   1      32.304  25.622  25.254  1.00  0.00    -0.250 N 
ATOM     17  C   UNL A   1      33.476  26.373  25.499  1.00  0.00     0.328 C 
ATOM     18  C   UNL A   1      31.318  26.143  26.034  1.00  0.00     0.259 C 
ATOM     19  N   UNL A   1      33.136  27.442  26.442  1.00  0.00    -0.307 N 
ATOM     20  O   UNL A   1      34.536  26.298  24.900  1.00  0.00    -0.248 OA
ATOM     21  C   UNL A   1      31.708  27.541  26.326  1.00  0.00     0.147 C 
ATOM     22  O   UNL A   1      30.260  25.621  26.355  1.00  0.00    -0.271 OA
ATOM     23  C   UNL A   1      33.798  28.831  26.523  1.00  0.00     0.127 C 
ATOM     24  C   UNL A   1      31.658  28.425  25.058  1.00  0.00     0.168 C 
ATOM     25  C   UNL A   1      31.087  27.966  27.658  1.00  0.00     0.048 C 
ATOM     26  C   UNL A   1      32.748  30.167  26.134  1.00  0.00     0.055 C 
ATOM     27  C   UNL A   1      31.419  29.838  25.330  1.00  0.00    -0.032 C 
ATOM     28  N   UNL A   1      31.406  28.100  23.657  1.00  0.00    -0.274 NA
ATOM     29  C   UNL A   1      30.747  30.289  24.226  1.00  0.00     0.005 A 
ATOM     30  C   UNL A   1      31.323  29.324  23.204  1.00  0.00     0.066 A 
ATOM     31  C   UNL A   1      29.258  29.960  23.984  1.00  0.00     0.056 A 
ATOM     32  C   UNL A   1      31.104  29.672  21.802  1.00  0.00     0.032 A 
ATOM     33  C   UNL A   1      28.875  29.555  22.730  1.00  0.00     0.119 A 
ATOM     34  C   UNL A   1      29.783  29.757  21.593  1.00  0.00     0.048 A 
BRANCH  33  35
ATOM     35  O   UNL A   1      27.804  28.697  22.514  1.00  0.00    -0.497 OA
ATOM     36  C   UNL A   1      26.902  28.610  23.648  1.00  0.00     0.278 C 
ENDBRANCH  33  35
ENDBRANCH  14  16
ENDBRANCH  11  14
ENDBRANCH   5  10
ENDBRANCH   3   5
ENDBRANCH   2   3
ENDBRANCH   1   2
BRANCH   1  37
ATOM     37  C   UNL A   1      37.378  21.766  25.282  1.00  0.00     0.275 C 
BRANCH  37  38
ATOM     38  O   UNL A   1      38.041  22.733  26.116  1.00  0.00    -0.458 OA
BRANCH  38  39
ATOM     39  C   UNL A   1      39.307  22.418  26.480  1.00  0.00     0.338 C 
ATOM     40  O   UNL A   1      39.810  21.309  26.511  1.00  0.00    -0.246 OA
BRANCH  39  41
ATOM     41  C   UNL A   1      40.041  23.644  26.844  1.00  0.00     0.060 A 
ATOM     42  C   UNL A   1      39.815  24.818  26.130  1.00  0.00     0.016 A 
ATOM     43  C   UNL A   1      40.820  23.676  27.995  1.00  0.00     0.016 A 
ATOM     44  C   UNL A   1      40.354  26.029  26.586  1.00  0.00     0.010 A 
ATOM     45  C   UNL A   1      41.245  24.908  28.503  1.00  0.00     0.010 A 
ATOM     46  C   UNL A   1      41.022  26.113  27.822  1.00  0.00    -0.014 A 
BRANCH  46  47
ATOM     47  C   UNL A   1      41.446  27.433  28.400  1.00  0.00     0.031 A 
ATOM     48  C   UNL A   1      42.882  27.916  28.317  1.00  0.00     0.074 A 
ATOM     49  C   UNL A   1      40.562  28.200  29.084  1.00  0.00     0.049 A 
ATOM     50  N   UNL A   1      43.393  29.050  28.735  1.00  0.00    -0.248 NA
ATOM     51  C   UNL A   1      43.891  26.998  27.762  1.00  0.00     0.031 C 
ATOM     52  C   UNL A   1      39.193  27.819  29.445  1.00  0.00     0.029 A 
ATOM     53  N   UNL A   1      40.679  29.479  29.584  1.00  0.00    -0.354 N 
ATOM     54  C   UNL A   1      44.770  28.931  28.575  1.00  0.00     0.074 A 
ATOM     55  C   UNL A   1      45.025  27.598  28.086  1.00  0.00     0.031 C 
ATOM     56  C   UNL A   1      38.571  28.869  30.009  1.00  0.00     0.029 A 
ATOM     57  C   UNL A   1      39.498  29.993  30.074  1.00  0.00     0.049 A 
ATOM     58  H   UNL A   1      41.528  29.978  29.590  1.00  0.00     0.167 HD
ATOM     59  C   UNL A   1      45.741  29.862  28.732  1.00  0.00     0.034 A 
ATOM     60  C   UNL A   1      39.177  31.240  30.481  1.00  0.00     0.034 A 
ATOM     61  C   UNL A   1      45.483  31.241  29.023  1.00  0.00     0.049 A 
ATOM     62  C   UNL A   1      40.216  32.328  30.436  1.00  0.00     0.074 A 
ATOM     63  C   UNL A   1      46.365  32.306  28.984  1.00  0.00     0.029 A 
ATOM     64  N   UNL A   1      44.246  31.752  29.371  1.00  0.00    -0.354 N 
ATOM     65  N   UNL A   1      41.470  32.249  30.066  1.00  0.00    -0.248 NA
ATOM     66  C   UNL A   1      39.790  33.681  30.828  1.00  0.00     0.031 C 
ATOM     67  C   UNL A   1      45.652  33.469  29.288  1.00  0.00     0.029 A 
ATOM     68  C   UNL A   1      44.333  33.121  29.533  1.00  0.00     0.049 A 
ATOM     69  H   UNL A   1      43.427  31.218  29.486  1.00  0.00     0.167 HD
ATOM     70  C   UNL A   1      41.976  33.541  30.155  1.00  0.00     0.074 A 
ATOM     71  C   UNL A   1      40.891  34.389  30.601  1.00  0.00     0.031 C 
ATOM     72  C   UNL A   1      43.235  33.972  29.907  1.00  0.00     0.034 A 
BRANCH  59  73
ATOM     73  C   UNL A   1      47.158  29.451  28.435  1.00  0.00     0.023 A 
ATOM     74  C   UNL A   1      47.646  29.582  27.118  1.00  0.00     0.012 A 
ATOM     75  C   UNL A   1      48.015  28.978  29.448  1.00  0.00     0.148 A 
ATOM     76  C   UNL A   1      48.948  29.204  26.800  1.00  0.00     0.002 A 
ATOM     77  C   UNL A   1      49.326  28.639  29.130  1.00  0.00     0.091 A 
ATOM     78  F   UNL A   1      47.530  28.855  30.691  1.00  0.00    -0.205 F 
ATOM     79  C   UNL A   1      49.789  28.739  27.807  1.00  0.00     0.022 A 
BRANCH  77  80
ATOM     80  S   UNL A   1      50.516  28.091  30.359  1.00  0.00     0.127 S 
ATOM     81  O   UNL A   1      49.863  26.895  30.891  1.00  0.00    -0.237 OA
ATOM     82  O   UNL A   1      51.700  27.824  29.540  1.00  0.00    -0.237 OA
ATOM     83  O   UNL A   1      50.663  29.192  31.299  1.00  0.00    -0.744 OA
ENDBRANCH  77  80
ENDBRANCH  59  73
BRANCH  60  84
ATOM     84  C   UNL A   1      37.755  31.564  30.791  1.00  0.00     0.023 A 
ATOM     85  C   UNL A   1      37.249  31.213  32.059  1.00  0.00     0.012 A 
ATOM     86  C   UNL A   1      36.927  32.256  29.888  1.00  0.00     0.148 A 
ATOM     87  C   UNL A   1      35.941  31.531  32.420  1.00  0.00     0.002 A 
ATOM     88  C   UNL A   1      35.632  32.599  30.266  1.00  0.00     0.091 A 
ATOM     89  F   UNL A   1      37.433  32.591  28.693  1.00  0.00    -0.205 F 
ATOM     90  C   UNL A   1      35.135  32.229  31.527  1.00  0.00     0.022 A 
BRANCH  88  91
ATOM     91  S   UNL A   1      34.535  33.571  29.226  1.00  0.00     0.127 S 
ATOM     92  O   UNL A   1      34.039  32.566  28.289  1.00  0.00    -0.237 OA
ATOM     93  O   UNL A   1      33.551  34.047  30.199  1.00  0.00    -0.237 OA
ATOM     94  O   UNL A   1      35.364  34.612  28.635  1.00  0.00    -0.744 OA
ENDBRANCH  88  91
ENDBRANCH  60  84
BRANCH  72  95
ATOM     95  C   UNL A   1      43.549  35.431  30.087  1.00  0.00     0.023 A 
ATOM     96  C   UNL A   1      44.108  35.862  31.304  1.00  0.00     0.012 A 
ATOM     97  C   UNL A   1      43.459  36.325  29.003  1.00  0.00     0.148 A 
ATOM     98  C   UNL A   1      44.581  37.166  31.439  1.00  0.00     0.002 A 
ATOM     99  C   UNL A   1      43.963  37.614  29.134  1.00  0.00     0.091 A 
ATOM    100  F   UNL A   1      42.914  35.888  27.858  1.00  0.00    -0.205 F 
ATOM    101  C   UNL A   1      44.522  38.035  30.352  1.00  0.00     0.022 A 
BRANCH  99 102
ATOM    102  S   UNL A   1      44.016  38.776  27.765  1.00  0.00     0.127 S 
ATOM    103  O   UNL A   1      44.554  39.972  28.411  1.00  0.00    -0.237 OA
ATOM    104  O   UNL A   1      44.936  38.118  26.836  1.00  0.00    -0.237 OA
ATOM    105  O   UNL A   1      42.648  38.893  27.281  1.00  0.00    -0.744 OA
ENDBRANCH  99 102
ENDBRANCH  72  95
ENDBRANCH  46  47
ENDBRANCH  39  41
ENDBRANCH  38  39
ENDBRANCH  37  38
ENDBRANCH   1  37
TORSDOF 20
ENDMDL
MODEL 2
REMARK VINA RESULT:     -10.3     11.108     16.291
REMARK SMILES CC[C@@H](C)[C@H](NC(=O)[C@H](C)N1C(=O)N2CCC3=c4cc(OC)ccc4=N[C@@H]3[C@@]2(C)C1=O)C(=O)OCCOC(=O)c1ccc(-c2c3nc(c(-c4cccc(S(=O)(=O)[O-])c4F)c4ccc([nH]4)c(-c4cccc(S(=O)(=O)[O-])c4F)c4nc(c(-c5cccc(S(=O)(=O)[O-])c5F)c5ccc2[nH]5)C=C4)C=C3)cc1
REMARK SMILES IDX 35 1 34 2 32 3 33 4 5 5 3 6 4 7 2 8 1 9 6 10 7 11 8 13 9 14
REMARK SMILES IDX 10 15 11 16 12 17 30 18 14 19 13 20 28 21 31 22 15 23 27 24
REMARK SMILES IDX 29 25 16 26 17 27 26 28 18 29 25 30 19 31 24 32 20 33 23 34
REMARK SMILES IDX 21 35 22 36 36 37 37 38 38 39 39 40 40 41 41 42 102 43 42 44
REMARK SMILES IDX 101 45 43 46 44 47 45 48 95 49 46 50 100 51 94 52 96 53
REMARK SMILES IDX 47 54 99 55 93 56 92 57 48 59 80 60 60 61 79 62 61 63 64 64
REMARK SMILES IDX 78 65 97 66 62 67 63 68 77 70 98 71 65 72 49 73 50 74 58 75
REMARK SMILES IDX 51 76 53 77 59 78 52 79 54 80 55 81 56 82 57 83 81 84 82 85
REMARK SMILES IDX 90 86 83 87 85 88 91 89 84 90 86 91 87 92 88 93 89 94 66 95
REMARK SMILES IDX 67 96 75 97 68 98 70 99 76 100 69 101 71 102 72 103 73 104
REMARK SMILES IDX 74 105
REMARK H PARENT 6 12 96 58 64 69
REMARK Flexibility Score: inf
ROOT
ATOM      1  C   UNL A   1      47.122  22.047  39.028  1.00  0.00     0.274 C 
ENDROOT
BRANCH   1   2
ATOM      2  O   UNL A   1      46.587  21.133  40.002  1.00  0.00    -0.461 OA
BRANCH   2   3
ATOM      3  C   UNL A   1      46.340  19.854  39.580  1.00  0.00     0.329 C 
ATOM      4  O   UNL A   1      46.049  19.544  38.433  1.00  0.00    -0.250 OA
BRANCH   3   5
ATOM      5  C   UNL A   1      46.410  18.851  40.753  1.00  0.00     0.195 C 
BRANCH   5   6
ATOM      6  C   UNL A   1      47.853  18.371  41.028  1.00  0.00     0.019 C 
ATOM      7  C   UNL A   1      48.323  18.870  42.395  1.00  0.00     0.010 C 
BRANCH   6   8
ATOM      8  C   UNL A   1      48.824  18.744  39.884  1.00  0.00     0.002 C 
ATOM      9  C   UNL A   1      50.293  18.509  40.210  1.00  0.00     0.004 C 
ENDBRANCH   6   8
ENDBRANCH   5   6
BRANCH   5  10
ATOM     10  N   UNL A   1      45.545  17.730  40.442  1.00  0.00    -0.341 N 
ATOM     11  C   UNL A   1      44.634  17.062  41.174  1.00  0.00     0.243 C 
ATOM     12  H   UNL A   1      45.642  17.394  39.521  1.00  0.00     0.164 HD
ATOM     13  O   UNL A   1      44.073  16.136  40.573  1.00  0.00    -0.273 OA
BRANCH  11  14
ATOM     14  C   UNL A   1      44.335  17.339  42.676  1.00  0.00     0.181 C 
ATOM     15  C   UNL A   1      43.453  18.518  42.952  1.00  0.00     0.042 C 
BRANCH  14  16
ATOM     16  N   UNL A   1      45.420  17.062  43.632  1.00  0.00    -0.250 N 
ATOM     17  C   UNL A   1      45.330  17.193  45.036  1.00  0.00     0.328 C 
ATOM     18  C   UNL A   1      46.061  15.890  43.373  1.00  0.00     0.259 C 
ATOM     19  N   UNL A   1      45.907  15.986  45.636  1.00  0.00    -0.307 N 
ATOM     20  O   UNL A   1      44.713  18.041  45.657  1.00  0.00    -0.248 OA
ATOM     21  C   UNL A   1      45.866  15.032  44.563  1.00  0.00     0.147 C 
ATOM     22  O   UNL A   1      46.605  15.546  42.333  1.00  0.00    -0.271 OA
ATOM     23  C   UNL A   1      45.495  15.351  46.978  1.00  0.00     0.127 C 
ATOM     24  C   UNL A   1      44.389  14.599  44.720  1.00  0.00     0.168 C 
ATOM     25  C   UNL A   1      47.034  14.050  44.669  1.00  0.00     0.048 C 
ATOM     26  C   UNL A   1      44.777  13.767  46.850  1.00  0.00     0.055 C 
ATOM     27  C   UNL A   1      44.215  13.336  45.428  1.00  0.00    -0.032 C 
ATOM     28  N   UNL A   1      43.186  14.969  43.980  1.00  0.00    -0.274 NA
ATOM     29  C   UNL A   1      43.075  12.800  44.894  1.00  0.00     0.005 A 
ATOM     30  C   UNL A   1      42.374  14.094  44.516  1.00  0.00     0.066 A 
ATOM     31  C   UNL A   1      43.055  12.154  43.491  1.00  0.00     0.056 A 
ATOM     32  C   UNL A   1      40.954  13.981  44.195  1.00  0.00     0.032 A 
ATOM     33  C   UNL A   1      42.025  12.470  42.642  1.00  0.00     0.119 A 
ATOM     34  C   UNL A   1      40.822  13.125  43.172  1.00  0.00     0.048 A 
BRANCH  33  35
ATOM     35  O   UNL A   1      42.169  12.477  41.260  1.00  0.00    -0.497 OA
ATOM     36  C   UNL A   1      41.583  13.645  40.628  1.00  0.00     0.278 C 
ENDBRANCH  33  35
ENDBRANCH  14  16
ENDBRANCH  11  14
ENDBRANCH   5  10
ENDBRANCH   3   5
ENDBRANCH   2   3
ENDBRANCH   1   2
BRANCH   1  37
ATOM     37  C   UNL A   1      46.030  23.017  38.591  1.00  0.00     0.275 C 
BRANCH  37  38
ATOM     38  O   UNL A   1      46.541  23.863  37.545  1.00  0.00    -0.458 OA
BRANCH  38  39
ATOM     39  C   UNL A   1      46.312  25.188  37.703  1.00  0.00     0.338 C 
ATOM     40  O   UNL A   1      46.673  25.893  38.628  1.00  0.00    -0.246 OA
BRANCH  39  41
ATOM     41  C   UNL A   1      45.539  25.700  36.556  1.00  0.00     0.060 A 
ATOM     42  C   UNL A   1      44.261  25.203  36.311  1.00  0.00     0.016 A 
ATOM     43  C   UNL A   1      46.007  26.788  35.829  1.00  0.00     0.016 A 
ATOM     44  C   UNL A   1      43.445  25.816  35.350  1.00  0.00     0.010 A 
ATOM     45  C   UNL A   1      45.138  27.463  34.965  1.00  0.00     0.010 A 
ATOM     46  C   UNL A   1      43.839  27.004  34.706  1.00  0.00    -0.014 A 
BRANCH  46  47
ATOM     47  C   UNL A   1      42.901  27.762  33.810  1.00  0.00     0.031 A 
ATOM     48  C   UNL A   1      42.788  27.453  32.328  1.00  0.00     0.074 A 
ATOM     49  C   UNL A   1      42.179  28.802  34.292  1.00  0.00     0.049 A 
ATOM     50  N   UNL A   1      41.996  27.993  31.434  1.00  0.00    -0.248 NA
ATOM     51  C   UNL A   1      43.718  26.466  31.754  1.00  0.00     0.031 C 
ATOM     52  C   UNL A   1      42.297  29.381  35.634  1.00  0.00     0.029 A 
ATOM     53  N   UNL A   1      41.180  29.552  33.709  1.00  0.00    -0.354 N 
ATOM     54  C   UNL A   1      42.400  27.482  30.205  1.00  0.00     0.074 A 
ATOM     55  C   UNL A   1      43.545  26.641  30.453  1.00  0.00     0.031 C 
ATOM     56  C   UNL A   1      41.345  30.314  35.804  1.00  0.00     0.029 A 
ATOM     57  C   UNL A   1      40.559  30.421  34.580  1.00  0.00     0.049 A 
ATOM     58  H   UNL A   1      40.933  29.472  32.760  1.00  0.00     0.167 HD
ATOM     59  C   UNL A   1      41.830  27.618  28.984  1.00  0.00     0.034 A 
ATOM     60  C   UNL A   1      39.453  31.181  34.433  1.00  0.00     0.034 A 
ATOM     61  C   UNL A   1      40.583  28.285  28.755  1.00  0.00     0.049 A 
ATOM     62  C   UNL A   1      38.695  31.149  33.133  1.00  0.00     0.074 A 
ATOM     63  C   UNL A   1      39.810  28.290  27.608  1.00  0.00     0.029 A 
ATOM     64  N   UNL A   1      39.909  29.034  29.703  1.00  0.00    -0.354 N 
ATOM     65  N   UNL A   1      38.968  30.478  32.041  1.00  0.00    -0.248 NA
ATOM     66  C   UNL A   1      37.459  31.944  33.054  1.00  0.00     0.031 C 
ATOM     67  C   UNL A   1      38.653  29.029  27.871  1.00  0.00     0.029 A 
ATOM     68  C   UNL A   1      38.718  29.494  29.175  1.00  0.00     0.049 A 
ATOM     69  H   UNL A   1      40.231  29.213  30.616  1.00  0.00     0.167 HD
ATOM     70  C   UNL A   1      37.932  30.750  31.156  1.00  0.00     0.074 A 
ATOM     71  C   UNL A   1      37.013  31.635  31.841  1.00  0.00     0.031 C 
ATOM     72  C   UNL A   1      37.773  30.316  29.883  1.00  0.00     0.034 A 
BRANCH  59  73
ATOM     73  C   UNL A   1      42.473  26.897  27.829  1.00  0.00     0.023 A 
ATOM     74  C   UNL A   1      43.410  27.586  27.030  1.00  0.00     0.012 A 
ATOM     75  C   UNL A   1      42.190  25.545  27.556  1.00  0.00     0.148 A 
ATOM     76  C   UNL A   1      44.020  26.958  25.947  1.00  0.00     0.002 A 
ATOM     77  C   UNL A   1      42.833  24.913  26.496  1.00  0.00     0.091 A 
ATOM     78  F   UNL A   1      41.293  24.910  28.323  1.00  0.00    -0.205 F 
ATOM     79  C   UNL A   1      43.736  25.621  25.685  1.00  0.00     0.022 A 
BRANCH  77  80
ATOM     80  S   UNL A   1      42.594  23.176  26.107  1.00  0.00     0.127 S 
ATOM     81  O   UNL A   1      43.384  22.527  27.152  1.00  0.00    -0.237 OA
ATOM     82  O   UNL A   1      41.145  23.025  26.257  1.00  0.00    -0.237 OA
ATOM     83  O   UNL A   1      43.085  22.994  24.749  1.00  0.00    -0.744 OA
ENDBRANCH  77  80
ENDBRANCH  59  73
BRANCH  60  84
ATOM     84  C   UNL A   1      38.893  31.894  35.617  1.00  0.00     0.023 A 
ATOM     85  C   UNL A   1      38.988  33.300  35.658  1.00  0.00     0.012 A 
ATOM     86  C   UNL A   1      38.226  31.219  36.655  1.00  0.00     0.148 A 
ATOM     87  C   UNL A   1      38.443  34.022  36.719  1.00  0.00     0.002 A 
ATOM     88  C   UNL A   1      37.656  31.948  37.695  1.00  0.00     0.091 A 
ATOM     89  F   UNL A   1      38.137  29.884  36.589  1.00  0.00    -0.205 F 
ATOM     90  C   UNL A   1      37.772  33.348  37.734  1.00  0.00     0.022 A 
BRANCH  88  91
ATOM     91  S   UNL A   1      36.697  31.188  39.011  1.00  0.00     0.127 S 
ATOM     92  O   UNL A   1      35.541  32.078  39.095  1.00  0.00    -0.237 OA
ATOM     93  O   UNL A   1      36.418  29.867  38.447  1.00  0.00    -0.237 OA
ATOM     94  O   UNL A   1      37.561  31.182  40.183  1.00  0.00    -0.744 OA
ENDBRANCH  88  91
ENDBRANCH  60  84
BRANCH  72  95
ATOM     95  C   UNL A   1      36.561  30.759  29.114  1.00  0.00     0.023 A 
ATOM     96  C   UNL A   1      35.751  29.786  28.500  1.00  0.00     0.012 A 
ATOM     97  C   UNL A   1      36.134  32.101  29.153  1.00  0.00     0.148 A 
ATOM     98  C   UNL A   1      34.526  30.141  27.940  1.00  0.00     0.002 A 
ATOM     99  C   UNL A   1      34.896  32.442  28.621  1.00  0.00     0.091 A 
ATOM    100  F   UNL A   1      36.931  33.007  29.738  1.00  0.00    -0.205 F 
ATOM    101  C   UNL A   1      34.093  31.463  28.013  1.00  0.00     0.022 A 
BRANCH  99 102
ATOM    102  S   UNL A   1      34.212  34.098  28.748  1.00  0.00     0.127 S 
ATOM    103  O   UNL A   1      33.875  34.173  30.168  1.00  0.00    -0.237 OA
ATOM    104  O   UNL A   1      35.344  34.933  28.344  1.00  0.00    -0.237 OA
ATOM    105  O   UNL A   1      33.076  34.136  27.837  1.00  0.00    -0.744 OA
ENDBRANCH  99 102
ENDBRANCH  72  95
ENDBRANCH  46  47
ENDBRANCH  39  41
ENDBRANCH  38  39
ENDBRANCH  37  38
ENDBRANCH   1  37
TORSDOF 20
ENDMDL
MODEL 3
REMARK VINA RESULT:     -10.1      5.610     10.221
REMARK SMILES CC[C@@H](C)[C@H](NC(=O)[C@H](C)N1C(=O)N2CCC3=c4cc(OC)ccc4=N[C@@H]3[C@@]2(C)C1=O)C(=O)OCCOC(=O)c1ccc(-c2c3nc(c(-c4cccc(S(=O)(=O)[O-])c4F)c4ccc([nH]4)c(-c4cccc(S(=O)(=O)[O-])c4F)c4nc(c(-c5cccc(S(=O)(=O)[O-])c5F)c5ccc2[nH]5)C=C4)C=C3)cc1
REMARK SMILES IDX 35 1 34 2 32 3 33 4 5 5 3 6 4 7 2 8 1 9 6 10 7 11 8 13 9 14
REMARK SMILES IDX 10 15 11 16 12 17 30 18 14 19 13 20 28 21 31 22 15 23 27 24
REMARK SMILES IDX 29 25 16 26 17 27 26 28 18 29 25 30 19 31 24 32 20 33 23 34
REMARK SMILES IDX 21 35 22 36 36 37 37 38 38 39 39 40 40 41 41 42 102 43 42 44
REMARK SMILES IDX 101 45 43 46 44 47 45 48 95 49 46 50 100 51 94 52 96 53
REMARK SMILES IDX 47 54 99 55 93 56 92 57 48 59 80 60 60 61 79 62 61 63 64 64
REMARK SMILES IDX 78 65 97 66 62 67 63 68 77 70 98 71 65 72 49 73 50 74 58 75
REMARK SMILES IDX 51 76 53 77 59 78 52 79 54 80 55 81 56 82 57 83 81 84 82 85
REMARK SMILES IDX 90 86 83 87 85 88 91 89 84 90 86 91 87 92 88 93 89 94 66 95
REMARK SMILES IDX 67 96 75 97 68 98 70 99 76 100 69 101 71 102 72 103 73 104
REMARK SMILES IDX 74 105
REMARK H PARENT 6 12 96 58 64 69
REMARK Flexibility Score: inf
ROOT
ATOM      1  C   UNL A   1      45.000  26.237  26.289  1.00  0.00     0.274 C 
ENDROOT
BRANCH   1   2
ATOM      2  O   UNL A   1      43.738  26.421  26.955  1.00  0.00    -0.461 OA
BRANCH   2   3
ATOM      3  C   UNL A   1      42.622  26.462  26.164  1.00  0.00     0.329 C 
ATOM      4  O   UNL A   1      42.629  26.677  24.960  1.00  0.00    -0.250 OA
BRANCH   3   5
ATOM      5  C   UNL A   1      41.335  26.267  26.997  1.00  0.00     0.195 C 
BRANCH   5   6
ATOM      6  C   UNL A   1      40.620  24.937  26.668  1.00  0.00     0.019 C 
ATOM      7  C   UNL A   1      39.405  24.752  27.577  1.00  0.00     0.010 C 
BRANCH   6   8
ATOM      8  C   UNL A   1      41.585  23.728  26.696  1.00  0.00     0.002 C 
ATOM      9  C   UNL A   1      41.726  23.074  28.064  1.00  0.00     0.004 C 
ENDBRANCH   6   8
ENDBRANCH   5   6
BRANCH   5  10
ATOM     10  N   UNL A   1      40.461  27.397  26.750  1.00  0.00    -0.341 N 
ATOM     11  C   UNL A   1      40.331  28.588  27.362  1.00  0.00     0.243 C 
ATOM     12  H   UNL A   1      39.846  27.268  25.992  1.00  0.00     0.164 HD
ATOM     13  O   UNL A   1      39.461  29.322  26.876  1.00  0.00    -0.273 OA
BRANCH  11  14
ATOM     14  C   UNL A   1      41.126  29.021  28.628  1.00  0.00     0.181 C 
ATOM     15  C   UNL A   1      42.497  29.571  28.373  1.00  0.00     0.042 C 
BRANCH  14  16
ATOM     16  N   UNL A   1      40.933  28.212  29.844  1.00  0.00    -0.250 N 
ATOM     17  C   UNL A   1      41.607  28.401  31.071  1.00  0.00     0.328 C 
ATOM     18  C   UNL A   1      39.620  28.001  30.130  1.00  0.00     0.259 C 
ATOM     19  N   UNL A   1      40.609  28.355  32.143  1.00  0.00    -0.307 N 
ATOM     20  O   UNL A   1      42.767  28.743  31.228  1.00  0.00    -0.248 OA
ATOM     21  C   UNL A   1      39.375  28.612  31.455  1.00  0.00     0.147 C 
ATOM     22  O   UNL A   1      38.765  27.505  29.410  1.00  0.00    -0.271 OA
ATOM     23  C   UNL A   1      40.679  29.105  33.487  1.00  0.00     0.127 C 
ATOM     24  C   UNL A   1      39.480  30.155  31.401  1.00  0.00     0.168 C 
ATOM     25  C   UNL A   1      38.215  27.884  32.136  1.00  0.00     0.048 C 
ATOM     26  C   UNL A   1      39.446  30.317  33.715  1.00  0.00     0.055 C 
ATOM     27  C   UNL A   1      38.690  30.838  32.419  1.00  0.00    -0.032 C 
ATOM     28  N   UNL A   1      39.871  31.064  30.328  1.00  0.00    -0.274 NA
ATOM     29  C   UNL A   1      38.344  32.029  31.841  1.00  0.00     0.005 A 
ATOM     30  C   UNL A   1      39.541  32.184  30.916  1.00  0.00     0.066 A 
ATOM     31  C   UNL A   1      37.250  32.125  30.756  1.00  0.00     0.056 A 
ATOM     32  C   UNL A   1      39.730  33.510  30.333  1.00  0.00     0.032 A 
ATOM     33  C   UNL A   1      37.502  32.879  29.638  1.00  0.00     0.119 A 
ATOM     34  C   UNL A   1      38.627  33.824  29.640  1.00  0.00     0.048 A 
BRANCH  33  35
ATOM     35  O   UNL A   1      36.942  32.594  28.399  1.00  0.00    -0.497 OA
ATOM     36  C   UNL A   1      35.604  32.040  28.489  1.00  0.00     0.278 C 
ENDBRANCH  33  35
ENDBRANCH  14  16
ENDBRANCH  11  14
ENDBRANCH   5  10
ENDBRANCH   3   5
ENDBRANCH   2   3
ENDBRANCH   1   2
BRANCH   1  37
ATOM     37  C   UNL A   1      46.024  27.209  26.865  1.00  0.00     0.275 C 
BRANCH  37  38
ATOM     38  O   UNL A   1      45.452  28.528  26.905  1.00  0.00    -0.458 OA
BRANCH  38  39
ATOM     39  C   UNL A   1      46.008  29.430  26.062  1.00  0.00     0.338 C 
ATOM     40  O   UNL A   1      46.639  29.197  25.046  1.00  0.00    -0.246 OA
BRANCH  39  41
ATOM     41  C   UNL A   1      45.737  30.797  26.544  1.00  0.00     0.060 A 
ATOM     42  C   UNL A   1      44.484  31.366  26.329  1.00  0.00     0.016 A 
ATOM     43  C   UNL A   1      46.660  31.447  27.355  1.00  0.00     0.016 A 
ATOM     44  C   UNL A   1      44.151  32.579  26.948  1.00  0.00     0.010 A 
ATOM     45  C   UNL A   1      46.269  32.589  28.063  1.00  0.00     0.010 A 
ATOM     46  C   UNL A   1      45.010  33.181  27.886  1.00  0.00    -0.014 A 
BRANCH  46  47
ATOM     47  C   UNL A   1      44.587  34.381  28.684  1.00  0.00     0.031 A 
ATOM     48  C   UNL A   1      44.054  34.251  30.100  1.00  0.00     0.074 A 
ATOM     49  C   UNL A   1      44.601  35.617  28.129  1.00  0.00     0.049 A 
ATOM     50  N   UNL A   1      43.686  35.197  30.929  1.00  0.00    -0.248 NA
ATOM     51  C   UNL A   1      43.839  32.896  30.637  1.00  0.00     0.031 C 
ATOM     52  C   UNL A   1      44.888  35.925  26.724  1.00  0.00     0.029 A 
ATOM     53  N   UNL A   1      44.386  36.858  28.689  1.00  0.00    -0.354 N 
ATOM     54  C   UNL A   1      43.121  34.549  32.023  1.00  0.00     0.074 A 
ATOM     55  C   UNL A   1      43.132  33.137  31.730  1.00  0.00     0.031 C 
ATOM     56  C   UNL A   1      44.933  37.257  26.558  1.00  0.00     0.029 A 
ATOM     57  C   UNL A   1      44.658  37.906  27.835  1.00  0.00     0.049 A 
ATOM     58  H   UNL A   1      44.069  36.984  29.612  1.00  0.00     0.167 HD
ATOM     59  C   UNL A   1      42.706  35.057  33.208  1.00  0.00     0.034 A 
ATOM     60  C   UNL A   1      44.729  39.235  28.061  1.00  0.00     0.034 A 
ATOM     61  C   UNL A   1      42.872  36.428  33.590  1.00  0.00     0.049 A 
ATOM     62  C   UNL A   1      44.484  39.769  29.447  1.00  0.00     0.074 A 
ATOM     63  C   UNL A   1      42.694  36.999  34.837  1.00  0.00     0.029 A 
ATOM     64  N   UNL A   1      43.291  37.434  32.738  1.00  0.00    -0.354 N 
ATOM     65  N   UNL A   1      44.167  39.111  30.535  1.00  0.00    -0.248 NA
ATOM     66  C   UNL A   1      44.643  41.218  29.648  1.00  0.00     0.031 C 
ATOM     67  C   UNL A   1      43.028  38.353  34.743  1.00  0.00     0.029 A 
ATOM     68  C   UNL A   1      43.395  38.623  33.434  1.00  0.00     0.049 A 
ATOM     69  H   UNL A   1      43.484  37.319  31.780  1.00  0.00     0.167 HD
ATOM     70  C   UNL A   1      44.111  40.058  31.551  1.00  0.00     0.074 A 
ATOM     71  C   UNL A   1      44.442  41.335  30.956  1.00  0.00     0.031 C 
ATOM     72  C   UNL A   1      43.793  39.878  32.855  1.00  0.00     0.034 A 
BRANCH  59  73
ATOM     73  C   UNL A   1      42.177  34.092  34.235  1.00  0.00     0.023 A 
ATOM     74  C   UNL A   1      43.076  33.213  34.874  1.00  0.00     0.012 A 
ATOM     75  C   UNL A   1      40.816  34.076  34.598  1.00  0.00     0.148 A 
ATOM     76  C   UNL A   1      42.626  32.299  35.823  1.00  0.00     0.002 A 
ATOM     77  C   UNL A   1      40.380  33.187  35.575  1.00  0.00     0.091 A 
ATOM     78  F   UNL A   1      39.977  34.914  33.975  1.00  0.00    -0.205 F 
ATOM     79  C   UNL A   1      41.280  32.291  36.177  1.00  0.00     0.022 A 
BRANCH  77  80
ATOM     80  S   UNL A   1      38.681  33.133  36.157  1.00  0.00     0.127 S 
ATOM     81  O   UNL A   1      38.660  31.867  36.889  1.00  0.00    -0.237 OA
ATOM     82  O   UNL A   1      38.609  34.326  37.002  1.00  0.00    -0.237 OA
ATOM     83  O   UNL A   1      37.845  33.180  34.966  1.00  0.00    -0.744 OA
ENDBRANCH  77  80
ENDBRANCH  59  73
BRANCH  60  84
ATOM     84  C   UNL A   1      45.232  40.134  26.983  1.00  0.00     0.023 A 
ATOM     85  C   UNL A   1      46.623  40.206  26.766  1.00  0.00     0.012 A 
ATOM     86  C   UNL A   1      44.366  40.859  26.144  1.00  0.00     0.148 A 
ATOM     87  C   UNL A   1      47.147  40.995  25.743  1.00  0.00     0.002 A 
ATOM     88  C   UNL A   1      44.893  41.620  25.104  1.00  0.00     0.091 A 
ATOM     89  F   UNL A   1      43.047  40.766  26.360  1.00  0.00    -0.205 F 
ATOM     90  C   UNL A   1      46.282  41.697  24.909  1.00  0.00     0.022 A 
BRANCH  88  91
ATOM     91  S   UNL A   1      43.867  42.498  23.917  1.00  0.00     0.127 S 
ATOM     92  O   UNL A   1      42.631  41.720  23.954  1.00  0.00    -0.237 OA
ATOM     93  O   UNL A   1      43.781  43.825  24.527  1.00  0.00    -0.237 OA
ATOM     94  O   UNL A   1      44.591  42.451  22.654  1.00  0.00    -0.744 OA
ENDBRANCH  88  91
ENDBRANCH  60  84
BRANCH  72  95
ATOM     95  C   UNL A   1      43.791  41.070  33.769  1.00  0.00     0.023 A 
ATOM     96  C   UNL A   1      42.614  41.833  33.890  1.00  0.00     0.012 A 
ATOM     97  C   UNL A   1      44.878  41.320  34.629  1.00  0.00     0.148 A 
ATOM     98  C   UNL A   1      42.517  42.827  34.862  1.00  0.00     0.002 A 
ATOM     99  C   UNL A   1      44.761  42.290  35.618  1.00  0.00     0.091 A 
ATOM    100  F   UNL A   1      45.989  40.582  34.485  1.00  0.00    -0.205 F 
ATOM    101  C   UNL A   1      43.582  43.045  35.733  1.00  0.00     0.022 A 
BRANCH  99 102
ATOM    102  S   UNL A   1      46.041  42.582  36.844  1.00  0.00     0.127 S 
ATOM    103  O   UNL A   1      45.688  43.914  37.332  1.00  0.00    -0.237 OA
ATOM    104  O   UNL A   1      45.806  41.499  37.800  1.00  0.00    -0.237 OA
ATOM    105  O   UNL A   1      47.309  42.497  36.132  1.00  0.00    -0.744 OA
ENDBRANCH  99 102
ENDBRANCH  72  95
ENDBRANCH  46  47
ENDBRANCH  39  41
ENDBRANCH  38  39
ENDBRANCH  37  38
ENDBRANCH   1  37
TORSDOF 20
ENDMDL
