MODEL 1
REMARK VINA RESULT:     -12.5      0.000      0.000
REMARK SMILES C[C@H]1CN(S(=O)(=O)c2cccc(C(=O)NC3(C(=O)OCCOC(=O)c4ccc(-c5c6nc(c(-c7cccc(S(=O)(=O)[O-])c7F)c7ccc([nH]7)c(-c7cccc(S(=O)(=O)[O-])c7F)c7nc(c(-c8cccc(S(=O)(=O)[O-])c8F)c8ccc5[nH]8)C=C7)C=C6)cc4)CCCCC3)c2)C[C@H](C)O1
REMARK SMILES IDX 20 1 19 2 17 3 18 4 16 5 88 6 92 7 89 8 91 9 90 10 15 11
REMARK SMILES IDX 13 12 14 13 12 15 8 16 9 17 93 18 10 19 11 20 5 21 6 22 7 23
REMARK SMILES IDX 4 24 1 25 2 26 3 27 97 28 95 29 94 30 96 31 21 32 22 33
REMARK SMILES IDX 23 34 24 35 25 36 26 37 87 38 27 39 86 40 28 41 29 42 30 43
REMARK SMILES IDX 80 44 31 45 85 46 79 47 81 48 32 49 84 50 78 51 77 52 33 54
REMARK SMILES IDX 65 55 45 56 64 57 46 58 49 59 63 60 82 61 47 62 48 63 62 65
REMARK SMILES IDX 83 66 50 67 34 68 35 69 43 70 36 71 38 72 44 73 37 74 39 75
REMARK SMILES IDX 40 76 41 77 42 78 66 79 67 80 75 81 68 82 70 83 76 84 69 85
REMARK SMILES IDX 71 86 72 87 73 88 74 89 51 90 52 91 60 92 53 93 55 94 61 95
REMARK SMILES IDX 54 96 56 97 57 98 58 99 59 100
REMARK H PARENT 15 14 81 53 49 64
REMARK Flexibility Score: inf
ROOT
ATOM      1  C   UNL A   1      36.519  23.659  25.839  1.00  0.00     0.274 C 
ENDROOT
BRANCH   1   2
ATOM      2  O   UNL A   1      35.464  23.789  24.830  1.00  0.00    -0.460 OA
BRANCH   2   3
ATOM      3  C   UNL A   1      34.239  23.361  25.215  1.00  0.00     0.331 C 
ATOM      4  O   UNL A   1      33.610  23.981  26.070  1.00  0.00    -0.249 OA
BRANCH   3   5
ATOM      5  C   UNL A   1      33.614  22.075  24.501  1.00  0.00     0.138 C 
ATOM      6  C   UNL A   1      32.144  21.589  24.420  1.00  0.00     0.040 C 
ATOM      7  C   UNL A   1      34.377  20.919  25.202  1.00  0.00     0.040 C 
ATOM      8  C   UNL A   1      32.001  20.213  23.733  1.00  0.00     0.003 C 
ATOM      9  C   UNL A   1      34.166  19.496  24.698  1.00  0.00     0.003 C 
ATOM     10  C   UNL A   1      32.701  19.137  24.526  1.00  0.00     0.000 C 
BRANCH   5  11
ATOM     11  N   UNL A   1      33.947  22.378  23.082  1.00  0.00    -0.336 N 
ATOM     12  C   UNL A   1      33.344  23.358  22.276  1.00  0.00     0.252 C 
ATOM     13  O   UNL A   1      33.594  23.383  21.075  1.00  0.00    -0.269 OA
ATOM     14  H   UNL A   1      34.658  21.839  22.668  1.00  0.00     0.165 HD
BRANCH  12  15
ATOM     15  C   UNL A   1      32.514  24.471  22.889  1.00  0.00     0.041 A 
ATOM     16  C   UNL A   1      31.939  26.852  23.032  1.00  0.00     0.083 A 
ATOM     17  C   UNL A   1      30.645  26.511  23.435  1.00  0.00     0.022 A 
ATOM     18  C   UNL A   1      32.886  25.830  22.900  1.00  0.00     0.035 A 
ATOM     19  C   UNL A   1      30.296  25.158  23.591  1.00  0.00     0.002 A 
ATOM     20  C   UNL A   1      31.215  24.142  23.289  1.00  0.00     0.014 A 
BRANCH  16  21
ATOM     21  S   UNL A   1      32.449  28.576  22.860  1.00  0.00     0.243 S 
ATOM     22  O   UNL A   1      31.338  29.309  22.294  1.00  0.00    -0.207 OA
ATOM     23  O   UNL A   1      33.734  28.539  22.186  1.00  0.00    -0.207 OA
BRANCH  21  24
ATOM     24  N   UNL A   1      32.739  29.256  24.441  1.00  0.00    -0.193 NA
ATOM     25  C   UNL A   1      35.234  29.112  27.389  1.00  0.00     0.040 C 
ATOM     26  C   UNL A   1      34.022  29.465  26.540  1.00  0.00     0.130 C 
ATOM     27  C   UNL A   1      33.790  28.579  25.295  1.00  0.00     0.134 C 
ATOM     28  O   UNL A   1      32.855  29.388  27.370  1.00  0.00    -0.373 OA
ATOM     29  C   UNL A   1      31.694  29.906  26.697  1.00  0.00     0.130 C 
ATOM     30  C   UNL A   1      31.475  29.314  25.276  1.00  0.00     0.134 C 
ATOM     31  C   UNL A   1      31.704  31.433  26.740  1.00  0.00     0.040 C 
ENDBRANCH  21  24
ENDBRANCH  16  21
ENDBRANCH  12  15
ENDBRANCH   5  11
ENDBRANCH   3   5
ENDBRANCH   2   3
ENDBRANCH   1   2
BRANCH   1  32
ATOM     32  C   UNL A   1      37.181  22.278  25.898  1.00  0.00     0.275 C 
BRANCH  32  33
ATOM     33  O   UNL A   1      38.512  22.351  25.389  1.00  0.00    -0.458 OA
BRANCH  33  34
ATOM     34  C   UNL A   1      39.453  21.950  26.275  1.00  0.00     0.338 C 
ATOM     35  O   UNL A   1      39.883  20.815  26.401  1.00  0.00    -0.246 OA
BRANCH  34  36
ATOM     36  C   UNL A   1      40.102  23.170  26.807  1.00  0.00     0.060 A 
ATOM     37  C   UNL A   1      39.763  24.379  26.187  1.00  0.00     0.016 A 
ATOM     38  C   UNL A   1      40.842  23.164  27.994  1.00  0.00     0.016 A 
ATOM     39  C   UNL A   1      40.059  25.586  26.799  1.00  0.00     0.010 A 
ATOM     40  C   UNL A   1      41.223  24.372  28.566  1.00  0.00     0.010 A 
ATOM     41  C   UNL A   1      40.835  25.577  27.961  1.00  0.00    -0.014 A 
BRANCH  41  42
ATOM     42  C   UNL A   1      41.560  26.806  28.304  1.00  0.00     0.031 A 
ATOM     43  C   UNL A   1      40.740  27.877  28.959  1.00  0.00     0.074 A 
ATOM     44  C   UNL A   1      42.862  26.959  28.020  1.00  0.00     0.049 A 
ATOM     45  N   UNL A   1      41.081  29.083  29.310  1.00  0.00    -0.248 NA
ATOM     46  C   UNL A   1      39.335  27.533  29.266  1.00  0.00     0.031 C 
ATOM     47  C   UNL A   1      43.731  25.945  27.426  1.00  0.00     0.029 A 
ATOM     48  N   UNL A   1      43.667  28.055  28.166  1.00  0.00    -0.354 N 
ATOM     49  C   UNL A   1      39.937  29.638  29.866  1.00  0.00     0.074 A 
ATOM     50  C   UNL A   1      38.890  28.650  29.812  1.00  0.00     0.031 C 
ATOM     51  C   UNL A   1      44.940  26.490  27.201  1.00  0.00     0.029 A 
ATOM     52  C   UNL A   1      44.913  27.892  27.612  1.00  0.00     0.049 A 
ATOM     53  H   UNL A   1      43.381  28.880  28.624  1.00  0.00     0.167 HD
ATOM     54  C   UNL A   1      39.772  30.877  30.373  1.00  0.00     0.034 A 
ATOM     55  C   UNL A   1      45.891  28.800  27.430  1.00  0.00     0.034 A 
ATOM     56  C   UNL A   1      40.806  31.865  30.354  1.00  0.00     0.049 A 
ATOM     57  C   UNL A   1      45.658  30.205  27.934  1.00  0.00     0.074 A 
ATOM     58  C   UNL A   1      40.762  33.168  30.807  1.00  0.00     0.029 A 
ATOM     59  N   UNL A   1      42.069  31.659  29.817  1.00  0.00    -0.354 N 
ATOM     60  N   UNL A   1      44.604  30.702  28.541  1.00  0.00    -0.248 NA
ATOM     61  C   UNL A   1      46.754  31.166  27.757  1.00  0.00     0.031 C 
ATOM     62  C   UNL A   1      41.992  33.761  30.512  1.00  0.00     0.029 A 
ATOM     63  C   UNL A   1      42.815  32.814  29.917  1.00  0.00     0.049 A 
ATOM     64  H   UNL A   1      42.385  30.813  29.424  1.00  0.00     0.167 HD
ATOM     65  C   UNL A   1      44.926  32.017  28.856  1.00  0.00     0.074 A 
ATOM     66  C   UNL A   1      46.277  32.236  28.380  1.00  0.00     0.031 C 
ATOM     67  C   UNL A   1      44.178  32.965  29.475  1.00  0.00     0.034 A 
BRANCH  54  68
ATOM     68  C   UNL A   1      38.422  31.207  30.941  1.00  0.00     0.023 A 
ATOM     69  C   UNL A   1      38.104  30.818  32.259  1.00  0.00     0.012 A 
ATOM     70  C   UNL A   1      37.459  31.870  30.162  1.00  0.00     0.148 A 
ATOM     71  C   UNL A   1      36.834  31.057  32.782  1.00  0.00     0.002 A 
ATOM     72  C   UNL A   1      36.211  32.148  30.705  1.00  0.00     0.091 A 
ATOM     73  F   UNL A   1      37.768  32.189  28.896  1.00  0.00    -0.205 F 
ATOM     74  C   UNL A   1      35.892  31.731  32.008  1.00  0.00     0.022 A 
BRANCH  72  75
ATOM     75  S   UNL A   1      34.951  33.062  29.814  1.00  0.00     0.127 S 
ATOM     76  O   UNL A   1      35.752  34.066  29.114  1.00  0.00    -0.237 OA
ATOM     77  O   UNL A   1      34.379  32.027  28.952  1.00  0.00    -0.237 OA
ATOM     78  O   UNL A   1      34.042  33.587  30.823  1.00  0.00    -0.744 OA
ENDBRANCH  72  75
ENDBRANCH  54  68
BRANCH  55  79
ATOM     79  C   UNL A   1      47.163  28.418  26.754  1.00  0.00     0.023 A 
ATOM     80  C   UNL A   1      48.343  28.282  27.509  1.00  0.00     0.012 A 
ATOM     81  C   UNL A   1      47.209  28.185  25.364  1.00  0.00     0.148 A 
ATOM     82  C   UNL A   1      49.552  27.957  26.890  1.00  0.00     0.002 A 
ATOM     83  C   UNL A   1      48.406  27.812  24.761  1.00  0.00     0.091 A 
ATOM     84  F   UNL A   1      46.080  28.335  24.657  1.00  0.00    -0.205 F 
ATOM     85  C   UNL A   1      49.583  27.715  25.519  1.00  0.00     0.022 A 
BRANCH  83  86
ATOM     86  S   UNL A   1      48.517  27.377  23.021  1.00  0.00     0.127 S 
ATOM     87  O   UNL A   1      47.443  28.180  22.442  1.00  0.00    -0.237 OA
ATOM     88  O   UNL A   1      49.869  27.823  22.683  1.00  0.00    -0.237 OA
ATOM     89  O   UNL A   1      48.327  25.933  22.962  1.00  0.00    -0.744 OA
ENDBRANCH  83  86
ENDBRANCH  55  79
BRANCH  67  90
ATOM     90  C   UNL A   1      44.815  34.304  29.725  1.00  0.00     0.023 A 
ATOM     91  C   UNL A   1      45.551  34.527  30.904  1.00  0.00     0.012 A 
ATOM     92  C   UNL A   1      44.781  35.297  28.725  1.00  0.00     0.148 A 
ATOM     93  C   UNL A   1      46.225  35.732  31.096  1.00  0.00     0.002 A 
ATOM     94  C   UNL A   1      45.500  36.470  28.899  1.00  0.00     0.091 A 
ATOM     95  F   UNL A   1      44.063  35.063  27.616  1.00  0.00    -0.205 F 
ATOM     96  C   UNL A   1      46.213  36.695  30.088  1.00  0.00     0.022 A 
BRANCH  94  97
ATOM     97  S   UNL A   1      45.635  37.714  27.610  1.00  0.00     0.127 S 
ATOM     98  O   UNL A   1      46.474  38.720  28.257  1.00  0.00    -0.237 OA
ATOM     99  O   UNL A   1      46.290  36.972  26.533  1.00  0.00    -0.237 OA
ATOM    100  O   UNL A   1      44.273  38.136  27.312  1.00  0.00    -0.744 OA
ENDBRANCH  94  97
ENDBRANCH  67  90
ENDBRANCH  41  42
ENDBRANCH  34  36
ENDBRANCH  33  34
ENDBRANCH  32  33
ENDBRANCH   1  32
TORSDOF 18
ENDMDL
MODEL 2
REMARK VINA RESULT:     -11.7      2.116      2.467
REMARK SMILES C[C@H]1CN(S(=O)(=O)c2cccc(C(=O)NC3(C(=O)OCCOC(=O)c4ccc(-c5c6nc(c(-c7cccc(S(=O)(=O)[O-])c7F)c7ccc([nH]7)c(-c7cccc(S(=O)(=O)[O-])c7F)c7nc(c(-c8cccc(S(=O)(=O)[O-])c8F)c8ccc5[nH]8)C=C7)C=C6)cc4)CCCCC3)c2)C[C@H](C)O1
REMARK SMILES IDX 20 1 19 2 17 3 18 4 16 5 88 6 92 7 89 8 91 9 90 10 15 11
REMARK SMILES IDX 13 12 14 13 12 15 8 16 9 17 93 18 10 19 11 20 5 21 6 22 7 23
REMARK SMILES IDX 4 24 1 25 2 26 3 27 97 28 95 29 94 30 96 31 21 32 22 33
REMARK SMILES IDX 23 34 24 35 25 36 26 37 87 38 27 39 86 40 28 41 29 42 30 43
REMARK SMILES IDX 80 44 31 45 85 46 79 47 81 48 32 49 84 50 78 51 77 52 33 54
REMARK SMILES IDX 65 55 45 56 64 57 46 58 49 59 63 60 82 61 47 62 48 63 62 65
REMARK SMILES IDX 83 66 50 67 34 68 35 69 43 70 36 71 38 72 44 73 37 74 39 75
REMARK SMILES IDX 40 76 41 77 42 78 66 79 67 80 75 81 68 82 70 83 76 84 69 85
REMARK SMILES IDX 71 86 72 87 73 88 74 89 51 90 52 91 60 92 53 93 55 94 61 95
REMARK SMILES IDX 54 96 56 97 57 98 58 99 59 100
REMARK H PARENT 15 14 81 53 49 64
REMARK Flexibility Score: inf
ROOT
ATOM      1  C   UNL A   1      36.326  23.750  26.057  1.00  0.00     0.274 C 
ENDROOT
BRANCH   1   2
ATOM      2  O   UNL A   1      35.324  23.928  25.003  1.00  0.00    -0.460 OA
BRANCH   2   3
ATOM      3  C   UNL A   1      34.085  23.468  25.297  1.00  0.00     0.331 C 
ATOM      4  O   UNL A   1      33.361  24.095  26.067  1.00  0.00    -0.249 OA
BRANCH   3   5
ATOM      5  C   UNL A   1      33.574  22.131  24.588  1.00  0.00     0.138 C 
ATOM      6  C   UNL A   1      32.139  21.560  24.441  1.00  0.00     0.040 C 
ATOM      7  C   UNL A   1      34.358  21.038  25.362  1.00  0.00     0.040 C 
ATOM      8  C   UNL A   1      32.111  20.162  23.787  1.00  0.00     0.003 C 
ATOM      9  C   UNL A   1      34.254  19.593  24.889  1.00  0.00     0.003 C 
ATOM     10  C   UNL A   1      32.823  19.147  24.648  1.00  0.00     0.000 C 
BRANCH   5  11
ATOM     11  N   UNL A   1      33.968  22.416  23.181  1.00  0.00    -0.336 N 
ATOM     12  C   UNL A   1      33.389  23.371  22.330  1.00  0.00     0.252 C 
ATOM     13  O   UNL A   1      33.695  23.381  21.142  1.00  0.00    -0.269 OA
ATOM     14  H   UNL A   1      34.707  21.881  22.811  1.00  0.00     0.165 HD
BRANCH  12  15
ATOM     15  C   UNL A   1      32.513  24.480  22.884  1.00  0.00     0.041 A 
ATOM     16  C   UNL A   1      31.907  26.857  22.974  1.00  0.00     0.083 A 
ATOM     17  C   UNL A   1      30.594  26.505  23.301  1.00  0.00     0.022 A 
ATOM     18  C   UNL A   1      32.870  25.843  22.908  1.00  0.00     0.035 A 
ATOM     19  C   UNL A   1      30.249  25.150  23.446  1.00  0.00     0.002 A 
ATOM     20  C   UNL A   1      31.194  24.141  23.207  1.00  0.00     0.014 A 
BRANCH  16  21
ATOM     21  S   UNL A   1      32.410  28.584  22.821  1.00  0.00     0.243 S 
ATOM     22  O   UNL A   1      31.303  29.314  22.244  1.00  0.00    -0.207 OA
ATOM     23  O   UNL A   1      33.704  28.558  22.164  1.00  0.00    -0.207 OA
BRANCH  21  24
ATOM     24  N   UNL A   1      32.674  29.255  24.409  1.00  0.00    -0.193 NA
ATOM     25  C   UNL A   1      35.153  29.137  27.374  1.00  0.00     0.040 C 
ATOM     26  C   UNL A   1      33.939  29.472  26.519  1.00  0.00     0.130 C 
ATOM     27  C   UNL A   1      33.735  28.593  25.265  1.00  0.00     0.134 C 
ATOM     28  O   UNL A   1      32.768  29.362  27.340  1.00  0.00    -0.373 OA
ATOM     29  C   UNL A   1      31.601  29.861  26.665  1.00  0.00     0.130 C 
ATOM     30  C   UNL A   1      31.404  29.278  25.237  1.00  0.00     0.134 C 
ATOM     31  C   UNL A   1      31.578  31.388  26.722  1.00  0.00     0.040 C 
ENDBRANCH  21  24
ENDBRANCH  16  21
ENDBRANCH  12  15
ENDBRANCH   5  11
ENDBRANCH   3   5
ENDBRANCH   2   3
ENDBRANCH   1   2
BRANCH   1  32
ATOM     32  C   UNL A   1      37.391  22.692  25.755  1.00  0.00     0.275 C 
BRANCH  32  33
ATOM     33  O   UNL A   1      38.641  23.320  25.473  1.00  0.00    -0.458 OA
BRANCH  33  34
ATOM     34  C   UNL A   1      39.617  23.006  26.356  1.00  0.00     0.338 C 
ATOM     35  O   UNL A   1      40.227  21.950  26.406  1.00  0.00    -0.246 OA
BRANCH  34  36
ATOM     36  C   UNL A   1      40.044  24.266  27.004  1.00  0.00     0.060 A 
ATOM     37  C   UNL A   1      40.497  25.283  26.155  1.00  0.00     0.016 A 
ATOM     38  C   UNL A   1      39.810  24.524  28.359  1.00  0.00     0.016 A 
ATOM     39  C   UNL A   1      40.613  26.583  26.621  1.00  0.00     0.010 A 
ATOM     40  C   UNL A   1      40.015  25.807  28.854  1.00  0.00     0.010 A 
ATOM     41  C   UNL A   1      40.422  26.828  27.983  1.00  0.00    -0.014 A 
BRANCH  41  42
ATOM     42  C   UNL A   1      41.027  28.040  28.548  1.00  0.00     0.031 A 
ATOM     43  C   UNL A   1      40.060  29.086  29.015  1.00  0.00     0.074 A 
ATOM     44  C   UNL A   1      42.357  28.201  28.611  1.00  0.00     0.049 A 
ATOM     45  N   UNL A   1      40.292  30.276  29.490  1.00  0.00    -0.248 NA
ATOM     46  C   UNL A   1      38.626  28.735  28.941  1.00  0.00     0.031 C 
ATOM     47  C   UNL A   1      43.356  27.208  28.217  1.00  0.00     0.029 A 
ATOM     48  N   UNL A   1      43.091  29.287  29.000  1.00  0.00    -0.354 N 
ATOM     49  C   UNL A   1      39.040  30.812  29.758  1.00  0.00     0.074 A 
ATOM     50  C   UNL A   1      38.049  29.829  29.401  1.00  0.00     0.031 C 
ATOM     51  C   UNL A   1      44.579  27.758  28.329  1.00  0.00     0.029 A 
ATOM     52  C   UNL A   1      44.438  29.142  28.775  1.00  0.00     0.049 A 
ATOM     53  H   UNL A   1      42.693  30.094  29.403  1.00  0.00     0.167 HD
ATOM     54  C   UNL A   1      38.743  32.030  30.256  1.00  0.00     0.034 A 
ATOM     55  C   UNL A   1      45.423  30.054  28.884  1.00  0.00     0.034 A 
ATOM     56  C   UNL A   1      39.740  33.014  30.539  1.00  0.00     0.049 A 
ATOM     57  C   UNL A   1      45.060  31.438  29.368  1.00  0.00     0.074 A 
ATOM     58  C   UNL A   1      39.574  34.297  31.018  1.00  0.00     0.029 A 
ATOM     59  N   UNL A   1      41.100  32.826  30.333  1.00  0.00    -0.354 N 
ATOM     60  N   UNL A   1      43.883  31.913  29.706  1.00  0.00    -0.248 NA
ATOM     61  C   UNL A   1      46.158  32.402  29.513  1.00  0.00     0.031 C 
ATOM     62  C   UNL A   1      40.834  34.899  31.069  1.00  0.00     0.029 A 
ATOM     63  C   UNL A   1      41.788  33.974  30.666  1.00  0.00     0.049 A 
ATOM     64  H   UNL A   1      41.511  31.996  30.000  1.00  0.00     0.167 HD
ATOM     65  C   UNL A   1      44.105  33.213  30.145  1.00  0.00     0.074 A 
ATOM     66  C   UNL A   1      45.531  33.447  30.037  1.00  0.00     0.031 C 
ATOM     67  C   UNL A   1      43.218  34.138  30.591  1.00  0.00     0.034 A 
BRANCH  54  68
ATOM     68  C   UNL A   1      37.290  32.340  30.474  1.00  0.00     0.023 A 
ATOM     69  C   UNL A   1      36.669  31.962  31.683  1.00  0.00     0.012 A 
ATOM     70  C   UNL A   1      36.534  32.976  29.474  1.00  0.00     0.148 A 
ATOM     71  C   UNL A   1      35.307  32.183  31.879  1.00  0.00     0.002 A 
ATOM     72  C   UNL A   1      35.188  33.236  29.695  1.00  0.00     0.091 A 
ATOM     73  F   UNL A   1      37.136  33.285  28.317  1.00  0.00    -0.205 F 
ATOM     74  C   UNL A   1      34.570  32.829  30.889  1.00  0.00     0.022 A 
BRANCH  72  75
ATOM     75  S   UNL A   1      34.167  34.115  28.510  1.00  0.00     0.127 S 
ATOM     76  O   UNL A   1      32.897  34.212  29.228  1.00  0.00    -0.237 OA
ATOM     77  O   UNL A   1      34.888  35.381  28.370  1.00  0.00    -0.237 OA
ATOM     78  O   UNL A   1      34.141  33.292  27.310  1.00  0.00    -0.744 OA
ENDBRANCH  72  75
ENDBRANCH  54  68
BRANCH  55  79
ATOM     79  C   UNL A   1      46.828  29.695  28.539  1.00  0.00     0.023 A 
ATOM     80  C   UNL A   1      47.291  29.867  27.220  1.00  0.00     0.012 A 
ATOM     81  C   UNL A   1      47.711  29.184  29.512  1.00  0.00     0.148 A 
ATOM     82  C   UNL A   1      48.594  29.505  26.869  1.00  0.00     0.002 A 
ATOM     83  C   UNL A   1      49.022  28.873  29.168  1.00  0.00     0.091 A 
ATOM     84  F   UNL A   1      47.250  29.011  30.759  1.00  0.00    -0.205 F 
ATOM     85  C   UNL A   1      49.460  29.016  27.842  1.00  0.00     0.022 A 
BRANCH  83  86
ATOM     86  S   UNL A   1      50.239  28.339  30.378  1.00  0.00     0.127 S 
ATOM     87  O   UNL A   1      50.041  29.309  31.451  1.00  0.00    -0.237 OA
ATOM     88  O   UNL A   1      49.786  26.982  30.684  1.00  0.00    -0.237 OA
ATOM     89  O   UNL A   1      51.527  28.404  29.698  1.00  0.00    -0.744 OA
ENDBRANCH  83  86
ENDBRANCH  55  79
BRANCH  67  90
ATOM     90  C   UNL A   1      43.760  35.464  31.048  1.00  0.00     0.023 A 
ATOM     91  C   UNL A   1      44.283  35.603  32.348  1.00  0.00     0.012 A 
ATOM     92  C   UNL A   1      43.861  36.534  30.136  1.00  0.00     0.148 A 
ATOM     93  C   UNL A   1      44.876  36.801  32.743  1.00  0.00     0.002 A 
ATOM     94  C   UNL A   1      44.503  37.703  30.520  1.00  0.00     0.091 A 
ATOM     95  F   UNL A   1      43.346  36.379  28.908  1.00  0.00    -0.205 F 
ATOM     96  C   UNL A   1      45.000  37.843  31.826  1.00  0.00     0.022 A 
BRANCH  94  97
ATOM     97  S   UNL A   1      44.810  39.050  29.373  1.00  0.00     0.127 S 
ATOM     98  O   UNL A   1      45.583  38.380  28.330  1.00  0.00    -0.237 OA
ATOM     99  O   UNL A   1      43.455  39.434  28.979  1.00  0.00    -0.237 OA
ATOM    100  O   UNL A   1      45.531  40.067  30.127  1.00  0.00    -0.744 OA
ENDBRANCH  94  97
ENDBRANCH  67  90
ENDBRANCH  41  42
ENDBRANCH  34  36
ENDBRANCH  33  34
ENDBRANCH  32  33
ENDBRANCH   1  32
TORSDOF 18
ENDMDL
MODEL 3
REMARK VINA RESULT:     -11.1      8.097     15.126
REMARK SMILES C[C@H]1CN(S(=O)(=O)c2cccc(C(=O)NC3(C(=O)OCCOC(=O)c4ccc(-c5c6nc(c(-c7cccc(S(=O)(=O)[O-])c7F)c7ccc([nH]7)c(-c7cccc(S(=O)(=O)[O-])c7F)c7nc(c(-c8cccc(S(=O)(=O)[O-])c8F)c8ccc5[nH]8)C=C7)C=C6)cc4)CCCCC3)c2)C[C@H](C)O1
REMARK SMILES IDX 20 1 19 2 17 3 18 4 16 5 88 6 92 7 89 8 91 9 90 10 15 11
REMARK SMILES IDX 13 12 14 13 12 15 8 16 9 17 93 18 10 19 11 20 5 21 6 22 7 23
REMARK SMILES IDX 4 24 1 25 2 26 3 27 97 28 95 29 94 30 96 31 21 32 22 33
REMARK SMILES IDX 23 34 24 35 25 36 26 37 87 38 27 39 86 40 28 41 29 42 30 43
REMARK SMILES IDX 80 44 31 45 85 46 79 47 81 48 32 49 84 50 78 51 77 52 33 54
REMARK SMILES IDX 65 55 45 56 64 57 46 58 49 59 63 60 82 61 47 62 48 63 62 65
REMARK SMILES IDX 83 66 50 67 34 68 35 69 43 70 36 71 38 72 44 73 37 74 39 75
REMARK SMILES IDX 40 76 41 77 42 78 66 79 67 80 75 81 68 82 70 83 76 84 69 85
REMARK SMILES IDX 71 86 72 87 73 88 74 89 51 90 52 91 60 92 53 93 55 94 61 95
REMARK SMILES IDX 54 96 56 97 57 98 58 99 59 100
REMARK H PARENT 15 14 81 53 49 64
REMARK Flexibility Score: inf
ROOT
ATOM      1  C   UNL A   1      44.336  42.420  25.797  1.00  0.00     0.274 C 
ENDROOT
BRANCH   1   2
ATOM      2  O   UNL A   1      45.000  42.675  24.516  1.00  0.00    -0.460 OA
BRANCH   2   3
ATOM      3  C   UNL A   1      44.747  43.885  23.963  1.00  0.00     0.331 C 
ATOM      4  O   UNL A   1      43.716  44.490  24.251  1.00  0.00    -0.249 OA
BRANCH   3   5
ATOM      5  C   UNL A   1      45.832  44.523  22.980  1.00  0.00     0.138 C 
ATOM      6  C   UNL A   1      47.177  45.231  23.294  1.00  0.00     0.040 C 
ATOM      7  C   UNL A   1      44.992  45.587  22.224  1.00  0.00     0.040 C 
ATOM      8  C   UNL A   1      47.857  45.817  22.039  1.00  0.00     0.003 C 
ATOM      9  C   UNL A   1      45.640  46.343  21.071  1.00  0.00     0.003 C 
ATOM     10  C   UNL A   1      47.009  46.899  21.418  1.00  0.00     0.000 C 
BRANCH   5  11
ATOM     11  N   UNL A   1      46.258  43.307  22.237  1.00  0.00    -0.336 N 
ATOM     12  C   UNL A   1      45.470  42.554  21.350  1.00  0.00     0.252 C 
ATOM     13  O   UNL A   1      45.891  41.476  20.941  1.00  0.00    -0.269 OA
ATOM     14  H   UNL A   1      47.181  42.998  22.382  1.00  0.00     0.165 HD
BRANCH  12  15
ATOM     15  C   UNL A   1      44.185  43.120  20.775  1.00  0.00     0.041 A 
ATOM     16  C   UNL A   1      42.861  43.822  18.831  1.00  0.00     0.083 A 
ATOM     17  C   UNL A   1      41.687  43.527  19.529  1.00  0.00     0.022 A 
ATOM     18  C   UNL A   1      44.080  43.743  19.516  1.00  0.00     0.035 A 
ATOM     19  C   UNL A   1      41.760  43.057  20.852  1.00  0.00     0.002 A 
ATOM     20  C   UNL A   1      43.002  42.823  21.462  1.00  0.00     0.014 A 
BRANCH  16  21
ATOM     21  S   UNL A   1      42.819  44.470  17.146  1.00  0.00     0.243 S 
ATOM     22  O   UNL A   1      41.444  44.789  16.833  1.00  0.00    -0.207 OA
ATOM     23  O   UNL A   1      43.561  43.517  16.341  1.00  0.00    -0.207 OA
BRANCH  21  24
ATOM     24  N   UNL A   1      43.705  45.972  17.079  1.00  0.00    -0.193 NA
ATOM     25  C   UNL A   1      47.284  47.359  16.616  1.00  0.00     0.040 C 
ATOM     26  C   UNL A   1      45.784  47.287  16.864  1.00  0.00     0.130 C 
ATOM     27  C   UNL A   1      45.215  45.879  17.152  1.00  0.00     0.134 C 
ATOM     28  O   UNL A   1      45.473  48.134  17.980  1.00  0.00    -0.373 OA
ATOM     29  C   UNL A   1      44.053  48.282  18.149  1.00  0.00     0.130 C 
ATOM     30  C   UNL A   1      43.278  46.934  18.170  1.00  0.00     0.134 C 
ATOM     31  C   UNL A   1      43.510  49.297  17.143  1.00  0.00     0.040 C 
ENDBRANCH  21  24
ENDBRANCH  16  21
ENDBRANCH  12  15
ENDBRANCH   5  11
ENDBRANCH   3   5
ENDBRANCH   2   3
ENDBRANCH   1   2
BRANCH   1  32
ATOM     32  C   UNL A   1      43.677  41.042  25.912  1.00  0.00     0.275 C 
BRANCH  32  33
ATOM     33  O   UNL A   1      42.805  41.008  27.041  1.00  0.00    -0.458 OA
BRANCH  33  34
ATOM     34  C   UNL A   1      41.736  40.194  26.876  1.00  0.00     0.338 C 
ATOM     35  O   UNL A   1      40.805  40.379  26.109  1.00  0.00    -0.246 OA
BRANCH  34  36
ATOM     36  C   UNL A   1      42.065  38.902  27.517  1.00  0.00     0.060 A 
ATOM     37  C   UNL A   1      42.015  37.767  26.699  1.00  0.00     0.016 A 
ATOM     38  C   UNL A   1      42.610  38.825  28.804  1.00  0.00     0.016 A 
ATOM     39  C   UNL A   1      42.603  36.581  27.110  1.00  0.00     0.010 A 
ATOM     40  C   UNL A   1      43.118  37.614  29.258  1.00  0.00     0.010 A 
ATOM     41  C   UNL A   1      43.105  36.496  28.410  1.00  0.00    -0.014 A 
BRANCH  41  42
ATOM     42  C   UNL A   1      43.244  35.160  29.001  1.00  0.00     0.031 A 
ATOM     43  C   UNL A   1      41.962  34.509  29.430  1.00  0.00     0.074 A 
ATOM     44  C   UNL A   1      44.442  34.583  29.167  1.00  0.00     0.049 A 
ATOM     45  N   UNL A   1      41.773  33.374  30.038  1.00  0.00    -0.248 NA
ATOM     46  C   UNL A   1      40.717  35.242  29.119  1.00  0.00     0.031 C 
ATOM     47  C   UNL A   1      45.724  35.138  28.734  1.00  0.00     0.029 A 
ATOM     48  N   UNL A   1      44.771  33.408  29.785  1.00  0.00    -0.354 N 
ATOM     49  C   UNL A   1      40.398  33.266  30.191  1.00  0.00     0.074 A 
ATOM     50  C   UNL A   1      39.793  34.439  29.614  1.00  0.00     0.031 C 
ATOM     51  C   UNL A   1      46.711  34.328  29.156  1.00  0.00     0.029 A 
ATOM     52  C   UNL A   1      46.126  33.219  29.907  1.00  0.00     0.049 A 
ATOM     53  H   UNL A   1      44.102  32.761  30.110  1.00  0.00     0.167 HD
ATOM     54  C   UNL A   1      39.698  32.270  30.772  1.00  0.00     0.034 A 
ATOM     55  C   UNL A   1      46.796  32.271  30.591  1.00  0.00     0.034 A 
ATOM     56  C   UNL A   1      40.324  31.148  31.398  1.00  0.00     0.049 A 
ATOM     57  C   UNL A   1      45.994  31.208  31.303  1.00  0.00     0.074 A 
ATOM     58  C   UNL A   1      39.734  30.084  32.050  1.00  0.00     0.029 A 
ATOM     59  N   UNL A   1      41.699  30.966  31.476  1.00  0.00    -0.354 N 
ATOM     60  N   UNL A   1      44.690  31.061  31.369  1.00  0.00    -0.248 NA
ATOM     61  C   UNL A   1      46.749  30.165  32.010  1.00  0.00     0.031 C 
ATOM     62  C   UNL A   1      40.756  29.275  32.553  1.00  0.00     0.029 A 
ATOM     63  C   UNL A   1      41.980  29.811  32.174  1.00  0.00     0.049 A 
ATOM     64  H   UNL A   1      42.371  31.572  31.089  1.00  0.00     0.167 HD
ATOM     65  C   UNL A   1      44.471  29.889  32.084  1.00  0.00     0.074 A 
ATOM     66  C   UNL A   1      45.777  29.362  32.422  1.00  0.00     0.031 C 
ATOM     67  C   UNL A   1      43.301  29.300  32.439  1.00  0.00     0.034 A 
BRANCH  54  68
ATOM     68  C   UNL A   1      38.203  32.399  30.773  1.00  0.00     0.023 A 
ATOM     69  C   UNL A   1      37.456  31.893  29.688  1.00  0.00     0.012 A 
ATOM     70  C   UNL A   1      37.539  33.049  31.828  1.00  0.00     0.148 A 
ATOM     71  C   UNL A   1      36.074  32.060  29.639  1.00  0.00     0.002 A 
ATOM     72  C   UNL A   1      36.156  33.170  31.796  1.00  0.00     0.091 A 
ATOM     73  F   UNL A   1      38.274  33.563  32.825  1.00  0.00    -0.205 F 
ATOM     74  C   UNL A   1      35.424  32.690  30.698  1.00  0.00     0.022 A 
BRANCH  72  75
ATOM     75  S   UNL A   1      35.220  33.910  33.136  1.00  0.00     0.127 S 
ATOM     76  O   UNL A   1      35.594  33.059  34.264  1.00  0.00    -0.237 OA
ATOM     77  O   UNL A   1      35.775  35.264  33.181  1.00  0.00    -0.237 OA
ATOM     78  O   UNL A   1      33.821  33.838  32.740  1.00  0.00    -0.744 OA
ENDBRANCH  72  75
ENDBRANCH  54  68
BRANCH  55  79
ATOM     79  C   UNL A   1      48.286  32.279  30.633  1.00  0.00     0.023 A 
ATOM     80  C   UNL A   1      48.954  32.974  31.658  1.00  0.00     0.012 A 
ATOM     81  C   UNL A   1      49.047  31.599  29.659  1.00  0.00     0.148 A 
ATOM     82  C   UNL A   1      50.350  33.022  31.696  1.00  0.00     0.002 A 
ATOM     83  C   UNL A   1      50.435  31.608  29.731  1.00  0.00     0.091 A 
ATOM     84  F   UNL A   1      48.396  30.956  28.680  1.00  0.00    -0.205 F 
ATOM     85  C   UNL A   1      51.090  32.334  30.738  1.00  0.00     0.022 A 
BRANCH  83  86
ATOM     86  S   UNL A   1      51.468  30.662  28.603  1.00  0.00     0.127 S 
ATOM     87  O   UNL A   1      52.810  31.038  29.041  1.00  0.00    -0.237 OA
ATOM     88  O   UNL A   1      51.080  29.288  28.919  1.00  0.00    -0.237 OA
ATOM     89  O   UNL A   1      51.095  31.101  27.265  1.00  0.00    -0.744 OA
ENDBRANCH  83  86
ENDBRANCH  55  79
BRANCH  67  90
ATOM     90  C   UNL A   1      43.374  27.994  33.182  1.00  0.00     0.023 A 
ATOM     91  C   UNL A   1      43.795  26.827  32.519  1.00  0.00     0.012 A 
ATOM     92  C   UNL A   1      43.139  27.963  34.572  1.00  0.00     0.148 A 
ATOM     93  C   UNL A   1      43.959  25.637  33.225  1.00  0.00     0.002 A 
ATOM     94  C   UNL A   1      43.358  26.789  35.277  1.00  0.00     0.091 A 
ATOM     95  F   UNL A   1      42.728  29.087  35.176  1.00  0.00    -0.205 F 
ATOM     96  C   UNL A   1      43.756  25.622  34.605  1.00  0.00     0.022 A 
BRANCH  94  97
ATOM     97  S   UNL A   1      43.234  26.707  37.067  1.00  0.00     0.127 S 
ATOM     98  O   UNL A   1      44.068  27.835  37.474  1.00  0.00    -0.237 OA
ATOM     99  O   UNL A   1      41.800  26.895  37.285  1.00  0.00    -0.237 OA
ATOM    100  O   UNL A   1      43.735  25.393  37.447  1.00  0.00    -0.744 OA
ENDBRANCH  94  97
ENDBRANCH  67  90
ENDBRANCH  41  42
ENDBRANCH  34  36
ENDBRANCH  33  34
ENDBRANCH  32  33
ENDBRANCH   1  32
TORSDOF 18
ENDMDL
