MODEL 1
REMARK VINA RESULT:     -11.6      0.000      0.000
REMARK SMILES COc1ccc(N[C@]2(Br)C(=O)NC(=O)N[C@@H]2C(=O)OCCOC(=O)c2ccc(-c3c4nc(c(-c5cccc(S(=O)(=O)[O-])c5F)c5ccc([nH]5)c(-c5cccc(S(=O)(=O)[O-])c5F)c5nc(c(-c6cccc(S(=O)(=O)[O-])c6F)c6ccc3[nH]6)C=C5)C=C4)cc2)cc1
REMARK SMILES IDX 20 1 19 2 17 3 18 4 16 5 8 6 10 7 9 8 11 9 12 10 15 11 13 12
REMARK SMILES IDX 14 15 7 16 6 18 3 19 4 20 89 21 5 22 88 23 2 24 1 25 21 26
REMARK SMILES IDX 22 27 23 28 24 29 25 30 26 31 87 32 27 33 86 34 28 35 29 36
REMARK SMILES IDX 30 37 80 38 31 39 85 40 79 41 81 42 32 43 84 44 78 45 77 46
REMARK SMILES IDX 33 48 65 49 45 50 64 51 46 52 49 53 63 54 82 55 47 56 48 57
REMARK SMILES IDX 62 59 83 60 50 61 34 62 35 63 43 64 36 65 38 66 44 67 37 68
REMARK SMILES IDX 39 69 40 70 41 71 42 72 66 73 67 74 75 75 68 76 70 77 76 78
REMARK SMILES IDX 69 79 71 80 72 81 73 82 74 83 51 84 52 85 60 86 53 87 55 88
REMARK SMILES IDX 61 89 54 90 56 91 57 92 58 93 59 94
REMARK H PARENT 12 13 15 14 7 17 81 47 49 58
REMARK Flexibility Score: inf
ROOT
ATOM      1  C   UNL A   1      36.660  22.503  23.615  1.00  0.00     0.274 C 
ENDROOT
BRANCH   1   2
ATOM      2  O   UNL A   1      35.558  23.245  24.197  1.00  0.00    -0.460 OA
BRANCH   2   3
ATOM      3  C   UNL A   1      34.400  23.076  23.503  1.00  0.00     0.332 C 
ATOM      4  O   UNL A   1      34.355  23.340  22.314  1.00  0.00    -0.250 OA
BRANCH   3   5
ATOM      5  C   UNL A   1      33.270  22.371  24.245  1.00  0.00     0.240 C 
ATOM      6  C   UNL A   1      33.171  22.719  25.758  1.00  0.00     0.204 C 
ATOM      7  C   UNL A   1      33.727  21.615  26.669  1.00  0.00     0.267 C 
ATOM      8  Br  UNL A   1      31.179  22.595  26.181  1.00  0.00    -0.048 Br
ATOM      9  O   UNL A   1      33.904  21.735  27.884  1.00  0.00    -0.271 OA
ATOM     10  N   UNL A   1      33.977  20.392  26.100  1.00  0.00    -0.275 N 
ATOM     11  N   UNL A   1      33.263  20.930  23.974  1.00  0.00    -0.321 N 
ATOM     12  C   UNL A   1      33.699  19.985  24.835  1.00  0.00     0.322 C 
ATOM     13  H   UNL A   1      34.410  19.726  26.681  1.00  0.00     0.174 HD
ATOM     14  H   UNL A   1      32.915  20.630  23.103  1.00  0.00     0.166 HD
ATOM     15  O   UNL A   1      33.808  18.814  24.496  1.00  0.00    -0.248 OA
BRANCH   6  16
ATOM     16  N   UNL A   1      33.510  24.066  26.213  1.00  0.00    -0.360 N 
ATOM     17  H   UNL A   1      34.256  24.128  26.852  1.00  0.00     0.162 HD
BRANCH  16  18
ATOM     18  C   UNL A   1      32.916  25.264  25.861  1.00  0.00     0.036 A 
ATOM     19  C   UNL A   1      32.100  27.967  25.488  1.00  0.00     0.119 A 
ATOM     20  C   UNL A   1      31.261  27.037  26.105  1.00  0.00     0.048 A 
ATOM     21  C   UNL A   1      33.340  27.552  25.043  1.00  0.00     0.048 A 
ATOM     22  C   UNL A   1      31.656  25.695  26.271  1.00  0.00     0.029 A 
ATOM     23  C   UNL A   1      33.726  26.226  25.243  1.00  0.00     0.029 A 
BRANCH  19  24
ATOM     24  O   UNL A   1      31.653  29.259  25.435  1.00  0.00    -0.497 OA
ATOM     25  C   UNL A   1      32.365  30.169  26.273  1.00  0.00     0.278 C 
ENDBRANCH  19  24
ENDBRANCH  16  18
ENDBRANCH   6  16
ENDBRANCH   3   5
ENDBRANCH   2   3
ENDBRANCH   1   2
BRANCH   1  26
ATOM     26  C   UNL A   1      37.088  21.215  24.370  1.00  0.00     0.275 C 
BRANCH  26  27
ATOM     27  O   UNL A   1      37.456  21.404  25.759  1.00  0.00    -0.458 OA
BRANCH  27  28
ATOM     28  C   UNL A   1      38.785  21.314  26.042  1.00  0.00     0.338 C 
ATOM     29  O   UNL A   1      39.496  20.359  25.759  1.00  0.00    -0.246 OA
BRANCH  28  30
ATOM     30  C   UNL A   1      39.358  22.613  26.524  1.00  0.00     0.060 A 
ATOM     31  C   UNL A   1      38.715  23.793  26.107  1.00  0.00     0.016 A 
ATOM     32  C   UNL A   1      40.445  22.711  27.397  1.00  0.00     0.016 A 
ATOM     33  C   UNL A   1      39.130  25.053  26.566  1.00  0.00     0.010 A 
ATOM     34  C   UNL A   1      40.881  23.979  27.835  1.00  0.00     0.010 A 
ATOM     35  C   UNL A   1      40.226  25.162  27.428  1.00  0.00    -0.014 A 
BRANCH  35  36
ATOM     36  C   UNL A   1      40.804  26.497  27.762  1.00  0.00     0.031 A 
ATOM     37  C   UNL A   1      42.253  26.731  27.425  1.00  0.00     0.074 A 
ATOM     38  C   UNL A   1      40.112  27.487  28.367  1.00  0.00     0.049 A 
ATOM     39  N   UNL A   1      42.989  27.790  27.634  1.00  0.00    -0.248 NA
ATOM     40  C   UNL A   1      42.949  25.635  26.729  1.00  0.00     0.031 C 
ATOM     41  C   UNL A   1      38.687  27.488  28.663  1.00  0.00     0.029 A 
ATOM     42  N   UNL A   1      40.539  28.692  28.882  1.00  0.00    -0.354 N 
ATOM     43  C   UNL A   1      44.227  27.500  27.077  1.00  0.00     0.074 A 
ATOM     44  C   UNL A   1      44.155  26.154  26.555  1.00  0.00     0.031 C 
ATOM     45  C   UNL A   1      38.376  28.555  29.416  1.00  0.00     0.029 A 
ATOM     46  C   UNL A   1      39.574  29.356  29.611  1.00  0.00     0.049 A 
ATOM     47  H   UNL A   1      41.448  29.046  28.742  1.00  0.00     0.167 HD
ATOM     48  C   UNL A   1      45.319  28.293  26.981  1.00  0.00     0.034 A 
ATOM     49  C   UNL A   1      39.636  30.487  30.344  1.00  0.00     0.034 A 
ATOM     50  C   UNL A   1      45.416  29.617  27.527  1.00  0.00     0.049 A 
ATOM     51  C   UNL A   1      40.907  31.291  30.340  1.00  0.00     0.074 A 
ATOM     52  C   UNL A   1      46.487  30.490  27.476  1.00  0.00     0.029 A 
ATOM     53  N   UNL A   1      44.417  30.251  28.248  1.00  0.00    -0.354 N 
ATOM     54  N   UNL A   1      42.021  31.062  29.690  1.00  0.00    -0.248 NA
ATOM     55  C   UNL A   1      40.909  32.543  31.111  1.00  0.00     0.031 C 
ATOM     56  C   UNL A   1      46.147  31.640  28.195  1.00  0.00     0.029 A 
ATOM     57  C   UNL A   1      44.854  31.495  28.668  1.00  0.00     0.049 A 
ATOM     58  H   UNL A   1      43.527  29.871  28.435  1.00  0.00     0.167 HD
ATOM     59  C   UNL A   1      42.829  32.170  29.918  1.00  0.00     0.074 A 
ATOM     60  C   UNL A   1      42.077  33.069  30.768  1.00  0.00     0.031 C 
ATOM     61  C   UNL A   1      44.080  32.415  29.460  1.00  0.00     0.034 A 
BRANCH  48  62
ATOM     62  C   UNL A   1      46.494  27.739  26.227  1.00  0.00     0.023 A 
ATOM     63  C   UNL A   1      46.589  27.962  24.839  1.00  0.00     0.012 A 
ATOM     64  C   UNL A   1      47.504  27.017  26.888  1.00  0.00     0.148 A 
ATOM     65  C   UNL A   1      47.660  27.448  24.111  1.00  0.00     0.002 A 
ATOM     66  C   UNL A   1      48.588  26.539  26.161  1.00  0.00     0.091 A 
ATOM     67  F   UNL A   1      47.376  26.794  28.202  1.00  0.00    -0.205 F 
ATOM     68  C   UNL A   1      48.663  26.744  24.773  1.00  0.00     0.022 A 
BRANCH  66  69
ATOM     69  S   UNL A   1      49.957  25.670  26.929  1.00  0.00     0.127 S 
ATOM     70  O   UNL A   1      50.369  26.621  27.960  1.00  0.00    -0.237 OA
ATOM     71  O   UNL A   1      49.308  24.462  27.437  1.00  0.00    -0.237 OA
ATOM     72  O   UNL A   1      50.931  25.438  25.871  1.00  0.00    -0.744 OA
ENDBRANCH  66  69
ENDBRANCH  48  62
BRANCH  49  73
ATOM     73  C   UNL A   1      38.438  30.979  31.088  1.00  0.00     0.023 A 
ATOM     74  C   UNL A   1      38.330  30.730  32.469  1.00  0.00     0.012 A 
ATOM     75  C   UNL A   1      37.395  31.662  30.431  1.00  0.00     0.148 A 
ATOM     76  C   UNL A   1      37.187  31.110  33.176  1.00  0.00     0.002 A 
ATOM     77  C   UNL A   1      36.275  32.073  31.147  1.00  0.00     0.091 A 
ATOM     78  F   UNL A   1      37.508  31.878  29.112  1.00  0.00    -0.205 F 
ATOM     79  C   UNL A   1      36.163  31.785  32.517  1.00  0.00     0.022 A 
BRANCH  77  80
ATOM     80  S   UNL A   1      34.939  33.016  30.402  1.00  0.00     0.127 S 
ATOM     81  O   UNL A   1      34.048  33.223  31.541  1.00  0.00    -0.237 OA
ATOM     82  O   UNL A   1      35.634  34.217  29.938  1.00  0.00    -0.237 OA
ATOM     83  O   UNL A   1      34.413  32.175  29.334  1.00  0.00    -0.744 OA
ENDBRANCH  77  80
ENDBRANCH  49  73
BRANCH  61  84
ATOM     84  C   UNL A   1      44.718  33.732  29.816  1.00  0.00     0.023 A 
ATOM     85  C   UNL A   1      45.430  33.864  31.024  1.00  0.00     0.012 A 
ATOM     86  C   UNL A   1      44.691  34.808  28.906  1.00  0.00     0.148 A 
ATOM     87  C   UNL A   1      46.086  35.056  31.332  1.00  0.00     0.002 A 
ATOM     88  C   UNL A   1      45.389  35.973  29.196  1.00  0.00     0.091 A 
ATOM     89  F   UNL A   1      43.990  34.669  27.772  1.00  0.00    -0.205 F 
ATOM     90  C   UNL A   1      46.078  36.103  30.414  1.00  0.00     0.022 A 
BRANCH  88  91
ATOM     91  S   UNL A   1      45.522  37.333  28.030  1.00  0.00     0.127 S 
ATOM     92  O   UNL A   1      46.306  36.729  26.954  1.00  0.00    -0.237 OA
ATOM     93  O   UNL A   1      44.121  37.591  27.694  1.00  0.00    -0.237 OA
ATOM     94  O   UNL A   1      46.180  38.417  28.748  1.00  0.00    -0.744 OA
ENDBRANCH  88  91
ENDBRANCH  61  84
ENDBRANCH  35  36
ENDBRANCH  28  30
ENDBRANCH  27  28
ENDBRANCH  26  27
ENDBRANCH   1  26
TORSDOF 17
ENDMDL
MODEL 2
REMARK VINA RESULT:     -11.5      2.096      2.704
REMARK SMILES COc1ccc(N[C@]2(Br)C(=O)NC(=O)N[C@@H]2C(=O)OCCOC(=O)c2ccc(-c3c4nc(c(-c5cccc(S(=O)(=O)[O-])c5F)c5ccc([nH]5)c(-c5cccc(S(=O)(=O)[O-])c5F)c5nc(c(-c6cccc(S(=O)(=O)[O-])c6F)c6ccc3[nH]6)C=C5)C=C4)cc2)cc1
REMARK SMILES IDX 20 1 19 2 17 3 18 4 16 5 8 6 10 7 9 8 11 9 12 10 15 11 13 12
REMARK SMILES IDX 14 15 7 16 6 18 3 19 4 20 89 21 5 22 88 23 2 24 1 25 21 26
REMARK SMILES IDX 22 27 23 28 24 29 25 30 26 31 87 32 27 33 86 34 28 35 29 36
REMARK SMILES IDX 30 37 80 38 31 39 85 40 79 41 81 42 32 43 84 44 78 45 77 46
REMARK SMILES IDX 33 48 65 49 45 50 64 51 46 52 49 53 63 54 82 55 47 56 48 57
REMARK SMILES IDX 62 59 83 60 50 61 34 62 35 63 43 64 36 65 38 66 44 67 37 68
REMARK SMILES IDX 39 69 40 70 41 71 42 72 66 73 67 74 75 75 68 76 70 77 76 78
REMARK SMILES IDX 69 79 71 80 72 81 73 82 74 83 51 84 52 85 60 86 53 87 55 88
REMARK SMILES IDX 61 89 54 90 56 91 57 92 58 93 59 94
REMARK H PARENT 12 13 15 14 7 17 81 47 49 58
REMARK Flexibility Score: inf
ROOT
ATOM      1  C   UNL A   1      36.116  21.429  25.503  1.00  0.00     0.274 C 
ENDROOT
BRANCH   1   2
ATOM      2  O   UNL A   1      35.474  22.730  25.495  1.00  0.00    -0.460 OA
BRANCH   2   3
ATOM      3  C   UNL A   1      34.875  23.000  24.304  1.00  0.00     0.332 C 
ATOM      4  O   UNL A   1      35.546  23.110  23.293  1.00  0.00    -0.250 OA
BRANCH   3   5
ATOM      5  C   UNL A   1      33.351  22.957  24.294  1.00  0.00     0.240 C 
ATOM      6  C   UNL A   1      32.674  23.645  25.514  1.00  0.00     0.204 C 
ATOM      7  C   UNL A   1      32.154  22.648  26.558  1.00  0.00     0.267 C 
ATOM      8  Br  UNL A   1      30.918  24.376  24.777  1.00  0.00    -0.048 Br
ATOM      9  O   UNL A   1      31.733  22.960  27.675  1.00  0.00    -0.271 OA
ATOM     10  N   UNL A   1      32.090  21.326  26.194  1.00  0.00    -0.275 N 
ATOM     11  N   UNL A   1      32.852  21.603  24.034  1.00  0.00    -0.321 N 
ATOM     12  C   UNL A   1      32.336  20.782  24.975  1.00  0.00     0.322 C 
ATOM     13  H   UNL A   1      31.835  20.695  26.904  1.00  0.00     0.174 HD
ATOM     14  H   UNL A   1      32.895  21.268  23.109  1.00  0.00     0.166 HD
ATOM     15  O   UNL A   1      32.076  19.612  24.728  1.00  0.00    -0.248 OA
BRANCH   6  16
ATOM     16  N   UNL A   1      33.289  24.832  26.106  1.00  0.00    -0.360 N 
ATOM     17  H   UNL A   1      34.036  24.665  26.725  1.00  0.00     0.162 HD
BRANCH  16  18
ATOM     18  C   UNL A   1      32.955  26.159  25.909  1.00  0.00     0.036 A 
ATOM     19  C   UNL A   1      32.836  28.990  25.616  1.00  0.00     0.119 A 
ATOM     20  C   UNL A   1      32.140  28.338  26.637  1.00  0.00     0.048 A 
ATOM     21  C   UNL A   1      33.580  28.233  24.731  1.00  0.00     0.048 A 
ATOM     22  C   UNL A   1      32.182  26.936  26.770  1.00  0.00     0.029 A 
ATOM     23  C   UNL A   1      33.634  26.849  24.896  1.00  0.00     0.029 A 
BRANCH  19  24
ATOM     24  O   UNL A   1      32.785  30.357  25.613  1.00  0.00    -0.497 OA
ATOM     25  C   UNL A   1      31.695  30.913  26.348  1.00  0.00     0.278 C 
ENDBRANCH  19  24
ENDBRANCH  16  18
ENDBRANCH   6  16
ENDBRANCH   3   5
ENDBRANCH   2   3
ENDBRANCH   1   2
BRANCH   1  26
ATOM     26  C   UNL A   1      37.664  21.433  25.380  1.00  0.00     0.275 C 
BRANCH  26  27
ATOM     27  O   UNL A   1      38.298  22.723  25.569  1.00  0.00    -0.458 OA
BRANCH  27  28
ATOM     28  C   UNL A   1      39.398  22.735  26.373  1.00  0.00     0.338 C 
ATOM     29  O   UNL A   1      40.219  21.830  26.447  1.00  0.00    -0.246 OA
BRANCH  28  30
ATOM     30  C   UNL A   1      39.644  24.080  26.987  1.00  0.00     0.060 A 
ATOM     31  C   UNL A   1      40.238  25.061  26.171  1.00  0.00     0.016 A 
ATOM     32  C   UNL A   1      39.268  24.425  28.288  1.00  0.00     0.016 A 
ATOM     33  C   UNL A   1      40.439  26.371  26.631  1.00  0.00     0.010 A 
ATOM     34  C   UNL A   1      39.497  25.733  28.761  1.00  0.00     0.010 A 
ATOM     35  C   UNL A   1      40.080  26.722  27.937  1.00  0.00    -0.014 A 
BRANCH  35  36
ATOM     36  C   UNL A   1      40.470  28.045  28.507  1.00  0.00     0.031 A 
ATOM     37  C   UNL A   1      41.927  28.269  28.811  1.00  0.00     0.074 A 
ATOM     38  C   UNL A   1      39.591  29.032  28.785  1.00  0.00     0.049 A 
ATOM     39  N   UNL A   1      42.512  29.317  29.328  1.00  0.00    -0.248 NA
ATOM     40  C   UNL A   1      42.848  27.177  28.450  1.00  0.00     0.031 C 
ATOM     41  C   UNL A   1      38.172  29.043  28.458  1.00  0.00     0.029 A 
ATOM     42  N   UNL A   1      39.767  30.225  29.454  1.00  0.00    -0.354 N 
ATOM     43  C   UNL A   1      43.867  29.023  29.334  1.00  0.00     0.074 A 
ATOM     44  C   UNL A   1      44.017  27.686  28.804  1.00  0.00     0.031 C 
ATOM     45  C   UNL A   1      37.578  30.102  29.032  1.00  0.00     0.029 A 
ATOM     46  C   UNL A   1      38.587  30.887  29.725  1.00  0.00     0.049 A 
ATOM     47  H   UNL A   1      40.651  30.571  29.713  1.00  0.00     0.167 HD
ATOM     48  C   UNL A   1      44.902  29.805  29.718  1.00  0.00     0.034 A 
ATOM     49  C   UNL A   1      38.340  32.006  30.437  1.00  0.00     0.034 A 
ATOM     50  C   UNL A   1      44.766  31.120  30.279  1.00  0.00     0.049 A 
ATOM     51  C   UNL A   1      39.499  32.796  30.980  1.00  0.00     0.074 A 
ATOM     52  C   UNL A   1      45.763  31.983  30.697  1.00  0.00     0.029 A 
ATOM     53  N   UNL A   1      43.559  31.753  30.528  1.00  0.00    -0.354 N 
ATOM     54  N   UNL A   1      40.782  32.566  30.852  1.00  0.00    -0.248 NA
ATOM     55  C   UNL A   1      39.182  34.036  31.704  1.00  0.00     0.031 C 
ATOM     56  C   UNL A   1      45.157  33.125  31.229  1.00  0.00     0.029 A 
ATOM     57  C   UNL A   1      43.784  32.985  31.115  1.00  0.00     0.049 A 
ATOM     58  H   UNL A   1      42.671  31.379  30.319  1.00  0.00     0.167 HD
ATOM     59  C   UNL A   1      41.423  33.662  31.416  1.00  0.00     0.074 A 
ATOM     60  C   UNL A   1      40.388  34.555  31.891  1.00  0.00     0.031 C 
ATOM     61  C   UNL A   1      42.752  33.902  31.528  1.00  0.00     0.034 A 
BRANCH  48  62
ATOM     62  C   UNL A   1      46.283  29.251  29.514  1.00  0.00     0.023 A 
ATOM     63  C   UNL A   1      46.893  28.522  30.555  1.00  0.00     0.012 A 
ATOM     64  C   UNL A   1      46.966  29.434  28.299  1.00  0.00     0.148 A 
ATOM     65  C   UNL A   1      48.179  28.008  30.401  1.00  0.00     0.002 A 
ATOM     66  C   UNL A   1      48.234  28.887  28.139  1.00  0.00     0.091 A 
ATOM     67  F   UNL A   1      46.376  30.154  27.336  1.00  0.00    -0.205 F 
ATOM     68  C   UNL A   1      48.845  28.184  29.191  1.00  0.00     0.022 A 
BRANCH  66  69
ATOM     69  S   UNL A   1      49.151  29.009  26.601  1.00  0.00     0.127 S 
ATOM     70  O   UNL A   1      49.441  30.440  26.544  1.00  0.00    -0.237 OA
ATOM     71  O   UNL A   1      50.312  28.161  26.869  1.00  0.00    -0.237 OA
ATOM     72  O   UNL A   1      48.261  28.512  25.561  1.00  0.00    -0.744 OA
ENDBRANCH  66  69
ENDBRANCH  48  62
BRANCH  49  73
ATOM     73  C   UNL A   1      36.942  32.498  30.621  1.00  0.00     0.023 A 
ATOM     74  C   UNL A   1      36.277  32.257  31.838  1.00  0.00     0.012 A 
ATOM     75  C   UNL A   1      36.260  33.174  29.589  1.00  0.00     0.148 A 
ATOM     76  C   UNL A   1      34.946  32.638  32.012  1.00  0.00     0.002 A 
ATOM     77  C   UNL A   1      34.945  33.586  29.781  1.00  0.00     0.091 A 
ATOM     78  F   UNL A   1      36.904  33.383  28.431  1.00  0.00    -0.205 F 
ATOM     79  C   UNL A   1      34.281  33.306  30.986  1.00  0.00     0.022 A 
BRANCH  77  80
ATOM     80  S   UNL A   1      34.031  34.520  28.547  1.00  0.00     0.127 S 
ATOM     81  O   UNL A   1      34.071  33.619  27.399  1.00  0.00    -0.237 OA
ATOM     82  O   UNL A   1      32.718  34.656  29.178  1.00  0.00    -0.237 OA
ATOM     83  O   UNL A   1      34.755  35.776  28.390  1.00  0.00    -0.744 OA
ENDBRANCH  77  80
ENDBRANCH  49  73
BRANCH  61  84
ATOM     84  C   UNL A   1      43.186  35.206  32.143  1.00  0.00     0.023 A 
ATOM     85  C   UNL A   1      43.338  35.309  33.540  1.00  0.00     0.012 A 
ATOM     86  C   UNL A   1      43.537  36.299  31.325  1.00  0.00     0.148 A 
ATOM     87  C   UNL A   1      43.808  36.489  34.115  1.00  0.00     0.002 A 
ATOM     88  C   UNL A   1      44.054  37.453  31.902  1.00  0.00     0.091 A 
ATOM     89  F   UNL A   1      43.366  36.187  30.000  1.00  0.00    -0.205 F 
ATOM     90  C   UNL A   1      44.179  37.554  33.297  1.00  0.00     0.022 A 
BRANCH  88  91
ATOM     91  S   UNL A   1      44.655  38.833  30.922  1.00  0.00     0.127 S 
ATOM     92  O   UNL A   1      45.740  38.212  30.165  1.00  0.00    -0.237 OA
ATOM     93  O   UNL A   1      43.479  39.183  30.125  1.00  0.00    -0.237 OA
ATOM     94  O   UNL A   1      45.065  39.856  31.875  1.00  0.00    -0.744 OA
ENDBRANCH  88  91
ENDBRANCH  61  84
ENDBRANCH  35  36
ENDBRANCH  28  30
ENDBRANCH  27  28
ENDBRANCH  26  27
ENDBRANCH   1  26
TORSDOF 17
ENDMDL
MODEL 3
REMARK VINA RESULT:     -11.5      4.178      9.343
REMARK SMILES COc1ccc(N[C@]2(Br)C(=O)NC(=O)N[C@@H]2C(=O)OCCOC(=O)c2ccc(-c3c4nc(c(-c5cccc(S(=O)(=O)[O-])c5F)c5ccc([nH]5)c(-c5cccc(S(=O)(=O)[O-])c5F)c5nc(c(-c6cccc(S(=O)(=O)[O-])c6F)c6ccc3[nH]6)C=C5)C=C4)cc2)cc1
REMARK SMILES IDX 20 1 19 2 17 3 18 4 16 5 8 6 10 7 9 8 11 9 12 10 15 11 13 12
REMARK SMILES IDX 14 15 7 16 6 18 3 19 4 20 89 21 5 22 88 23 2 24 1 25 21 26
REMARK SMILES IDX 22 27 23 28 24 29 25 30 26 31 87 32 27 33 86 34 28 35 29 36
REMARK SMILES IDX 30 37 80 38 31 39 85 40 79 41 81 42 32 43 84 44 78 45 77 46
REMARK SMILES IDX 33 48 65 49 45 50 64 51 46 52 49 53 63 54 82 55 47 56 48 57
REMARK SMILES IDX 62 59 83 60 50 61 34 62 35 63 43 64 36 65 38 66 44 67 37 68
REMARK SMILES IDX 39 69 40 70 41 71 42 72 66 73 67 74 75 75 68 76 70 77 76 78
REMARK SMILES IDX 69 79 71 80 72 81 73 82 74 83 51 84 52 85 60 86 53 87 55 88
REMARK SMILES IDX 61 89 54 90 56 91 57 92 58 93 59 94
REMARK H PARENT 12 13 15 14 7 17 81 47 49 58
REMARK Flexibility Score: inf
ROOT
ATOM      1  C   UNL A   1      31.420  28.435  27.269  1.00  0.00     0.274 C 
ENDROOT
BRANCH   1   2
ATOM      2  O   UNL A   1      32.035  27.257  26.685  1.00  0.00    -0.460 OA
BRANCH   2   3
ATOM      3  C   UNL A   1      31.158  26.540  25.931  1.00  0.00     0.332 C 
ATOM      4  O   UNL A   1      30.252  25.925  26.466  1.00  0.00    -0.250 OA
BRANCH   3   5
ATOM      5  C   UNL A   1      31.268  26.721  24.422  1.00  0.00     0.240 C 
ATOM      6  C   UNL A   1      32.715  26.951  23.900  1.00  0.00     0.204 C 
ATOM      7  C   UNL A   1      33.003  28.418  23.549  1.00  0.00     0.267 C 
ATOM      8  Br  UNL A   1      32.728  26.106  22.043  1.00  0.00    -0.048 Br
ATOM      9  O   UNL A   1      34.120  28.865  23.274  1.00  0.00    -0.271 OA
ATOM     10  N   UNL A   1      31.932  29.271  23.468  1.00  0.00    -0.275 N 
ATOM     11  N   UNL A   1      30.302  27.705  23.924  1.00  0.00    -0.321 N 
ATOM     12  C   UNL A   1      30.613  28.968  23.560  1.00  0.00     0.322 C 
ATOM     13  H   UNL A   1      32.147  30.221  23.326  1.00  0.00     0.174 HD
ATOM     14  H   UNL A   1      29.361  27.426  23.850  1.00  0.00     0.166 HD
ATOM     15  O   UNL A   1      29.743  29.789  23.296  1.00  0.00    -0.248 OA
BRANCH   6  16
ATOM     16  N   UNL A   1      33.836  26.286  24.560  1.00  0.00    -0.360 N 
ATOM     17  H   UNL A   1      34.497  26.879  24.986  1.00  0.00     0.162 HD
BRANCH  16  18
ATOM     18  C   UNL A   1      34.088  24.930  24.663  1.00  0.00     0.036 A 
ATOM     19  C   UNL A   1      34.959  22.299  25.318  1.00  0.00     0.119 A 
ATOM     20  C   UNL A   1      35.271  22.878  24.087  1.00  0.00     0.048 A 
ATOM     21  C   UNL A   1      34.201  23.021  26.220  1.00  0.00     0.048 A 
ATOM     22  C   UNL A   1      34.823  24.172  23.754  1.00  0.00     0.029 A 
ATOM     23  C   UNL A   1      33.792  24.313  25.885  1.00  0.00     0.029 A 
BRANCH  19  24
ATOM     24  O   UNL A   1      35.496  21.066  25.572  1.00  0.00    -0.497 OA
ATOM     25  C   UNL A   1      36.815  20.876  25.059  1.00  0.00     0.278 C 
ENDBRANCH  19  24
ENDBRANCH  16  18
ENDBRANCH   6  16
ENDBRANCH   3   5
ENDBRANCH   2   3
ENDBRANCH   1   2
BRANCH   1  26
ATOM     26  C   UNL A   1      32.257  29.741  27.209  1.00  0.00     0.275 C 
BRANCH  26  27
ATOM     27  O   UNL A   1      33.693  29.554  27.124  1.00  0.00    -0.458 OA
BRANCH  27  28
ATOM     28  C   UNL A   1      34.457  30.578  27.596  1.00  0.00     0.338 C 
ATOM     29  O   UNL A   1      34.068  31.729  27.746  1.00  0.00    -0.246 OA
BRANCH  28  30
ATOM     30  C   UNL A   1      35.767  30.106  28.153  1.00  0.00     0.060 A 
ATOM     31  C   UNL A   1      36.878  30.128  27.289  1.00  0.00     0.016 A 
ATOM     32  C   UNL A   1      35.953  29.706  29.479  1.00  0.00     0.016 A 
ATOM     33  C   UNL A   1      38.160  29.778  27.739  1.00  0.00     0.010 A 
ATOM     34  C   UNL A   1      37.236  29.326  29.923  1.00  0.00     0.010 A 
ATOM     35  C   UNL A   1      38.354  29.362  29.060  1.00  0.00    -0.014 A 
BRANCH  35  36
ATOM     36  C   UNL A   1      39.664  28.795  29.498  1.00  0.00     0.031 A 
ATOM     37  C   UNL A   1      40.443  29.564  30.531  1.00  0.00     0.074 A 
ATOM     38  C   UNL A   1      40.192  27.655  29.003  1.00  0.00     0.049 A 
ATOM     39  N   UNL A   1      41.609  29.295  31.055  1.00  0.00    -0.248 NA
ATOM     40  C   UNL A   1      39.803  30.777  31.068  1.00  0.00     0.031 C 
ATOM     41  C   UNL A   1      39.541  26.726  28.091  1.00  0.00     0.029 A 
ATOM     42  N   UNL A   1      41.441  27.098  29.179  1.00  0.00    -0.354 N 
ATOM     43  C   UNL A   1      41.834  30.288  31.997  1.00  0.00     0.074 A 
ATOM     44  C   UNL A   1      40.702  31.187  31.948  1.00  0.00     0.031 C 
ATOM     45  C   UNL A   1      40.420  25.797  27.680  1.00  0.00     0.029 A 
ATOM     46  C   UNL A   1      41.692  26.026  28.347  1.00  0.00     0.049 A 
ATOM     47  H   UNL A   1      42.092  27.433  29.837  1.00  0.00     0.167 HD
ATOM     48  C   UNL A   1      42.875  30.427  32.850  1.00  0.00     0.034 A 
ATOM     49  C   UNL A   1      42.809  25.298  28.148  1.00  0.00     0.034 A 
ATOM     50  C   UNL A   1      44.021  29.564  32.885  1.00  0.00     0.049 A 
ATOM     51  C   UNL A   1      44.012  25.557  29.013  1.00  0.00     0.074 A 
ATOM     52  C   UNL A   1      45.124  29.633  33.717  1.00  0.00     0.029 A 
ATOM     53  N   UNL A   1      44.230  28.491  32.033  1.00  0.00    -0.354 N 
ATOM     54  N   UNL A   1      44.149  26.415  29.993  1.00  0.00    -0.248 NA
ATOM     55  C   UNL A   1      45.189  24.702  28.795  1.00  0.00     0.031 C 
ATOM     56  C   UNL A   1      46.015  28.621  33.347  1.00  0.00     0.029 A 
ATOM     57  C   UNL A   1      45.453  27.903  32.304  1.00  0.00     0.049 A 
ATOM     58  H   UNL A   1      43.601  28.191  31.337  1.00  0.00     0.167 HD
ATOM     59  C   UNL A   1      45.396  26.159  30.551  1.00  0.00     0.074 A 
ATOM     60  C   UNL A   1      45.977  25.068  29.798  1.00  0.00     0.031 C 
ATOM     61  C   UNL A   1      46.001  26.776  31.595  1.00  0.00     0.034 A 
BRANCH  48  62
ATOM     62  C   UNL A   1      42.796  31.556  33.837  1.00  0.00     0.023 A 
ATOM     63  C   UNL A   1      43.442  32.774  33.543  1.00  0.00     0.012 A 
ATOM     64  C   UNL A   1      42.077  31.422  35.038  1.00  0.00     0.148 A 
ATOM     65  C   UNL A   1      43.399  33.835  34.445  1.00  0.00     0.002 A 
ATOM     66  C   UNL A   1      42.007  32.496  35.916  1.00  0.00     0.091 A 
ATOM     67  F   UNL A   1      41.495  30.245  35.306  1.00  0.00    -0.205 F 
ATOM     68  C   UNL A   1      42.675  33.698  35.628  1.00  0.00     0.022 A 
BRANCH  66  69
ATOM     69  S   UNL A   1      41.055  32.440  37.436  1.00  0.00     0.127 S 
ATOM     70  O   UNL A   1      41.904  31.607  38.285  1.00  0.00    -0.237 OA
ATOM     71  O   UNL A   1      41.005  33.851  37.819  1.00  0.00    -0.237 OA
ATOM     72  O   UNL A   1      39.766  31.860  37.083  1.00  0.00    -0.744 OA
ENDBRANCH  66  69
ENDBRANCH  48  62
BRANCH  49  73
ATOM     73  C   UNL A   1      42.833  24.199  27.138  1.00  0.00     0.023 A 
ATOM     74  C   UNL A   1      43.458  24.413  25.895  1.00  0.00     0.012 A 
ATOM     75  C   UNL A   1      42.214  22.958  27.389  1.00  0.00     0.148 A 
ATOM     76  C   UNL A   1      43.430  23.431  24.903  1.00  0.00     0.002 A 
ATOM     77  C   UNL A   1      42.222  21.968  26.411  1.00  0.00     0.091 A 
ATOM     78  F   UNL A   1      41.611  22.776  28.573  1.00  0.00    -0.205 F 
ATOM     79  C   UNL A   1      42.816  22.208  25.161  1.00  0.00     0.022 A 
BRANCH  77  80
ATOM     80  S   UNL A   1      41.524  20.333  26.679  1.00  0.00     0.127 S 
ATOM     81  O   UNL A   1      42.246  19.891  27.868  1.00  0.00    -0.237 OA
ATOM     82  O   UNL A   1      40.110  20.637  26.895  1.00  0.00    -0.237 OA
ATOM     83  O   UNL A   1      41.799  19.585  25.459  1.00  0.00    -0.744 OA
ENDBRANCH  77  80
ENDBRANCH  49  73
BRANCH  61  84
ATOM     84  C   UNL A   1      47.346  26.264  32.036  1.00  0.00     0.023 A 
ATOM     85  C   UNL A   1      47.435  25.343  33.099  1.00  0.00     0.012 A 
ATOM     86  C   UNL A   1      48.513  26.624  31.332  1.00  0.00     0.148 A 
ATOM     87  C   UNL A   1      48.668  24.807  33.469  1.00  0.00     0.002 A 
ATOM     88  C   UNL A   1      49.730  26.046  31.674  1.00  0.00     0.091 A 
ATOM     89  F   UNL A   1      48.410  27.517  30.338  1.00  0.00    -0.205 F 
ATOM     90  C   UNL A   1      49.810  25.146  32.749  1.00  0.00     0.022 A 
BRANCH  88  91
ATOM     91  S   UNL A   1      51.234  26.342  30.737  1.00  0.00     0.127 S 
ATOM     92  O   UNL A   1      52.208  25.539  31.475  1.00  0.00    -0.237 OA
ATOM     93  O   UNL A   1      50.885  25.817  29.417  1.00  0.00    -0.237 OA
ATOM     94  O   UNL A   1      51.455  27.781  30.776  1.00  0.00    -0.744 OA
ENDBRANCH  88  91
ENDBRANCH  61  84
ENDBRANCH  35  36
ENDBRANCH  28  30
ENDBRANCH  27  28
ENDBRANCH  26  27
ENDBRANCH   1  26
TORSDOF 17
ENDMDL
