MODEL 1
REMARK VINA RESULT:     -11.7      0.000      0.000
REMARK SMILES Cc1c[nH]c(C[N@@H+](C)[C@@H](C(=O)OCCOC(=O)c2ccc(-c3c4nc(c(-c5cccc(S(=O)(=O)[O-])c5F)c5ccc([nH]5)c(-c5cccc(S(=O)(=O)[O-])c5F)c5nc(c(-c6cccc(S(=O)(=O)[O-])c6F)c6ccc3[nH]6)C=C5)C=C4)cc2)c2ccc(NC(=O)N3CCCC3)cc2)n1
REMARK SMILES IDX 13 1 12 2 10 3 11 4 9 5 7 6 8 7 6 9 5 10 1 11 2 12 3 13
REMARK SMILES IDX 95 14 4 15 81 17 82 18 94 19 83 20 93 21 84 22 85 23 86 24
REMARK SMILES IDX 87 26 88 27 89 28 92 29 90 30 91 31 14 32 15 33 16 34 17 35
REMARK SMILES IDX 18 36 19 37 80 38 20 39 79 40 21 41 22 42 23 43 73 44 24 45
REMARK SMILES IDX 78 46 72 47 74 48 25 49 77 50 71 51 70 52 26 54 58 55 38 56
REMARK SMILES IDX 57 57 39 58 42 59 56 60 75 61 40 62 41 63 55 65 76 66 43 67
REMARK SMILES IDX 27 68 28 69 36 70 29 71 31 72 37 73 30 74 32 75 33 76 34 77
REMARK SMILES IDX 35 78 59 79 60 80 68 81 61 82 63 83 69 84 62 85 64 86 65 87
REMARK SMILES IDX 66 88 67 89 44 90 45 91 53 92 46 93 48 94 54 95 47 96 49 97
REMARK SMILES IDX 50 98 51 99 52 100
REMARK H PARENT 7 8 4 16 85 25 74 53 42 64
REMARK Flexibility Score: inf
ROOT
ATOM      1  C   UNL A   1      31.554  28.694  27.285  1.00  0.00     0.274 C 
ENDROOT
BRANCH   1   2
ATOM      2  O   UNL A   1      32.075  27.483  26.718  1.00  0.00    -0.457 OA
BRANCH   2   3
ATOM      3  C   UNL A   1      31.479  27.094  25.558  1.00  0.00     0.370 C 
ATOM      4  O   UNL A   1      30.278  27.231  25.335  1.00  0.00    -0.245 OA
BRANCH   3   5
ATOM      5  C   UNL A   1      32.485  26.554  24.504  1.00  0.00     0.326 C 
BRANCH   5   6
ATOM      6  N   UNL A   1      32.265  27.093  23.112  1.00  0.00    -0.316 N 
ATOM      7  C   UNL A   1      33.301  26.499  22.241  1.00  0.00     0.334 C 
ATOM      8  H   UNL A   1      31.302  26.842  22.892  1.00  0.00     0.349 HD
BRANCH   6   9
ATOM      9  C   UNL A   1      32.318  28.561  22.916  1.00  0.00     0.339 C 
BRANCH   9  10
ATOM     10  C   UNL A   1      31.037  29.325  22.737  1.00  0.00     0.161 A 
ATOM     11  C   UNL A   1      28.026  30.485  21.212  1.00  0.00     0.068 C 
ATOM     12  C   UNL A   1      29.176  30.222  22.106  1.00  0.00     0.056 A 
ATOM     13  C   UNL A   1      29.299  30.531  23.441  1.00  0.00     0.107 A 
ATOM     14  N   UNL A   1      30.291  29.536  21.669  1.00  0.00    -0.233 NA
ATOM     15  N   UNL A   1      30.479  29.966  23.829  1.00  0.00    -0.344 N 
ATOM     16  H   UNL A   1      30.869  30.008  24.733  1.00  0.00     0.167 HD
ENDBRANCH   9  10
ENDBRANCH   6   9
ENDBRANCH   5   6
BRANCH   5  17
ATOM     17  C   UNL A   1      32.863  25.093  24.754  1.00  0.00     0.021 A 
ATOM     18  C   UNL A   1      34.166  24.803  25.218  1.00  0.00     0.012 A 
ATOM     19  C   UNL A   1      32.053  24.005  24.401  1.00  0.00     0.012 A 
ATOM     20  C   UNL A   1      34.597  23.504  25.449  1.00  0.00     0.027 A 
ATOM     21  C   UNL A   1      32.463  22.684  24.662  1.00  0.00     0.027 A 
ATOM     22  C   UNL A   1      33.711  22.453  25.265  1.00  0.00     0.042 A 
BRANCH  22  23
ATOM     23  N   UNL A   1      33.867  21.360  26.181  1.00  0.00    -0.308 N 
ATOM     24  C   UNL A   1      34.335  20.286  25.462  1.00  0.00     0.321 C 
ATOM     25  H   UNL A   1      33.674  21.376  27.147  1.00  0.00     0.171 HD
ATOM     26  O   UNL A   1      35.426  20.441  24.913  1.00  0.00    -0.248 OA
ATOM     27  N   UNL A   1      33.458  19.317  25.076  1.00  0.00    -0.325 N 
ATOM     28  C   UNL A   1      33.600  18.772  23.750  1.00  0.00     0.121 C 
ATOM     29  C   UNL A   1      32.814  18.338  25.942  1.00  0.00     0.121 C 
ATOM     30  C   UNL A   1      32.419  17.847  23.610  1.00  0.00     0.023 C 
ATOM     31  C   UNL A   1      32.365  17.215  24.995  1.00  0.00     0.023 C 
ENDBRANCH  22  23
ENDBRANCH   5  17
ENDBRANCH   3   5
ENDBRANCH   2   3
ENDBRANCH   1   2
BRANCH   1  32
ATOM     32  C   UNL A   1      32.218  29.913  26.640  1.00  0.00     0.275 C 
BRANCH  32  33
ATOM     33  O   UNL A   1      33.657  29.805  26.670  1.00  0.00    -0.458 OA
BRANCH  33  34
ATOM     34  C   UNL A   1      34.307  30.830  27.281  1.00  0.00     0.338 C 
ATOM     35  O   UNL A   1      33.916  31.981  27.402  1.00  0.00    -0.246 OA
BRANCH  34  36
ATOM     36  C   UNL A   1      35.557  30.352  27.906  1.00  0.00     0.060 A 
ATOM     37  C   UNL A   1      35.471  29.773  29.169  1.00  0.00     0.016 A 
ATOM     38  C   UNL A   1      36.812  30.528  27.328  1.00  0.00     0.016 A 
ATOM     39  C   UNL A   1      36.621  29.416  29.888  1.00  0.00     0.010 A 
ATOM     40  C   UNL A   1      37.960  30.072  28.014  1.00  0.00     0.010 A 
ATOM     41  C   UNL A   1      37.877  29.481  29.296  1.00  0.00    -0.014 A 
BRANCH  41  42
ATOM     42  C   UNL A   1      39.125  29.071  30.003  1.00  0.00     0.031 A 
ATOM     43  C   UNL A   1      39.917  27.960  29.427  1.00  0.00     0.074 A 
ATOM     44  C   UNL A   1      39.727  29.706  31.032  1.00  0.00     0.049 A 
ATOM     45  N   UNL A   1      41.057  27.502  29.859  1.00  0.00    -0.248 NA
ATOM     46  C   UNL A   1      39.468  27.409  28.142  1.00  0.00     0.031 C 
ATOM     47  C   UNL A   1      39.682  31.120  31.293  1.00  0.00     0.029 A 
ATOM     48  N   UNL A   1      40.537  29.257  32.051  1.00  0.00    -0.354 N 
ATOM     49  C   UNL A   1      41.502  26.655  28.874  1.00  0.00     0.074 A 
ATOM     50  C   UNL A   1      40.486  26.617  27.841  1.00  0.00     0.031 C 
ATOM     51  C   UNL A   1      40.142  31.403  32.519  1.00  0.00     0.029 A 
ATOM     52  C   UNL A   1      40.645  30.172  33.084  1.00  0.00     0.049 A 
ATOM     53  H   UNL A   1      40.989  28.383  32.046  1.00  0.00     0.167 HD
ATOM     54  C   UNL A   1      42.681  26.006  28.839  1.00  0.00     0.034 A 
ATOM     55  C   UNL A   1      41.207  30.108  34.305  1.00  0.00     0.034 A 
ATOM     56  C   UNL A   1      43.651  26.028  29.900  1.00  0.00     0.049 A 
ATOM     57  C   UNL A   1      42.343  29.145  34.394  1.00  0.00     0.074 A 
ATOM     58  C   UNL A   1      44.815  25.293  29.998  1.00  0.00     0.029 A 
ATOM     59  N   UNL A   1      43.559  26.793  31.060  1.00  0.00    -0.354 N 
ATOM     60  N   UNL A   1      42.766  28.337  33.455  1.00  0.00    -0.248 NA
ATOM     61  C   UNL A   1      43.206  29.214  35.576  1.00  0.00     0.031 C 
ATOM     62  C   UNL A   1      45.397  25.560  31.241  1.00  0.00     0.029 A 
ATOM     63  C   UNL A   1      44.622  26.499  31.904  1.00  0.00     0.049 A 
ATOM     64  H   UNL A   1      42.846  27.445  31.254  1.00  0.00     0.167 HD
ATOM     65  C   UNL A   1      44.001  27.889  33.870  1.00  0.00     0.074 A 
ATOM     66  C   UNL A   1      44.243  28.490  35.171  1.00  0.00     0.031 C 
ATOM     67  C   UNL A   1      44.859  27.082  33.204  1.00  0.00     0.034 A 
BRANCH  54  68
ATOM     68  C   UNL A   1      42.894  25.145  27.640  1.00  0.00     0.023 A 
ATOM     69  C   UNL A   1      43.538  25.655  26.495  1.00  0.00     0.012 A 
ATOM     70  C   UNL A   1      42.358  23.847  27.631  1.00  0.00     0.148 A 
ATOM     71  C   UNL A   1      43.620  24.882  25.340  1.00  0.00     0.002 A 
ATOM     72  C   UNL A   1      42.473  23.073  26.489  1.00  0.00     0.091 A 
ATOM     73  F   UNL A   1      41.709  23.420  28.723  1.00  0.00    -0.205 F 
ATOM     74  C   UNL A   1      43.093  23.591  25.339  1.00  0.00     0.022 A 
BRANCH  72  75
ATOM     75  S   UNL A   1      41.841  21.400  26.403  1.00  0.00     0.127 S 
ATOM     76  O   UNL A   1      42.617  20.847  25.295  1.00  0.00    -0.237 OA
ATOM     77  O   UNL A   1      42.191  20.877  27.721  1.00  0.00    -0.237 OA
ATOM     78  O   UNL A   1      40.409  21.519  26.151  1.00  0.00    -0.744 OA
ENDBRANCH  72  75
ENDBRANCH  54  68
BRANCH  55  79
ATOM     79  C   UNL A   1      40.936  31.149  35.343  1.00  0.00     0.023 A 
ATOM     80  C   UNL A   1      41.924  32.078  35.711  1.00  0.00     0.012 A 
ATOM     81  C   UNL A   1      39.668  31.225  35.964  1.00  0.00     0.148 A 
ATOM     82  C   UNL A   1      41.674  33.037  36.698  1.00  0.00     0.002 A 
ATOM     83  C   UNL A   1      39.416  32.199  36.931  1.00  0.00     0.091 A 
ATOM     84  F   UNL A   1      38.733  30.327  35.620  1.00  0.00    -0.205 F 
ATOM     85  C   UNL A   1      40.422  33.100  37.306  1.00  0.00     0.022 A 
BRANCH  83  86
ATOM     86  S   UNL A   1      37.803  32.392  37.706  1.00  0.00     0.127 S 
ATOM     87  O   UNL A   1      38.076  33.401  38.726  1.00  0.00    -0.237 OA
ATOM     88  O   UNL A   1      36.973  32.853  36.592  1.00  0.00    -0.237 OA
ATOM     89  O   UNL A   1      37.452  31.064  38.195  1.00  0.00    -0.744 OA
ENDBRANCH  83  86
ENDBRANCH  55  79
BRANCH  67  90
ATOM     90  C   UNL A   1      46.134  26.733  33.913  1.00  0.00     0.023 A 
ATOM     91  C   UNL A   1      47.262  27.557  33.736  1.00  0.00     0.012 A 
ATOM     92  C   UNL A   1      46.200  25.639  34.798  1.00  0.00     0.148 A 
ATOM     93  C   UNL A   1      48.453  27.278  34.401  1.00  0.00     0.002 A 
ATOM     94  C   UNL A   1      47.373  25.401  35.499  1.00  0.00     0.091 A 
ATOM     95  F   UNL A   1      45.120  24.855  34.932  1.00  0.00    -0.205 F 
ATOM     96  C   UNL A   1      48.504  26.210  35.291  1.00  0.00     0.022 A 
BRANCH  94  97
ATOM     97  S   UNL A   1      47.509  24.114  36.743  1.00  0.00     0.127 S 
ATOM     98  O   UNL A   1      47.336  22.904  35.940  1.00  0.00    -0.237 OA
ATOM     99  O   UNL A   1      48.865  24.322  37.252  1.00  0.00    -0.237 OA
ATOM    100  O   UNL A   1      46.453  24.378  37.711  1.00  0.00    -0.744 OA
ENDBRANCH  94  97
ENDBRANCH  67  90
ENDBRANCH  41  42
ENDBRANCH  34  36
ENDBRANCH  33  34
ENDBRANCH  32  33
ENDBRANCH   1  32
TORSDOF 19
ENDMDL
MODEL 2
REMARK VINA RESULT:     -11.5      5.004     10.400
REMARK SMILES Cc1c[nH]c(C[N@@H+](C)[C@@H](C(=O)OCCOC(=O)c2ccc(-c3c4nc(c(-c5cccc(S(=O)(=O)[O-])c5F)c5ccc([nH]5)c(-c5cccc(S(=O)(=O)[O-])c5F)c5nc(c(-c6cccc(S(=O)(=O)[O-])c6F)c6ccc3[nH]6)C=C5)C=C4)cc2)c2ccc(NC(=O)N3CCCC3)cc2)n1
REMARK SMILES IDX 13 1 12 2 10 3 11 4 9 5 7 6 8 7 6 9 5 10 1 11 2 12 3 13
REMARK SMILES IDX 95 14 4 15 81 17 82 18 94 19 83 20 93 21 84 22 85 23 86 24
REMARK SMILES IDX 87 26 88 27 89 28 92 29 90 30 91 31 14 32 15 33 16 34 17 35
REMARK SMILES IDX 18 36 19 37 80 38 20 39 79 40 21 41 22 42 23 43 73 44 24 45
REMARK SMILES IDX 78 46 72 47 74 48 25 49 77 50 71 51 70 52 26 54 58 55 38 56
REMARK SMILES IDX 57 57 39 58 42 59 56 60 75 61 40 62 41 63 55 65 76 66 43 67
REMARK SMILES IDX 27 68 28 69 36 70 29 71 31 72 37 73 30 74 32 75 33 76 34 77
REMARK SMILES IDX 35 78 59 79 60 80 68 81 61 82 63 83 69 84 62 85 64 86 65 87
REMARK SMILES IDX 66 88 67 89 44 90 45 91 53 92 46 93 48 94 54 95 47 96 49 97
REMARK SMILES IDX 50 98 51 99 52 100
REMARK H PARENT 7 8 4 16 85 25 74 53 42 64
REMARK Flexibility Score: inf
ROOT
ATOM      1  C   UNL A   1      37.035  22.273  24.072  1.00  0.00     0.274 C 
ENDROOT
BRANCH   1   2
ATOM      2  O   UNL A   1      35.960  22.860  24.820  1.00  0.00    -0.457 OA
BRANCH   2   3
ATOM      3  C   UNL A   1      35.057  23.554  24.074  1.00  0.00     0.370 C 
ATOM      4  O   UNL A   1      35.123  23.652  22.850  1.00  0.00    -0.245 OA
BRANCH   3   5
ATOM      5  C   UNL A   1      33.877  24.119  24.911  1.00  0.00     0.326 C 
BRANCH   5   6
ATOM      6  N   UNL A   1      32.658  23.230  24.934  1.00  0.00    -0.316 N 
ATOM      7  C   UNL A   1      32.579  22.628  26.281  1.00  0.00     0.334 C 
ATOM      8  H   UNL A   1      31.889  23.848  24.678  1.00  0.00     0.349 HD
BRANCH   6   9
ATOM      9  C   UNL A   1      32.585  22.122  23.954  1.00  0.00     0.339 C 
BRANCH   9  10
ATOM     10  C   UNL A   1      32.893  20.722  24.403  1.00  0.00     0.161 A 
ATOM     11  C   UNL A   1      32.368  17.295  25.251  1.00  0.00     0.068 C 
ATOM     12  C   UNL A   1      32.921  18.642  24.986  1.00  0.00     0.056 A 
ATOM     13  C   UNL A   1      34.241  19.003  24.847  1.00  0.00     0.107 A 
ATOM     14  N   UNL A   1      32.102  19.734  24.776  1.00  0.00    -0.233 NA
ATOM     15  N   UNL A   1      34.214  20.319  24.485  1.00  0.00    -0.344 N 
ATOM     16  H   UNL A   1      35.001  20.886  24.312  1.00  0.00     0.167 HD
ENDBRANCH   9  10
ENDBRANCH   6   9
ENDBRANCH   5   6
BRANCH   5  17
ATOM     17  C   UNL A   1      33.765  25.641  24.806  1.00  0.00     0.021 A 
ATOM     18  C   UNL A   1      33.465  26.210  23.548  1.00  0.00     0.012 A 
ATOM     19  C   UNL A   1      34.098  26.522  25.844  1.00  0.00     0.012 A 
ATOM     20  C   UNL A   1      33.367  27.582  23.361  1.00  0.00     0.027 A 
ATOM     21  C   UNL A   1      33.969  27.915  25.679  1.00  0.00     0.027 A 
ATOM     22  C   UNL A   1      33.522  28.428  24.450  1.00  0.00     0.042 A 
BRANCH  22  23
ATOM     23  N   UNL A   1      32.701  29.604  24.426  1.00  0.00    -0.308 N 
ATOM     24  C   UNL A   1      31.446  29.237  24.854  1.00  0.00     0.321 C 
ATOM     25  H   UNL A   1      32.983  30.507  24.154  1.00  0.00     0.171 HD
ATOM     26  O   UNL A   1      31.379  28.786  25.996  1.00  0.00    -0.248 OA
ATOM     27  N   UNL A   1      30.471  29.021  23.927  1.00  0.00    -0.325 N 
ATOM     28  C   UNL A   1      29.588  27.900  24.131  1.00  0.00     0.121 C 
ATOM     29  C   UNL A   1      29.800  30.034  23.124  1.00  0.00     0.121 C 
ATOM     30  C   UNL A   1      28.739  27.877  22.886  1.00  0.00     0.023 C 
ATOM     31  C   UNL A   1      28.500  29.364  22.656  1.00  0.00     0.023 C 
ENDBRANCH  22  23
ENDBRANCH   5  17
ENDBRANCH   3   5
ENDBRANCH   2   3
ENDBRANCH   1   2
BRANCH   1  32
ATOM     32  C   UNL A   1      37.805  21.276  24.941  1.00  0.00     0.275 C 
BRANCH  32  33
ATOM     33  O   UNL A   1      38.187  21.864  26.202  1.00  0.00    -0.458 OA
BRANCH  33  34
ATOM     34  C   UNL A   1      39.503  21.754  26.523  1.00  0.00     0.338 C 
ATOM     35  O   UNL A   1      40.206  20.761  26.411  1.00  0.00    -0.246 OA
BRANCH  34  36
ATOM     36  C   UNL A   1      40.044  23.061  26.949  1.00  0.00     0.060 A 
ATOM     37  C   UNL A   1      39.585  24.198  26.292  1.00  0.00     0.016 A 
ATOM     38  C   UNL A   1      41.041  23.194  27.913  1.00  0.00     0.016 A 
ATOM     39  C   UNL A   1      40.143  25.460  26.541  1.00  0.00     0.010 A 
ATOM     40  C   UNL A   1      41.527  24.481  28.232  1.00  0.00     0.010 A 
ATOM     41  C   UNL A   1      41.062  25.640  27.568  1.00  0.00    -0.014 A 
BRANCH  41  42
ATOM     42  C   UNL A   1      41.651  26.969  27.902  1.00  0.00     0.031 A 
ATOM     43  C   UNL A   1      40.762  27.996  28.493  1.00  0.00     0.074 A 
ATOM     44  C   UNL A   1      42.958  27.310  27.888  1.00  0.00     0.049 A 
ATOM     45  N   UNL A   1      41.099  29.183  28.906  1.00  0.00    -0.248 NA
ATOM     46  C   UNL A   1      39.383  27.594  28.801  1.00  0.00     0.031 C 
ATOM     47  C   UNL A   1      44.064  26.420  28.124  1.00  0.00     0.029 A 
ATOM     48  N   UNL A   1      43.600  28.513  27.701  1.00  0.00    -0.354 N 
ATOM     49  C   UNL A   1      40.001  29.656  29.581  1.00  0.00     0.074 A 
ATOM     50  C   UNL A   1      38.963  28.650  29.481  1.00  0.00     0.031 C 
ATOM     51  C   UNL A   1      45.227  26.988  27.779  1.00  0.00     0.029 A 
ATOM     52  C   UNL A   1      44.945  28.358  27.413  1.00  0.00     0.049 A 
ATOM     53  H   UNL A   1      43.152  29.388  27.763  1.00  0.00     0.167 HD
ATOM     54  C   UNL A   1      39.906  30.818  30.255  1.00  0.00     0.034 A 
ATOM     55  C   UNL A   1      45.905  29.223  27.038  1.00  0.00     0.034 A 
ATOM     56  C   UNL A   1      40.938  31.816  30.300  1.00  0.00     0.049 A 
ATOM     57  C   UNL A   1      45.671  30.620  27.508  1.00  0.00     0.074 A 
ATOM     58  C   UNL A   1      40.871  33.079  30.853  1.00  0.00     0.029 A 
ATOM     59  N   UNL A   1      42.209  31.688  29.744  1.00  0.00    -0.354 N 
ATOM     60  N   UNL A   1      44.623  31.070  28.152  1.00  0.00    -0.248 NA
ATOM     61  C   UNL A   1      46.785  31.567  27.415  1.00  0.00     0.031 C 
ATOM     62  C   UNL A   1      42.072  33.740  30.579  1.00  0.00     0.029 A 
ATOM     63  C   UNL A   1      42.911  32.876  29.894  1.00  0.00     0.049 A 
ATOM     64  H   UNL A   1      42.557  30.876  29.309  1.00  0.00     0.167 HD
ATOM     65  C   UNL A   1      44.984  32.304  28.646  1.00  0.00     0.074 A 
ATOM     66  C   UNL A   1      46.344  32.549  28.193  1.00  0.00     0.031 C 
ATOM     67  C   UNL A   1      44.256  33.130  29.433  1.00  0.00     0.034 A 
BRANCH  54  68
ATOM     68  C   UNL A   1      38.582  31.072  30.893  1.00  0.00     0.023 A 
ATOM     69  C   UNL A   1      38.289  30.555  32.170  1.00  0.00     0.012 A 
ATOM     70  C   UNL A   1      37.595  31.754  30.162  1.00  0.00     0.148 A 
ATOM     71  C   UNL A   1      37.009  30.694  32.701  1.00  0.00     0.002 A 
ATOM     72  C   UNL A   1      36.335  31.916  30.711  1.00  0.00     0.091 A 
ATOM     73  F   UNL A   1      37.899  32.185  28.930  1.00  0.00    -0.205 F 
ATOM     74  C   UNL A   1      36.035  31.378  31.975  1.00  0.00     0.022 A 
BRANCH  72  75
ATOM     75  S   UNL A   1      35.027  32.794  29.858  1.00  0.00     0.127 S 
ATOM     76  O   UNL A   1      34.649  31.832  28.825  1.00  0.00    -0.237 OA
ATOM     77  O   UNL A   1      34.042  32.974  30.922  1.00  0.00    -0.237 OA
ATOM     78  O   UNL A   1      35.624  34.028  29.360  1.00  0.00    -0.744 OA
ENDBRANCH  72  75
ENDBRANCH  54  68
BRANCH  55  79
ATOM     79  C   UNL A   1      47.221  28.748  26.514  1.00  0.00     0.023 A 
ATOM     80  C   UNL A   1      48.394  28.876  27.278  1.00  0.00     0.012 A 
ATOM     81  C   UNL A   1      47.305  28.144  25.239  1.00  0.00     0.148 A 
ATOM     82  C   UNL A   1      49.627  28.450  26.776  1.00  0.00     0.002 A 
ATOM     83  C   UNL A   1      48.535  27.698  24.752  1.00  0.00     0.091 A 
ATOM     84  F   UNL A   1      46.186  28.036  24.507  1.00  0.00    -0.205 F 
ATOM     85  C   UNL A   1      49.699  27.859  25.516  1.00  0.00     0.022 A 
BRANCH  83  86
ATOM     86  S   UNL A   1      48.697  26.859  23.168  1.00  0.00     0.127 S 
ATOM     87  O   UNL A   1      50.146  26.734  23.038  1.00  0.00    -0.237 OA
ATOM     88  O   UNL A   1      47.991  25.598  23.408  1.00  0.00    -0.237 OA
ATOM     89  O   UNL A   1      48.038  27.731  22.203  1.00  0.00    -0.744 OA
ENDBRANCH  83  86
ENDBRANCH  55  79
BRANCH  67  90
ATOM     90  C   UNL A   1      44.896  34.435  29.804  1.00  0.00     0.023 A 
ATOM     91  C   UNL A   1      45.666  34.509  30.981  1.00  0.00     0.012 A 
ATOM     92  C   UNL A   1      44.794  35.560  28.964  1.00  0.00     0.148 A 
ATOM     93  C   UNL A   1      46.296  35.697  31.340  1.00  0.00     0.002 A 
ATOM     94  C   UNL A   1      45.471  36.724  29.301  1.00  0.00     0.091 A 
ATOM     95  F   UNL A   1      44.036  35.473  27.861  1.00  0.00    -0.205 F 
ATOM     96  C   UNL A   1      46.210  36.799  30.495  1.00  0.00     0.022 A 
BRANCH  94  97
ATOM     97  S   UNL A   1      45.507  38.163  28.229  1.00  0.00     0.127 S 
ATOM     98  O   UNL A   1      44.115  38.607  28.279  1.00  0.00    -0.237 OA
ATOM     99  O   UNL A   1      46.453  39.038  28.922  1.00  0.00    -0.237 OA
ATOM    100  O   UNL A   1      45.964  37.687  26.931  1.00  0.00    -0.744 OA
ENDBRANCH  94  97
ENDBRANCH  67  90
ENDBRANCH  41  42
ENDBRANCH  34  36
ENDBRANCH  33  34
ENDBRANCH  32  33
ENDBRANCH   1  32
TORSDOF 19
ENDMDL
MODEL 3
REMARK VINA RESULT:     -11.4      1.826      7.628
REMARK SMILES Cc1c[nH]c(C[N@@H+](C)[C@@H](C(=O)OCCOC(=O)c2ccc(-c3c4nc(c(-c5cccc(S(=O)(=O)[O-])c5F)c5ccc([nH]5)c(-c5cccc(S(=O)(=O)[O-])c5F)c5nc(c(-c6cccc(S(=O)(=O)[O-])c6F)c6ccc3[nH]6)C=C5)C=C4)cc2)c2ccc(NC(=O)N3CCCC3)cc2)n1
REMARK SMILES IDX 13 1 12 2 10 3 11 4 9 5 7 6 8 7 6 9 5 10 1 11 2 12 3 13
REMARK SMILES IDX 95 14 4 15 81 17 82 18 94 19 83 20 93 21 84 22 85 23 86 24
REMARK SMILES IDX 87 26 88 27 89 28 92 29 90 30 91 31 14 32 15 33 16 34 17 35
REMARK SMILES IDX 18 36 19 37 80 38 20 39 79 40 21 41 22 42 23 43 73 44 24 45
REMARK SMILES IDX 78 46 72 47 74 48 25 49 77 50 71 51 70 52 26 54 58 55 38 56
REMARK SMILES IDX 57 57 39 58 42 59 56 60 75 61 40 62 41 63 55 65 76 66 43 67
REMARK SMILES IDX 27 68 28 69 36 70 29 71 31 72 37 73 30 74 32 75 33 76 34 77
REMARK SMILES IDX 35 78 59 79 60 80 68 81 61 82 63 83 69 84 62 85 64 86 65 87
REMARK SMILES IDX 66 88 67 89 44 90 45 91 53 92 46 93 48 94 54 95 47 96 49 97
REMARK SMILES IDX 50 98 51 99 52 100
REMARK H PARENT 7 8 4 16 85 25 74 53 42 64
REMARK Flexibility Score: inf
ROOT
ATOM      1  C   UNL A   1      32.104  30.190  26.693  1.00  0.00     0.274 C 
ENDROOT
BRANCH   1   2
ATOM      2  O   UNL A   1      32.721  29.335  25.719  1.00  0.00    -0.457 OA
BRANCH   2   3
ATOM      3  C   UNL A   1      32.188  28.085  25.637  1.00  0.00     0.370 C 
ATOM      4  O   UNL A   1      31.281  27.687  26.365  1.00  0.00    -0.245 OA
BRANCH   3   5
ATOM      5  C   UNL A   1      32.768  27.249  24.463  1.00  0.00     0.326 C 
BRANCH   5   6
ATOM      6  N   UNL A   1      32.217  27.626  23.110  1.00  0.00    -0.316 N 
ATOM      7  C   UNL A   1      33.094  27.012  22.091  1.00  0.00     0.334 C 
ATOM      8  H   UNL A   1      31.254  27.291  23.126  1.00  0.00     0.349 HD
BRANCH   6   9
ATOM      9  C   UNL A   1      32.102  29.066  22.779  1.00  0.00     0.339 C 
BRANCH   9  10
ATOM     10  C   UNL A   1      30.739  29.682  22.643  1.00  0.00     0.161 A 
ATOM     11  C   UNL A   1      27.626  31.145  23.592  1.00  0.00     0.068 C 
ATOM     12  C   UNL A   1      28.789  30.582  22.871  1.00  0.00     0.056 A 
ATOM     13  C   UNL A   1      29.092  30.696  21.534  1.00  0.00     0.107 A 
ATOM     14  N   UNL A   1      29.786  29.891  23.530  1.00  0.00    -0.233 NA
ATOM     15  N   UNL A   1      30.322  30.119  21.398  1.00  0.00    -0.344 N 
ATOM     16  H   UNL A   1      30.827  30.030  20.557  1.00  0.00     0.167 HD
ENDBRANCH   9  10
ENDBRANCH   6   9
ENDBRANCH   5   6
BRANCH   5  17
ATOM     17  C   UNL A   1      33.023  25.793  24.855  1.00  0.00     0.021 A 
ATOM     18  C   UNL A   1      34.119  25.503  25.699  1.00  0.00     0.012 A 
ATOM     19  C   UNL A   1      32.334  24.704  24.303  1.00  0.00     0.012 A 
ATOM     20  C   UNL A   1      34.432  24.207  26.085  1.00  0.00     0.027 A 
ATOM     21  C   UNL A   1      32.619  23.387  24.712  1.00  0.00     0.027 A 
ATOM     22  C   UNL A   1      33.622  23.161  25.670  1.00  0.00     0.042 A 
BRANCH  22  23
ATOM     23  N   UNL A   1      33.471  22.096  26.620  1.00  0.00    -0.308 N 
ATOM     24  C   UNL A   1      34.195  21.025  26.152  1.00  0.00     0.321 C 
ATOM     25  H   UNL A   1      32.946  22.127  27.452  1.00  0.00     0.171 HD
ATOM     26  O   UNL A   1      35.405  21.209  26.022  1.00  0.00    -0.248 OA
ATOM     27  N   UNL A   1      33.541  20.014  25.514  1.00  0.00    -0.325 N 
ATOM     28  C   UNL A   1      34.162  19.445  24.345  1.00  0.00     0.121 C 
ATOM     29  C   UNL A   1      32.658  19.031  26.128  1.00  0.00     0.121 C 
ATOM     30  C   UNL A   1      33.135  18.472  23.827  1.00  0.00     0.023 C 
ATOM     31  C   UNL A   1      32.607  17.870  25.124  1.00  0.00     0.023 C 
ENDBRANCH  22  23
ENDBRANCH   5  17
ENDBRANCH   3   5
ENDBRANCH   2   3
ENDBRANCH   1   2
BRANCH   1  32
ATOM     32  C   UNL A   1      33.131  31.164  27.273  1.00  0.00     0.275 C 
BRANCH  32  33
ATOM     33  O   UNL A   1      32.747  32.535  27.038  1.00  0.00    -0.458 OA
BRANCH  33  34
ATOM     34  C   UNL A   1      33.248  33.441  27.917  1.00  0.00     0.338 C 
ATOM     35  O   UNL A   1      32.782  34.538  28.189  1.00  0.00    -0.246 OA
BRANCH  34  36
ATOM     36  C   UNL A   1      34.423  32.887  28.620  1.00  0.00     0.060 A 
ATOM     37  C   UNL A   1      35.630  32.842  27.929  1.00  0.00     0.016 A 
ATOM     38  C   UNL A   1      34.356  32.342  29.900  1.00  0.00     0.016 A 
ATOM     39  C   UNL A   1      36.759  32.212  28.473  1.00  0.00     0.010 A 
ATOM     40  C   UNL A   1      35.523  31.799  30.482  1.00  0.00     0.010 A 
ATOM     41  C   UNL A   1      36.752  31.752  29.785  1.00  0.00    -0.014 A 
BRANCH  41  42
ATOM     42  C   UNL A   1      37.941  31.116  30.423  1.00  0.00     0.031 A 
ATOM     43  C   UNL A   1      38.381  31.627  31.741  1.00  0.00     0.074 A 
ATOM     44  C   UNL A   1      38.582  29.996  30.022  1.00  0.00     0.049 A 
ATOM     45  N   UNL A   1      39.348  31.167  32.480  1.00  0.00    -0.248 NA
ATOM     46  C   UNL A   1      37.550  32.662  32.372  1.00  0.00     0.031 C 
ATOM     47  C   UNL A   1      37.988  28.892  29.316  1.00  0.00     0.029 A 
ATOM     48  N   UNL A   1      39.881  29.567  30.175  1.00  0.00    -0.354 N 
ATOM     49  C   UNL A   1      39.213  31.802  33.690  1.00  0.00     0.074 A 
ATOM     50  C   UNL A   1      38.101  32.724  33.575  1.00  0.00     0.031 C 
ATOM     51  C   UNL A   1      38.925  28.069  28.826  1.00  0.00     0.029 A 
ATOM     52  C   UNL A   1      40.204  28.535  29.311  1.00  0.00     0.049 A 
ATOM     53  H   UNL A   1      40.511  29.952  30.826  1.00  0.00     0.167 HD
ATOM     54  C   UNL A   1      39.943  31.587  34.801  1.00  0.00     0.034 A 
ATOM     55  C   UNL A   1      41.361  27.911  29.025  1.00  0.00     0.034 A 
ATOM     56  C   UNL A   1      41.069  30.697  34.872  1.00  0.00     0.049 A 
ATOM     57  C   UNL A   1      42.344  27.925  30.148  1.00  0.00     0.074 A 
ATOM     58  C   UNL A   1      41.943  30.521  35.926  1.00  0.00     0.029 A 
ATOM     59  N   UNL A   1      41.504  29.863  33.845  1.00  0.00    -0.354 N 
ATOM     60  N   UNL A   1      42.215  28.531  31.301  1.00  0.00    -0.248 NA
ATOM     61  C   UNL A   1      43.501  27.031  30.054  1.00  0.00     0.031 C 
ATOM     62  C   UNL A   1      42.943  29.631  35.519  1.00  0.00     0.029 A 
ATOM     63  C   UNL A   1      42.670  29.214  34.226  1.00  0.00     0.049 A 
ATOM     64  H   UNL A   1      41.052  29.751  32.977  1.00  0.00     0.167 HD
ATOM     65  C   UNL A   1      43.196  28.010  32.115  1.00  0.00     0.074 A 
ATOM     66  C   UNL A   1      43.941  27.059  31.307  1.00  0.00     0.031 C 
ATOM     67  C   UNL A   1      43.423  28.280  33.422  1.00  0.00     0.034 A 
BRANCH  54  68
ATOM     68  C   UNL A   1      39.573  32.431  35.974  1.00  0.00     0.023 A 
ATOM     69  C   UNL A   1      38.685  31.947  36.954  1.00  0.00     0.012 A 
ATOM     70  C   UNL A   1      40.047  33.751  36.038  1.00  0.00     0.148 A 
ATOM     71  C   UNL A   1      38.251  32.788  37.976  1.00  0.00     0.002 A 
ATOM     72  C   UNL A   1      39.637  34.570  37.076  1.00  0.00     0.091 A 
ATOM     73  F   UNL A   1      40.850  34.187  35.057  1.00  0.00    -0.205 F 
ATOM     74  C   UNL A   1      38.730  34.096  38.040  1.00  0.00     0.022 A 
BRANCH  72  75
ATOM     75  S   UNL A   1      40.213  36.257  37.247  1.00  0.00     0.127 S 
ATOM     76  O   UNL A   1      41.639  36.059  37.497  1.00  0.00    -0.237 OA
ATOM     77  O   UNL A   1      39.891  36.820  35.938  1.00  0.00    -0.237 OA
ATOM     78  O   UNL A   1      39.467  36.830  38.361  1.00  0.00    -0.744 OA
ENDBRANCH  72  75
ENDBRANCH  54  68
BRANCH  55  79
ATOM     79  C   UNL A   1      41.490  27.012  27.839  1.00  0.00     0.023 A 
ATOM     80  C   UNL A   1      41.947  27.503  26.604  1.00  0.00     0.012 A 
ATOM     81  C   UNL A   1      41.165  25.640  27.945  1.00  0.00     0.148 A 
ATOM     82  C   UNL A   1      42.045  26.664  25.490  1.00  0.00     0.002 A 
ATOM     83  C   UNL A   1      41.287  24.802  26.836  1.00  0.00     0.091 A 
ATOM     84  F   UNL A   1      40.714  25.178  29.121  1.00  0.00    -0.205 F 
ATOM     85  C   UNL A   1      41.719  25.314  25.605  1.00  0.00     0.022 A 
BRANCH  83  86
ATOM     86  S   UNL A   1      40.957  23.034  26.924  1.00  0.00     0.127 S 
ATOM     87  O   UNL A   1      39.505  22.989  26.770  1.00  0.00    -0.237 OA
ATOM     88  O   UNL A   1      41.712  22.517  25.781  1.00  0.00    -0.237 OA
ATOM     89  O   UNL A   1      41.479  22.611  28.218  1.00  0.00    -0.744 OA
ENDBRANCH  83  86
ENDBRANCH  55  79
BRANCH  67  90
ATOM     90  C   UNL A   1      44.588  27.580  34.056  1.00  0.00     0.023 A 
ATOM     91  C   UNL A   1      45.868  28.160  33.962  1.00  0.00     0.012 A 
ATOM     92  C   UNL A   1      44.412  26.394  34.794  1.00  0.00     0.148 A 
ATOM     93  C   UNL A   1      46.966  27.552  34.562  1.00  0.00     0.002 A 
ATOM     94  C   UNL A   1      45.501  25.824  35.436  1.00  0.00     0.091 A 
ATOM     95  F   UNL A   1      43.189  25.847  34.849  1.00  0.00    -0.205 F 
ATOM     96  C   UNL A   1      46.781  26.392  35.309  1.00  0.00     0.022 A 
BRANCH  94  97
ATOM     97  S   UNL A   1      45.350  24.390  36.505  1.00  0.00     0.127 S 
ATOM     98  O   UNL A   1      44.440  24.884  37.539  1.00  0.00    -0.237 OA
ATOM     99  O   UNL A   1      44.767  23.396  35.603  1.00  0.00    -0.237 OA
ATOM    100  O   UNL A   1      46.699  24.080  36.957  1.00  0.00    -0.744 OA
ENDBRANCH  94  97
ENDBRANCH  67  90
ENDBRANCH  41  42
ENDBRANCH  34  36
ENDBRANCH  33  34
ENDBRANCH  32  33
ENDBRANCH   1  32
TORSDOF 19
ENDMDL
