MODEL 1
REMARK VINA RESULT:     -12.2      0.000      0.000
REMARK SMILES CN(C)S(=O)(=O)c1cccc(-c2cc(Cl)cc(C(=O)OCCOC(=O)c3ccc(-c4c5nc(c(-c6cccc(S(=O)(=O)[O-])c6F)c6ccc([nH]6)c(-c6cccc(S(=O)(=O)[O-])c6F)c6nc(c(-c7cccc(S(=O)(=O)[O-])c7F)c7ccc4[nH]7)C=C6)C=C5)cc3)c2)c1
REMARK SMILES IDX 21 1 20 2 18 3 19 4 17 5 12 6 13 7 89 8 14 9 15 10 16 11
REMARK SMILES IDX 11 12 7 13 8 14 90 15 9 16 10 17 4 18 5 19 6 20 2 21 1 22
REMARK SMILES IDX 3 23 22 24 23 25 24 26 25 27 26 28 27 29 88 30 28 31 87 32
REMARK SMILES IDX 29 33 30 34 31 35 81 36 32 37 86 38 80 39 82 40 33 41 85 42
REMARK SMILES IDX 79 43 78 44 34 46 66 47 46 48 65 49 47 50 50 51 64 52 83 53
REMARK SMILES IDX 48 54 49 55 63 57 84 58 51 59 35 60 36 61 44 62 37 63 39 64
REMARK SMILES IDX 45 65 38 66 40 67 41 68 42 69 43 70 67 71 68 72 76 73 69 74
REMARK SMILES IDX 71 75 77 76 70 77 72 78 73 79 74 80 75 81 52 82 53 83 61 84
REMARK SMILES IDX 54 85 56 86 62 87 55 88 57 89 58 90 59 91 60 92
REMARK H PARENT 82 45 50 56
REMARK Flexibility Score: inf
ROOT
ATOM      1  C   UNL A   1      31.707  28.448  26.626  1.00  0.00     0.275 C 
ENDROOT
BRANCH   1   2
ATOM      2  O   UNL A   1      32.440  27.407  25.948  1.00  0.00    -0.458 OA
BRANCH   2   3
ATOM      3  C   UNL A   1      31.842  26.187  25.896  1.00  0.00     0.338 C 
ATOM      4  O   UNL A   1      30.886  25.815  26.541  1.00  0.00    -0.246 OA
BRANCH   3   5
ATOM      5  C   UNL A   1      32.464  25.372  24.825  1.00  0.00     0.062 A 
ATOM      6  C   UNL A   1      33.778  23.454  24.108  1.00  0.00    -0.016 A 
ATOM      7  C   UNL A   1      33.655  23.888  22.780  1.00  0.00     0.029 A 
ATOM      8  C   UNL A   1      33.217  24.239  25.131  1.00  0.00     0.024 A 
ATOM      9  C   UNL A   1      32.899  25.018  22.479  1.00  0.00     0.042 A 
ATOM     10  Cl  UNL A   1      32.733  25.525  20.843  1.00  0.00    -0.084 Cl
ATOM     11  C   UNL A   1      32.259  25.727  23.488  1.00  0.00     0.036 A 
BRANCH   6  12
ATOM     12  C   UNL A   1      34.378  22.156  24.426  1.00  0.00    -0.017 A 
ATOM     13  C   UNL A   1      34.106  19.759  24.710  1.00  0.00     0.083 A 
ATOM     14  C   UNL A   1      35.464  19.615  24.988  1.00  0.00     0.022 A 
ATOM     15  C   UNL A   1      33.566  21.012  24.420  1.00  0.00     0.030 A 
ATOM     16  C   UNL A   1      36.282  20.746  24.988  1.00  0.00     0.002 A 
ATOM     17  C   UNL A   1      35.742  22.007  24.711  1.00  0.00     0.009 A 
BRANCH  13  18
ATOM     18  S   UNL A   1      33.015  18.364  24.739  1.00  0.00     0.242 S 
ATOM     19  O   UNL A   1      32.101  18.470  23.620  1.00  0.00    -0.207 OA
ATOM     20  O   UNL A   1      32.529  18.219  26.094  1.00  0.00    -0.207 OA
BRANCH  18  21
ATOM     21  N   UNL A   1      34.077  17.058  24.408  1.00  0.00    -0.204 NA
ATOM     22  C   UNL A   1      33.739  15.837  25.173  1.00  0.00     0.124 C 
ATOM     23  C   UNL A   1      34.280  16.768  22.970  1.00  0.00     0.124 C 
ENDBRANCH  18  21
ENDBRANCH  13  18
ENDBRANCH   6  12
ENDBRANCH   3   5
ENDBRANCH   2   3
ENDBRANCH   1   2
BRANCH   1  24
ATOM     24  C   UNL A   1      31.726  29.736  25.803  1.00  0.00     0.275 C 
BRANCH  24  25
ATOM     25  O   UNL A   1      33.027  30.340  25.892  1.00  0.00    -0.458 OA
BRANCH  25  26
ATOM     26  C   UNL A   1      33.192  31.275  26.856  1.00  0.00     0.338 C 
ATOM     27  O   UNL A   1      32.461  32.215  27.116  1.00  0.00    -0.246 OA
BRANCH  26  28
ATOM     28  C   UNL A   1      34.388  30.934  27.642  1.00  0.00     0.060 A 
ATOM     29  C   UNL A   1      35.262  31.960  27.982  1.00  0.00     0.016 A 
ATOM     30  C   UNL A   1      34.700  29.618  27.967  1.00  0.00     0.016 A 
ATOM     31  C   UNL A   1      36.489  31.683  28.575  1.00  0.00     0.010 A 
ATOM     32  C   UNL A   1      35.882  29.350  28.671  1.00  0.00     0.010 A 
ATOM     33  C   UNL A   1      36.800  30.377  28.968  1.00  0.00    -0.014 A 
BRANCH  33  34
ATOM     34  C   UNL A   1      38.065  30.101  29.711  1.00  0.00     0.031 A 
ATOM     35  C   UNL A   1      39.122  29.204  29.124  1.00  0.00     0.074 A 
ATOM     36  C   UNL A   1      38.257  30.643  30.934  1.00  0.00     0.049 A 
ATOM     37  N   UNL A   1      40.194  28.713  29.689  1.00  0.00    -0.248 NA
ATOM     38  C   UNL A   1      38.945  28.794  27.722  1.00  0.00     0.031 C 
ATOM     39  C   UNL A   1      37.324  31.539  31.622  1.00  0.00     0.029 A 
ATOM     40  N   UNL A   1      39.295  30.506  31.826  1.00  0.00    -0.354 N 
ATOM     41  C   UNL A   1      40.778  27.878  28.744  1.00  0.00     0.074 A 
ATOM     42  C   UNL A   1      39.948  27.941  27.559  1.00  0.00     0.031 C 
ATOM     43  C   UNL A   1      37.835  31.886  32.811  1.00  0.00     0.029 A 
ATOM     44  C   UNL A   1      39.084  31.165  33.017  1.00  0.00     0.049 A 
ATOM     45  H   UNL A   1      40.109  29.988  31.632  1.00  0.00     0.167 HD
ATOM     46  C   UNL A   1      41.904  27.134  28.850  1.00  0.00     0.034 A 
ATOM     47  C   UNL A   1      39.781  31.154  34.170  1.00  0.00     0.034 A 
ATOM     48  C   UNL A   1      42.765  27.129  30.004  1.00  0.00     0.049 A 
ATOM     49  C   UNL A   1      41.022  30.313  34.263  1.00  0.00     0.074 A 
ATOM     50  C   UNL A   1      43.961  26.453  30.181  1.00  0.00     0.029 A 
ATOM     51  N   UNL A   1      42.529  27.834  31.173  1.00  0.00    -0.354 N 
ATOM     52  N   UNL A   1      41.590  29.578  33.338  1.00  0.00    -0.248 NA
ATOM     53  C   UNL A   1      41.721  30.302  35.555  1.00  0.00     0.031 C 
ATOM     54  C   UNL A   1      44.434  26.731  31.467  1.00  0.00     0.029 A 
ATOM     55  C   UNL A   1      43.546  27.597  32.083  1.00  0.00     0.049 A 
ATOM     56  H   UNL A   1      41.753  28.418  31.334  1.00  0.00     0.167 HD
ATOM     57  C   UNL A   1      42.717  29.024  33.932  1.00  0.00     0.074 A 
ATOM     58  C   UNL A   1      42.772  29.540  35.285  1.00  0.00     0.031 C 
ATOM     59  C   UNL A   1      43.611  28.149  33.413  1.00  0.00     0.034 A 
BRANCH  46  60
ATOM     60  C   UNL A   1      42.290  26.265  27.680  1.00  0.00     0.023 A 
ATOM     61  C   UNL A   1      43.168  26.759  26.696  1.00  0.00     0.012 A 
ATOM     62  C   UNL A   1      41.839  24.932  27.598  1.00  0.00     0.148 A 
ATOM     63  C   UNL A   1      43.570  25.950  25.632  1.00  0.00     0.002 A 
ATOM     64  C   UNL A   1      42.277  24.119  26.558  1.00  0.00     0.091 A 
ATOM     65  F   UNL A   1      40.989  24.485  28.533  1.00  0.00    -0.205 F 
ATOM     66  C   UNL A   1      43.134  24.629  25.571  1.00  0.00     0.022 A 
BRANCH  64  67
ATOM     67  S   UNL A   1      41.832  22.383  26.432  1.00  0.00     0.127 S 
ATOM     68  O   UNL A   1      42.467  22.006  25.169  1.00  0.00    -0.237 OA
ATOM     69  O   UNL A   1      42.464  21.815  27.624  1.00  0.00    -0.237 OA
ATOM     70  O   UNL A   1      40.377  22.338  26.437  1.00  0.00    -0.744 OA
ENDBRANCH  64  67
ENDBRANCH  46  60
BRANCH  47  71
ATOM     71  C   UNL A   1      39.306  31.956  35.333  1.00  0.00     0.023 A 
ATOM     72  C   UNL A   1      38.470  31.358  36.295  1.00  0.00     0.012 A 
ATOM     73  C   UNL A   1      39.711  33.294  35.515  1.00  0.00     0.148 A 
ATOM     74  C   UNL A   1      38.033  32.082  37.405  1.00  0.00     0.002 A 
ATOM     75  C   UNL A   1      39.326  33.988  36.656  1.00  0.00     0.091 A 
ATOM     76  F   UNL A   1      40.485  33.858  34.576  1.00  0.00    -0.205 F 
ATOM     77  C   UNL A   1      38.473  33.390  37.595  1.00  0.00     0.022 A 
BRANCH  75  78
ATOM     78  S   UNL A   1      39.973  35.618  37.046  1.00  0.00     0.127 S 
ATOM     79  O   UNL A   1      39.244  35.946  38.268  1.00  0.00    -0.237 OA
ATOM     80  O   UNL A   1      41.399  35.344  37.235  1.00  0.00    -0.237 OA
ATOM     81  O   UNL A   1      39.674  36.444  35.884  1.00  0.00    -0.744 OA
ENDBRANCH  75  78
ENDBRANCH  47  71
BRANCH  59  82
ATOM     82  C   UNL A   1      44.735  27.696  34.307  1.00  0.00     0.023 A 
ATOM     83  C   UNL A   1      45.924  28.450  34.363  1.00  0.00     0.012 A 
ATOM     84  C   UNL A   1      44.593  26.565  35.133  1.00  0.00     0.148 A 
ATOM     85  C   UNL A   1      46.966  28.069  35.206  1.00  0.00     0.002 A 
ATOM     86  C   UNL A   1      45.617  26.218  36.005  1.00  0.00     0.091 A 
ATOM     87  F   UNL A   1      43.461  25.851  35.051  1.00  0.00    -0.205 F 
ATOM     88  C   UNL A   1      46.809  26.961  36.034  1.00  0.00     0.022 A 
BRANCH  86  89
ATOM     89  S   UNL A   1      45.471  24.859  37.172  1.00  0.00     0.127 S 
ATOM     90  O   UNL A   1      44.412  25.340  38.057  1.00  0.00    -0.237 OA
ATOM     91  O   UNL A   1      45.083  23.746  36.304  1.00  0.00    -0.237 OA
ATOM     92  O   UNL A   1      46.782  24.716  37.788  1.00  0.00    -0.744 OA
ENDBRANCH  86  89
ENDBRANCH  59  82
ENDBRANCH  33  34
ENDBRANCH  26  28
ENDBRANCH  25  26
ENDBRANCH  24  25
ENDBRANCH   1  24
TORSDOF 17
ENDMDL
MODEL 2
REMARK VINA RESULT:     -12.1      5.588     10.510
REMARK SMILES CN(C)S(=O)(=O)c1cccc(-c2cc(Cl)cc(C(=O)OCCOC(=O)c3ccc(-c4c5nc(c(-c6cccc(S(=O)(=O)[O-])c6F)c6ccc([nH]6)c(-c6cccc(S(=O)(=O)[O-])c6F)c6nc(c(-c7cccc(S(=O)(=O)[O-])c7F)c7ccc4[nH]7)C=C6)C=C5)cc3)c2)c1
REMARK SMILES IDX 21 1 20 2 18 3 19 4 17 5 12 6 13 7 89 8 14 9 15 10 16 11
REMARK SMILES IDX 11 12 7 13 8 14 90 15 9 16 10 17 4 18 5 19 6 20 2 21 1 22
REMARK SMILES IDX 3 23 22 24 23 25 24 26 25 27 26 28 27 29 88 30 28 31 87 32
REMARK SMILES IDX 29 33 30 34 31 35 81 36 32 37 86 38 80 39 82 40 33 41 85 42
REMARK SMILES IDX 79 43 78 44 34 46 66 47 46 48 65 49 47 50 50 51 64 52 83 53
REMARK SMILES IDX 48 54 49 55 63 57 84 58 51 59 35 60 36 61 44 62 37 63 39 64
REMARK SMILES IDX 45 65 38 66 40 67 41 68 42 69 43 70 67 71 68 72 76 73 69 74
REMARK SMILES IDX 71 75 77 76 70 77 72 78 73 79 74 80 75 81 52 82 53 83 61 84
REMARK SMILES IDX 54 85 56 86 62 87 55 88 57 89 58 90 59 91 60 92
REMARK H PARENT 82 45 50 56
REMARK Flexibility Score: inf
ROOT
ATOM      1  C   UNL A   1      34.708  21.128  25.182  1.00  0.00     0.275 C 
ENDROOT
BRANCH   1   2
ATOM      2  O   UNL A   1      34.509  22.544  24.993  1.00  0.00    -0.458 OA
BRANCH   2   3
ATOM      3  C   UNL A   1      33.537  22.902  24.112  1.00  0.00     0.338 C 
ATOM      4  O   UNL A   1      33.446  22.570  22.950  1.00  0.00    -0.246 OA
BRANCH   3   5
ATOM      5  C   UNL A   1      32.497  23.695  24.812  1.00  0.00     0.062 A 
ATOM      6  C   UNL A   1      31.484  25.830  25.386  1.00  0.00    -0.016 A 
ATOM      7  C   UNL A   1      30.547  25.152  26.179  1.00  0.00     0.029 A 
ATOM      8  C   UNL A   1      32.492  25.088  24.746  1.00  0.00     0.024 A 
ATOM      9  C   UNL A   1      30.554  23.762  26.240  1.00  0.00     0.042 A 
ATOM     10  Cl  UNL A   1      29.382  22.940  27.194  1.00  0.00    -0.084 Cl
ATOM     11  C   UNL A   1      31.489  23.030  25.516  1.00  0.00     0.036 A 
BRANCH   6  12
ATOM     12  C   UNL A   1      31.360  27.268  25.134  1.00  0.00    -0.017 A 
ATOM     13  C   UNL A   1      30.308  29.073  23.894  1.00  0.00     0.083 A 
ATOM     14  C   UNL A   1      31.034  30.020  24.613  1.00  0.00     0.022 A 
ATOM     15  C   UNL A   1      30.457  27.711  24.155  1.00  0.00     0.030 A 
ATOM     16  C   UNL A   1      31.929  29.590  25.595  1.00  0.00     0.002 A 
ATOM     17  C   UNL A   1      32.092  28.225  25.851  1.00  0.00     0.009 A 
BRANCH  13  18
ATOM     18  S   UNL A   1      29.192  29.561  22.609  1.00  0.00     0.242 S 
ATOM     19  O   UNL A   1      28.017  28.716  22.672  1.00  0.00    -0.207 OA
ATOM     20  O   UNL A   1      29.959  29.688  21.390  1.00  0.00    -0.207 OA
BRANCH  18  21
ATOM     21  N   UNL A   1      28.717  31.132  23.109  1.00  0.00    -0.204 NA
ATOM     22  C   UNL A   1      28.826  32.135  22.028  1.00  0.00     0.124 C 
ATOM     23  C   UNL A   1      27.405  31.200  23.791  1.00  0.00     0.124 C 
ENDBRANCH  18  21
ENDBRANCH  13  18
ENDBRANCH   6  12
ENDBRANCH   3   5
ENDBRANCH   2   3
ENDBRANCH   1   2
BRANCH   1  24
ATOM     24  C   UNL A   1      36.169  20.757  24.931  1.00  0.00     0.275 C 
BRANCH  24  25
ATOM     25  O   UNL A   1      37.004  21.427  25.890  1.00  0.00    -0.458 OA
BRANCH  25  26
ATOM     26  C   UNL A   1      38.330  21.173  25.816  1.00  0.00     0.338 C 
ATOM     27  O   UNL A   1      38.873  20.152  25.430  1.00  0.00    -0.246 OA
BRANCH  26  28
ATOM     28  C   UNL A   1      39.065  22.388  26.201  1.00  0.00     0.060 A 
ATOM     29  C   UNL A   1      40.241  22.240  26.926  1.00  0.00     0.016 A 
ATOM     30  C   UNL A   1      38.567  23.660  25.936  1.00  0.00     0.016 A 
ATOM     31  C   UNL A   1      40.890  23.345  27.464  1.00  0.00     0.010 A 
ATOM     32  C   UNL A   1      39.285  24.781  26.377  1.00  0.00     0.010 A 
ATOM     33  C   UNL A   1      40.447  24.637  27.161  1.00  0.00    -0.014 A 
BRANCH  33  34
ATOM     34  C   UNL A   1      41.215  25.823  27.640  1.00  0.00     0.031 A 
ATOM     35  C   UNL A   1      40.557  26.868  28.502  1.00  0.00     0.074 A 
ATOM     36  C   UNL A   1      42.509  25.975  27.281  1.00  0.00     0.049 A 
ATOM     37  N   UNL A   1      41.008  28.042  28.863  1.00  0.00    -0.248 NA
ATOM     38  C   UNL A   1      39.212  26.562  29.012  1.00  0.00     0.031 C 
ATOM     39  C   UNL A   1      43.278  25.036  26.460  1.00  0.00     0.029 A 
ATOM     40  N   UNL A   1      43.404  26.985  27.547  1.00  0.00    -0.354 N 
ATOM     41  C   UNL A   1      39.979  28.644  29.576  1.00  0.00     0.074 A 
ATOM     42  C   UNL A   1      38.883  27.699  29.610  1.00  0.00     0.031 C 
ATOM     43  C   UNL A   1      44.526  25.500  26.305  1.00  0.00     0.029 A 
ATOM     44  C   UNL A   1      44.624  26.812  26.931  1.00  0.00     0.049 A 
ATOM     45  H   UNL A   1      43.193  27.756  28.121  1.00  0.00     0.167 HD
ATOM     46  C   UNL A   1      39.951  29.869  30.155  1.00  0.00     0.034 A 
ATOM     47  C   UNL A   1      45.687  27.632  26.828  1.00  0.00     0.034 A 
ATOM     48  C   UNL A   1      41.068  30.776  30.180  1.00  0.00     0.049 A 
ATOM     49  C   UNL A   1      45.627  28.988  27.472  1.00  0.00     0.074 A 
ATOM     50  C   UNL A   1      41.155  32.015  30.794  1.00  0.00     0.029 A 
ATOM     51  N   UNL A   1      42.292  30.547  29.571  1.00  0.00    -0.354 N 
ATOM     52  N   UNL A   1      44.667  29.515  28.193  1.00  0.00    -0.248 NA
ATOM     53  C   UNL A   1      46.795  29.860  27.293  1.00  0.00     0.031 C 
ATOM     54  C   UNL A   1      42.423  32.544  30.535  1.00  0.00     0.029 A 
ATOM     55  C   UNL A   1      43.135  31.627  29.779  1.00  0.00     0.049 A 
ATOM     56  H   UNL A   1      42.528  29.736  29.065  1.00  0.00     0.167 HD
ATOM     57  C   UNL A   1      45.118  30.776  28.561  1.00  0.00     0.074 A 
ATOM     58  C   UNL A   1      46.454  30.918  28.017  1.00  0.00     0.031 C 
ATOM     59  C   UNL A   1      44.476  31.739  29.266  1.00  0.00     0.034 A 
BRANCH  46  60
ATOM     60  C   UNL A   1      38.675  30.304  30.829  1.00  0.00     0.023 A 
ATOM     61  C   UNL A   1      38.484  30.055  32.202  1.00  0.00     0.012 A 
ATOM     62  C   UNL A   1      37.698  31.026  30.114  1.00  0.00     0.148 A 
ATOM     63  C   UNL A   1      37.328  30.493  32.849  1.00  0.00     0.002 A 
ATOM     64  C   UNL A   1      36.568  31.495  30.775  1.00  0.00     0.091 A 
ATOM     65  F   UNL A   1      37.888  31.236  28.804  1.00  0.00    -0.205 F 
ATOM     66  C   UNL A   1      36.377  31.221  32.138  1.00  0.00     0.022 A 
BRANCH  64  67
ATOM     67  S   UNL A   1      35.322  32.507  29.966  1.00  0.00     0.127 S 
ATOM     68  O   UNL A   1      34.831  31.599  28.930  1.00  0.00    -0.237 OA
ATOM     69  O   UNL A   1      34.376  32.759  31.052  1.00  0.00    -0.237 OA
ATOM     70  O   UNL A   1      36.018  33.690  29.480  1.00  0.00    -0.744 OA
ENDBRANCH  64  67
ENDBRANCH  46  60
BRANCH  47  71
ATOM     71  C   UNL A   1      46.893  27.194  26.068  1.00  0.00     0.023 A 
ATOM     72  C   UNL A   1      47.786  26.275  26.650  1.00  0.00     0.012 A 
ATOM     73  C   UNL A   1      47.137  27.648  24.756  1.00  0.00     0.148 A 
ATOM     74  C   UNL A   1      48.907  25.831  25.948  1.00  0.00     0.002 A 
ATOM     75  C   UNL A   1      48.217  27.152  24.038  1.00  0.00     0.091 A 
ATOM     76  F   UNL A   1      46.292  28.545  24.225  1.00  0.00    -0.205 F 
ATOM     77  C   UNL A   1      49.115  26.256  24.637  1.00  0.00     0.022 A 
BRANCH  75  78
ATOM     78  S   UNL A   1      48.466  27.532  22.300  1.00  0.00     0.127 S 
ATOM     79  O   UNL A   1      49.633  28.408  22.347  1.00  0.00    -0.237 OA
ATOM     80  O   UNL A   1      48.712  26.207  21.729  1.00  0.00    -0.237 OA
ATOM     81  O   UNL A   1      47.224  28.150  21.856  1.00  0.00    -0.744 OA
ENDBRANCH  75  78
ENDBRANCH  47  71
BRANCH  59  82
ATOM     82  C   UNL A   1      45.211  33.033  29.498  1.00  0.00     0.023 A 
ATOM     83  C   UNL A   1      46.009  33.180  30.649  1.00  0.00     0.012 A 
ATOM     84  C   UNL A   1      45.162  34.073  28.551  1.00  0.00     0.148 A 
ATOM     85  C   UNL A   1      46.723  34.356  30.870  1.00  0.00     0.002 A 
ATOM     86  C   UNL A   1      45.912  35.224  28.755  1.00  0.00     0.091 A 
ATOM     87  F   UNL A   1      44.382  33.920  27.471  1.00  0.00    -0.205 F 
ATOM     88  C   UNL A   1      46.684  35.373  29.920  1.00  0.00     0.022 A 
BRANCH  86  89
ATOM     89  S   UNL A   1      45.995  36.550  27.545  1.00  0.00     0.127 S 
ATOM     90  O   UNL A   1      46.298  35.814  26.318  1.00  0.00    -0.237 OA
ATOM     91  O   UNL A   1      44.643  37.107  27.603  1.00  0.00    -0.237 OA
ATOM     92  O   UNL A   1      47.041  37.451  28.006  1.00  0.00    -0.744 OA
ENDBRANCH  86  89
ENDBRANCH  59  82
ENDBRANCH  33  34
ENDBRANCH  26  28
ENDBRANCH  25  26
ENDBRANCH  24  25
ENDBRANCH   1  24
TORSDOF 17
ENDMDL
MODEL 3
REMARK VINA RESULT:     -11.7      1.452      1.698
REMARK SMILES CN(C)S(=O)(=O)c1cccc(-c2cc(Cl)cc(C(=O)OCCOC(=O)c3ccc(-c4c5nc(c(-c6cccc(S(=O)(=O)[O-])c6F)c6ccc([nH]6)c(-c6cccc(S(=O)(=O)[O-])c6F)c6nc(c(-c7cccc(S(=O)(=O)[O-])c7F)c7ccc4[nH]7)C=C6)C=C5)cc3)c2)c1
REMARK SMILES IDX 21 1 20 2 18 3 19 4 17 5 12 6 13 7 89 8 14 9 15 10 16 11
REMARK SMILES IDX 11 12 7 13 8 14 90 15 9 16 10 17 4 18 5 19 6 20 2 21 1 22
REMARK SMILES IDX 3 23 22 24 23 25 24 26 25 27 26 28 27 29 88 30 28 31 87 32
REMARK SMILES IDX 29 33 30 34 31 35 81 36 32 37 86 38 80 39 82 40 33 41 85 42
REMARK SMILES IDX 79 43 78 44 34 46 66 47 46 48 65 49 47 50 50 51 64 52 83 53
REMARK SMILES IDX 48 54 49 55 63 57 84 58 51 59 35 60 36 61 44 62 37 63 39 64
REMARK SMILES IDX 45 65 38 66 40 67 41 68 42 69 43 70 67 71 68 72 76 73 69 74
REMARK SMILES IDX 71 75 77 76 70 77 72 78 73 79 74 80 75 81 52 82 53 83 61 84
REMARK SMILES IDX 54 85 56 86 62 87 55 88 57 89 58 90 59 91 60 92
REMARK H PARENT 82 45 50 56
REMARK Flexibility Score: inf
ROOT
ATOM      1  C   UNL A   1      31.659  28.561  26.646  1.00  0.00     0.275 C 
ENDROOT
BRANCH   1   2
ATOM      2  O   UNL A   1      32.145  27.621  25.666  1.00  0.00    -0.458 OA
BRANCH   2   3
ATOM      3  C   UNL A   1      31.871  26.310  25.902  1.00  0.00     0.338 C 
ATOM      4  O   UNL A   1      31.189  25.857  26.795  1.00  0.00    -0.246 OA
BRANCH   3   5
ATOM      5  C   UNL A   1      32.446  25.478  24.818  1.00  0.00     0.062 A 
ATOM      6  C   UNL A   1      33.702  23.532  24.074  1.00  0.00    -0.016 A 
ATOM      7  C   UNL A   1      33.547  23.961  22.747  1.00  0.00     0.029 A 
ATOM      8  C   UNL A   1      33.187  24.333  25.109  1.00  0.00     0.024 A 
ATOM      9  C   UNL A   1      32.803  25.103  22.462  1.00  0.00     0.042 A 
ATOM     10  Cl  UNL A   1      32.597  25.603  20.829  1.00  0.00    -0.084 Cl
ATOM     11  C   UNL A   1      32.207  25.829  23.486  1.00  0.00     0.036 A 
BRANCH   6  12
ATOM     12  C   UNL A   1      34.288  22.225  24.381  1.00  0.00    -0.017 A 
ATOM     13  C   UNL A   1      34.010  19.819  24.562  1.00  0.00     0.083 A 
ATOM     14  C   UNL A   1      35.349  19.668  24.918  1.00  0.00     0.022 A 
ATOM     15  C   UNL A   1      33.483  21.080  24.285  1.00  0.00     0.030 A 
ATOM     16  C   UNL A   1      36.160  20.800  25.009  1.00  0.00     0.002 A 
ATOM     17  C   UNL A   1      35.632  22.069  24.744  1.00  0.00     0.009 A 
BRANCH  13  18
ATOM     18  S   UNL A   1      32.926  18.421  24.474  1.00  0.00     0.242 S 
ATOM     19  O   UNL A   1      32.216  18.466  23.212  1.00  0.00    -0.207 OA
ATOM     20  O   UNL A   1      32.216  18.340  25.731  1.00  0.00    -0.207 OA
BRANCH  18  21
ATOM     21  N   UNL A   1      34.025  17.106  24.394  1.00  0.00    -0.204 NA
ATOM     22  C   UNL A   1      33.673  16.008  25.322  1.00  0.00     0.124 C 
ATOM     23  C   UNL A   1      34.300  16.604  23.029  1.00  0.00     0.124 C 
ENDBRANCH  18  21
ENDBRANCH  13  18
ENDBRANCH   6  12
ENDBRANCH   3   5
ENDBRANCH   2   3
ENDBRANCH   1   2
BRANCH   1  24
ATOM     24  C   UNL A   1      31.609  29.970  26.055  1.00  0.00     0.275 C 
BRANCH  24  25
ATOM     25  O   UNL A   1      32.937  30.520  26.020  1.00  0.00    -0.458 OA
BRANCH  25  26
ATOM     26  C   UNL A   1      33.194  31.527  26.886  1.00  0.00     0.338 C 
ATOM     27  O   UNL A   1      32.519  32.520  27.096  1.00  0.00    -0.246 OA
BRANCH  26  28
ATOM     28  C   UNL A   1      34.416  31.201  27.638  1.00  0.00     0.060 A 
ATOM     29  C   UNL A   1      35.319  32.226  27.895  1.00  0.00     0.016 A 
ATOM     30  C   UNL A   1      34.720  29.896  28.011  1.00  0.00     0.016 A 
ATOM     31  C   UNL A   1      36.564  31.954  28.450  1.00  0.00     0.010 A 
ATOM     32  C   UNL A   1      35.926  29.639  28.679  1.00  0.00     0.010 A 
ATOM     33  C   UNL A   1      36.871  30.662  28.890  1.00  0.00    -0.014 A 
BRANCH  33  34
ATOM     34  C   UNL A   1      38.161  30.399  29.594  1.00  0.00     0.031 A 
ATOM     35  C   UNL A   1      39.203  29.504  28.978  1.00  0.00     0.074 A 
ATOM     36  C   UNL A   1      38.389  30.949  30.807  1.00  0.00     0.049 A 
ATOM     37  N   UNL A   1      40.296  29.022  29.512  1.00  0.00    -0.248 NA
ATOM     38  C   UNL A   1      38.983  29.083  27.585  1.00  0.00     0.031 C 
ATOM     39  C   UNL A   1      37.473  31.844  31.518  1.00  0.00     0.029 A 
ATOM     40  N   UNL A   1      39.456  30.824  31.666  1.00  0.00    -0.354 N 
ATOM     41  C   UNL A   1      40.854  28.185  28.553  1.00  0.00     0.074 A 
ATOM     42  C   UNL A   1      39.985  28.235  27.396  1.00  0.00     0.031 C 
ATOM     43  C   UNL A   1      38.021  32.202  32.689  1.00  0.00     0.029 A 
ATOM     44  C   UNL A   1      39.280  31.489  32.858  1.00  0.00     0.049 A 
ATOM     45  H   UNL A   1      40.266  30.309  31.448  1.00  0.00     0.167 HD
ATOM     46  C   UNL A   1      41.987  27.447  28.627  1.00  0.00     0.034 A 
ATOM     47  C   UNL A   1      40.015  31.489  33.988  1.00  0.00     0.034 A 
ATOM     48  C   UNL A   1      42.885  27.455  29.752  1.00  0.00     0.049 A 
ATOM     49  C   UNL A   1      41.262  30.655  34.046  1.00  0.00     0.074 A 
ATOM     50  C   UNL A   1      44.090  26.786  29.895  1.00  0.00     0.029 A 
ATOM     51  N   UNL A   1      42.683  28.166  30.925  1.00  0.00    -0.354 N 
ATOM     52  N   UNL A   1      41.804  29.918  33.108  1.00  0.00    -0.248 NA
ATOM     53  C   UNL A   1      42.003  30.657  35.315  1.00  0.00     0.031 C 
ATOM     54  C   UNL A   1      44.603  27.075  31.164  1.00  0.00     0.029 A 
ATOM     55  C   UNL A   1      43.730  27.941  31.803  1.00  0.00     0.049 A 
ATOM     56  H   UNL A   1      41.909  28.747  31.107  1.00  0.00     0.167 HD
ATOM     57  C   UNL A   1      42.953  29.374  33.668  1.00  0.00     0.074 A 
ATOM     58  C   UNL A   1      43.049  29.899  35.016  1.00  0.00     0.031 C 
ATOM     59  C   UNL A   1      43.835  28.501  33.126  1.00  0.00     0.034 A 
BRANCH  46  60
ATOM     60  C   UNL A   1      42.340  26.573  27.451  1.00  0.00     0.023 A 
ATOM     61  C   UNL A   1      43.110  27.094  26.393  1.00  0.00     0.012 A 
ATOM     62  C   UNL A   1      41.970  25.213  27.432  1.00  0.00     0.148 A 
ATOM     63  C   UNL A   1      43.483  26.283  25.320  1.00  0.00     0.002 A 
ATOM     64  C   UNL A   1      42.380  24.401  26.380  1.00  0.00     0.091 A 
ATOM     65  F   UNL A   1      41.220  24.740  28.438  1.00  0.00    -0.205 F 
ATOM     66  C   UNL A   1      43.128  24.937  25.320  1.00  0.00     0.022 A 
BRANCH  64  67
ATOM     67  S   UNL A   1      42.038  22.638  26.326  1.00  0.00     0.127 S 
ATOM     68  O   UNL A   1      42.679  22.251  25.070  1.00  0.00    -0.237 OA
ATOM     69  O   UNL A   1      42.715  22.155  27.529  1.00  0.00    -0.237 OA
ATOM     70  O   UNL A   1      40.588  22.509  26.351  1.00  0.00    -0.744 OA
ENDBRANCH  64  67
ENDBRANCH  46  60
BRANCH  47  71
ATOM     71  C   UNL A   1      39.572  32.296  35.161  1.00  0.00     0.023 A 
ATOM     72  C   UNL A   1      38.738  31.711  36.133  1.00  0.00     0.012 A 
ATOM     73  C   UNL A   1      40.007  33.625  35.342  1.00  0.00     0.148 A 
ATOM     74  C   UNL A   1      38.332  32.439  37.252  1.00  0.00     0.002 A 
ATOM     75  C   UNL A   1      39.653  34.321  36.491  1.00  0.00     0.091 A 
ATOM     76  F   UNL A   1      40.778  34.177  34.394  1.00  0.00    -0.205 F 
ATOM     77  C   UNL A   1      38.801  33.737  37.440  1.00  0.00     0.022 A 
BRANCH  75  78
ATOM     78  S   UNL A   1      40.339  35.937  36.878  1.00  0.00     0.127 S 
ATOM     79  O   UNL A   1      41.772  35.695  36.742  1.00  0.00    -0.237 OA
ATOM     80  O   UNL A   1      39.753  36.776  35.832  1.00  0.00    -0.237 OA
ATOM     81  O   UNL A   1      39.869  36.246  38.222  1.00  0.00    -0.744 OA
ENDBRANCH  75  78
ENDBRANCH  47  71
BRANCH  59  82
ATOM     82  C   UNL A   1      44.990  28.060  33.986  1.00  0.00     0.023 A 
ATOM     83  C   UNL A   1      44.864  26.899  34.774  1.00  0.00     0.012 A 
ATOM     84  C   UNL A   1      46.214  28.754  33.967  1.00  0.00     0.148 A 
ATOM     85  C   UNL A   1      45.929  26.453  35.554  1.00  0.00     0.002 A 
ATOM     86  C   UNL A   1      47.286  28.278  34.711  1.00  0.00     0.091 A 
ATOM     87  F   UNL A   1      46.307  29.867  33.224  1.00  0.00    -0.205 F 
ATOM     88  C   UNL A   1      47.142  27.135  35.515  1.00  0.00     0.022 A 
BRANCH  86  89
ATOM     89  S   UNL A   1      48.913  29.039  34.654  1.00  0.00     0.127 S 
ATOM     90  O   UNL A   1      49.734  28.036  35.330  1.00  0.00    -0.237 OA
ATOM     91  O   UNL A   1      49.152  29.153  33.214  1.00  0.00    -0.237 OA
ATOM     92  O   UNL A   1      48.786  30.312  35.348  1.00  0.00    -0.744 OA
ENDBRANCH  86  89
ENDBRANCH  59  82
ENDBRANCH  33  34
ENDBRANCH  26  28
ENDBRANCH  25  26
ENDBRANCH  24  25
ENDBRANCH   1  24
TORSDOF 17
ENDMDL
