MODEL 1
REMARK VINA RESULT:     -10.9      0.000      0.000
REMARK SMILES C[C@H]1[C@H](C(=O)OCCOC(=O)c2ccc(-c3c4nc(c(-c5cccc(S(=O)(=O)[O-])c5F)c5ccc([nH]5)c(-c5cccc(S(=O)(=O)[O-])c5F)c5nc(c(-c6cccc(S(=O)(=O)[O-])c6F)c6ccc3[nH]6)C=C5)C=C4)cc2)CCN1C(=O)CC[NH2+]C1CC1
REMARK SMILES IDX 7 1 6 2 4 3 5 4 3 5 1 6 2 7 77 8 75 9 76 10 78 11 79 12
REMARK SMILES IDX 80 13 81 14 82 15 83 18 84 19 85 20 8 21 9 22 10 23 11 24
REMARK SMILES IDX 12 25 13 26 74 27 14 28 73 29 15 30 16 31 17 32 67 33 18 34
REMARK SMILES IDX 72 35 66 36 68 37 19 38 71 39 65 40 64 41 20 43 52 44 32 45
REMARK SMILES IDX 51 46 33 47 36 48 50 49 69 50 34 51 35 52 49 54 70 55 37 56
REMARK SMILES IDX 21 57 22 58 30 59 23 60 25 61 31 62 24 63 26 64 27 65 28 66
REMARK SMILES IDX 29 67 53 68 54 69 62 70 55 71 57 72 63 73 56 74 58 75 59 76
REMARK SMILES IDX 60 77 61 78 38 79 39 80 47 81 40 82 42 83 48 84 41 85 43 86
REMARK SMILES IDX 44 87 45 88 46 89
REMARK H PARENT 82 16 82 17 68 42 36 53
REMARK Flexibility Score: inf
ROOT
ATOM      1  C   UNL A   1      35.510  22.069  26.008  1.00  0.00     0.274 C 
ENDROOT
BRANCH   1   2
ATOM      2  O   UNL A   1      34.162  22.040  25.493  1.00  0.00    -0.462 OA
BRANCH   2   3
ATOM      3  C   UNL A   1      33.407  23.141  25.733  1.00  0.00     0.311 C 
ATOM      4  O   UNL A   1      32.849  23.386  26.796  1.00  0.00    -0.252 OA
BRANCH   3   5
ATOM      5  C   UNL A   1      33.256  24.046  24.530  1.00  0.00     0.123 C 
ATOM      6  C   UNL A   1      31.138  24.213  23.175  1.00  0.00     0.032 C 
ATOM      7  C   UNL A   1      31.892  24.753  24.394  1.00  0.00     0.096 C 
ATOM      8  N   UNL A   1      32.220  26.167  24.185  1.00  0.00    -0.339 N 
ATOM      9  C   UNL A   1      34.295  25.169  24.528  1.00  0.00     0.039 C 
ATOM     10  C   UNL A   1      33.605  26.301  23.786  1.00  0.00     0.121 C 
BRANCH   8  11
ATOM     11  C   UNL A   1      31.396  27.265  24.317  1.00  0.00     0.228 C 
ATOM     12  O   UNL A   1      30.334  27.204  24.941  1.00  0.00    -0.275 OA
BRANCH  11  13
ATOM     13  C   UNL A   1      31.799  28.567  23.638  1.00  0.00     0.161 C 
BRANCH  13  14
ATOM     14  C   UNL A   1      30.669  29.175  22.806  1.00  0.00     0.270 C 
BRANCH  14  15
ATOM     15  N   UNL A   1      29.889  30.136  23.594  1.00  0.00    -0.343 N 
ATOM     16  H   UNL A   1      30.504  30.906  23.857  1.00  0.00     0.346 HD
ATOM     17  H   UNL A   1      29.526  29.624  24.399  1.00  0.00     0.346 HD
BRANCH  15  18
ATOM     18  C   UNL A   1      28.728  30.695  22.896  1.00  0.00     0.182 C 
ATOM     19  C   UNL A   1      27.601  31.382  23.618  1.00  0.00     0.071 C 
ATOM     20  C   UNL A   1      28.587  32.197  22.838  1.00  0.00     0.071 C 
ENDBRANCH  15  18
ENDBRANCH  14  15
ENDBRANCH  13  14
ENDBRANCH  11  13
ENDBRANCH   8  11
ENDBRANCH   3   5
ENDBRANCH   2   3
ENDBRANCH   1   2
BRANCH   1  21
ATOM     21  C   UNL A   1      36.417  21.070  25.281  1.00  0.00     0.275 C 
BRANCH  21  22
ATOM     22  O   UNL A   1      37.695  21.642  24.956  1.00  0.00    -0.458 OA
BRANCH  22  23
ATOM     23  C   UNL A   1      38.716  21.245  25.747  1.00  0.00     0.338 C 
ATOM     24  O   UNL A   1      39.164  20.116  25.869  1.00  0.00    -0.246 OA
BRANCH  23  25
ATOM     25  C   UNL A   1      39.328  22.407  26.401  1.00  0.00     0.060 A 
ATOM     26  C   UNL A   1      38.859  23.679  26.066  1.00  0.00     0.016 A 
ATOM     27  C   UNL A   1      40.434  22.250  27.234  1.00  0.00     0.016 A 
ATOM     28  C   UNL A   1      39.536  24.810  26.508  1.00  0.00     0.010 A 
ATOM     29  C   UNL A   1      41.084  23.388  27.717  1.00  0.00     0.010 A 
ATOM     30  C   UNL A   1      40.655  24.673  27.338  1.00  0.00    -0.014 A 
BRANCH  30  31
ATOM     31  C   UNL A   1      41.388  25.867  27.820  1.00  0.00     0.031 A 
ATOM     32  C   UNL A   1      40.669  26.916  28.618  1.00  0.00     0.074 A 
ATOM     33  C   UNL A   1      42.681  26.030  27.484  1.00  0.00     0.049 A 
ATOM     34  N   UNL A   1      41.077  28.105  28.973  1.00  0.00    -0.248 NA
ATOM     35  C   UNL A   1      39.307  26.586  29.071  1.00  0.00     0.031 C 
ATOM     36  C   UNL A   1      43.483  25.070  26.725  1.00  0.00     0.029 A 
ATOM     37  N   UNL A   1      43.535  27.081  27.704  1.00  0.00    -0.354 N 
ATOM     38  C   UNL A   1      40.009  28.688  29.642  1.00  0.00     0.074 A 
ATOM     39  C   UNL A   1      38.936  27.718  29.657  1.00  0.00     0.031 C 
ATOM     40  C   UNL A   1      44.704  25.586  26.516  1.00  0.00     0.029 A 
ATOM     41  C   UNL A   1      44.752  26.932  27.080  1.00  0.00     0.049 A 
ATOM     42  H   UNL A   1      43.301  27.863  28.254  1.00  0.00     0.167 HD
ATOM     43  C   UNL A   1      39.937  29.920  30.197  1.00  0.00     0.034 A 
ATOM     44  C   UNL A   1      45.774  27.798  26.939  1.00  0.00     0.034 A 
ATOM     45  C   UNL A   1      41.025  30.860  30.217  1.00  0.00     0.049 A 
ATOM     46  C   UNL A   1      45.663  29.164  27.558  1.00  0.00     0.074 A 
ATOM     47  C   UNL A   1      41.064  32.118  30.792  1.00  0.00     0.029 A 
ATOM     48  N   UNL A   1      42.266  30.645  29.636  1.00  0.00    -0.354 N 
ATOM     49  N   UNL A   1      44.677  29.672  28.257  1.00  0.00    -0.248 NA
ATOM     50  C   UNL A   1      46.807  30.069  27.387  1.00  0.00     0.031 C 
ATOM     51  C   UNL A   1      42.327  32.668  30.552  1.00  0.00     0.029 A 
ATOM     52  C   UNL A   1      43.078  31.747  29.837  1.00  0.00     0.049 A 
ATOM     53  H   UNL A   1      42.529  29.829  29.154  1.00  0.00     0.167 HD
ATOM     54  C   UNL A   1      45.096  30.941  28.640  1.00  0.00     0.074 A 
ATOM     55  C   UNL A   1      46.429  31.120  28.104  1.00  0.00     0.031 C 
ATOM     56  C   UNL A   1      44.429  31.878  29.356  1.00  0.00     0.034 A 
BRANCH  43  57
ATOM     57  C   UNL A   1      38.647  30.317  30.862  1.00  0.00     0.023 A 
ATOM     58  C   UNL A   1      38.429  29.980  32.212  1.00  0.00     0.012 A 
ATOM     59  C   UNL A   1      37.683  31.080  30.174  1.00  0.00     0.148 A 
ATOM     60  C   UNL A   1      37.262  30.380  32.863  1.00  0.00     0.002 A 
ATOM     61  C   UNL A   1      36.538  31.503  30.839  1.00  0.00     0.091 A 
ATOM     62  F   UNL A   1      37.897  31.368  28.882  1.00  0.00    -0.205 F 
ATOM     63  C   UNL A   1      36.323  31.148  32.181  1.00  0.00     0.022 A 
BRANCH  61  64
ATOM     64  S   UNL A   1      35.308  32.555  30.058  1.00  0.00     0.127 S 
ATOM     65  O   UNL A   1      36.116  33.704  29.654  1.00  0.00    -0.237 OA
ATOM     66  O   UNL A   1      34.840  31.720  28.950  1.00  0.00    -0.237 OA
ATOM     67  O   UNL A   1      34.305  32.817  31.080  1.00  0.00    -0.744 OA
ENDBRANCH  61  64
ENDBRANCH  43  57
BRANCH  44  68
ATOM     68  C   UNL A   1      46.998  27.380  26.202  1.00  0.00     0.023 A 
ATOM     69  C   UNL A   1      47.941  26.557  26.844  1.00  0.00     0.012 A 
ATOM     70  C   UNL A   1      47.205  27.744  24.856  1.00  0.00     0.148 A 
ATOM     71  C   UNL A   1      49.080  26.118  26.167  1.00  0.00     0.002 A 
ATOM     72  C   UNL A   1      48.314  27.259  24.170  1.00  0.00     0.091 A 
ATOM     73  F   UNL A   1      46.307  28.545  24.266  1.00  0.00    -0.205 F 
ATOM     74  C   UNL A   1      49.260  26.457  24.828  1.00  0.00     0.022 A 
BRANCH  72  75
ATOM     75  S   UNL A   1      48.543  27.537  22.411  1.00  0.00     0.127 S 
ATOM     76  O   UNL A   1      47.349  28.305  22.070  1.00  0.00    -0.237 OA
ATOM     77  O   UNL A   1      49.793  28.297  22.379  1.00  0.00    -0.237 OA
ATOM     78  O   UNL A   1      48.639  26.210  21.819  1.00  0.00    -0.744 OA
ENDBRANCH  72  75
ENDBRANCH  44  68
BRANCH  56  79
ATOM     79  C   UNL A   1      45.137  33.172  29.649  1.00  0.00     0.023 A 
ATOM     80  C   UNL A   1      45.961  33.272  30.786  1.00  0.00     0.012 A 
ATOM     81  C   UNL A   1      45.076  34.244  28.737  1.00  0.00     0.148 A 
ATOM     82  C   UNL A   1      46.705  34.428  31.019  1.00  0.00     0.002 A 
ATOM     83  C   UNL A   1      45.850  35.376  28.954  1.00  0.00     0.091 A 
ATOM     84  F   UNL A   1      44.270  34.131  27.671  1.00  0.00    -0.205 F 
ATOM     85  C   UNL A   1      46.660  35.473  30.098  1.00  0.00     0.022 A 
BRANCH  83  86
ATOM     86  S   UNL A   1      45.926  36.732  27.779  1.00  0.00     0.127 S 
ATOM     87  O   UNL A   1      46.398  36.055  26.572  1.00  0.00    -0.237 OA
ATOM     88  O   UNL A   1      44.532  37.175  27.724  1.00  0.00    -0.237 OA
ATOM     89  O   UNL A   1      46.847  37.707  28.349  1.00  0.00    -0.744 OA
ENDBRANCH  83  86
ENDBRANCH  56  79
ENDBRANCH  30  31
ENDBRANCH  23  25
ENDBRANCH  22  23
ENDBRANCH  21  22
ENDBRANCH   1  21
TORSDOF 19
ENDMDL
MODEL 2
REMARK VINA RESULT:     -10.8      5.377     10.376
REMARK SMILES C[C@H]1[C@H](C(=O)OCCOC(=O)c2ccc(-c3c4nc(c(-c5cccc(S(=O)(=O)[O-])c5F)c5ccc([nH]5)c(-c5cccc(S(=O)(=O)[O-])c5F)c5nc(c(-c6cccc(S(=O)(=O)[O-])c6F)c6ccc3[nH]6)C=C5)C=C4)cc2)CCN1C(=O)CC[NH2+]C1CC1
REMARK SMILES IDX 7 1 6 2 4 3 5 4 3 5 1 6 2 7 77 8 75 9 76 10 78 11 79 12
REMARK SMILES IDX 80 13 81 14 82 15 83 18 84 19 85 20 8 21 9 22 10 23 11 24
REMARK SMILES IDX 12 25 13 26 74 27 14 28 73 29 15 30 16 31 17 32 67 33 18 34
REMARK SMILES IDX 72 35 66 36 68 37 19 38 71 39 65 40 64 41 20 43 52 44 32 45
REMARK SMILES IDX 51 46 33 47 36 48 50 49 69 50 34 51 35 52 49 54 70 55 37 56
REMARK SMILES IDX 21 57 22 58 30 59 23 60 25 61 31 62 24 63 26 64 27 65 28 66
REMARK SMILES IDX 29 67 53 68 54 69 62 70 55 71 57 72 63 73 56 74 58 75 59 76
REMARK SMILES IDX 60 77 61 78 38 79 39 80 47 81 40 82 42 83 48 84 41 85 43 86
REMARK SMILES IDX 44 87 45 88 46 89
REMARK H PARENT 82 16 82 17 68 42 36 53
REMARK Flexibility Score: inf
ROOT
ATOM      1  C   UNL A   1      31.238  28.711  25.055  1.00  0.00     0.274 C 
ENDROOT
BRANCH   1   2
ATOM      2  O   UNL A   1      32.127  27.636  25.428  1.00  0.00    -0.462 OA
BRANCH   2   3
ATOM      3  C   UNL A   1      31.535  26.480  25.822  1.00  0.00     0.311 C 
ATOM      4  O   UNL A   1      30.330  26.333  25.983  1.00  0.00    -0.252 OA
BRANCH   3   5
ATOM      5  C   UNL A   1      32.516  25.365  26.110  1.00  0.00     0.123 C 
ATOM      6  C   UNL A   1      31.815  23.023  26.720  1.00  0.00     0.032 C 
ATOM      7  C   UNL A   1      32.127  23.977  25.563  1.00  0.00     0.096 C 
ATOM      8  N   UNL A   1      33.316  23.508  24.845  1.00  0.00    -0.339 N 
ATOM      9  C   UNL A   1      33.899  25.656  25.524  1.00  0.00     0.039 C 
ATOM     10  C   UNL A   1      34.474  24.278  25.247  1.00  0.00     0.121 C 
BRANCH   8  11
ATOM     11  C   UNL A   1      33.410  22.491  23.917  1.00  0.00     0.228 C 
ATOM     12  O   UNL A   1      33.752  22.709  22.753  1.00  0.00    -0.275 OA
BRANCH  11  13
ATOM     13  C   UNL A   1      33.041  21.077  24.344  1.00  0.00     0.161 C 
BRANCH  13  14
ATOM     14  C   UNL A   1      34.242  20.282  24.860  1.00  0.00     0.270 C 
BRANCH  14  15
ATOM     15  N   UNL A   1      33.886  18.878  25.097  1.00  0.00    -0.343 N 
ATOM     16  H   UNL A   1      32.907  18.751  24.840  1.00  0.00     0.346 HD
ATOM     17  H   UNL A   1      34.066  18.697  26.085  1.00  0.00     0.346 HD
BRANCH  15  18
ATOM     18  C   UNL A   1      34.687  17.911  24.342  1.00  0.00     0.182 C 
ATOM     19  C   UNL A   1      34.770  16.457  24.718  1.00  0.00     0.071 C 
ATOM     20  C   UNL A   1      33.963  16.869  23.526  1.00  0.00     0.071 C 
ENDBRANCH  15  18
ENDBRANCH  14  15
ENDBRANCH  13  14
ENDBRANCH  11  13
ENDBRANCH   8  11
ENDBRANCH   3   5
ENDBRANCH   2   3
ENDBRANCH   1   2
BRANCH   1  21
ATOM     21  C   UNL A   1      31.719  30.059  25.600  1.00  0.00     0.275 C 
BRANCH  21  22
ATOM     22  O   UNL A   1      33.031  29.968  26.181  1.00  0.00    -0.458 OA
BRANCH  22  23
ATOM     23  C   UNL A   1      33.389  31.018  26.953  1.00  0.00     0.338 C 
ATOM     24  O   UNL A   1      32.708  31.987  27.246  1.00  0.00    -0.246 OA
BRANCH  23  25
ATOM     25  C   UNL A   1      34.726  30.798  27.515  1.00  0.00     0.060 A 
ATOM     26  C   UNL A   1      35.092  29.496  27.865  1.00  0.00     0.016 A 
ATOM     27  C   UNL A   1      35.555  31.877  27.813  1.00  0.00     0.016 A 
ATOM     28  C   UNL A   1      36.264  29.270  28.578  1.00  0.00     0.010 A 
ATOM     29  C   UNL A   1      36.755  31.642  28.488  1.00  0.00     0.010 A 
ATOM     30  C   UNL A   1      37.105  30.343  28.896  1.00  0.00    -0.014 A 
BRANCH  30  31
ATOM     31  C   UNL A   1      38.358  30.119  29.654  1.00  0.00     0.031 A 
ATOM     32  C   UNL A   1      39.408  29.193  29.111  1.00  0.00     0.074 A 
ATOM     33  C   UNL A   1      38.517  30.705  30.856  1.00  0.00     0.049 A 
ATOM     34  N   UNL A   1      40.479  28.729  29.698  1.00  0.00    -0.248 NA
ATOM     35  C   UNL A   1      39.225  28.721  27.728  1.00  0.00     0.031 C 
ATOM     36  C   UNL A   1      37.570  31.634  31.474  1.00  0.00     0.029 A 
ATOM     37  N   UNL A   1      39.514  30.572  31.788  1.00  0.00    -0.354 N 
ATOM     38  C   UNL A   1      41.069  27.869  28.781  1.00  0.00     0.074 A 
ATOM     39  C   UNL A   1      40.246  27.885  27.592  1.00  0.00     0.031 C 
ATOM     40  C   UNL A   1      38.015  31.966  32.695  1.00  0.00     0.029 A 
ATOM     41  C   UNL A   1      39.249  31.234  32.965  1.00  0.00     0.049 A 
ATOM     42  H   UNL A   1      40.338  30.056  31.631  1.00  0.00     0.167 HD
ATOM     43  C   UNL A   1      42.200  27.139  28.920  1.00  0.00     0.034 A 
ATOM     44  C   UNL A   1      39.902  31.217  34.143  1.00  0.00     0.034 A 
ATOM     45  C   UNL A   1      43.037  27.165  30.090  1.00  0.00     0.049 A 
ATOM     46  C   UNL A   1      41.151  30.390  34.273  1.00  0.00     0.074 A 
ATOM     47  C   UNL A   1      44.226  26.493  30.312  1.00  0.00     0.029 A 
ATOM     48  N   UNL A   1      42.773  27.902  31.234  1.00  0.00    -0.354 N 
ATOM     49  N   UNL A   1      41.741  29.644  33.371  1.00  0.00    -0.248 NA
ATOM     50  C   UNL A   1      41.834  30.413  35.574  1.00  0.00     0.031 C 
ATOM     51  C   UNL A   1      44.678  26.818  31.595  1.00  0.00     0.029 A 
ATOM     52  C   UNL A   1      43.775  27.701  32.167  1.00  0.00     0.049 A 
ATOM     53  H   UNL A   1      41.989  28.483  31.363  1.00  0.00     0.167 HD
ATOM     54  C   UNL A   1      42.883  29.139  33.981  1.00  0.00     0.074 A 
ATOM     55  C   UNL A   1      42.907  29.672  35.328  1.00  0.00     0.031 C 
ATOM     56  C   UNL A   1      43.818  28.297  33.477  1.00  0.00     0.034 A 
BRANCH  43  57
ATOM     57  C   UNL A   1      42.623  26.270  27.767  1.00  0.00     0.023 A 
ATOM     58  C   UNL A   1      43.565  26.757  26.840  1.00  0.00     0.012 A 
ATOM     59  C   UNL A   1      42.143  24.952  27.641  1.00  0.00     0.148 A 
ATOM     60  C   UNL A   1      44.008  25.952  25.791  1.00  0.00     0.002 A 
ATOM     61  C   UNL A   1      42.615  24.144  26.612  1.00  0.00     0.091 A 
ATOM     62  F   UNL A   1      41.228  24.516  28.518  1.00  0.00    -0.205 F 
ATOM     63  C   UNL A   1      43.542  24.645  25.683  1.00  0.00     0.022 A 
BRANCH  61  64
ATOM     64  S   UNL A   1      42.121  22.425  26.438  1.00  0.00     0.127 S 
ATOM     65  O   UNL A   1      40.667  22.545  26.339  1.00  0.00    -0.237 OA
ATOM     66  O   UNL A   1      42.785  22.032  25.194  1.00  0.00    -0.237 OA
ATOM     67  O   UNL A   1      42.618  21.748  27.627  1.00  0.00    -0.744 OA
ENDBRANCH  61  64
ENDBRANCH  43  57
BRANCH  44  68
ATOM     68  C   UNL A   1      39.394  32.036  35.279  1.00  0.00     0.023 A 
ATOM     69  C   UNL A   1      38.515  31.453  36.209  1.00  0.00     0.012 A 
ATOM     70  C   UNL A   1      39.820  33.365  35.473  1.00  0.00     0.148 A 
ATOM     71  C   UNL A   1      38.052  32.184  37.304  1.00  0.00     0.002 A 
ATOM     72  C   UNL A   1      39.398  34.070  36.595  1.00  0.00     0.091 A 
ATOM     73  F   UNL A   1      40.641  33.911  34.566  1.00  0.00    -0.205 F 
ATOM     74  C   UNL A   1      38.503  33.486  37.504  1.00  0.00     0.022 A 
BRANCH  72  75
ATOM     75  S   UNL A   1      40.041  35.699  36.995  1.00  0.00     0.127 S 
ATOM     76  O   UNL A   1      39.627  36.479  35.832  1.00  0.00    -0.237 OA
ATOM     77  O   UNL A   1      39.328  36.016  38.234  1.00  0.00    -0.237 OA
ATOM     78  O   UNL A   1      41.476  35.517  37.165  1.00  0.00    -0.744 OA
ENDBRANCH  72  75
ENDBRANCH  44  68
BRANCH  56  79
ATOM     79  C   UNL A   1      44.977  27.926  34.360  1.00  0.00     0.023 A 
ATOM     80  C   UNL A   1      46.120  28.747  34.389  1.00  0.00     0.012 A 
ATOM     81  C   UNL A   1      44.883  26.832  35.242  1.00  0.00     0.148 A 
ATOM     82  C   UNL A   1      47.161  28.476  35.276  1.00  0.00     0.002 A 
ATOM     83  C   UNL A   1      45.906  26.591  36.150  1.00  0.00     0.091 A 
ATOM     84  F   UNL A   1      43.792  26.054  35.182  1.00  0.00    -0.205 F 
ATOM     85  C   UNL A   1      47.049  27.408  36.163  1.00  0.00     0.022 A 
BRANCH  83  86
ATOM     86  S   UNL A   1      45.810  25.295  37.390  1.00  0.00     0.127 S 
ATOM     87  O   UNL A   1      45.898  24.089  36.568  1.00  0.00    -0.237 OA
ATOM     88  O   UNL A   1      46.991  25.561  38.211  1.00  0.00    -0.237 OA
ATOM     89  O   UNL A   1      44.540  25.491  38.077  1.00  0.00    -0.744 OA
ENDBRANCH  83  86
ENDBRANCH  56  79
ENDBRANCH  30  31
ENDBRANCH  23  25
ENDBRANCH  22  23
ENDBRANCH  21  22
ENDBRANCH   1  21
TORSDOF 19
ENDMDL
MODEL 3
REMARK VINA RESULT:     -10.8      1.556      1.966
REMARK SMILES C[C@H]1[C@H](C(=O)OCCOC(=O)c2ccc(-c3c4nc(c(-c5cccc(S(=O)(=O)[O-])c5F)c5ccc([nH]5)c(-c5cccc(S(=O)(=O)[O-])c5F)c5nc(c(-c6cccc(S(=O)(=O)[O-])c6F)c6ccc3[nH]6)C=C5)C=C4)cc2)CCN1C(=O)CC[NH2+]C1CC1
REMARK SMILES IDX 7 1 6 2 4 3 5 4 3 5 1 6 2 7 77 8 75 9 76 10 78 11 79 12
REMARK SMILES IDX 80 13 81 14 82 15 83 18 84 19 85 20 8 21 9 22 10 23 11 24
REMARK SMILES IDX 12 25 13 26 74 27 14 28 73 29 15 30 16 31 17 32 67 33 18 34
REMARK SMILES IDX 72 35 66 36 68 37 19 38 71 39 65 40 64 41 20 43 52 44 32 45
REMARK SMILES IDX 51 46 33 47 36 48 50 49 69 50 34 51 35 52 49 54 70 55 37 56
REMARK SMILES IDX 21 57 22 58 30 59 23 60 25 61 31 62 24 63 26 64 27 65 28 66
REMARK SMILES IDX 29 67 53 68 54 69 62 70 55 71 57 72 63 73 56 74 58 75 59 76
REMARK SMILES IDX 60 77 61 78 38 79 39 80 47 81 40 82 42 83 48 84 41 85 43 86
REMARK SMILES IDX 44 87 45 88 46 89
REMARK H PARENT 82 16 82 17 68 42 36 53
REMARK Flexibility Score: inf
ROOT
ATOM      1  C   UNL A   1      35.011  20.820  24.807  1.00  0.00     0.274 C 
ENDROOT
BRANCH   1   2
ATOM      2  O   UNL A   1      34.265  20.719  26.038  1.00  0.00    -0.462 OA
BRANCH   2   3
ATOM      3  C   UNL A   1      33.891  21.891  26.609  1.00  0.00     0.311 C 
ATOM      4  O   UNL A   1      33.673  22.047  27.805  1.00  0.00    -0.252 OA
BRANCH   3   5
ATOM      5  C   UNL A   1      33.704  23.017  25.616  1.00  0.00     0.123 C 
ATOM      6  C   UNL A   1      31.507  23.524  24.490  1.00  0.00     0.032 C 
ATOM      7  C   UNL A   1      32.373  23.789  25.724  1.00  0.00     0.096 C 
ATOM      8  N   UNL A   1      32.761  25.203  25.761  1.00  0.00    -0.339 N 
ATOM      9  C   UNL A   1      34.798  24.078  25.743  1.00  0.00     0.039 C 
ATOM     10  C   UNL A   1      34.119  25.358  25.286  1.00  0.00     0.121 C 
BRANCH   8  11
ATOM     11  C   UNL A   1      32.007  26.286  26.164  1.00  0.00     0.228 C 
ATOM     12  O   UNL A   1      30.784  26.208  26.297  1.00  0.00    -0.275 OA
BRANCH  11  13
ATOM     13  C   UNL A   1      32.710  27.614  26.409  1.00  0.00     0.161 C 
BRANCH  13  14
ATOM     14  C   UNL A   1      32.605  28.568  25.219  1.00  0.00     0.270 C 
BRANCH  14  15
ATOM     15  N   UNL A   1      31.204  28.854  24.891  1.00  0.00    -0.343 N 
ATOM     16  H   UNL A   1      31.012  29.825  25.137  1.00  0.00     0.346 HD
ATOM     17  H   UNL A   1      30.641  28.190  25.423  1.00  0.00     0.346 HD
BRANCH  15  18
ATOM     18  C   UNL A   1      30.857  28.660  23.480  1.00  0.00     0.182 C 
ATOM     19  C   UNL A   1      30.548  27.308  22.899  1.00  0.00     0.071 C 
ATOM     20  C   UNL A   1      29.436  28.281  23.142  1.00  0.00     0.071 C 
ENDBRANCH  15  18
ENDBRANCH  14  15
ENDBRANCH  13  14
ENDBRANCH  11  13
ENDBRANCH   8  11
ENDBRANCH   3   5
ENDBRANCH   2   3
ENDBRANCH   1   2
BRANCH   1  21
ATOM     21  C   UNL A   1      36.479  20.426  25.000  1.00  0.00     0.275 C 
BRANCH  21  22
ATOM     22  O   UNL A   1      37.287  21.542  25.410  1.00  0.00    -0.458 OA
BRANCH  22  23
ATOM     23  C   UNL A   1      38.522  21.221  25.856  1.00  0.00     0.338 C 
ATOM     24  O   UNL A   1      39.105  20.158  25.719  1.00  0.00    -0.246 OA
BRANCH  23  25
ATOM     25  C   UNL A   1      39.158  22.393  26.468  1.00  0.00     0.060 A 
ATOM     26  C   UNL A   1      38.680  23.660  26.125  1.00  0.00     0.016 A 
ATOM     27  C   UNL A   1      40.292  22.248  27.264  1.00  0.00     0.016 A 
ATOM     28  C   UNL A   1      39.374  24.797  26.524  1.00  0.00     0.010 A 
ATOM     29  C   UNL A   1      40.961  23.393  27.703  1.00  0.00     0.010 A 
ATOM     30  C   UNL A   1      40.522  24.672  27.316  1.00  0.00    -0.014 A 
BRANCH  30  31
ATOM     31  C   UNL A   1      41.273  25.873  27.751  1.00  0.00     0.031 A 
ATOM     32  C   UNL A   1      40.578  26.949  28.533  1.00  0.00     0.074 A 
ATOM     33  C   UNL A   1      42.561  26.016  27.385  1.00  0.00     0.049 A 
ATOM     34  N   UNL A   1      41.003  28.144  28.847  1.00  0.00    -0.248 NA
ATOM     35  C   UNL A   1      39.223  26.643  29.022  1.00  0.00     0.031 C 
ATOM     36  C   UNL A   1      43.340  25.028  26.637  1.00  0.00     0.029 A 
ATOM     37  N   UNL A   1      43.427  27.064  27.559  1.00  0.00    -0.354 N 
ATOM     38  C   UNL A   1      39.953  28.754  29.521  1.00  0.00     0.074 A 
ATOM     39  C   UNL A   1      38.873  27.794  29.583  1.00  0.00     0.031 C 
ATOM     40  C   UNL A   1      44.560  25.528  26.390  1.00  0.00     0.029 A 
ATOM     41  C   UNL A   1      44.630  26.888  26.915  1.00  0.00     0.049 A 
ATOM     42  H   UNL A   1      43.210  27.863  28.092  1.00  0.00     0.167 HD
ATOM     43  C   UNL A   1      39.901  30.001  30.044  1.00  0.00     0.034 A 
ATOM     44  C   UNL A   1      45.656  27.742  26.731  1.00  0.00     0.034 A 
ATOM     45  C   UNL A   1      40.997  30.932  30.016  1.00  0.00     0.049 A 
ATOM     46  C   UNL A   1      45.568  29.125  27.314  1.00  0.00     0.074 A 
ATOM     47  C   UNL A   1      41.058  32.205  30.555  1.00  0.00     0.029 A 
ATOM     48  N   UNL A   1      42.224  30.691  29.417  1.00  0.00    -0.354 N 
ATOM     49  N   UNL A   1      44.600  29.660  28.018  1.00  0.00    -0.248 NA
ATOM     50  C   UNL A   1      46.716  30.015  27.096  1.00  0.00     0.031 C 
ATOM     51  C   UNL A   1      42.320  32.738  30.275  1.00  0.00     0.029 A 
ATOM     52  C   UNL A   1      43.049  31.791  29.571  1.00  0.00     0.049 A 
ATOM     53  H   UNL A   1      42.471  29.860  28.952  1.00  0.00     0.167 HD
ATOM     54  C   UNL A   1      45.036  30.936  28.358  1.00  0.00     0.074 A 
ATOM     55  C   UNL A   1      46.360  31.088  27.791  1.00  0.00     0.031 C 
ATOM     56  C   UNL A   1      44.391  31.897  29.061  1.00  0.00     0.034 A 
BRANCH  43  57
ATOM     57  C   UNL A   1      38.628  30.427  30.722  1.00  0.00     0.023 A 
ATOM     58  C   UNL A   1      38.439  30.139  32.088  1.00  0.00     0.012 A 
ATOM     59  C   UNL A   1      37.652  31.169  30.029  1.00  0.00     0.148 A 
ATOM     60  C   UNL A   1      37.288  30.567  32.750  1.00  0.00     0.002 A 
ATOM     61  C   UNL A   1      36.524  31.621  30.704  1.00  0.00     0.091 A 
ATOM     62  F   UNL A   1      37.837  31.410  28.723  1.00  0.00    -0.205 F 
ATOM     63  C   UNL A   1      36.337  31.314  32.062  1.00  0.00     0.022 A 
BRANCH  61  64
ATOM     64  S   UNL A   1      35.280  32.649  29.913  1.00  0.00     0.127 S 
ATOM     65  O   UNL A   1      34.793  31.764  28.857  1.00  0.00    -0.237 OA
ATOM     66  O   UNL A   1      34.327  32.881  31.001  1.00  0.00    -0.237 OA
ATOM     67  O   UNL A   1      35.981  33.843  29.463  1.00  0.00    -0.744 OA
ENDBRANCH  61  64
ENDBRANCH  43  57
BRANCH  44  68
ATOM     68  C   UNL A   1      46.862  27.293  25.982  1.00  0.00     0.023 A 
ATOM     69  C   UNL A   1      46.951  27.552  24.601  1.00  0.00     0.012 A 
ATOM     70  C   UNL A   1      47.941  26.665  26.635  1.00  0.00     0.148 A 
ATOM     71  C   UNL A   1      48.085  27.177  23.880  1.00  0.00     0.002 A 
ATOM     72  C   UNL A   1      49.090  26.343  25.922  1.00  0.00     0.091 A 
ATOM     73  F   UNL A   1      47.830  26.408  27.946  1.00  0.00    -0.205 F 
ATOM     74  C   UNL A   1      49.159  26.585  24.541  1.00  0.00     0.022 A 
BRANCH  72  75
ATOM     75  S   UNL A   1      50.565  25.707  26.726  1.00  0.00     0.127 S 
ATOM     76  O   UNL A   1      50.079  24.454  27.297  1.00  0.00    -0.237 OA
ATOM     77  O   UNL A   1      51.488  25.553  25.600  1.00  0.00    -0.237 OA
ATOM     78  O   UNL A   1      50.958  26.734  27.681  1.00  0.00    -0.744 OA
ENDBRANCH  72  75
ENDBRANCH  44  68
BRANCH  56  79
ATOM     79  C   UNL A   1      45.115  33.193  29.304  1.00  0.00     0.023 A 
ATOM     80  C   UNL A   1      45.888  33.350  30.470  1.00  0.00     0.012 A 
ATOM     81  C   UNL A   1      45.121  34.205  28.324  1.00  0.00     0.148 A 
ATOM     82  C   UNL A   1      46.647  34.503  30.663  1.00  0.00     0.002 A 
ATOM     83  C   UNL A   1      45.911  35.333  28.505  1.00  0.00     0.091 A 
ATOM     84  F   UNL A   1      44.362  34.039  27.230  1.00  0.00    -0.205 F 
ATOM     85  C   UNL A   1      46.669  35.487  29.677  1.00  0.00     0.022 A 
BRANCH  83  86
ATOM     86  S   UNL A   1      46.072  36.608  27.250  1.00  0.00     0.127 S 
ATOM     87  O   UNL A   1      47.449  37.055  27.454  1.00  0.00    -0.237 OA
ATOM     88  O   UNL A   1      45.851  35.859  26.014  1.00  0.00    -0.237 OA
ATOM     89  O   UNL A   1      45.044  37.597  27.549  1.00  0.00    -0.744 OA
ENDBRANCH  83  86
ENDBRANCH  56  79
ENDBRANCH  30  31
ENDBRANCH  23  25
ENDBRANCH  22  23
ENDBRANCH  21  22
ENDBRANCH   1  21
TORSDOF 19
ENDMDL
