MODEL 1
REMARK VINA RESULT:     -11.7      0.000      0.000
REMARK SMILES O=C(Cc1ccccc1Nc1c(Cl)cccc1C(F)(F)F)OCCOC(=O)c1ccc(-c2c3nc(c(-c4cccc(S(=O)(=O)[O-])c4F)c4ccc([nH]4)c(-c4cccc(S(=O)(=O)[O-])c4F)c4nc(c(-c5cccc(S(=O)(=O)[O-])c5F)c5ccc2[nH]5)C=C4)C=C3)cc1
REMARK SMILES IDX 23 1 22 2 2 3 1 4 3 5 4 6 5 7 9 8 6 9 8 10 7 11 10 12 11 14
REMARK SMILES IDX 12 15 17 16 13 17 14 18 16 19 15 20 18 21 19 22 20 23 21 24
REMARK SMILES IDX 24 25 25 26 26 27 27 28 28 29 29 30 90 31 30 32 89 33 31 34
REMARK SMILES IDX 32 35 33 36 83 37 34 38 88 39 82 40 84 41 35 42 87 43 81 44
REMARK SMILES IDX 80 45 36 47 68 48 48 49 67 50 49 51 52 52 66 53 85 54 50 55
REMARK SMILES IDX 51 56 65 58 86 59 53 60 37 61 38 62 46 63 39 64 41 65 47 66
REMARK SMILES IDX 40 67 42 68 43 69 44 70 45 71 69 72 70 73 78 74 71 75 73 76
REMARK SMILES IDX 79 77 72 78 74 79 75 80 76 81 77 82 54 83 55 84 63 85 56 86
REMARK SMILES IDX 58 87 64 88 57 89 59 90 60 91 61 92 62 93
REMARK H PARENT 10 13 84 46 52 57
REMARK Flexibility Score: inf
ROOT
ATOM      1  C   UNL A   1      35.329  21.208  24.662  1.00  0.00     0.274 C 
ENDROOT
BRANCH   1   2
ATOM      2  O   UNL A   1      35.665  22.348  23.849  1.00  0.00    -0.462 OA
BRANCH   2   3
ATOM      3  C   UNL A   1      35.061  23.560  23.918  1.00  0.00     0.310 C 
ATOM      4  O   UNL A   1      34.768  24.155  22.882  1.00  0.00    -0.252 OA
BRANCH   3   5
ATOM      5  C   UNL A   1      34.797  24.172  25.276  1.00  0.00     0.160 C 
BRANCH   5   6
ATOM      6  C   UNL A   1      33.331  24.186  25.640  1.00  0.00    -0.013 A 
ATOM      7  C   UNL A   1      32.841  23.175  26.493  1.00  0.00     0.006 A 
ATOM      8  C   UNL A   1      32.463  25.206  25.214  1.00  0.00     0.042 A 
ATOM      9  C   UNL A   1      31.518  23.177  26.929  1.00  0.00     0.000 A 
ATOM     10  C   UNL A   1      31.122  25.162  25.636  1.00  0.00     0.026 A 
ATOM     11  C   UNL A   1      30.655  24.171  26.496  1.00  0.00     0.002 A 
BRANCH   8  12
ATOM     12  N   UNL A   1      32.943  26.311  24.476  1.00  0.00    -0.354 N 
ATOM     13  H   UNL A   1      33.892  26.282  24.216  1.00  0.00     0.167 HD
BRANCH  12  14
ATOM     14  C   UNL A   1      32.218  27.455  24.067  1.00  0.00     0.070 A 
ATOM     15  C   UNL A   1      31.476  27.399  22.866  1.00  0.00     0.065 A 
ATOM     16  C   UNL A   1      32.076  28.589  24.894  1.00  0.00     0.080 A 
ATOM     17  Cl  UNL A   1      31.728  26.110  21.736  1.00  0.00    -0.082 Cl
ATOM     18  C   UNL A   1      30.511  28.357  22.568  1.00  0.00     0.023 A 
ATOM     19  C   UNL A   1      31.040  29.502  24.623  1.00  0.00     0.015 A 
ATOM     20  C   UNL A   1      30.253  29.373  23.480  1.00  0.00     0.002 A 
BRANCH  16  21
ATOM     21  C   UNL A   1      33.050  28.931  26.006  1.00  0.00     0.418 C 
ATOM     22  F   UNL A   1      32.926  28.093  27.072  1.00  0.00    -0.166 F 
ATOM     23  F   UNL A   1      34.353  28.858  25.618  1.00  0.00    -0.166 F 
ATOM     24  F   UNL A   1      32.888  30.174  26.551  1.00  0.00    -0.166 F 
ENDBRANCH  16  21
ENDBRANCH  12  14
ENDBRANCH   8  12
ENDBRANCH   5   6
ENDBRANCH   3   5
ENDBRANCH   2   3
ENDBRANCH   1   2
BRANCH   1  25
ATOM     25  C   UNL A   1      36.562  20.395  25.062  1.00  0.00     0.275 C 
BRANCH  25  26
ATOM     26  O   UNL A   1      37.779  21.135  24.858  1.00  0.00    -0.458 OA
BRANCH  26  27
ATOM     27  C   UNL A   1      38.776  20.879  25.747  1.00  0.00     0.338 C 
ATOM     28  O   UNL A   1      39.200  19.784  26.058  1.00  0.00    -0.246 OA
BRANCH  27  29
ATOM     29  C   UNL A   1      39.383  22.153  26.202  1.00  0.00     0.060 A 
ATOM     30  C   UNL A   1      38.741  23.351  25.859  1.00  0.00     0.016 A 
ATOM     31  C   UNL A   1      40.567  22.184  26.945  1.00  0.00     0.016 A 
ATOM     32  C   UNL A   1      39.284  24.578  26.258  1.00  0.00     0.010 A 
ATOM     33  C   UNL A   1      41.117  23.414  27.327  1.00  0.00     0.010 A 
ATOM     34  C   UNL A   1      40.486  24.619  26.979  1.00  0.00    -0.014 A 
BRANCH  34  35
ATOM     35  C   UNL A   1      41.103  25.922  27.341  1.00  0.00     0.031 A 
ATOM     36  C   UNL A   1      42.467  26.279  26.833  1.00  0.00     0.074 A 
ATOM     37  C   UNL A   1      40.489  26.757  28.200  1.00  0.00     0.049 A 
ATOM     38  N   UNL A   1      43.153  27.376  27.027  1.00  0.00    -0.248 NA
ATOM     39  C   UNL A   1      43.169  25.255  26.046  1.00  0.00     0.031 C 
ATOM     40  C   UNL A   1      39.237  26.465  28.886  1.00  0.00     0.029 A 
ATOM     41  N   UNL A   1      40.847  28.001  28.667  1.00  0.00    -0.354 N 
ATOM     42  C   UNL A   1      44.398  27.147  26.462  1.00  0.00     0.074 A 
ATOM     43  C   UNL A   1      44.355  25.825  25.869  1.00  0.00     0.031 C 
ATOM     44  C   UNL A   1      38.926  27.509  29.669  1.00  0.00     0.029 A 
ATOM     45  C   UNL A   1      39.922  28.558  29.518  1.00  0.00     0.049 A 
ATOM     46  H   UNL A   1      41.686  28.450  28.414  1.00  0.00     0.167 HD
ATOM     47  C   UNL A   1      45.486  27.951  26.463  1.00  0.00     0.034 A 
ATOM     48  C   UNL A   1      39.863  29.775  30.098  1.00  0.00     0.034 A 
ATOM     49  C   UNL A   1      45.533  29.274  27.028  1.00  0.00     0.049 A 
ATOM     50  C   UNL A   1      41.016  30.724  29.914  1.00  0.00     0.074 A 
ATOM     51  C   UNL A   1      46.575  30.185  26.986  1.00  0.00     0.029 A 
ATOM     52  N   UNL A   1      44.515  29.867  27.753  1.00  0.00    -0.354 N 
ATOM     53  N   UNL A   1      42.099  30.575  29.194  1.00  0.00    -0.248 NA
ATOM     54  C   UNL A   1      40.941  32.007  30.632  1.00  0.00     0.031 C 
ATOM     55  C   UNL A   1      46.195  31.322  27.707  1.00  0.00     0.029 A 
ATOM     56  C   UNL A   1      44.911  31.123  28.183  1.00  0.00     0.049 A 
ATOM     57  H   UNL A   1      43.638  29.457  27.936  1.00  0.00     0.167 HD
ATOM     58  C   UNL A   1      42.848  31.726  29.401  1.00  0.00     0.074 A 
ATOM     59  C   UNL A   1      42.056  32.604  30.235  1.00  0.00     0.031 C 
ATOM     60  C   UNL A   1      44.109  32.003  28.990  1.00  0.00     0.034 A 
BRANCH  47  61
ATOM     61  C   UNL A   1      46.743  27.423  25.834  1.00  0.00     0.023 A 
ATOM     62  C   UNL A   1      47.557  26.525  26.548  1.00  0.00     0.012 A 
ATOM     63  C   UNL A   1      47.060  27.750  24.501  1.00  0.00     0.148 A 
ATOM     64  C   UNL A   1      48.683  25.966  25.946  1.00  0.00     0.002 A 
ATOM     65  C   UNL A   1      48.164  27.162  23.897  1.00  0.00     0.091 A 
ATOM     66  F   UNL A   1      46.279  28.626  23.854  1.00  0.00    -0.205 F 
ATOM     67  C   UNL A   1      48.979  26.274  24.619  1.00  0.00     0.022 A 
BRANCH  65  68
ATOM     68  S   UNL A   1      48.590  27.442  22.176  1.00  0.00     0.127 S 
ATOM     69  O   UNL A   1      49.850  28.173  22.300  1.00  0.00    -0.237 OA
ATOM     70  O   UNL A   1      48.724  26.076  21.667  1.00  0.00    -0.237 OA
ATOM     71  O   UNL A   1      47.486  28.201  21.604  1.00  0.00    -0.744 OA
ENDBRANCH  65  68
ENDBRANCH  47  61
BRANCH  48  72
ATOM     72  C   UNL A   1      38.643  30.232  30.831  1.00  0.00     0.023 A 
ATOM     73  C   UNL A   1      38.533  29.922  32.204  1.00  0.00     0.012 A 
ATOM     74  C   UNL A   1      37.601  30.947  30.216  1.00  0.00     0.148 A 
ATOM     75  C   UNL A   1      37.397  30.272  32.935  1.00  0.00     0.002 A 
ATOM     76  C   UNL A   1      36.508  31.366  30.970  1.00  0.00     0.091 A 
ATOM     77  F   UNL A   1      37.690  31.214  28.905  1.00  0.00    -0.205 F 
ATOM     78  C   UNL A   1      36.391  31.009  32.322  1.00  0.00     0.022 A 
BRANCH  76  79
ATOM     79  S   UNL A   1      35.300  32.515  30.301  1.00  0.00     0.127 S 
ATOM     80  O   UNL A   1      34.391  32.700  31.427  1.00  0.00    -0.237 OA
ATOM     81  O   UNL A   1      36.129  33.677  29.974  1.00  0.00    -0.237 OA
ATOM     82  O   UNL A   1      34.763  31.837  29.130  1.00  0.00    -0.744 OA
ENDBRANCH  76  79
ENDBRANCH  48  72
BRANCH  60  83
ATOM     83  C   UNL A   1      44.728  33.280  29.488  1.00  0.00     0.023 A 
ATOM     84  C   UNL A   1      45.469  33.255  30.688  1.00  0.00     0.012 A 
ATOM     85  C   UNL A   1      44.627  34.482  28.763  1.00  0.00     0.148 A 
ATOM     86  C   UNL A   1      46.074  34.411  31.174  1.00  0.00     0.002 A 
ATOM     87  C   UNL A   1      45.267  35.622  29.233  1.00  0.00     0.091 A 
ATOM     88  F   UNL A   1      43.901  34.488  27.635  1.00  0.00    -0.205 F 
ATOM     89  C   UNL A   1      45.981  35.592  30.444  1.00  0.00     0.022 A 
BRANCH  87  90
ATOM     90  S   UNL A   1      45.267  37.174  28.328  1.00  0.00     0.127 S 
ATOM     91  O   UNL A   1      45.936  38.068  29.270  1.00  0.00    -0.237 OA
ATOM     92  O   UNL A   1      46.054  36.839  27.141  1.00  0.00    -0.237 OA
ATOM     93  O   UNL A   1      43.868  37.483  28.060  1.00  0.00    -0.744 OA
ENDBRANCH  87  90
ENDBRANCH  60  83
ENDBRANCH  34  35
ENDBRANCH  27  29
ENDBRANCH  26  27
ENDBRANCH  25  26
ENDBRANCH   1  25
TORSDOF 18
ENDMDL
MODEL 2
REMARK VINA RESULT:     -11.7      5.188      7.499
REMARK SMILES O=C(Cc1ccccc1Nc1c(Cl)cccc1C(F)(F)F)OCCOC(=O)c1ccc(-c2c3nc(c(-c4cccc(S(=O)(=O)[O-])c4F)c4ccc([nH]4)c(-c4cccc(S(=O)(=O)[O-])c4F)c4nc(c(-c5cccc(S(=O)(=O)[O-])c5F)c5ccc2[nH]5)C=C4)C=C3)cc1
REMARK SMILES IDX 23 1 22 2 2 3 1 4 3 5 4 6 5 7 9 8 6 9 8 10 7 11 10 12 11 14
REMARK SMILES IDX 12 15 17 16 13 17 14 18 16 19 15 20 18 21 19 22 20 23 21 24
REMARK SMILES IDX 24 25 25 26 26 27 27 28 28 29 29 30 90 31 30 32 89 33 31 34
REMARK SMILES IDX 32 35 33 36 83 37 34 38 88 39 82 40 84 41 35 42 87 43 81 44
REMARK SMILES IDX 80 45 36 47 68 48 48 49 67 50 49 51 52 52 66 53 85 54 50 55
REMARK SMILES IDX 51 56 65 58 86 59 53 60 37 61 38 62 46 63 39 64 41 65 47 66
REMARK SMILES IDX 40 67 42 68 43 69 44 70 45 71 69 72 70 73 78 74 71 75 73 76
REMARK SMILES IDX 79 77 72 78 74 79 75 80 76 81 77 82 54 83 55 84 63 85 56 86
REMARK SMILES IDX 58 87 64 88 57 89 59 90 60 91 61 92 62 93
REMARK H PARENT 10 13 84 46 52 57
REMARK Flexibility Score: inf
ROOT
ATOM      1  C   UNL A   1      32.908  29.111  24.146  1.00  0.00     0.274 C 
ENDROOT
BRANCH   1   2
ATOM      2  O   UNL A   1      32.469  28.518  22.909  1.00  0.00    -0.462 OA
BRANCH   2   3
ATOM      3  C   UNL A   1      32.918  27.342  22.406  1.00  0.00     0.310 C 
ATOM      4  O   UNL A   1      34.030  27.287  21.883  1.00  0.00    -0.252 OA
BRANCH   3   5
ATOM      5  C   UNL A   1      32.018  26.127  22.465  1.00  0.00     0.160 C 
BRANCH   5   6
ATOM      6  C   UNL A   1      31.621  25.759  23.875  1.00  0.00    -0.013 A 
ATOM      7  C   UNL A   1      30.383  26.224  24.367  1.00  0.00     0.006 A 
ATOM      8  C   UNL A   1      32.407  24.917  24.680  1.00  0.00     0.042 A 
ATOM      9  C   UNL A   1      29.924  25.854  25.629  1.00  0.00     0.000 A 
ATOM     10  C   UNL A   1      31.939  24.592  25.965  1.00  0.00     0.026 A 
ATOM     11  C   UNL A   1      30.706  25.039  26.433  1.00  0.00     0.002 A 
BRANCH   8  12
ATOM     12  N   UNL A   1      33.584  24.318  24.176  1.00  0.00    -0.354 N 
ATOM     13  H   UNL A   1      34.185  24.904  23.661  1.00  0.00     0.167 HD
BRANCH  12  14
ATOM     14  C   UNL A   1      33.998  22.973  24.325  1.00  0.00     0.070 A 
ATOM     15  C   UNL A   1      35.068  22.681  25.200  1.00  0.00     0.065 A 
ATOM     16  C   UNL A   1      33.278  21.899  23.759  1.00  0.00     0.080 A 
ATOM     17  Cl  UNL A   1      36.086  23.950  25.797  1.00  0.00    -0.082 Cl
ATOM     18  C   UNL A   1      35.319  21.380  25.624  1.00  0.00     0.023 A 
ATOM     19  C   UNL A   1      33.487  20.602  24.262  1.00  0.00     0.015 A 
ATOM     20  C   UNL A   1      34.486  20.351  25.200  1.00  0.00     0.002 A 
BRANCH  16  21
ATOM     21  C   UNL A   1      32.357  22.057  22.563  1.00  0.00     0.418 C 
ATOM     22  F   UNL A   1      31.165  22.617  22.904  1.00  0.00    -0.166 F 
ATOM     23  F   UNL A   1      32.880  22.848  21.586  1.00  0.00    -0.166 F 
ATOM     24  F   UNL A   1      32.003  20.887  21.952  1.00  0.00    -0.166 F 
ENDBRANCH  16  21
ENDBRANCH  12  14
ENDBRANCH   8  12
ENDBRANCH   5   6
ENDBRANCH   3   5
ENDBRANCH   2   3
ENDBRANCH   1   2
BRANCH   1  25
ATOM     25  C   UNL A   1      31.754  29.730  24.936  1.00  0.00     0.275 C 
BRANCH  25  26
ATOM     26  O   UNL A   1      32.036  29.777  26.346  1.00  0.00    -0.458 OA
BRANCH  26  27
ATOM     27  C   UNL A   1      32.457  30.980  26.820  1.00  0.00     0.338 C 
ATOM     28  O   UNL A   1      31.830  32.021  26.803  1.00  0.00    -0.246 OA
BRANCH  27  29
ATOM     29  C   UNL A   1      33.767  30.823  27.496  1.00  0.00     0.060 A 
ATOM     30  C   UNL A   1      34.259  29.525  27.691  1.00  0.00     0.016 A 
ATOM     31  C   UNL A   1      34.506  31.923  27.943  1.00  0.00     0.016 A 
ATOM     32  C   UNL A   1      35.487  29.329  28.334  1.00  0.00     0.010 A 
ATOM     33  C   UNL A   1      35.724  31.722  28.602  1.00  0.00     0.010 A 
ATOM     34  C   UNL A   1      36.219  30.425  28.811  1.00  0.00    -0.014 A 
BRANCH  34  35
ATOM     35  C   UNL A   1      37.486  30.216  29.559  1.00  0.00     0.031 A 
ATOM     36  C   UNL A   1      38.634  29.497  28.916  1.00  0.00     0.074 A 
ATOM     37  C   UNL A   1      37.591  30.586  30.849  1.00  0.00     0.049 A 
ATOM     38  N   UNL A   1      39.819  29.242  29.407  1.00  0.00    -0.248 NA
ATOM     39  C   UNL A   1      38.404  28.955  27.570  1.00  0.00     0.031 C 
ATOM     40  C   UNL A   1      36.504  31.152  31.638  1.00  0.00     0.029 A 
ATOM     41  N   UNL A   1      38.645  30.513  31.731  1.00  0.00    -0.354 N 
ATOM     42  C   UNL A   1      40.450  28.438  28.469  1.00  0.00     0.074 A 
ATOM     43  C   UNL A   1      39.535  28.294  27.355  1.00  0.00     0.031 C 
ATOM     44  C   UNL A   1      36.957  31.390  32.879  1.00  0.00     0.029 A 
ATOM     45  C   UNL A   1      38.364  31.037  32.971  1.00  0.00     0.049 A 
ATOM     46  H   UNL A   1      39.518  30.122  31.495  1.00  0.00     0.167 HD
ATOM     47  C   UNL A   1      41.667  27.851  28.543  1.00  0.00     0.034 A 
ATOM     48  C   UNL A   1      39.146  31.233  34.053  1.00  0.00     0.034 A 
ATOM     49  C   UNL A   1      42.594  28.008  29.633  1.00  0.00     0.049 A 
ATOM     50  C   UNL A   1      40.565  30.735  34.025  1.00  0.00     0.074 A 
ATOM     51  C   UNL A   1      43.884  27.517  29.736  1.00  0.00     0.029 A 
ATOM     52  N   UNL A   1      42.328  28.681  30.813  1.00  0.00    -0.354 N 
ATOM     53  N   UNL A   1      41.219  30.165  33.044  1.00  0.00    -0.248 NA
ATOM     54  C   UNL A   1      41.353  30.900  35.257  1.00  0.00     0.031 C 
ATOM     55  C   UNL A   1      44.392  27.873  30.990  1.00  0.00     0.029 A 
ATOM     56  C   UNL A   1      43.423  28.599  31.659  1.00  0.00     0.049 A 
ATOM     57  H   UNL A   1      41.487  29.148  31.020  1.00  0.00     0.167 HD
ATOM     58  C   UNL A   1      42.478  29.872  33.552  1.00  0.00     0.074 A 
ATOM     59  C   UNL A   1      42.529  30.412  34.894  1.00  0.00     0.031 C 
ATOM     60  C   UNL A   1      43.479  29.161  32.982  1.00  0.00     0.034 A 
BRANCH  47  61
ATOM     61  C   UNL A   1      42.082  26.965  27.405  1.00  0.00     0.023 A 
ATOM     62  C   UNL A   1      42.859  27.492  26.356  1.00  0.00     0.012 A 
ATOM     63  C   UNL A   1      41.776  25.591  27.427  1.00  0.00     0.148 A 
ATOM     64  C   UNL A   1      43.317  26.661  25.335  1.00  0.00     0.002 A 
ATOM     65  C   UNL A   1      42.265  24.763  26.425  1.00  0.00     0.091 A 
ATOM     66  F   UNL A   1      41.015  25.122  28.426  1.00  0.00    -0.205 F 
ATOM     67  C   UNL A   1      43.031  25.298  25.375  1.00  0.00     0.022 A 
BRANCH  65  68
ATOM     68  S   UNL A   1      42.009  22.987  26.423  1.00  0.00     0.127 S 
ATOM     69  O   UNL A   1      42.612  22.605  25.147  1.00  0.00    -0.237 OA
ATOM     70  O   UNL A   1      42.763  22.568  27.605  1.00  0.00    -0.237 OA
ATOM     71  O   UNL A   1      40.569  22.785  26.515  1.00  0.00    -0.744 OA
ENDBRANCH  65  68
ENDBRANCH  47  61
BRANCH  48  72
ATOM     72  C   UNL A   1      38.664  32.016  35.232  1.00  0.00     0.023 A 
ATOM     73  C   UNL A   1      38.655  33.426  35.140  1.00  0.00     0.012 A 
ATOM     74  C   UNL A   1      38.228  31.416  36.425  1.00  0.00     0.148 A 
ATOM     75  C   UNL A   1      38.267  34.218  36.221  1.00  0.00     0.002 A 
ATOM     76  C   UNL A   1      37.764  32.210  37.472  1.00  0.00     0.091 A 
ATOM     77  F   UNL A   1      38.267  30.079  36.525  1.00  0.00    -0.205 F 
ATOM     78  C   UNL A   1      37.805  33.609  37.382  1.00  0.00     0.022 A 
BRANCH  76  79
ATOM     79  S   UNL A   1      36.939  31.486  38.894  1.00  0.00     0.127 S 
ATOM     80  O   UNL A   1      37.923  31.674  39.953  1.00  0.00    -0.237 OA
ATOM     81  O   UNL A   1      35.737  32.315  39.007  1.00  0.00    -0.237 OA
ATOM     82  O   UNL A   1      36.661  30.114  38.493  1.00  0.00    -0.744 OA
ENDBRANCH  76  79
ENDBRANCH  48  72
BRANCH  60  83
ATOM     83  C   UNL A   1      44.688  28.875  33.829  1.00  0.00     0.023 A 
ATOM     84  C   UNL A   1      45.706  29.848  33.915  1.00  0.00     0.012 A 
ATOM     85  C   UNL A   1      44.804  27.686  34.573  1.00  0.00     0.148 A 
ATOM     86  C   UNL A   1      46.833  29.630  34.703  1.00  0.00     0.002 A 
ATOM     87  C   UNL A   1      45.912  27.493  35.389  1.00  0.00     0.091 A 
ATOM     88  F   UNL A   1      43.834  26.766  34.462  1.00  0.00    -0.205 F 
ATOM     89  C   UNL A   1      46.933  28.458  35.447  1.00  0.00     0.022 A 
BRANCH  87  90
ATOM     90  S   UNL A   1      46.098  26.049  36.441  1.00  0.00     0.127 S 
ATOM     91  O   UNL A   1      45.159  26.345  37.521  1.00  0.00    -0.237 OA
ATOM     92  O   UNL A   1      45.683  24.963  35.553  1.00  0.00    -0.237 OA
ATOM     93  O   UNL A   1      47.502  26.012  36.828  1.00  0.00    -0.744 OA
ENDBRANCH  87  90
ENDBRANCH  60  83
ENDBRANCH  34  35
ENDBRANCH  27  29
ENDBRANCH  26  27
ENDBRANCH  25  26
ENDBRANCH   1  25
TORSDOF 18
ENDMDL
MODEL 3
REMARK VINA RESULT:     -11.6      5.374     10.290
REMARK SMILES O=C(Cc1ccccc1Nc1c(Cl)cccc1C(F)(F)F)OCCOC(=O)c1ccc(-c2c3nc(c(-c4cccc(S(=O)(=O)[O-])c4F)c4ccc([nH]4)c(-c4cccc(S(=O)(=O)[O-])c4F)c4nc(c(-c5cccc(S(=O)(=O)[O-])c5F)c5ccc2[nH]5)C=C4)C=C3)cc1
REMARK SMILES IDX 23 1 22 2 2 3 1 4 3 5 4 6 5 7 9 8 6 9 8 10 7 11 10 12 11 14
REMARK SMILES IDX 12 15 17 16 13 17 14 18 16 19 15 20 18 21 19 22 20 23 21 24
REMARK SMILES IDX 24 25 25 26 26 27 27 28 28 29 29 30 90 31 30 32 89 33 31 34
REMARK SMILES IDX 32 35 33 36 83 37 34 38 88 39 82 40 84 41 35 42 87 43 81 44
REMARK SMILES IDX 80 45 36 47 68 48 48 49 67 50 49 51 52 52 66 53 85 54 50 55
REMARK SMILES IDX 51 56 65 58 86 59 53 60 37 61 38 62 46 63 39 64 41 65 47 66
REMARK SMILES IDX 40 67 42 68 43 69 44 70 45 71 69 72 70 73 78 74 71 75 73 76
REMARK SMILES IDX 79 77 72 78 74 79 75 80 76 81 77 82 54 83 55 84 63 85 56 86
REMARK SMILES IDX 58 87 64 88 57 89 59 90 60 91 61 92 62 93
REMARK H PARENT 10 13 84 46 52 57
REMARK Flexibility Score: inf
ROOT
ATOM      1  C   UNL A   1      31.864  28.691  27.280  1.00  0.00     0.274 C 
ENDROOT
BRANCH   1   2
ATOM      2  O   UNL A   1      31.431  27.695  26.334  1.00  0.00    -0.462 OA
BRANCH   2   3
ATOM      3  C   UNL A   1      31.804  26.391  26.349  1.00  0.00     0.310 C 
ATOM      4  O   UNL A   1      31.073  25.554  26.876  1.00  0.00    -0.252 OA
BRANCH   3   5
ATOM      5  C   UNL A   1      33.138  26.003  25.750  1.00  0.00     0.160 C 
BRANCH   5   6
ATOM      6  C   UNL A   1      33.024  25.529  24.320  1.00  0.00    -0.013 A 
ATOM      7  C   UNL A   1      32.787  26.486  23.312  1.00  0.00     0.006 A 
ATOM      8  C   UNL A   1      33.215  24.184  23.959  1.00  0.00     0.042 A 
ATOM      9  C   UNL A   1      32.751  26.124  21.968  1.00  0.00     0.000 A 
ATOM     10  C   UNL A   1      33.133  23.839  22.599  1.00  0.00     0.026 A 
ATOM     11  C   UNL A   1      32.920  24.796  21.610  1.00  0.00     0.002 A 
BRANCH   8  12
ATOM     12  N   UNL A   1      33.592  23.218  24.919  1.00  0.00    -0.354 N 
ATOM     13  H   UNL A   1      33.241  23.349  25.830  1.00  0.00     0.167 HD
BRANCH  12  14
ATOM     14  C   UNL A   1      34.417  22.085  24.724  1.00  0.00     0.070 A 
ATOM     15  C   UNL A   1      35.820  22.251  24.747  1.00  0.00     0.065 A 
ATOM     16  C   UNL A   1      33.895  20.776  24.670  1.00  0.00     0.080 A 
ATOM     17  Cl  UNL A   1      36.520  23.833  24.652  1.00  0.00    -0.082 Cl
ATOM     18  C   UNL A   1      36.674  21.159  24.871  1.00  0.00     0.023 A 
ATOM     19  C   UNL A   1      34.763  19.689  24.882  1.00  0.00     0.015 A 
ATOM     20  C   UNL A   1      36.138  19.884  25.001  1.00  0.00     0.002 A 
BRANCH  16  21
ATOM     21  C   UNL A   1      32.456  20.472  24.296  1.00  0.00     0.418 C 
ATOM     22  F   UNL A   1      32.162  20.863  23.026  1.00  0.00    -0.166 F 
ATOM     23  F   UNL A   1      32.154  19.146  24.362  1.00  0.00    -0.166 F 
ATOM     24  F   UNL A   1      31.517  21.111  25.057  1.00  0.00    -0.166 F 
ENDBRANCH  16  21
ENDBRANCH  12  14
ENDBRANCH   8  12
ENDBRANCH   5   6
ENDBRANCH   3   5
ENDBRANCH   2   3
ENDBRANCH   1   2
BRANCH   1  25
ATOM     25  C   UNL A   1      31.779  30.108  26.711  1.00  0.00     0.275 C 
BRANCH  25  26
ATOM     26  O   UNL A   1      33.080  30.638  26.400  1.00  0.00    -0.458 OA
BRANCH  26  27
ATOM     27  C   UNL A   1      33.543  31.593  27.251  1.00  0.00     0.338 C 
ATOM     28  O   UNL A   1      32.971  32.618  27.564  1.00  0.00    -0.246 OA
BRANCH  27  29
ATOM     29  C   UNL A   1      34.815  31.143  27.866  1.00  0.00     0.060 A 
ATOM     30  C   UNL A   1      34.934  29.794  28.228  1.00  0.00     0.016 A 
ATOM     31  C   UNL A   1      35.877  32.023  28.097  1.00  0.00     0.016 A 
ATOM     32  C   UNL A   1      36.113  29.328  28.821  1.00  0.00     0.010 A 
ATOM     33  C   UNL A   1      37.047  31.558  28.706  1.00  0.00     0.010 A 
ATOM     34  C   UNL A   1      37.171  30.210  29.082  1.00  0.00    -0.014 A 
BRANCH  34  35
ATOM     35  C   UNL A   1      38.395  29.733  29.777  1.00  0.00     0.031 A 
ATOM     36  C   UNL A   1      38.681  30.164  31.184  1.00  0.00     0.074 A 
ATOM     37  C   UNL A   1      39.307  28.986  29.127  1.00  0.00     0.049 A 
ATOM     38  N   UNL A   1      39.685  29.833  31.954  1.00  0.00    -0.248 NA
ATOM     39  C   UNL A   1      37.745  31.124  31.786  1.00  0.00     0.031 C 
ATOM     40  C   UNL A   1      39.230  28.628  27.717  1.00  0.00     0.029 A 
ATOM     41  N   UNL A   1      40.488  28.424  29.554  1.00  0.00    -0.354 N 
ATOM     42  C   UNL A   1      39.553  30.606  33.098  1.00  0.00     0.074 A 
ATOM     43  C   UNL A   1      38.339  31.382  32.944  1.00  0.00     0.031 C 
ATOM     44  C   UNL A   1      40.307  27.891  27.404  1.00  0.00     0.029 A 
ATOM     45  C   UNL A   1      41.131  27.688  28.585  1.00  0.00     0.049 A 
ATOM     46  H   UNL A   1      40.840  28.537  30.467  1.00  0.00     0.167 HD
ATOM     47  C   UNL A   1      40.382  30.682  34.165  1.00  0.00     0.034 A 
ATOM     48  C   UNL A   1      42.240  26.921  28.637  1.00  0.00     0.034 A 
ATOM     49  C   UNL A   1      41.576  29.899  34.340  1.00  0.00     0.049 A 
ATOM     50  C   UNL A   1      43.035  26.879  29.913  1.00  0.00     0.074 A 
ATOM     51  C   UNL A   1      42.418  29.856  35.438  1.00  0.00     0.029 A 
ATOM     52  N   UNL A   1      42.113  29.043  33.394  1.00  0.00    -0.354 N 
ATOM     53  N   UNL A   1      42.777  27.449  31.064  1.00  0.00    -0.248 NA
ATOM     54  C   UNL A   1      44.279  26.093  29.895  1.00  0.00     0.031 C 
ATOM     55  C   UNL A   1      43.478  28.992  35.147  1.00  0.00     0.029 A 
ATOM     56  C   UNL A   1      43.286  28.485  33.874  1.00  0.00     0.049 A 
ATOM     57  H   UNL A   1      41.719  28.859  32.510  1.00  0.00     0.167 HD
ATOM     58  C   UNL A   1      43.843  27.121  31.892  1.00  0.00     0.074 A 
ATOM     59  C   UNL A   1      44.700  26.226  31.145  1.00  0.00     0.031 C 
ATOM     60  C   UNL A   1      44.121  27.574  33.137  1.00  0.00     0.034 A 
BRANCH  47  61
ATOM     61  C   UNL A   1      40.034  31.664  35.247  1.00  0.00     0.023 A 
ATOM     62  C   UNL A   1      40.585  32.958  35.220  1.00  0.00     0.012 A 
ATOM     63  C   UNL A   1      39.090  31.325  36.235  1.00  0.00     0.148 A 
ATOM     64  C   UNL A   1      40.209  33.903  36.172  1.00  0.00     0.002 A 
ATOM     65  C   UNL A   1      38.694  32.283  37.160  1.00  0.00     0.091 A 
ATOM     66  F   UNL A   1      38.599  30.078  36.250  1.00  0.00    -0.205 F 
ATOM     67  C   UNL A   1      39.256  33.570  37.133  1.00  0.00     0.022 A 
BRANCH  65  68
ATOM     68  S   UNL A   1      37.426  31.973  38.392  1.00  0.00     0.127 S 
ATOM     69  O   UNL A   1      38.143  32.270  39.632  1.00  0.00    -0.237 OA
ATOM     70  O   UNL A   1      36.401  32.953  38.031  1.00  0.00    -0.237 OA
ATOM     71  O   UNL A   1      37.028  30.582  38.223  1.00  0.00    -0.744 OA
ENDBRANCH  65  68
ENDBRANCH  47  61
BRANCH  48  72
ATOM     72  C   UNL A   1      42.636  26.044  27.493  1.00  0.00     0.023 A 
ATOM     73  C   UNL A   1      43.532  26.563  26.533  1.00  0.00     0.012 A 
ATOM     74  C   UNL A   1      42.154  24.735  27.327  1.00  0.00     0.148 A 
ATOM     75  C   UNL A   1      43.902  25.817  25.413  1.00  0.00     0.002 A 
ATOM     76  C   UNL A   1      42.591  23.966  26.251  1.00  0.00     0.091 A 
ATOM     77  F   UNL A   1      41.278  24.253  28.221  1.00  0.00    -0.205 F 
ATOM     78  C   UNL A   1      43.444  24.512  25.280  1.00  0.00     0.022 A 
BRANCH  76  79
ATOM     79  S   UNL A   1      42.228  22.209  26.153  1.00  0.00     0.127 S 
ATOM     80  O   UNL A   1      40.786  22.202  25.938  1.00  0.00    -0.237 OA
ATOM     81  O   UNL A   1      43.031  21.792  25.002  1.00  0.00    -0.237 OA
ATOM     82  O   UNL A   1      42.705  21.670  27.419  1.00  0.00    -0.744 OA
ENDBRANCH  76  79
ENDBRANCH  48  72
BRANCH  60  83
ATOM     83  C   UNL A   1      45.433  27.157  33.743  1.00  0.00     0.023 A 
ATOM     84  C   UNL A   1      46.563  27.981  33.556  1.00  0.00     0.012 A 
ATOM     85  C   UNL A   1      45.547  25.996  34.529  1.00  0.00     0.148 A 
ATOM     86  C   UNL A   1      47.792  27.640  34.115  1.00  0.00     0.002 A 
ATOM     87  C   UNL A   1      46.767  25.683  35.118  1.00  0.00     0.091 A 
ATOM     88  F   UNL A   1      44.465  25.217  34.679  1.00  0.00    -0.205 F 
ATOM     89  C   UNL A   1      47.892  26.497  34.904  1.00  0.00     0.022 A 
BRANCH  87  90
ATOM     90  S   UNL A   1      46.980  24.272  36.210  1.00  0.00     0.127 S 
ATOM     91  O   UNL A   1      48.410  24.339  36.506  1.00  0.00    -0.237 OA
ATOM     92  O   UNL A   1      46.108  24.616  37.333  1.00  0.00    -0.237 OA
ATOM     93  O   UNL A   1      46.554  23.106  35.447  1.00  0.00    -0.744 OA
ENDBRANCH  87  90
ENDBRANCH  60  83
ENDBRANCH  34  35
ENDBRANCH  27  29
ENDBRANCH  26  27
ENDBRANCH  25  26
ENDBRANCH   1  25
TORSDOF 18
ENDMDL
