MODEL 1
REMARK VINA RESULT:     -12.4      0.000      0.000
REMARK SMILES O=C(OCCOC(=O)[C@@H](NC(=O)[C@H]1CC[C@@H]2CCCC[C@H]2[NH2+]1)C1CC1)c1ccc(-c2c3nc(c(-c4cccc(S(=O)(=O)[O-])c4F)c4ccc([nH]4)c(-c4cccc(S(=O)(=O)[O-])c4F)c4nc(c(-c5cccc(S(=O)(=O)[O-])c5F)c5ccc2[nH]5)C=C4)C=C3)cc1
REMARK SMILES IDX 4 1 3 2 2 3 1 4 26 5 27 6 88 7 28 8 87 9 29 10 30 11 31 12
REMARK SMILES IDX 81 13 32 14 86 15 80 16 82 17 33 18 85 19 79 20 78 21 34 23
REMARK SMILES IDX 66 24 46 25 65 26 47 27 50 28 64 29 83 30 48 31 49 32 63 34
REMARK SMILES IDX 84 35 51 36 35 37 36 38 44 39 37 40 39 41 45 42 38 43 40 44
REMARK SMILES IDX 41 45 42 46 43 47 67 48 68 49 76 50 69 51 71 52 77 53 70 54
REMARK SMILES IDX 72 55 73 56 74 57 75 58 52 59 53 60 61 61 54 62 56 63 62 64
REMARK SMILES IDX 55 65 57 66 58 67 59 68 60 69 5 70 6 71 7 72 8 73 9 74 10 75
REMARK SMILES IDX 11 76 12 78 13 79 14 80 22 81 15 82 21 83 16 86 20 87 17 88
REMARK SMILES IDX 19 89 18 90 23 91 24 92 25 93
REMARK H PARENT 82 22 50 33 10 77 22 84 22 85
REMARK Flexibility Score: inf
ROOT
ATOM      1  C   UNL A   1      31.815  29.504  25.866  1.00  0.00     0.275 C 
ENDROOT
BRANCH   1   2
ATOM      2  O   UNL A   1      32.360  29.951  27.115  1.00  0.00    -0.458 OA
BRANCH   2   3
ATOM      3  C   UNL A   1      33.115  31.045  27.361  1.00  0.00     0.338 C 
ATOM      4  O   UNL A   1      32.542  32.137  27.337  1.00  0.00    -0.246 OA
BRANCH   3   5
ATOM      5  C   UNL A   1      34.588  31.049  27.693  1.00  0.00     0.060 A 
ATOM      6  C   UNL A   1      35.429  32.150  27.891  1.00  0.00     0.016 A 
ATOM      7  C   UNL A   1      35.143  29.783  27.942  1.00  0.00     0.016 A 
ATOM      8  C   UNL A   1      36.753  31.991  28.371  1.00  0.00     0.010 A 
ATOM      9  C   UNL A   1      36.433  29.631  28.473  1.00  0.00     0.010 A 
ATOM     10  C   UNL A   1      37.259  30.735  28.729  1.00  0.00    -0.014 A 
BRANCH  10  11
ATOM     11  C   UNL A   1      38.609  30.469  29.345  1.00  0.00     0.031 A 
ATOM     12  C   UNL A   1      38.926  31.070  30.650  1.00  0.00     0.074 A 
ATOM     13  C   UNL A   1      39.505  29.539  28.944  1.00  0.00     0.049 A 
ATOM     14  N   UNL A   1      39.784  30.598  31.508  1.00  0.00    -0.248 NA
ATOM     15  C   UNL A   1      38.095  32.175  31.128  1.00  0.00     0.031 C 
ATOM     16  C   UNL A   1      38.994  28.298  28.449  1.00  0.00     0.029 A 
ATOM     17  N   UNL A   1      40.859  29.253  29.127  1.00  0.00    -0.354 N 
ATOM     18  C   UNL A   1      39.595  31.331  32.647  1.00  0.00     0.074 A 
ATOM     19  C   UNL A   1      38.546  32.296  32.367  1.00  0.00     0.031 C 
ATOM     20  C   UNL A   1      40.001  27.447  28.266  1.00  0.00     0.029 A 
ATOM     21  C   UNL A   1      41.260  28.085  28.483  1.00  0.00     0.049 A 
ATOM     22  H   UNL A   1      41.466  29.816  29.656  1.00  0.00     0.167 HD
ATOM     23  C   UNL A   1      40.249  31.181  33.815  1.00  0.00     0.034 A 
ATOM     24  C   UNL A   1      42.369  27.316  28.340  1.00  0.00     0.034 A 
ATOM     25  C   UNL A   1      41.342  30.272  34.029  1.00  0.00     0.049 A 
ATOM     26  C   UNL A   1      43.097  27.234  29.637  1.00  0.00     0.074 A 
ATOM     27  C   UNL A   1      42.191  30.219  35.118  1.00  0.00     0.029 A 
ATOM     28  N   UNL A   1      41.780  29.301  33.130  1.00  0.00    -0.354 N 
ATOM     29  N   UNL A   1      42.763  27.825  30.752  1.00  0.00    -0.248 NA
ATOM     30  C   UNL A   1      44.157  26.224  29.762  1.00  0.00     0.031 C 
ATOM     31  C   UNL A   1      43.172  29.256  34.865  1.00  0.00     0.029 A 
ATOM     32  C   UNL A   1      42.908  28.668  33.640  1.00  0.00     0.049 A 
ATOM     33  H   UNL A   1      41.355  29.094  32.266  1.00  0.00     0.167 HD
ATOM     34  C   UNL A   1      43.523  27.228  31.722  1.00  0.00     0.074 A 
ATOM     35  C   UNL A   1      44.262  26.154  31.082  1.00  0.00     0.031 C 
ATOM     36  C   UNL A   1      43.637  27.595  33.014  1.00  0.00     0.034 A 
BRANCH  23  37
ATOM     37  C   UNL A   1      39.868  32.189  34.843  1.00  0.00     0.023 A 
ATOM     38  C   UNL A   1      40.611  33.376  34.999  1.00  0.00     0.012 A 
ATOM     39  C   UNL A   1      38.889  31.835  35.785  1.00  0.00     0.148 A 
ATOM     40  C   UNL A   1      40.427  34.165  36.132  1.00  0.00     0.002 A 
ATOM     41  C   UNL A   1      38.681  32.646  36.883  1.00  0.00     0.091 A 
ATOM     42  F   UNL A   1      38.240  30.673  35.621  1.00  0.00    -0.205 F 
ATOM     43  C   UNL A   1      39.464  33.797  37.073  1.00  0.00     0.022 A 
BRANCH  41  44
ATOM     44  S   UNL A   1      37.453  32.259  38.127  1.00  0.00     0.127 S 
ATOM     45  O   UNL A   1      38.064  32.822  39.332  1.00  0.00    -0.237 OA
ATOM     46  O   UNL A   1      36.290  32.994  37.629  1.00  0.00    -0.237 OA
ATOM     47  O   UNL A   1      37.313  30.813  38.129  1.00  0.00    -0.744 OA
ENDBRANCH  41  44
ENDBRANCH  23  37
BRANCH  24  48
ATOM     48  C   UNL A   1      42.502  26.158  27.345  1.00  0.00     0.023 A 
ATOM     49  C   UNL A   1      43.158  26.349  26.105  1.00  0.00     0.012 A 
ATOM     50  C   UNL A   1      41.934  24.883  27.579  1.00  0.00     0.148 A 
ATOM     51  C   UNL A   1      43.188  25.359  25.113  1.00  0.00     0.002 A 
ATOM     52  C   UNL A   1      42.017  23.872  26.603  1.00  0.00     0.091 A 
ATOM     53  F   UNL A   1      41.294  24.670  28.737  1.00  0.00    -0.205 F 
ATOM     54  C   UNL A   1      42.623  24.118  25.364  1.00  0.00     0.022 A 
BRANCH  52  55
ATOM     55  S   UNL A   1      41.512  22.161  26.906  1.00  0.00     0.127 S 
ATOM     56  O   UNL A   1      40.070  22.299  27.107  1.00  0.00    -0.237 OA
ATOM     57  O   UNL A   1      41.888  21.499  25.652  1.00  0.00    -0.237 OA
ATOM     58  O   UNL A   1      42.281  21.726  28.058  1.00  0.00    -0.744 OA
ENDBRANCH  52  55
ENDBRANCH  24  48
BRANCH  36  59
ATOM     59  C   UNL A   1      44.721  26.901  33.775  1.00  0.00     0.023 A 
ATOM     60  C   UNL A   1      46.049  27.365  33.639  1.00  0.00     0.012 A 
ATOM     61  C   UNL A   1      44.438  25.830  34.630  1.00  0.00     0.148 A 
ATOM     62  C   UNL A   1      47.090  26.733  34.304  1.00  0.00     0.002 A 
ATOM     63  C   UNL A   1      45.473  25.251  35.348  1.00  0.00     0.091 A 
ATOM     64  F   UNL A   1      43.174  25.390  34.714  1.00  0.00    -0.205 F 
ATOM     65  C   UNL A   1      46.799  25.686  35.171  1.00  0.00     0.022 A 
BRANCH  63  66
ATOM     66  S   UNL A   1      45.191  23.980  36.579  1.00  0.00     0.127 S 
ATOM     67  O   UNL A   1      46.548  23.722  37.056  1.00  0.00    -0.237 OA
ATOM     68  O   UNL A   1      44.326  24.672  37.532  1.00  0.00    -0.237 OA
ATOM     69  O   UNL A   1      44.560  22.870  35.876  1.00  0.00    -0.744 OA
ENDBRANCH  63  66
ENDBRANCH  36  59
ENDBRANCH  10  11
ENDBRANCH   3   5
ENDBRANCH   2   3
ENDBRANCH   1   2
BRANCH   1  70
ATOM     70  C   UNL A   1      31.863  27.984  25.708  1.00  0.00     0.274 C 
BRANCH  70  71
ATOM     71  O   UNL A   1      31.546  27.571  24.367  1.00  0.00    -0.461 OA
BRANCH  71  72
ATOM     72  C   UNL A   1      30.547  26.644  24.253  1.00  0.00     0.329 C 
ATOM     73  O   UNL A   1      29.353  26.928  24.193  1.00  0.00    -0.250 OA
BRANCH  72  74
ATOM     74  C   UNL A   1      31.056  25.197  24.404  1.00  0.00     0.195 C 
BRANCH  74  75
ATOM     75  N   UNL A   1      30.326  24.385  25.396  1.00  0.00    -0.337 N 
ATOM     76  C   UNL A   1      30.716  23.545  26.404  1.00  0.00     0.278 C 
ATOM     77  H   UNL A   1      29.348  24.466  25.318  1.00  0.00     0.164 HD
ATOM     78  O   UNL A   1      29.934  23.435  27.348  1.00  0.00    -0.268 OA
BRANCH  76  79
ATOM     79  C   UNL A   1      32.039  22.769  26.309  1.00  0.00     0.272 C 
ATOM     80  C   UNL A   1      31.978  21.578  25.370  1.00  0.00     0.076 C 
ATOM     81  N   UNL A   1      33.198  23.672  26.177  1.00  0.00    -0.333 N 
ATOM     82  C   UNL A   1      33.278  20.782  25.550  1.00  0.00     0.016 C 
ATOM     83  C   UNL A   1      34.492  22.998  26.045  1.00  0.00     0.186 C 
ATOM     84  H   UNL A   1      33.232  24.267  27.005  1.00  0.00     0.347 HD
ATOM     85  H   UNL A   1      33.057  24.193  25.311  1.00  0.00     0.347 HD
ATOM     86  C   UNL A   1      34.463  21.686  25.227  1.00  0.00     0.048 C 
ATOM     87  C   UNL A   1      35.526  23.992  25.455  1.00  0.00     0.065 C 
ATOM     88  C   UNL A   1      35.850  21.056  25.237  1.00  0.00     0.010 C 
ATOM     89  C   UNL A   1      36.891  23.373  25.150  1.00  0.00     0.006 C 
ATOM     90  C   UNL A   1      36.808  21.998  24.492  1.00  0.00     0.001 C 
ENDBRANCH  76  79
ENDBRANCH  74  75
BRANCH  74  91
ATOM     91  C   UNL A   1      31.268  24.490  23.089  1.00  0.00     0.023 C 
ATOM     92  C   UNL A   1      32.243  25.066  22.060  1.00  0.00     0.007 C 
ATOM     93  C   UNL A   1      32.497  23.725  22.666  1.00  0.00     0.007 C 
ENDBRANCH  74  91
ENDBRANCH  72  74
ENDBRANCH  71  72
ENDBRANCH  70  71
ENDBRANCH   1  70
TORSDOF 17
ENDMDL
MODEL 2
REMARK VINA RESULT:     -12.0      2.087      3.922
REMARK SMILES O=C(OCCOC(=O)[C@@H](NC(=O)[C@H]1CC[C@@H]2CCCC[C@H]2[NH2+]1)C1CC1)c1ccc(-c2c3nc(c(-c4cccc(S(=O)(=O)[O-])c4F)c4ccc([nH]4)c(-c4cccc(S(=O)(=O)[O-])c4F)c4nc(c(-c5cccc(S(=O)(=O)[O-])c5F)c5ccc2[nH]5)C=C4)C=C3)cc1
REMARK SMILES IDX 4 1 3 2 2 3 1 4 26 5 27 6 88 7 28 8 87 9 29 10 30 11 31 12
REMARK SMILES IDX 81 13 32 14 86 15 80 16 82 17 33 18 85 19 79 20 78 21 34 23
REMARK SMILES IDX 66 24 46 25 65 26 47 27 50 28 64 29 83 30 48 31 49 32 63 34
REMARK SMILES IDX 84 35 51 36 35 37 36 38 44 39 37 40 39 41 45 42 38 43 40 44
REMARK SMILES IDX 41 45 42 46 43 47 67 48 68 49 76 50 69 51 71 52 77 53 70 54
REMARK SMILES IDX 72 55 73 56 74 57 75 58 52 59 53 60 61 61 54 62 56 63 62 64
REMARK SMILES IDX 55 65 57 66 58 67 59 68 60 69 5 70 6 71 7 72 8 73 9 74 10 75
REMARK SMILES IDX 11 76 12 78 13 79 14 80 22 81 15 82 21 83 16 86 20 87 17 88
REMARK SMILES IDX 19 89 18 90 23 91 24 92 25 93
REMARK H PARENT 82 22 50 33 10 77 22 84 22 85
REMARK Flexibility Score: inf
ROOT
ATOM      1  C   UNL A   1      31.517  31.308  26.683  1.00  0.00     0.275 C 
ENDROOT
BRANCH   1   2
ATOM      2  O   UNL A   1      32.679  32.149  26.673  1.00  0.00    -0.458 OA
BRANCH   2   3
ATOM      3  C   UNL A   1      33.109  33.004  27.627  1.00  0.00     0.338 C 
ATOM      4  O   UNL A   1      32.451  34.035  27.792  1.00  0.00    -0.246 OA
BRANCH   3   5
ATOM      5  C   UNL A   1      34.301  32.799  28.530  1.00  0.00     0.060 A 
ATOM      6  C   UNL A   1      34.327  32.272  29.826  1.00  0.00     0.016 A 
ATOM      7  C   UNL A   1      35.547  33.068  27.938  1.00  0.00     0.016 A 
ATOM      8  C   UNL A   1      35.549  31.977  30.479  1.00  0.00     0.010 A 
ATOM      9  C   UNL A   1      36.754  32.721  28.562  1.00  0.00     0.010 A 
ATOM     10  C   UNL A   1      36.783  32.138  29.838  1.00  0.00    -0.014 A 
BRANCH  10  11
ATOM     11  C   UNL A   1      38.128  31.758  30.401  1.00  0.00     0.031 A 
ATOM     12  C   UNL A   1      38.460  32.155  31.778  1.00  0.00     0.074 A 
ATOM     13  C   UNL A   1      39.004  30.879  29.864  1.00  0.00     0.049 A 
ATOM     14  N   UNL A   1      39.310  31.546  32.554  1.00  0.00    -0.248 NA
ATOM     15  C   UNL A   1      37.653  33.195  32.417  1.00  0.00     0.031 C 
ATOM     16  C   UNL A   1      38.467  29.735  29.195  1.00  0.00     0.029 A 
ATOM     17  N   UNL A   1      40.353  30.542  29.996  1.00  0.00    -0.354 N 
ATOM     18  C   UNL A   1      39.139  32.108  33.788  1.00  0.00     0.074 A 
ATOM     19  C   UNL A   1      38.110  33.125  33.658  1.00  0.00     0.031 C 
ATOM     20  C   UNL A   1      39.456  28.899  28.885  1.00  0.00     0.029 A 
ATOM     21  C   UNL A   1      40.729  29.473  29.186  1.00  0.00     0.049 A 
ATOM     22  H   UNL A   1      40.973  31.010  30.598  1.00  0.00     0.167 HD
ATOM     23  C   UNL A   1      39.792  31.776  34.919  1.00  0.00     0.034 A 
ATOM     24  C   UNL A   1      41.822  28.712  28.927  1.00  0.00     0.034 A 
ATOM     25  C   UNL A   1      40.867  30.824  34.992  1.00  0.00     0.049 A 
ATOM     26  C   UNL A   1      42.550  28.427  30.194  1.00  0.00     0.074 A 
ATOM     27  C   UNL A   1      41.718  30.595  36.057  1.00  0.00     0.029 A 
ATOM     28  N   UNL A   1      41.283  29.986  33.958  1.00  0.00    -0.354 N 
ATOM     29  N   UNL A   1      42.231  28.855  31.385  1.00  0.00    -0.248 NA
ATOM     30  C   UNL A   1      43.590  27.389  30.165  1.00  0.00     0.031 C 
ATOM     31  C   UNL A   1      42.678  29.660  35.661  1.00  0.00     0.029 A 
ATOM     32  C   UNL A   1      42.400  29.263  34.365  1.00  0.00     0.049 A 
ATOM     33  H   UNL A   1      40.852  29.916  33.075  1.00  0.00     0.167 HD
ATOM     34  C   UNL A   1      42.981  28.107  32.254  1.00  0.00     0.074 A 
ATOM     35  C   UNL A   1      43.696  27.124  31.459  1.00  0.00     0.031 C 
ATOM     36  C   UNL A   1      43.105  28.279  33.584  1.00  0.00     0.034 A 
BRANCH  23  37
ATOM     37  C   UNL A   1      39.434  32.631  36.084  1.00  0.00     0.023 A 
ATOM     38  C   UNL A   1      40.193  33.776  36.399  1.00  0.00     0.012 A 
ATOM     39  C   UNL A   1      38.462  32.154  36.978  1.00  0.00     0.148 A 
ATOM     40  C   UNL A   1      40.030  34.396  37.635  1.00  0.00     0.002 A 
ATOM     41  C   UNL A   1      38.276  32.802  38.184  1.00  0.00     0.091 A 
ATOM     42  F   UNL A   1      37.799  31.035  36.659  1.00  0.00    -0.205 F 
ATOM     43  C   UNL A   1      39.074  33.907  38.527  1.00  0.00     0.022 A 
BRANCH  41  44
ATOM     44  S   UNL A   1      37.058  32.253  39.375  1.00  0.00     0.127 S 
ATOM     45  O   UNL A   1      37.402  30.837  39.520  1.00  0.00    -0.237 OA
ATOM     46  O   UNL A   1      37.386  33.084  40.534  1.00  0.00    -0.237 OA
ATOM     47  O   UNL A   1      35.757  32.510  38.781  1.00  0.00    -0.744 OA
ENDBRANCH  41  44
ENDBRANCH  23  37
BRANCH  24  48
ATOM     48  C   UNL A   1      41.928  27.709  27.772  1.00  0.00     0.023 A 
ATOM     49  C   UNL A   1      42.462  28.108  26.523  1.00  0.00     0.012 A 
ATOM     50  C   UNL A   1      41.452  26.380  27.871  1.00  0.00     0.148 A 
ATOM     51  C   UNL A   1      42.458  27.264  25.403  1.00  0.00     0.002 A 
ATOM     52  C   UNL A   1      41.504  25.517  26.760  1.00  0.00     0.091 A 
ATOM     53  F   UNL A   1      40.929  25.972  29.035  1.00  0.00    -0.205 F 
ATOM     54  C   UNL A   1      41.984  25.966  25.523  1.00  0.00     0.022 A 
BRANCH  52  55
ATOM     55  S   UNL A   1      41.121  23.752  26.860  1.00  0.00     0.127 S 
ATOM     56  O   UNL A   1      39.674  23.740  26.642  1.00  0.00    -0.237 OA
ATOM     57  O   UNL A   1      41.904  23.199  25.750  1.00  0.00    -0.237 OA
ATOM     58  O   UNL A   1      41.574  23.329  28.173  1.00  0.00    -0.744 OA
ENDBRANCH  52  55
ENDBRANCH  24  48
BRANCH  36  59
ATOM     59  C   UNL A   1      44.176  27.460  34.231  1.00  0.00     0.023 A 
ATOM     60  C   UNL A   1      45.489  27.981  34.284  1.00  0.00     0.012 A 
ATOM     61  C   UNL A   1      43.894  26.213  34.800  1.00  0.00     0.148 A 
ATOM     62  C   UNL A   1      46.520  27.243  34.847  1.00  0.00     0.002 A 
ATOM     63  C   UNL A   1      44.914  25.515  35.428  1.00  0.00     0.091 A 
ATOM     64  F   UNL A   1      42.647  25.730  34.706  1.00  0.00    -0.205 F 
ATOM     65  C   UNL A   1      46.229  26.016  35.433  1.00  0.00     0.022 A 
BRANCH  63  66
ATOM     66  S   UNL A   1      44.623  23.987  36.317  1.00  0.00     0.127 S 
ATOM     67  O   UNL A   1      45.972  23.434  36.408  1.00  0.00    -0.237 OA
ATOM     68  O   UNL A   1      44.072  24.476  37.580  1.00  0.00    -0.237 OA
ATOM     69  O   UNL A   1      43.691  23.216  35.503  1.00  0.00    -0.744 OA
ENDBRANCH  63  66
ENDBRANCH  36  59
ENDBRANCH  10  11
ENDBRANCH   3   5
ENDBRANCH   2   3
ENDBRANCH   1   2
BRANCH   1  70
ATOM     70  C   UNL A   1      31.708  30.022  25.878  1.00  0.00     0.274 C 
BRANCH  70  71
ATOM     71  O   UNL A   1      33.033  29.921  25.329  1.00  0.00    -0.461 OA
BRANCH  71  72
ATOM     72  C   UNL A   1      33.802  28.903  25.821  1.00  0.00     0.329 C 
ATOM     73  O   UNL A   1      34.731  29.064  26.607  1.00  0.00    -0.250 OA
BRANCH  72  74
ATOM     74  C   UNL A   1      33.509  27.551  25.139  1.00  0.00     0.195 C 
BRANCH  74  75
ATOM     75  N   UNL A   1      33.867  27.490  23.710  1.00  0.00    -0.337 N 
ATOM     76  C   UNL A   1      33.274  27.948  22.564  1.00  0.00     0.278 C 
ATOM     77  H   UNL A   1      34.715  27.019  23.543  1.00  0.00     0.164 HD
ATOM     78  O   UNL A   1      34.032  28.197  21.627  1.00  0.00    -0.268 OA
BRANCH  76  79
ATOM     79  C   UNL A   1      31.746  28.093  22.477  1.00  0.00     0.272 C 
ATOM     80  C   UNL A   1      30.997  27.232  23.479  1.00  0.00     0.076 C 
ATOM     81  N   UNL A   1      31.333  29.504  22.360  1.00  0.00    -0.333 N 
ATOM     82  C   UNL A   1      29.505  27.307  23.126  1.00  0.00     0.016 C 
ATOM     83  C   UNL A   1      29.884  29.719  22.308  1.00  0.00     0.186 C 
ATOM     84  H   UNL A   1      31.742  29.884  21.506  1.00  0.00     0.347 HD
ATOM     85  H   UNL A   1      31.662  29.969  23.206  1.00  0.00     0.347 HD
ATOM     86  C   UNL A   1      29.052  28.762  23.191  1.00  0.00     0.048 C 
ATOM     87  C   UNL A   1      29.577  31.199  22.657  1.00  0.00     0.065 C 
ATOM     88  C   UNL A   1      27.570  29.046  22.982  1.00  0.00     0.010 C 
ATOM     89  C   UNL A   1      28.086  31.524  22.760  1.00  0.00     0.006 C 
ATOM     90  C   UNL A   1      27.277  30.463  23.500  1.00  0.00     0.001 C 
ENDBRANCH  76  79
ENDBRANCH  74  75
BRANCH  74  91
ATOM     91  C   UNL A   1      33.985  26.358  25.929  1.00  0.00     0.023 C 
ATOM     92  C   UNL A   1      33.064  25.152  26.122  1.00  0.00     0.007 C 
ATOM     93  C   UNL A   1      34.351  25.003  25.380  1.00  0.00     0.007 C 
ENDBRANCH  74  91
ENDBRANCH  72  74
ENDBRANCH  71  72
ENDBRANCH  70  71
ENDBRANCH   1  70
TORSDOF 17
ENDMDL
MODEL 3
REMARK VINA RESULT:     -12.0      1.888      2.400
REMARK SMILES O=C(OCCOC(=O)[C@@H](NC(=O)[C@H]1CC[C@@H]2CCCC[C@H]2[NH2+]1)C1CC1)c1ccc(-c2c3nc(c(-c4cccc(S(=O)(=O)[O-])c4F)c4ccc([nH]4)c(-c4cccc(S(=O)(=O)[O-])c4F)c4nc(c(-c5cccc(S(=O)(=O)[O-])c5F)c5ccc2[nH]5)C=C4)C=C3)cc1
REMARK SMILES IDX 4 1 3 2 2 3 1 4 26 5 27 6 88 7 28 8 87 9 29 10 30 11 31 12
REMARK SMILES IDX 81 13 32 14 86 15 80 16 82 17 33 18 85 19 79 20 78 21 34 23
REMARK SMILES IDX 66 24 46 25 65 26 47 27 50 28 64 29 83 30 48 31 49 32 63 34
REMARK SMILES IDX 84 35 51 36 35 37 36 38 44 39 37 40 39 41 45 42 38 43 40 44
REMARK SMILES IDX 41 45 42 46 43 47 67 48 68 49 76 50 69 51 71 52 77 53 70 54
REMARK SMILES IDX 72 55 73 56 74 57 75 58 52 59 53 60 61 61 54 62 56 63 62 64
REMARK SMILES IDX 55 65 57 66 58 67 59 68 60 69 5 70 6 71 7 72 8 73 9 74 10 75
REMARK SMILES IDX 11 76 12 78 13 79 14 80 22 81 15 82 21 83 16 86 20 87 17 88
REMARK SMILES IDX 19 89 18 90 23 91 24 92 25 93
REMARK H PARENT 82 22 50 33 10 77 22 84 22 85
REMARK Flexibility Score: inf
ROOT
ATOM      1  C   UNL A   1      32.175  30.625  26.710  1.00  0.00     0.275 C 
ENDROOT
BRANCH   1   2
ATOM      2  O   UNL A   1      33.607  30.555  26.701  1.00  0.00    -0.458 OA
BRANCH   2   3
ATOM      3  C   UNL A   1      34.469  30.794  27.715  1.00  0.00     0.338 C 
ATOM      4  O   UNL A   1      34.095  31.574  28.594  1.00  0.00    -0.246 OA
BRANCH   3   5
ATOM      5  C   UNL A   1      35.833  30.170  27.884  1.00  0.00     0.060 A 
ATOM      6  C   UNL A   1      36.869  30.084  26.947  1.00  0.00     0.016 A 
ATOM      7  C   UNL A   1      36.126  29.727  29.185  1.00  0.00     0.016 A 
ATOM      8  C   UNL A   1      38.158  29.624  27.312  1.00  0.00     0.010 A 
ATOM      9  C   UNL A   1      37.418  29.328  29.558  1.00  0.00     0.010 A 
ATOM     10  C   UNL A   1      38.475  29.296  28.636  1.00  0.00    -0.014 A 
BRANCH  10  11
ATOM     11  C   UNL A   1      39.835  28.899  29.148  1.00  0.00     0.031 A 
ATOM     12  C   UNL A   1      40.445  29.686  30.231  1.00  0.00     0.074 A 
ATOM     13  C   UNL A   1      40.486  27.743  28.885  1.00  0.00     0.049 A 
ATOM     14  N   UNL A   1      41.328  29.243  31.079  1.00  0.00    -0.248 NA
ATOM     15  C   UNL A   1      39.899  31.012  30.521  1.00  0.00     0.031 C 
ATOM     16  C   UNL A   1      39.700  26.556  28.756  1.00  0.00     0.029 A 
ATOM     17  N   UNL A   1      41.782  27.234  28.983  1.00  0.00    -0.354 N 
ATOM     18  C   UNL A   1      41.443  30.223  32.025  1.00  0.00     0.074 A 
ATOM     19  C   UNL A   1      40.547  31.299  31.640  1.00  0.00     0.031 C 
ATOM     20  C   UNL A   1      40.505  25.499  28.673  1.00  0.00     0.029 A 
ATOM     21  C   UNL A   1      41.874  25.899  28.595  1.00  0.00     0.049 A 
ATOM     22  H   UNL A   1      42.551  27.762  29.295  1.00  0.00     0.167 HD
ATOM     23  C   UNL A   1      42.230  30.195  33.118  1.00  0.00     0.034 A 
ATOM     24  C   UNL A   1      42.799  24.910  28.519  1.00  0.00     0.034 A 
ATOM     25  C   UNL A   1      43.170  29.151  33.422  1.00  0.00     0.049 A 
ATOM     26  C   UNL A   1      43.689  24.959  29.712  1.00  0.00     0.074 A 
ATOM     27  C   UNL A   1      44.152  29.158  34.394  1.00  0.00     0.029 A 
ATOM     28  N   UNL A   1      43.292  27.942  32.737  1.00  0.00    -0.354 N 
ATOM     29  N   UNL A   1      43.635  25.828  30.685  1.00  0.00    -0.248 NA
ATOM     30  C   UNL A   1      44.566  23.805  29.958  1.00  0.00     0.031 C 
ATOM     31  C   UNL A   1      44.902  27.985  34.272  1.00  0.00     0.029 A 
ATOM     32  C   UNL A   1      44.359  27.217  33.258  1.00  0.00     0.049 A 
ATOM     33  H   UNL A   1      42.712  27.647  31.998  1.00  0.00     0.167 HD
ATOM     34  C   UNL A   1      44.419  25.309  31.681  1.00  0.00     0.074 A 
ATOM     35  C   UNL A   1      44.856  23.997  31.238  1.00  0.00     0.031 C 
ATOM     36  C   UNL A   1      44.788  25.911  32.829  1.00  0.00     0.034 A 
BRANCH  23  37
ATOM     37  C   UNL A   1      42.189  31.455  33.912  1.00  0.00     0.023 A 
ATOM     38  C   UNL A   1      42.974  32.566  33.543  1.00  0.00     0.012 A 
ATOM     39  C   UNL A   1      41.519  31.435  35.146  1.00  0.00     0.148 A 
ATOM     40  C   UNL A   1      43.146  33.619  34.438  1.00  0.00     0.002 A 
ATOM     41  C   UNL A   1      41.660  32.505  36.009  1.00  0.00     0.091 A 
ATOM     42  F   UNL A   1      40.824  30.337  35.475  1.00  0.00    -0.205 F 
ATOM     43  C   UNL A   1      42.491  33.586  35.670  1.00  0.00     0.022 A 
BRANCH  41  44
ATOM     44  S   UNL A   1      40.839  32.551  37.599  1.00  0.00     0.127 S 
ATOM     45  O   UNL A   1      40.806  33.989  37.874  1.00  0.00    -0.237 OA
ATOM     46  O   UNL A   1      39.540  31.960  37.275  1.00  0.00    -0.237 OA
ATOM     47  O   UNL A   1      41.661  31.772  38.509  1.00  0.00    -0.744 OA
ENDBRANCH  41  44
ENDBRANCH  23  37
BRANCH  24  48
ATOM     48  C   UNL A   1      42.578  23.565  27.819  1.00  0.00     0.023 A 
ATOM     49  C   UNL A   1      41.484  22.740  28.177  1.00  0.00     0.012 A 
ATOM     50  C   UNL A   1      43.469  23.058  26.843  1.00  0.00     0.148 A 
ATOM     51  C   UNL A   1      41.317  21.449  27.658  1.00  0.00     0.002 A 
ATOM     52  C   UNL A   1      43.265  21.784  26.280  1.00  0.00     0.091 A 
ATOM     53  F   UNL A   1      44.522  23.806  26.487  1.00  0.00    -0.205 F 
ATOM     54  C   UNL A   1      42.205  20.972  26.704  1.00  0.00     0.022 A 
BRANCH  52  55
ATOM     55  S   UNL A   1      44.225  21.155  24.881  1.00  0.00     0.127 S 
ATOM     56  O   UNL A   1      43.596  19.857  24.637  1.00  0.00    -0.237 OA
ATOM     57  O   UNL A   1      43.960  22.160  23.845  1.00  0.00    -0.237 OA
ATOM     58  O   UNL A   1      45.603  21.124  25.337  1.00  0.00    -0.744 OA
ENDBRANCH  52  55
ENDBRANCH  24  48
BRANCH  36  59
ATOM     59  C   UNL A   1      45.838  25.190  33.611  1.00  0.00     0.023 A 
ATOM     60  C   UNL A   1      47.197  25.456  33.329  1.00  0.00     0.012 A 
ATOM     61  C   UNL A   1      45.498  24.286  34.625  1.00  0.00     0.148 A 
ATOM     62  C   UNL A   1      48.205  24.788  34.010  1.00  0.00     0.002 A 
ATOM     63  C   UNL A   1      46.511  23.679  35.352  1.00  0.00     0.091 A 
ATOM     64  F   UNL A   1      44.202  24.029  34.849  1.00  0.00    -0.205 F 
ATOM     65  C   UNL A   1      47.861  23.911  35.032  1.00  0.00     0.022 A 
BRANCH  63  66
ATOM     66  S   UNL A   1      46.178  22.629  36.764  1.00  0.00     0.127 S 
ATOM     67  O   UNL A   1      47.528  22.329  37.236  1.00  0.00    -0.237 OA
ATOM     68  O   UNL A   1      45.409  23.523  37.628  1.00  0.00    -0.237 OA
ATOM     69  O   UNL A   1      45.433  21.486  36.252  1.00  0.00    -0.744 OA
ENDBRANCH  63  66
ENDBRANCH  36  59
ENDBRANCH  10  11
ENDBRANCH   3   5
ENDBRANCH   2   3
ENDBRANCH   1   2
BRANCH   1  70
ATOM     70  C   UNL A   1      31.525  29.608  25.771  1.00  0.00     0.274 C 
BRANCH  70  71
ATOM     71  O   UNL A   1      32.201  28.339  25.800  1.00  0.00    -0.461 OA
BRANCH  71  72
ATOM     72  C   UNL A   1      31.540  27.330  26.446  1.00  0.00     0.329 C 
ATOM     73  O   UNL A   1      31.055  27.438  27.569  1.00  0.00    -0.250 OA
BRANCH  72  74
ATOM     74  C   UNL A   1      31.634  25.983  25.702  1.00  0.00     0.195 C 
BRANCH  74  75
ATOM     75  N   UNL A   1      30.771  24.917  26.244  1.00  0.00    -0.337 N 
ATOM     76  C   UNL A   1      31.017  23.691  26.802  1.00  0.00     0.278 C 
ATOM     77  H   UNL A   1      29.812  25.133  26.196  1.00  0.00     0.164 HD
ATOM     78  O   UNL A   1      30.173  23.282  27.599  1.00  0.00    -0.268 OA
BRANCH  76  79
ATOM     79  C   UNL A   1      32.261  22.884  26.401  1.00  0.00     0.272 C 
ATOM     80  C   UNL A   1      32.045  22.000  25.184  1.00  0.00     0.076 C 
ATOM     81  N   UNL A   1      33.483  23.708  26.426  1.00  0.00    -0.333 N 
ATOM     82  C   UNL A   1      33.280  21.100  25.045  1.00  0.00     0.016 C 
ATOM     83  C   UNL A   1      34.706  23.010  26.020  1.00  0.00     0.186 C 
ATOM     84  H   UNL A   1      33.615  24.051  27.378  1.00  0.00     0.347 HD
ATOM     85  H   UNL A   1      33.340  24.454  25.745  1.00  0.00     0.347 HD
ATOM     86  C   UNL A   1      34.519  21.976  24.885  1.00  0.00     0.048 C 
ATOM     87  C   UNL A   1      35.787  24.056  25.639  1.00  0.00     0.065 C 
ATOM     88  C   UNL A   1      35.846  21.276  24.619  1.00  0.00     0.010 C 
ATOM     89  C   UNL A   1      37.075  23.453  25.076  1.00  0.00     0.006 C 
ATOM     90  C   UNL A   1      36.837  22.319  24.081  1.00  0.00     0.001 C 
ENDBRANCH  76  79
ENDBRANCH  74  75
BRANCH  74  91
ATOM     91  C   UNL A   1      31.557  26.113  24.201  1.00  0.00     0.023 C 
ATOM     92  C   UNL A   1      32.629  25.466  23.322  1.00  0.00     0.007 C 
ATOM     93  C   UNL A   1      31.206  25.023  23.221  1.00  0.00     0.007 C 
ENDBRANCH  74  91
ENDBRANCH  72  74
ENDBRANCH  71  72
ENDBRANCH  70  71
ENDBRANCH   1  70
TORSDOF 17
ENDMDL
