MODEL 1
REMARK VINA RESULT:     -12.4      0.000      0.000
REMARK SMILES O=C(OCCOC(=O)c1ccc(-c2c3nc(c(-c4cccc(S(=O)(=O)[O-])c4F)c4ccc([nH]4)c(-c4cccc(S(=O)(=O)[O-])c4F)c4nc(c(-c5cccc(S(=O)(=O)[O-])c5F)c5ccc2[nH]5)C=C4)C=C3)cc1)C1=Cc2cc(S(F)(F)(F)(F)F)ccc2O[C@@H]1C(F)(F)F
REMARK SMILES IDX 5 1 4 2 3 3 2 4 1 5 72 6 73 7 87 8 74 9 86 10 75 11 85 12
REMARK SMILES IDX 76 13 84 14 83 15 88 16 89 17 90 18 91 19 77 20 78 21 79 22
REMARK SMILES IDX 80 23 81 24 82 25 6 26 7 27 8 28 9 29 10 30 71 31 11 32
REMARK SMILES IDX 70 33 12 34 13 35 14 36 64 37 15 38 69 39 63 40 65 41 16 42
REMARK SMILES IDX 68 43 62 44 61 45 17 47 49 48 29 49 48 50 30 51 33 52 47 53
REMARK SMILES IDX 66 54 31 55 32 56 46 58 67 59 34 60 18 61 19 62 27 63 20 64
REMARK SMILES IDX 22 65 28 66 21 67 23 68 24 69 25 70 26 71 50 72 51 73 59 74
REMARK SMILES IDX 52 75 54 76 60 77 53 78 55 79 56 80 57 81 58 82 35 83 36 84
REMARK SMILES IDX 44 85 37 86 39 87 45 88 38 89 40 90 41 91 42 92 43 93
REMARK H PARENT 65 46 33 57
REMARK Flexibility Score: inf
ROOT
ATOM      1  C   UNL A   1      31.741  29.761  26.070  1.00  0.00     0.275 C 
ENDROOT
BRANCH   1   2
ATOM      2  C   UNL A   1      31.799  28.622  27.074  1.00  0.00     0.275 C 
BRANCH   2   3
ATOM      3  O   UNL A   1      31.834  27.382  26.383  1.00  0.00    -0.459 OA
BRANCH   3   4
ATOM      4  C   UNL A   1      33.018  26.977  25.714  1.00  0.00     0.338 C 
ATOM      5  O   UNL A   1      34.134  27.006  26.323  1.00  0.00    -0.246 OA
BRANCH   4   6
ATOM      6  C   UNL A   1      32.955  26.506  24.270  1.00  0.00     0.087 C 
ATOM      7  C   UNL A   1      33.376  25.254  23.944  1.00  0.00     0.027 C 
ATOM      8  C   UNL A   1      32.422  27.433  23.191  1.00  0.00     0.316 C 
ATOM      9  C   UNL A   1      33.909  24.326  25.024  1.00  0.00     0.019 A 
ATOM     10  O   UNL A   1      32.210  25.181  26.449  1.00  0.00    -0.475 OA
ATOM     11  C   UNL A   1      35.015  23.529  24.781  1.00  0.00     0.036 A 
ATOM     12  C   UNL A   1      33.236  24.242  26.166  1.00  0.00     0.128 A 
ATOM     13  C   UNL A   1      35.163  22.459  25.695  1.00  0.00     0.107 A 
ATOM     14  C   UNL A   1      33.524  23.253  27.075  1.00  0.00     0.048 A 
ATOM     15  C   UNL A   1      34.566  22.392  26.872  1.00  0.00     0.028 A 
BRANCH   8  16
ATOM     16  C   UNL A   1      31.209  26.798  22.531  1.00  0.00     0.430 C 
ATOM     17  F   UNL A   1      30.370  26.367  23.468  1.00  0.00    -0.167 F 
ATOM     18  F   UNL A   1      30.596  27.699  21.768  1.00  0.00    -0.167 F 
ATOM     19  F   UNL A   1      31.598  25.773  21.779  1.00  0.00    -0.167 F 
ENDBRANCH   8  16
BRANCH  13  20
ATOM     20  S   UNL A   1      36.243  21.087  25.219  1.00  0.00     0.310 S 
ATOM     21  F   UNL A   1      36.596  21.763  23.828  1.00  0.00    -0.094 F 
ATOM     22  F   UNL A   1      35.014  20.411  24.501  1.00  0.00    -0.094 F 
ATOM     23  F   UNL A   1      37.168  19.906  24.810  1.00  0.00    -0.094 F 
ATOM     24  F   UNL A   1      37.491  21.845  25.822  1.00  0.00    -0.094 F 
ATOM     25  F   UNL A   1      35.341  22.344  25.542  1.00  0.00    -0.094 F 
ENDBRANCH  13  20
ENDBRANCH   4   6
ENDBRANCH   3   4
ENDBRANCH   2   3
ENDBRANCH   1   2
BRANCH   1  26
ATOM     26  O   UNL A   1      33.015  30.382  25.983  1.00  0.00    -0.458 OA
BRANCH  26  27
ATOM     27  C   UNL A   1      33.455  31.248  27.019  1.00  0.00     0.338 C 
ATOM     28  O   UNL A   1      32.741  32.242  27.362  1.00  0.00    -0.246 OA
BRANCH  27  29
ATOM     29  C   UNL A   1      34.780  30.988  27.716  1.00  0.00     0.060 A 
ATOM     30  C   UNL A   1      35.698  32.005  27.921  1.00  0.00     0.016 A 
ATOM     31  C   UNL A   1      34.970  29.777  28.225  1.00  0.00     0.016 A 
ATOM     32  C   UNL A   1      36.937  31.564  28.440  1.00  0.00     0.010 A 
ATOM     33  C   UNL A   1      36.157  29.455  28.840  1.00  0.00     0.010 A 
ATOM     34  C   UNL A   1      37.131  30.395  29.024  1.00  0.00    -0.014 A 
BRANCH  34  35
ATOM     35  C   UNL A   1      38.372  30.112  29.855  1.00  0.00     0.031 A 
ATOM     36  C   UNL A   1      39.309  29.240  29.299  1.00  0.00     0.074 A 
ATOM     37  C   UNL A   1      38.453  30.617  31.142  1.00  0.00     0.049 A 
ATOM     38  N   UNL A   1      40.426  28.778  29.862  1.00  0.00    -0.248 NA
ATOM     39  C   UNL A   1      39.206  28.675  27.945  1.00  0.00     0.031 C 
ATOM     40  C   UNL A   1      37.517  31.504  31.708  1.00  0.00     0.029 A 
ATOM     41  N   UNL A   1      39.423  30.367  32.088  1.00  0.00    -0.354 N 
ATOM     42  C   UNL A   1      41.076  27.981  29.012  1.00  0.00     0.074 A 
ATOM     43  C   UNL A   1      40.298  27.899  27.769  1.00  0.00     0.031 C 
ATOM     44  C   UNL A   1      37.908  31.775  32.980  1.00  0.00     0.029 A 
ATOM     45  C   UNL A   1      39.097  31.064  33.231  1.00  0.00     0.049 A 
ATOM     46  H   UNL A   1      40.211  29.790  31.968  1.00  0.00     0.167 HD
ATOM     47  C   UNL A   1      42.287  27.322  29.224  1.00  0.00     0.034 A 
ATOM     48  C   UNL A   1      39.785  31.088  34.434  1.00  0.00     0.034 A 
ATOM     49  C   UNL A   1      42.997  27.381  30.412  1.00  0.00     0.049 A 
ATOM     50  C   UNL A   1      40.967  30.381  34.666  1.00  0.00     0.074 A 
ATOM     51  C   UNL A   1      44.225  26.729  30.639  1.00  0.00     0.029 A 
ATOM     52  N   UNL A   1      42.660  28.058  31.563  1.00  0.00    -0.354 N 
ATOM     53  N   UNL A   1      41.637  29.617  33.802  1.00  0.00    -0.248 NA
ATOM     54  C   UNL A   1      41.686  30.374  35.947  1.00  0.00     0.031 C 
ATOM     55  C   UNL A   1      44.616  27.000  31.913  1.00  0.00     0.029 A 
ATOM     56  C   UNL A   1      43.640  27.826  32.502  1.00  0.00     0.049 A 
ATOM     57  H   UNL A   1      41.856  28.612  31.693  1.00  0.00     0.167 HD
ATOM     58  C   UNL A   1      42.733  29.122  34.381  1.00  0.00     0.074 A 
ATOM     59  C   UNL A   1      42.777  29.596  35.771  1.00  0.00     0.031 C 
ATOM     60  C   UNL A   1      43.700  28.297  33.804  1.00  0.00     0.034 A 
BRANCH  47  61
ATOM     61  C   UNL A   1      42.861  26.492  28.086  1.00  0.00     0.023 A 
ATOM     62  C   UNL A   1      43.736  27.043  27.164  1.00  0.00     0.012 A 
ATOM     63  C   UNL A   1      42.393  25.258  27.940  1.00  0.00     0.148 A 
ATOM     64  C   UNL A   1      43.834  26.310  25.958  1.00  0.00     0.002 A 
ATOM     65  C   UNL A   1      42.642  24.547  26.790  1.00  0.00     0.091 A 
ATOM     66  F   UNL A   1      41.677  24.704  28.914  1.00  0.00    -0.205 F 
ATOM     67  C   UNL A   1      43.450  25.055  25.811  1.00  0.00     0.022 A 
BRANCH  65  68
ATOM     68  S   UNL A   1      41.889  22.917  26.569  1.00  0.00     0.127 S 
ATOM     69  O   UNL A   1      40.365  23.054  26.565  1.00  0.00    -0.237 OA
ATOM     70  O   UNL A   1      42.351  22.318  25.237  1.00  0.00    -0.237 OA
ATOM     71  O   UNL A   1      42.366  21.890  27.850  1.00  0.00    -0.744 OA
ENDBRANCH  65  68
ENDBRANCH  47  61
BRANCH  48  72
ATOM     72  C   UNL A   1      39.220  31.931  35.566  1.00  0.00     0.023 A 
ATOM     73  C   UNL A   1      38.266  31.476  36.463  1.00  0.00     0.012 A 
ATOM     74  C   UNL A   1      39.774  33.131  35.698  1.00  0.00     0.148 A 
ATOM     75  C   UNL A   1      37.749  32.485  37.310  1.00  0.00     0.002 A 
ATOM     76  C   UNL A   1      39.306  34.017  36.639  1.00  0.00     0.091 A 
ATOM     77  F   UNL A   1      40.790  33.477  34.914  1.00  0.00    -0.205 F 
ATOM     78  C   UNL A   1      38.325  33.655  37.520  1.00  0.00     0.022 A 
BRANCH  76  79
ATOM     79  S   UNL A   1      40.000  35.687  36.714  1.00  0.00     0.127 S 
ATOM     80  O   UNL A   1      41.520  35.600  36.879  1.00  0.00    -0.237 OA
ATOM     81  O   UNL A   1      39.670  36.436  35.421  1.00  0.00    -0.237 OA
ATOM     82  O   UNL A   1      39.329  36.524  38.045  1.00  0.00    -0.744 OA
ENDBRANCH  76  79
ENDBRANCH  48  72
BRANCH  60  83
ATOM     83  C   UNL A   1      44.891  27.890  34.657  1.00  0.00     0.023 A 
ATOM     84  C   UNL A   1      46.017  28.691  34.754  1.00  0.00     0.012 A 
ATOM     85  C   UNL A   1      44.760  26.794  35.395  1.00  0.00     0.148 A 
ATOM     86  C   UNL A   1      47.089  28.090  35.454  1.00  0.00     0.002 A 
ATOM     87  C   UNL A   1      45.805  26.339  36.163  1.00  0.00     0.091 A 
ATOM     88  F   UNL A   1      43.608  26.130  35.391  1.00  0.00    -0.205 F 
ATOM     89  C   UNL A   1      46.970  27.049  36.258  1.00  0.00     0.022 A 
BRANCH  87  90
ATOM     90  S   UNL A   1      45.637  24.777  37.061  1.00  0.00     0.127 S 
ATOM     91  O   UNL A   1      45.192  23.678  36.093  1.00  0.00    -0.237 OA
ATOM     92  O   UNL A   1      46.985  24.396  37.679  1.00  0.00    -0.237 OA
ATOM     93  O   UNL A   1      44.471  24.952  38.299  1.00  0.00    -0.744 OA
ENDBRANCH  87  90
ENDBRANCH  60  83
ENDBRANCH  34  35
ENDBRANCH  27  29
ENDBRANCH  26  27
ENDBRANCH   1  26
TORSDOF 16
ENDMDL
MODEL 2
REMARK VINA RESULT:     -12.3      1.375      1.654
REMARK SMILES O=C(OCCOC(=O)c1ccc(-c2c3nc(c(-c4cccc(S(=O)(=O)[O-])c4F)c4ccc([nH]4)c(-c4cccc(S(=O)(=O)[O-])c4F)c4nc(c(-c5cccc(S(=O)(=O)[O-])c5F)c5ccc2[nH]5)C=C4)C=C3)cc1)C1=Cc2cc(S(F)(F)(F)(F)F)ccc2O[C@@H]1C(F)(F)F
REMARK SMILES IDX 5 1 4 2 3 3 2 4 1 5 72 6 73 7 87 8 74 9 86 10 75 11 85 12
REMARK SMILES IDX 76 13 84 14 83 15 88 16 89 17 90 18 91 19 77 20 78 21 79 22
REMARK SMILES IDX 80 23 81 24 82 25 6 26 7 27 8 28 9 29 10 30 71 31 11 32
REMARK SMILES IDX 70 33 12 34 13 35 14 36 64 37 15 38 69 39 63 40 65 41 16 42
REMARK SMILES IDX 68 43 62 44 61 45 17 47 49 48 29 49 48 50 30 51 33 52 47 53
REMARK SMILES IDX 66 54 31 55 32 56 46 58 67 59 34 60 18 61 19 62 27 63 20 64
REMARK SMILES IDX 22 65 28 66 21 67 23 68 24 69 25 70 26 71 50 72 51 73 59 74
REMARK SMILES IDX 52 75 54 76 60 77 53 78 55 79 56 80 57 81 58 82 35 83 36 84
REMARK SMILES IDX 44 85 37 86 39 87 45 88 38 89 40 90 41 91 42 92 43 93
REMARK H PARENT 65 46 33 57
REMARK Flexibility Score: inf
ROOT
ATOM      1  C   UNL A   1      31.527  29.755  26.205  1.00  0.00     0.275 C 
ENDROOT
BRANCH   1   2
ATOM      2  C   UNL A   1      31.686  28.527  27.086  1.00  0.00     0.275 C 
BRANCH   2   3
ATOM      3  O   UNL A   1      31.745  27.364  26.273  1.00  0.00    -0.459 OA
BRANCH   3   4
ATOM      4  C   UNL A   1      32.966  26.994  25.652  1.00  0.00     0.338 C 
ATOM      5  O   UNL A   1      34.053  27.047  26.308  1.00  0.00    -0.246 OA
BRANCH   4   6
ATOM      6  C   UNL A   1      32.976  26.534  24.204  1.00  0.00     0.087 C 
ATOM      7  C   UNL A   1      33.400  25.279  23.892  1.00  0.00     0.027 C 
ATOM      8  C   UNL A   1      32.512  27.473  23.104  1.00  0.00     0.316 C 
ATOM      9  C   UNL A   1      33.865  24.338  24.993  1.00  0.00     0.019 A 
ATOM     10  O   UNL A   1      32.101  25.203  26.330  1.00  0.00    -0.475 OA
ATOM     11  C   UNL A   1      34.974  23.531  24.804  1.00  0.00     0.036 A 
ATOM     12  C   UNL A   1      33.131  24.254  26.096  1.00  0.00     0.128 A 
ATOM     13  C   UNL A   1      35.061  22.454  25.718  1.00  0.00     0.107 A 
ATOM     14  C   UNL A   1      33.359  23.257  27.013  1.00  0.00     0.048 A 
ATOM     15  C   UNL A   1      34.401  22.385  26.860  1.00  0.00     0.028 A 
BRANCH   8  16
ATOM     16  C   UNL A   1      31.329  26.855  22.375  1.00  0.00     0.430 C 
ATOM     17  F   UNL A   1      30.703  26.007  23.186  1.00  0.00    -0.167 F 
ATOM     18  F   UNL A   1      30.487  27.815  22.001  1.00  0.00    -0.167 F 
ATOM     19  F   UNL A   1      31.762  26.203  21.300  1.00  0.00    -0.167 F 
ENDBRANCH   8  16
BRANCH  13  20
ATOM     20  S   UNL A   1      36.151  21.073  25.291  1.00  0.00     0.310 S 
ATOM     21  F   UNL A   1      36.484  21.692  23.869  1.00  0.00    -0.094 F 
ATOM     22  F   UNL A   1      34.923  20.354  24.615  1.00  0.00    -0.094 F 
ATOM     23  F   UNL A   1      37.085  19.885  24.924  1.00  0.00    -0.094 F 
ATOM     24  F   UNL A   1      37.397  21.870  25.848  1.00  0.00    -0.094 F 
ATOM     25  F   UNL A   1      35.240  22.334  25.568  1.00  0.00    -0.094 F 
ENDBRANCH  13  20
ENDBRANCH   4   6
ENDBRANCH   3   4
ENDBRANCH   2   3
ENDBRANCH   1   2
BRANCH   1  26
ATOM     26  O   UNL A   1      32.793  30.373  26.022  1.00  0.00    -0.458 OA
BRANCH  26  27
ATOM     27  C   UNL A   1      33.269  31.311  26.976  1.00  0.00     0.338 C 
ATOM     28  O   UNL A   1      32.582  32.346  27.248  1.00  0.00    -0.246 OA
BRANCH  27  29
ATOM     29  C   UNL A   1      34.600  31.079  27.672  1.00  0.00     0.060 A 
ATOM     30  C   UNL A   1      35.446  32.132  27.976  1.00  0.00     0.016 A 
ATOM     31  C   UNL A   1      34.863  29.844  28.082  1.00  0.00     0.016 A 
ATOM     32  C   UNL A   1      36.706  31.729  28.478  1.00  0.00     0.010 A 
ATOM     33  C   UNL A   1      36.061  29.548  28.688  1.00  0.00     0.010 A 
ATOM     34  C   UNL A   1      36.969  30.531  28.966  1.00  0.00    -0.014 A 
BRANCH  34  35
ATOM     35  C   UNL A   1      38.216  30.259  29.792  1.00  0.00     0.031 A 
ATOM     36  C   UNL A   1      39.127  29.344  29.262  1.00  0.00     0.074 A 
ATOM     37  C   UNL A   1      38.325  30.818  31.054  1.00  0.00     0.049 A 
ATOM     38  N   UNL A   1      40.243  28.885  29.830  1.00  0.00    -0.248 NA
ATOM     39  C   UNL A   1      38.993  28.723  27.936  1.00  0.00     0.031 C 
ATOM     40  C   UNL A   1      37.415  31.748  31.594  1.00  0.00     0.029 A 
ATOM     41  N   UNL A   1      39.304  30.590  31.997  1.00  0.00    -0.354 N 
ATOM     42  C   UNL A   1      40.865  28.039  29.007  1.00  0.00     0.074 A 
ATOM     43  C   UNL A   1      40.067  27.918  27.779  1.00  0.00     0.031 C 
ATOM     44  C   UNL A   1      37.830  32.066  32.847  1.00  0.00     0.029 A 
ATOM     45  C   UNL A   1      39.008  31.342  33.112  1.00  0.00     0.049 A 
ATOM     46  H   UNL A   1      40.079  29.992  31.892  1.00  0.00     0.167 HD
ATOM     47  C   UNL A   1      42.066  27.365  29.231  1.00  0.00     0.034 A 
ATOM     48  C   UNL A   1      39.713  31.406  34.304  1.00  0.00     0.034 A 
ATOM     49  C   UNL A   1      42.794  27.462  30.405  1.00  0.00     0.049 A 
ATOM     50  C   UNL A   1      40.885  30.686  34.551  1.00  0.00     0.074 A 
ATOM     51  C   UNL A   1      44.012  26.795  30.645  1.00  0.00     0.029 A 
ATOM     52  N   UNL A   1      42.487  28.195  31.531  1.00  0.00    -0.354 N 
ATOM     53  N   UNL A   1      41.527  29.871  33.712  1.00  0.00    -0.248 NA
ATOM     54  C   UNL A   1      41.622  30.720  35.821  1.00  0.00     0.031 C 
ATOM     55  C   UNL A   1      44.427  27.114  31.900  1.00  0.00     0.029 A 
ATOM     56  C   UNL A   1      43.476  27.984  32.465  1.00  0.00     0.049 A 
ATOM     57  H   UNL A   1      41.696  28.770  31.646  1.00  0.00     0.167 HD
ATOM     58  C   UNL A   1      42.621  29.380  34.297  1.00  0.00     0.074 A 
ATOM     59  C   UNL A   1      42.695  29.913  35.665  1.00  0.00     0.031 C 
ATOM     60  C   UNL A   1      43.564  28.511  33.744  1.00  0.00     0.034 A 
BRANCH  47  61
ATOM     61  C   UNL A   1      42.607  26.474  28.123  1.00  0.00     0.023 A 
ATOM     62  C   UNL A   1      43.417  26.985  27.122  1.00  0.00     0.012 A 
ATOM     63  C   UNL A   1      42.170  25.221  28.085  1.00  0.00     0.148 A 
ATOM     64  C   UNL A   1      43.476  26.174  25.964  1.00  0.00     0.002 A 
ATOM     65  C   UNL A   1      42.383  24.440  26.974  1.00  0.00     0.091 A 
ATOM     66  F   UNL A   1      41.522  24.717  29.131  1.00  0.00    -0.205 F 
ATOM     67  C   UNL A   1      43.124  24.901  25.922  1.00  0.00     0.022 A 
BRANCH  65  68
ATOM     68  S   UNL A   1      41.669  22.779  26.903  1.00  0.00     0.127 S 
ATOM     69  O   UNL A   1      41.904  22.181  25.514  1.00  0.00    -0.237 OA
ATOM     70  O   UNL A   1      42.336  21.892  27.959  1.00  0.00    -0.237 OA
ATOM     71  O   UNL A   1      39.989  22.865  27.211  1.00  0.00    -0.744 OA
ENDBRANCH  65  68
ENDBRANCH  47  61
BRANCH  48  72
ATOM     72  C   UNL A   1      39.182  32.308  35.405  1.00  0.00     0.023 A 
ATOM     73  C   UNL A   1      39.351  33.684  35.422  1.00  0.00     0.012 A 
ATOM     74  C   UNL A   1      38.452  31.693  36.328  1.00  0.00     0.148 A 
ATOM     75  C   UNL A   1      38.941  34.297  36.630  1.00  0.00     0.002 A 
ATOM     76  C   UNL A   1      37.970  32.383  37.414  1.00  0.00     0.091 A 
ATOM     77  F   UNL A   1      38.184  30.396  36.200  1.00  0.00    -0.205 F 
ATOM     78  C   UNL A   1      38.150  33.734  37.525  1.00  0.00     0.022 A 
BRANCH  76  79
ATOM     79  S   UNL A   1      37.083  31.492  38.715  1.00  0.00     0.127 S 
ATOM     80  O   UNL A   1      37.878  31.570  40.021  1.00  0.00    -0.237 OA
ATOM     81  O   UNL A   1      35.704  32.126  38.920  1.00  0.00    -0.237 OA
ATOM     82  O   UNL A   1      36.895  29.855  38.259  1.00  0.00    -0.744 OA
ENDBRANCH  76  79
ENDBRANCH  48  72
BRANCH  60  83
ATOM     83  C   UNL A   1      44.759  28.117  34.598  1.00  0.00     0.023 A 
ATOM     84  C   UNL A   1      45.897  28.905  34.655  1.00  0.00     0.012 A 
ATOM     85  C   UNL A   1      44.622  27.049  35.375  1.00  0.00     0.148 A 
ATOM     86  C   UNL A   1      46.968  28.315  35.364  1.00  0.00     0.002 A 
ATOM     87  C   UNL A   1      45.669  26.607  36.147  1.00  0.00     0.091 A 
ATOM     88  F   UNL A   1      43.461  26.401  35.406  1.00  0.00    -0.205 F 
ATOM     89  C   UNL A   1      46.844  27.304  36.205  1.00  0.00     0.022 A 
BRANCH  87  90
ATOM     90  S   UNL A   1      45.491  25.079  37.100  1.00  0.00     0.127 S 
ATOM     91  O   UNL A   1      44.327  25.225  38.084  1.00  0.00    -0.237 OA
ATOM     92  O   UNL A   1      45.211  23.913  36.148  1.00  0.00    -0.237 OA
ATOM     93  O   UNL A   1      46.933  24.774  37.966  1.00  0.00    -0.744 OA
ENDBRANCH  87  90
ENDBRANCH  60  83
ENDBRANCH  34  35
ENDBRANCH  27  29
ENDBRANCH  26  27
ENDBRANCH   1  26
TORSDOF 16
ENDMDL
MODEL 3
REMARK VINA RESULT:     -12.2      5.344     10.033
REMARK SMILES O=C(OCCOC(=O)c1ccc(-c2c3nc(c(-c4cccc(S(=O)(=O)[O-])c4F)c4ccc([nH]4)c(-c4cccc(S(=O)(=O)[O-])c4F)c4nc(c(-c5cccc(S(=O)(=O)[O-])c5F)c5ccc2[nH]5)C=C4)C=C3)cc1)C1=Cc2cc(S(F)(F)(F)(F)F)ccc2O[C@@H]1C(F)(F)F
REMARK SMILES IDX 5 1 4 2 3 3 2 4 1 5 72 6 73 7 87 8 74 9 86 10 75 11 85 12
REMARK SMILES IDX 76 13 84 14 83 15 88 16 89 17 90 18 91 19 77 20 78 21 79 22
REMARK SMILES IDX 80 23 81 24 82 25 6 26 7 27 8 28 9 29 10 30 71 31 11 32
REMARK SMILES IDX 70 33 12 34 13 35 14 36 64 37 15 38 69 39 63 40 65 41 16 42
REMARK SMILES IDX 68 43 62 44 61 45 17 47 49 48 29 49 48 50 30 51 33 52 47 53
REMARK SMILES IDX 66 54 31 55 32 56 46 58 67 59 34 60 18 61 19 62 27 63 20 64
REMARK SMILES IDX 22 65 28 66 21 67 23 68 24 69 25 70 26 71 50 72 51 73 59 74
REMARK SMILES IDX 52 75 54 76 60 77 53 78 55 79 56 80 57 81 58 82 35 83 36 84
REMARK SMILES IDX 44 85 37 86 39 87 45 88 38 89 40 90 41 91 42 92 43 93
REMARK H PARENT 65 46 33 57
REMARK Flexibility Score: inf
ROOT
ATOM      1  C   UNL A   1      36.927  21.253  24.457  1.00  0.00     0.275 C 
ENDROOT
BRANCH   1   2
ATOM      2  C   UNL A   1      36.677  22.600  23.800  1.00  0.00     0.275 C 
BRANCH   2   3
ATOM      3  O   UNL A   1      35.311  22.956  23.954  1.00  0.00    -0.459 OA
BRANCH   3   4
ATOM      4  C   UNL A   1      34.893  23.686  25.097  1.00  0.00     0.338 C 
ATOM      5  O   UNL A   1      35.688  24.510  25.649  1.00  0.00    -0.246 OA
BRANCH   4   6
ATOM      6  C   UNL A   1      33.496  23.484  25.662  1.00  0.00     0.087 C 
ATOM      7  C   UNL A   1      32.669  24.552  25.826  1.00  0.00     0.027 C 
ATOM      8  C   UNL A   1      33.024  22.092  26.044  1.00  0.00     0.316 C 
ATOM      9  C   UNL A   1      33.141  25.946  25.444  1.00  0.00     0.019 A 
ATOM     10  O   UNL A   1      34.210  24.954  23.567  1.00  0.00    -0.475 OA
ATOM     11  C   UNL A   1      32.838  27.033  26.245  1.00  0.00     0.036 A 
ATOM     12  C   UNL A   1      33.772  26.098  24.285  1.00  0.00     0.128 A 
ATOM     13  C   UNL A   1      32.988  28.282  25.597  1.00  0.00     0.107 A 
ATOM     14  C   UNL A   1      34.005  27.352  23.776  1.00  0.00     0.048 A 
ATOM     15  C   UNL A   1      33.678  28.473  24.487  1.00  0.00     0.028 A 
BRANCH   8  16
ATOM     16  C   UNL A   1      31.794  21.732  25.226  1.00  0.00     0.430 C 
ATOM     17  F   UNL A   1      31.759  20.416  25.036  1.00  0.00    -0.167 F 
ATOM     18  F   UNL A   1      30.699  22.115  25.878  1.00  0.00    -0.167 F 
ATOM     19  F   UNL A   1      31.848  22.348  24.050  1.00  0.00    -0.167 F 
ENDBRANCH   8  16
BRANCH  13  20
ATOM     20  S   UNL A   1      32.176  29.719  26.340  1.00  0.00     0.310 S 
ATOM     21  F   UNL A   1      31.398  28.819  27.389  1.00  0.00    -0.094 F 
ATOM     22  F   UNL A   1      30.963  29.501  25.358  1.00  0.00    -0.094 F 
ATOM     23  F   UNL A   1      31.475  30.955  26.975  1.00  0.00    -0.094 F 
ATOM     24  F   UNL A   1      33.333  29.837  27.408  1.00  0.00    -0.094 F 
ATOM     25  F   UNL A   1      32.844  28.401  25.781  1.00  0.00    -0.094 F 
ENDBRANCH  13  20
ENDBRANCH   4   6
ENDBRANCH   3   4
ENDBRANCH   2   3
ENDBRANCH   1   2
BRANCH   1  26
ATOM     26  O   UNL A   1      37.416  21.452  25.775  1.00  0.00    -0.458 OA
BRANCH  26  27
ATOM     27  C   UNL A   1      38.811  21.396  26.031  1.00  0.00     0.338 C 
ATOM     28  O   UNL A   1      39.454  20.320  25.818  1.00  0.00    -0.246 OA
BRANCH  27  29
ATOM     29  C   UNL A   1      39.537  22.622  26.561  1.00  0.00     0.060 A 
ATOM     30  C   UNL A   1      40.610  22.504  27.428  1.00  0.00     0.016 A 
ATOM     31  C   UNL A   1      39.178  23.800  26.066  1.00  0.00     0.016 A 
ATOM     32  C   UNL A   1      41.069  23.739  27.945  1.00  0.00     0.010 A 
ATOM     33  C   UNL A   1      39.764  24.958  26.520  1.00  0.00     0.010 A 
ATOM     34  C   UNL A   1      40.791  24.919  27.422  1.00  0.00    -0.014 A 
BRANCH  34  35
ATOM     35  C   UNL A   1      41.571  26.166  27.803  1.00  0.00     0.031 A 
ATOM     36  C   UNL A   1      40.863  27.163  28.475  1.00  0.00     0.074 A 
ATOM     37  C   UNL A   1      42.877  26.307  27.365  1.00  0.00     0.049 A 
ATOM     38  N   UNL A   1      41.301  28.369  28.839  1.00  0.00    -0.248 NA
ATOM     39  C   UNL A   1      39.464  27.029  28.910  1.00  0.00     0.031 C 
ATOM     40  C   UNL A   1      43.603  25.304  26.693  1.00  0.00     0.029 A 
ATOM     41  N   UNL A   1      43.698  27.406  27.493  1.00  0.00    -0.354 N 
ATOM     42  C   UNL A   1      40.340  29.035  29.482  1.00  0.00     0.074 A 
ATOM     43  C   UNL A   1      39.143  28.185  29.532  1.00  0.00     0.031 C 
ATOM     44  C   UNL A   1      44.836  25.794  26.407  1.00  0.00     0.029 A 
ATOM     45  C   UNL A   1      44.905  27.112  26.898  1.00  0.00     0.049 A 
ATOM     46  H   UNL A   1      43.462  28.255  27.931  1.00  0.00     0.167 HD
ATOM     47  C   UNL A   1      40.415  30.316  30.030  1.00  0.00     0.034 A 
ATOM     48  C   UNL A   1      46.015  27.934  26.779  1.00  0.00     0.034 A 
ATOM     49  C   UNL A   1      41.539  31.121  29.950  1.00  0.00     0.049 A 
ATOM     50  C   UNL A   1      46.070  29.239  27.277  1.00  0.00     0.074 A 
ATOM     51  C   UNL A   1      41.635  32.413  30.505  1.00  0.00     0.029 A 
ATOM     52  N   UNL A   1      42.739  30.837  29.335  1.00  0.00    -0.354 N 
ATOM     53  N   UNL A   1      45.123  29.888  27.955  1.00  0.00    -0.248 NA
ATOM     54  C   UNL A   1      47.229  30.129  27.128  1.00  0.00     0.031 C 
ATOM     55  C   UNL A   1      42.870  32.903  30.219  1.00  0.00     0.029 A 
ATOM     56  C   UNL A   1      43.566  31.928  29.481  1.00  0.00     0.049 A 
ATOM     57  H   UNL A   1      42.965  29.999  28.870  1.00  0.00     0.167 HD
ATOM     58  C   UNL A   1      45.548  31.110  28.282  1.00  0.00     0.074 A 
ATOM     59  C   UNL A   1      46.906  31.286  27.748  1.00  0.00     0.031 C 
ATOM     60  C   UNL A   1      44.859  32.084  29.006  1.00  0.00     0.034 A 
BRANCH  47  61
ATOM     61  C   UNL A   1      39.194  30.858  30.758  1.00  0.00     0.023 A 
ATOM     62  C   UNL A   1      38.992  30.609  32.106  1.00  0.00     0.012 A 
ATOM     63  C   UNL A   1      38.273  31.470  30.024  1.00  0.00     0.148 A 
ATOM     64  C   UNL A   1      37.653  30.787  32.526  1.00  0.00     0.002 A 
ATOM     65  C   UNL A   1      37.029  31.736  30.544  1.00  0.00     0.091 A 
ATOM     66  F   UNL A   1      38.556  31.828  28.775  1.00  0.00    -0.205 F 
ATOM     67  C   UNL A   1      36.740  31.462  31.851  1.00  0.00     0.022 A 
BRANCH  65  68
ATOM     68  S   UNL A   1      35.755  32.459  29.480  1.00  0.00     0.127 S 
ATOM     69  O   UNL A   1      34.441  32.566  30.257  1.00  0.00    -0.237 OA
ATOM     70  O   UNL A   1      36.198  33.855  29.032  1.00  0.00    -0.237 OA
ATOM     71  O   UNL A   1      35.528  31.467  28.106  1.00  0.00    -0.744 OA
ENDBRANCH  65  68
ENDBRANCH  47  61
BRANCH  48  72
ATOM     72  C   UNL A   1      47.240  27.386  26.067  1.00  0.00     0.023 A 
ATOM     73  C   UNL A   1      48.207  26.609  26.684  1.00  0.00     0.012 A 
ATOM     74  C   UNL A   1      47.284  27.631  24.762  1.00  0.00     0.148 A 
ATOM     75  C   UNL A   1      49.349  26.370  25.883  1.00  0.00     0.002 A 
ATOM     76  C   UNL A   1      48.371  27.250  24.015  1.00  0.00     0.091 A 
ATOM     77  F   UNL A   1      46.265  28.251  24.174  1.00  0.00    -0.205 F 
ATOM     78  C   UNL A   1      49.391  26.530  24.573  1.00  0.00     0.022 A 
BRANCH  76  79
ATOM     79  S   UNL A   1      48.455  27.705  22.265  1.00  0.00     0.127 S 
ATOM     80  O   UNL A   1      49.758  28.462  21.997  1.00  0.00    -0.237 OA
ATOM     81  O   UNL A   1      48.415  26.439  21.405  1.00  0.00    -0.237 OA
ATOM     82  O   UNL A   1      47.124  28.704  21.871  1.00  0.00    -0.744 OA
ENDBRANCH  76  79
ENDBRANCH  48  72
BRANCH  60  83
ATOM     83  C   UNL A   1      45.571  33.398  29.291  1.00  0.00     0.023 A 
ATOM     84  C   UNL A   1      46.365  33.560  30.414  1.00  0.00     0.012 A 
ATOM     85  C   UNL A   1      45.493  34.342  28.361  1.00  0.00     0.148 A 
ATOM     86  C   UNL A   1      46.818  34.885  30.609  1.00  0.00     0.002 A 
ATOM     87  C   UNL A   1      46.076  35.570  28.560  1.00  0.00     0.091 A 
ATOM     88  F   UNL A   1      44.844  34.097  27.226  1.00  0.00    -0.205 F 
ATOM     89  C   UNL A   1      46.826  35.819  29.676  1.00  0.00     0.022 A 
BRANCH  87  90
ATOM     90  S   UNL A   1      45.848  36.876  27.328  1.00  0.00     0.127 S 
ATOM     91  O   UNL A   1      46.545  36.475  26.025  1.00  0.00    -0.237 OA
ATOM     92  O   UNL A   1      44.353  37.074  27.066  1.00  0.00    -0.237 OA
ATOM     93  O   UNL A   1      46.524  38.334  27.910  1.00  0.00    -0.744 OA
ENDBRANCH  87  90
ENDBRANCH  60  83
ENDBRANCH  34  35
ENDBRANCH  27  29
ENDBRANCH  26  27
ENDBRANCH   1  26
TORSDOF 16
ENDMDL
