MODEL 1
REMARK VINA RESULT:     -12.6      0.000      0.000
REMARK SMILES O=C(OCCOC(=O)[C@@H]1[C@H](C(=O)NCc2ccccc2Cl)[C@@H]2C=C[C@H]1C2)c1ccc(-c2c3nc(c(-c4cccc(S(=O)(=O)[O-])c4F)c4ccc([nH]4)c(-c4cccc(S(=O)(=O)[O-])c4F)c4nc(c(-c5cccc(S(=O)(=O)[O-])c5F)c5ccc2[nH]5)C=C4)C=C3)cc1
REMARK SMILES IDX 4 1 3 2 2 3 1 4 27 5 28 6 89 7 29 8 88 9 30 10 31 11 32 12
REMARK SMILES IDX 82 13 33 14 87 15 81 16 83 17 34 18 86 19 80 20 79 21 35 23
REMARK SMILES IDX 67 24 47 25 66 26 48 27 51 28 65 29 84 30 49 31 50 32 64 34
REMARK SMILES IDX 85 35 52 36 36 37 37 38 45 39 38 40 40 41 46 42 39 43 41 44
REMARK SMILES IDX 42 45 43 46 44 47 68 48 69 49 77 50 70 51 72 52 78 53 71 54
REMARK SMILES IDX 73 55 74 56 75 57 76 58 53 59 54 60 62 61 55 62 57 63 63 64
REMARK SMILES IDX 56 65 58 66 59 67 60 68 61 69 5 70 6 71 7 72 8 73 9 74 10 75
REMARK SMILES IDX 25 76 22 77 24 78 26 79 23 80 11 81 12 82 13 83 14 85 15 86
REMARK SMILES IDX 16 87 20 88 17 89 19 90 21 91 18 92
REMARK H PARENT 83 22 51 33 13 84
REMARK Flexibility Score: inf
ROOT
ATOM      1  C   UNL A   1      31.671  30.291  25.506  1.00  0.00     0.275 C 
ENDROOT
BRANCH   1   2
ATOM      2  O   UNL A   1      31.966  30.556  26.894  1.00  0.00    -0.458 OA
BRANCH   2   3
ATOM      3  C   UNL A   1      32.779  31.586  27.212  1.00  0.00     0.338 C 
ATOM      4  O   UNL A   1      32.461  32.762  27.070  1.00  0.00    -0.246 OA
BRANCH   3   5
ATOM      5  C   UNL A   1      34.038  31.164  27.893  1.00  0.00     0.060 A 
ATOM      6  C   UNL A   1      34.379  29.820  28.079  1.00  0.00     0.016 A 
ATOM      7  C   UNL A   1      34.951  32.156  28.276  1.00  0.00     0.016 A 
ATOM      8  C   UNL A   1      35.626  29.472  28.602  1.00  0.00     0.010 A 
ATOM      9  C   UNL A   1      36.212  31.810  28.784  1.00  0.00     0.010 A 
ATOM     10  C   UNL A   1      36.565  30.463  28.932  1.00  0.00    -0.014 A 
BRANCH  10  11
ATOM     11  C   UNL A   1      37.814  30.042  29.616  1.00  0.00     0.031 A 
ATOM     12  C   UNL A   1      37.925  30.399  31.051  1.00  0.00     0.074 A 
ATOM     13  C   UNL A   1      38.812  29.358  29.020  1.00  0.00     0.049 A 
ATOM     14  N   UNL A   1      38.891  30.129  31.877  1.00  0.00    -0.248 NA
ATOM     15  C   UNL A   1      36.860  31.260  31.593  1.00  0.00     0.031 C 
ATOM     16  C   UNL A   1      38.944  29.200  27.593  1.00  0.00     0.029 A 
ATOM     17  N   UNL A   1      39.894  28.665  29.499  1.00  0.00    -0.354 N 
ATOM     18  C   UNL A   1      38.612  30.875  33.004  1.00  0.00     0.074 A 
ATOM     19  C   UNL A   1      37.373  31.583  32.766  1.00  0.00     0.031 C 
ATOM     20  C   UNL A   1      39.863  28.271  27.300  1.00  0.00     0.029 A 
ATOM     21  C   UNL A   1      40.557  27.931  28.526  1.00  0.00     0.049 A 
ATOM     22  H   UNL A   1      40.175  28.686  30.442  1.00  0.00     0.167 HD
ATOM     23  C   UNL A   1      39.357  30.987  34.121  1.00  0.00     0.034 A 
ATOM     24  C   UNL A   1      41.649  27.144  28.601  1.00  0.00     0.034 A 
ATOM     25  C   UNL A   1      40.605  30.305  34.302  1.00  0.00     0.049 A 
ATOM     26  C   UNL A   1      42.395  27.188  29.901  1.00  0.00     0.074 A 
ATOM     27  C   UNL A   1      41.438  30.316  35.402  1.00  0.00     0.029 A 
ATOM     28  N   UNL A   1      41.215  29.507  33.339  1.00  0.00    -0.354 N 
ATOM     29  N   UNL A   1      42.080  27.836  30.997  1.00  0.00    -0.248 NA
ATOM     30  C   UNL A   1      43.666  26.459  29.971  1.00  0.00     0.031 C 
ATOM     31  C   UNL A   1      42.561  29.539  35.098  1.00  0.00     0.029 A 
ATOM     32  C   UNL A   1      42.404  29.000  33.829  1.00  0.00     0.049 A 
ATOM     33  H   UNL A   1      40.852  29.328  32.442  1.00  0.00     0.167 HD
ATOM     34  C   UNL A   1      43.108  27.595  31.889  1.00  0.00     0.074 A 
ATOM     35  C   UNL A   1      44.043  26.711  31.216  1.00  0.00     0.031 C 
ATOM     36  C   UNL A   1      43.276  28.081  33.141  1.00  0.00     0.034 A 
BRANCH  23  37
ATOM     37  C   UNL A   1      38.832  31.929  35.162  1.00  0.00     0.023 A 
ATOM     38  C   UNL A   1      39.025  33.319  35.015  1.00  0.00     0.012 A 
ATOM     39  C   UNL A   1      38.253  31.427  36.341  1.00  0.00     0.148 A 
ATOM     40  C   UNL A   1      38.714  34.189  36.057  1.00  0.00     0.002 A 
ATOM     41  C   UNL A   1      37.890  32.307  37.349  1.00  0.00     0.091 A 
ATOM     42  F   UNL A   1      38.119  30.100  36.474  1.00  0.00    -0.205 F 
ATOM     43  C   UNL A   1      38.142  33.683  37.221  1.00  0.00     0.022 A 
BRANCH  41  44
ATOM     44  S   UNL A   1      37.085  31.766  38.858  1.00  0.00     0.127 S 
ATOM     45  O   UNL A   1      38.115  32.041  39.859  1.00  0.00    -0.237 OA
ATOM     46  O   UNL A   1      35.926  32.657  38.913  1.00  0.00    -0.237 OA
ATOM     47  O   UNL A   1      36.767  30.358  38.665  1.00  0.00    -0.744 OA
ENDBRANCH  41  44
ENDBRANCH  23  37
BRANCH  24  48
ATOM     48  C   UNL A   1      42.142  26.317  27.450  1.00  0.00     0.023 A 
ATOM     49  C   UNL A   1      42.976  26.916  26.481  1.00  0.00     0.012 A 
ATOM     50  C   UNL A   1      41.800  24.960  27.286  1.00  0.00     0.148 A 
ATOM     51  C   UNL A   1      43.433  26.196  25.372  1.00  0.00     0.002 A 
ATOM     52  C   UNL A   1      42.321  24.227  26.222  1.00  0.00     0.091 A 
ATOM     53  F   UNL A   1      40.961  24.403  28.172  1.00  0.00    -0.205 F 
ATOM     54  C   UNL A   1      43.119  24.846  25.251  1.00  0.00     0.022 A 
BRANCH  52  55
ATOM     55  S   UNL A   1      42.089  22.449  26.078  1.00  0.00     0.127 S 
ATOM     56  O   UNL A   1      42.981  22.119  24.970  1.00  0.00    -0.237 OA
ATOM     57  O   UNL A   1      42.537  21.979  27.391  1.00  0.00    -0.237 OA
ATOM     58  O   UNL A   1      40.667  22.261  25.830  1.00  0.00    -0.744 OA
ENDBRANCH  52  55
ENDBRANCH  24  48
BRANCH  36  59
ATOM     59  C   UNL A   1      44.458  27.564  33.904  1.00  0.00     0.023 A 
ATOM     60  C   UNL A   1      45.684  28.255  33.901  1.00  0.00     0.012 A 
ATOM     61  C   UNL A   1      44.308  26.399  34.678  1.00  0.00     0.148 A 
ATOM     62  C   UNL A   1      46.760  27.770  34.640  1.00  0.00     0.002 A 
ATOM     63  C   UNL A   1      45.363  25.959  35.459  1.00  0.00     0.091 A 
ATOM     64  F   UNL A   1      43.138  25.746  34.631  1.00  0.00    -0.205 F 
ATOM     65  C   UNL A   1      46.595  26.632  35.430  1.00  0.00     0.022 A 
BRANCH  63  66
ATOM     66  S   UNL A   1      45.188  24.575  36.586  1.00  0.00     0.127 S 
ATOM     67  O   UNL A   1      45.541  23.446  35.727  1.00  0.00    -0.237 OA
ATOM     68  O   UNL A   1      46.176  24.893  37.617  1.00  0.00    -0.237 OA
ATOM     69  O   UNL A   1      43.806  24.603  37.046  1.00  0.00    -0.744 OA
ENDBRANCH  63  66
ENDBRANCH  36  59
ENDBRANCH  10  11
ENDBRANCH   3   5
ENDBRANCH   2   3
ENDBRANCH   1   2
BRANCH   1  70
ATOM     70  C   UNL A   1      32.777  29.682  24.647  1.00  0.00     0.274 C 
BRANCH  70  71
ATOM     71  O   UNL A   1      33.311  28.459  25.194  1.00  0.00    -0.462 OA
BRANCH  71  72
ATOM     72  C   UNL A   1      33.871  27.692  24.228  1.00  0.00     0.310 C 
ATOM     73  O   UNL A   1      34.395  28.157  23.217  1.00  0.00    -0.252 OA
BRANCH  72  74
ATOM     74  C   UNL A   1      33.845  26.207  24.439  1.00  0.00     0.119 C 
ATOM     75  C   UNL A   1      33.572  25.382  23.158  1.00  0.00     0.100 C 
ATOM     76  C   UNL A   1      33.075  25.430  25.511  1.00  0.00     0.027 C 
ATOM     77  C   UNL A   1      33.037  24.039  23.737  1.00  0.00     0.025 C 
ATOM     78  C   UNL A   1      31.662  25.152  25.117  1.00  0.00    -0.027 C 
ATOM     79  C   UNL A   1      33.593  24.016  25.183  1.00  0.00     0.017 C 
ATOM     80  C   UNL A   1      31.625  24.264  24.112  1.00  0.00    -0.027 C 
BRANCH  75  81
ATOM     81  C   UNL A   1      32.841  26.120  21.992  1.00  0.00     0.224 C 
ATOM     82  O   UNL A   1      33.287  25.931  20.847  1.00  0.00    -0.275 OA
ATOM     83  N   UNL A   1      31.812  27.021  22.028  1.00  0.00    -0.352 N 
ATOM     84  H   UNL A   1      31.752  27.562  21.208  1.00  0.00     0.163 HD
BRANCH  83  85
ATOM     85  C   UNL A   1      30.785  27.361  23.007  1.00  0.00     0.153 C 
BRANCH  85  86
ATOM     86  C   UNL A   1      29.683  28.331  22.629  1.00  0.00    -0.010 A 
ATOM     87  C   UNL A   1      30.005  29.566  22.051  1.00  0.00     0.007 A 
ATOM     88  C   UNL A   1      28.373  28.165  23.135  1.00  0.00     0.046 A 
ATOM     89  C   UNL A   1      29.084  30.619  22.039  1.00  0.00     0.000 A 
ATOM     90  C   UNL A   1      27.450  29.217  23.111  1.00  0.00     0.021 A 
ATOM     91  Cl  UNL A   1      27.855  26.695  23.884  1.00  0.00    -0.084 Cl
ATOM     92  C   UNL A   1      27.816  30.454  22.587  1.00  0.00     0.002 A 
ENDBRANCH  85  86
ENDBRANCH  83  85
ENDBRANCH  75  81
ENDBRANCH  72  74
ENDBRANCH  71  72
ENDBRANCH  70  71
ENDBRANCH   1  70
TORSDOF 17
ENDMDL
MODEL 2
REMARK VINA RESULT:     -12.4      5.582     10.501
REMARK SMILES O=C(OCCOC(=O)[C@@H]1[C@H](C(=O)NCc2ccccc2Cl)[C@@H]2C=C[C@H]1C2)c1ccc(-c2c3nc(c(-c4cccc(S(=O)(=O)[O-])c4F)c4ccc([nH]4)c(-c4cccc(S(=O)(=O)[O-])c4F)c4nc(c(-c5cccc(S(=O)(=O)[O-])c5F)c5ccc2[nH]5)C=C4)C=C3)cc1
REMARK SMILES IDX 4 1 3 2 2 3 1 4 27 5 28 6 89 7 29 8 88 9 30 10 31 11 32 12
REMARK SMILES IDX 82 13 33 14 87 15 81 16 83 17 34 18 86 19 80 20 79 21 35 23
REMARK SMILES IDX 67 24 47 25 66 26 48 27 51 28 65 29 84 30 49 31 50 32 64 34
REMARK SMILES IDX 85 35 52 36 36 37 37 38 45 39 38 40 40 41 46 42 39 43 41 44
REMARK SMILES IDX 42 45 43 46 44 47 68 48 69 49 77 50 70 51 72 52 78 53 71 54
REMARK SMILES IDX 73 55 74 56 75 57 76 58 53 59 54 60 62 61 55 62 57 63 63 64
REMARK SMILES IDX 56 65 58 66 59 67 60 68 61 69 5 70 6 71 7 72 8 73 9 74 10 75
REMARK SMILES IDX 25 76 22 77 24 78 26 79 23 80 11 81 12 82 13 83 14 85 15 86
REMARK SMILES IDX 16 87 20 88 17 89 19 90 21 91 18 92
REMARK H PARENT 83 22 51 33 13 84
REMARK Flexibility Score: inf
ROOT
ATOM      1  C   UNL A   1      37.493  20.008  24.950  1.00  0.00     0.275 C 
ENDROOT
BRANCH   1   2
ATOM      2  O   UNL A   1      38.309  21.163  25.236  1.00  0.00    -0.458 OA
BRANCH   2   3
ATOM      3  C   UNL A   1      39.298  21.065  26.151  1.00  0.00     0.338 C 
ATOM      4  O   UNL A   1      39.783  19.994  26.500  1.00  0.00    -0.246 OA
BRANCH   3   5
ATOM      5  C   UNL A   1      39.845  22.383  26.582  1.00  0.00     0.060 A 
ATOM      6  C   UNL A   1      40.998  22.499  27.367  1.00  0.00     0.016 A 
ATOM      7  C   UNL A   1      39.228  23.548  26.104  1.00  0.00     0.016 A 
ATOM      8  C   UNL A   1      41.548  23.754  27.635  1.00  0.00     0.010 A 
ATOM      9  C   UNL A   1      39.789  24.809  26.356  1.00  0.00     0.010 A 
ATOM     10  C   UNL A   1      40.965  24.919  27.108  1.00  0.00    -0.014 A 
BRANCH  10  11
ATOM     11  C   UNL A   1      41.506  26.231  27.544  1.00  0.00     0.031 A 
ATOM     12  C   UNL A   1      42.817  26.621  26.973  1.00  0.00     0.074 A 
ATOM     13  C   UNL A   1      40.874  27.066  28.394  1.00  0.00     0.049 A 
ATOM     14  N   UNL A   1      43.489  27.716  27.168  1.00  0.00    -0.248 NA
ATOM     15  C   UNL A   1      43.504  25.601  26.162  1.00  0.00     0.031 C 
ATOM     16  C   UNL A   1      39.752  26.686  29.217  1.00  0.00     0.029 A 
ATOM     17  N   UNL A   1      41.051  28.387  28.721  1.00  0.00    -0.354 N 
ATOM     18  C   UNL A   1      44.724  27.479  26.600  1.00  0.00     0.074 A 
ATOM     19  C   UNL A   1      44.697  26.151  26.029  1.00  0.00     0.031 C 
ATOM     20  C   UNL A   1      39.171  27.766  29.757  1.00  0.00     0.029 A 
ATOM     21  C   UNL A   1      40.029  28.906  29.502  1.00  0.00     0.049 A 
ATOM     22  H   UNL A   1      41.828  28.915  28.430  1.00  0.00     0.167 HD
ATOM     23  C   UNL A   1      45.799  28.292  26.601  1.00  0.00     0.034 A 
ATOM     24  C   UNL A   1      39.850  30.136  30.024  1.00  0.00     0.034 A 
ATOM     25  C   UNL A   1      45.802  29.585  27.221  1.00  0.00     0.049 A 
ATOM     26  C   UNL A   1      41.017  31.070  29.902  1.00  0.00     0.074 A 
ATOM     27  C   UNL A   1      46.822  30.514  27.263  1.00  0.00     0.029 A 
ATOM     28  N   UNL A   1      44.735  30.121  27.934  1.00  0.00    -0.354 N 
ATOM     29  N   UNL A   1      42.159  30.868  29.290  1.00  0.00    -0.248 NA
ATOM     30  C   UNL A   1      40.915  32.365  30.583  1.00  0.00     0.031 C 
ATOM     31  C   UNL A   1      46.378  31.605  28.018  1.00  0.00     0.029 A 
ATOM     32  C   UNL A   1      45.063  31.381  28.400  1.00  0.00     0.049 A 
ATOM     33  H   UNL A   1      43.873  29.671  28.083  1.00  0.00     0.167 HD
ATOM     34  C   UNL A   1      42.914  32.006  29.507  1.00  0.00     0.074 A 
ATOM     35  C   UNL A   1      42.084  32.912  30.281  1.00  0.00     0.031 C 
ATOM     36  C   UNL A   1      44.185  32.268  29.123  1.00  0.00     0.034 A 
BRANCH  23  37
ATOM     37  C   UNL A   1      47.036  27.738  25.961  1.00  0.00     0.023 A 
ATOM     38  C   UNL A   1      47.181  27.781  24.558  1.00  0.00     0.012 A 
ATOM     39  C   UNL A   1      47.997  27.072  26.741  1.00  0.00     0.148 A 
ATOM     40  C   UNL A   1      48.228  27.105  23.936  1.00  0.00     0.002 A 
ATOM     41  C   UNL A   1      49.070  26.454  26.118  1.00  0.00     0.091 A 
ATOM     42  F   UNL A   1      47.815  27.010  28.068  1.00  0.00    -0.205 F 
ATOM     43  C   UNL A   1      49.175  26.447  24.716  1.00  0.00     0.022 A 
BRANCH  41  44
ATOM     44  S   UNL A   1      50.379  25.639  27.033  1.00  0.00     0.127 S 
ATOM     45  O   UNL A   1      49.687  24.462  27.558  1.00  0.00    -0.237 OA
ATOM     46  O   UNL A   1      51.351  25.356  25.977  1.00  0.00    -0.237 OA
ATOM     47  O   UNL A   1      50.827  26.595  28.036  1.00  0.00    -0.744 OA
ENDBRANCH  41  44
ENDBRANCH  23  37
BRANCH  24  48
ATOM     48  C   UNL A   1      38.597  30.548  30.739  1.00  0.00     0.023 A 
ATOM     49  C   UNL A   1      38.462  30.250  32.113  1.00  0.00     0.012 A 
ATOM     50  C   UNL A   1      37.538  31.216  30.096  1.00  0.00     0.148 A 
ATOM     51  C   UNL A   1      37.299  30.582  32.816  1.00  0.00     0.002 A 
ATOM     52  C   UNL A   1      36.415  31.614  30.819  1.00  0.00     0.091 A 
ATOM     53  F   UNL A   1      37.638  31.449  28.780  1.00  0.00    -0.205 F 
ATOM     54  C   UNL A   1      36.281  31.279  32.173  1.00  0.00     0.022 A 
BRANCH  52  55
ATOM     55  S   UNL A   1      35.130  32.648  30.102  1.00  0.00     0.127 S 
ATOM     56  O   UNL A   1      34.251  32.871  31.246  1.00  0.00    -0.237 OA
ATOM     57  O   UNL A   1      35.892  33.822  29.671  1.00  0.00    -0.237 OA
ATOM     58  O   UNL A   1      34.568  31.868  29.008  1.00  0.00    -0.744 OA
ENDBRANCH  52  55
ENDBRANCH  24  48
BRANCH  36  59
ATOM     59  C   UNL A   1      44.706  33.638  29.432  1.00  0.00     0.023 A 
ATOM     60  C   UNL A   1      45.443  33.887  30.605  1.00  0.00     0.012 A 
ATOM     61  C   UNL A   1      44.498  34.669  28.499  1.00  0.00     0.148 A 
ATOM     62  C   UNL A   1      45.941  35.163  30.858  1.00  0.00     0.002 A 
ATOM     63  C   UNL A   1      45.051  35.917  28.727  1.00  0.00     0.091 A 
ATOM     64  F   UNL A   1      43.763  34.405  27.409  1.00  0.00    -0.205 F 
ATOM     65  C   UNL A   1      45.758  36.173  29.912  1.00  0.00     0.022 A 
BRANCH  63  66
ATOM     66  S   UNL A   1      44.957  37.227  27.506  1.00  0.00     0.127 S 
ATOM     67  O   UNL A   1      45.324  38.399  28.298  1.00  0.00    -0.237 OA
ATOM     68  O   UNL A   1      45.962  36.809  26.529  1.00  0.00    -0.237 OA
ATOM     69  O   UNL A   1      43.589  37.214  27.005  1.00  0.00    -0.744 OA
ENDBRANCH  63  66
ENDBRANCH  36  59
ENDBRANCH  10  11
ENDBRANCH   3   5
ENDBRANCH   2   3
ENDBRANCH   1   2
BRANCH   1  70
ATOM     70  C   UNL A   1      35.976  20.176  24.999  1.00  0.00     0.274 C 
BRANCH  70  71
ATOM     71  O   UNL A   1      35.546  21.522  24.712  1.00  0.00    -0.462 OA
BRANCH  71  72
ATOM     72  C   UNL A   1      35.090  22.141  25.827  1.00  0.00     0.310 C 
ATOM     73  O   UNL A   1      35.031  21.593  26.927  1.00  0.00    -0.252 OA
BRANCH  72  74
ATOM     74  C   UNL A   1      34.652  23.569  25.681  1.00  0.00     0.119 C 
ATOM     75  C   UNL A   1      33.364  23.928  26.460  1.00  0.00     0.100 C 
ATOM     76  C   UNL A   1      34.497  24.369  24.385  1.00  0.00     0.027 C 
ATOM     77  C   UNL A   1      32.854  25.186  25.697  1.00  0.00     0.025 C 
ATOM     78  C   UNL A   1      33.171  24.154  23.730  1.00  0.00    -0.027 C 
ATOM     79  C   UNL A   1      34.128  25.733  25.003  1.00  0.00     0.017 C 
ATOM     80  C   UNL A   1      32.195  24.705  24.466  1.00  0.00    -0.027 C 
BRANCH  75  81
ATOM     81  C   UNL A   1      32.408  22.745  26.816  1.00  0.00     0.224 C 
ATOM     82  O   UNL A   1      31.897  22.764  27.950  1.00  0.00    -0.275 OA
ATOM     83  N   UNL A   1      32.089  21.624  26.100  1.00  0.00    -0.352 N 
ATOM     84  H   UNL A   1      31.727  20.902  26.664  1.00  0.00     0.163 HD
BRANCH  83  85
ATOM     85  C   UNL A   1      32.164  21.257  24.690  1.00  0.00     0.153 C 
BRANCH  85  86
ATOM     86  C   UNL A   1      32.269  19.795  24.302  1.00  0.00    -0.010 A 
ATOM     87  C   UNL A   1      32.675  18.847  25.250  1.00  0.00     0.007 A 
ATOM     88  C   UNL A   1      32.285  19.411  22.941  1.00  0.00     0.046 A 
ATOM     89  C   UNL A   1      33.143  17.588  24.857  1.00  0.00     0.000 A 
ATOM     90  C   UNL A   1      32.744  18.147  22.551  1.00  0.00     0.021 A 
ATOM     91  Cl  UNL A   1      31.822  20.493  21.674  1.00  0.00    -0.084 Cl
ATOM     92  C   UNL A   1      33.199  17.245  23.509  1.00  0.00     0.002 A 
ENDBRANCH  85  86
ENDBRANCH  83  85
ENDBRANCH  75  81
ENDBRANCH  72  74
ENDBRANCH  71  72
ENDBRANCH  70  71
ENDBRANCH   1  70
TORSDOF 17
ENDMDL
MODEL 3
REMARK VINA RESULT:     -12.3      5.534     10.523
REMARK SMILES O=C(OCCOC(=O)[C@@H]1[C@H](C(=O)NCc2ccccc2Cl)[C@@H]2C=C[C@H]1C2)c1ccc(-c2c3nc(c(-c4cccc(S(=O)(=O)[O-])c4F)c4ccc([nH]4)c(-c4cccc(S(=O)(=O)[O-])c4F)c4nc(c(-c5cccc(S(=O)(=O)[O-])c5F)c5ccc2[nH]5)C=C4)C=C3)cc1
REMARK SMILES IDX 4 1 3 2 2 3 1 4 27 5 28 6 89 7 29 8 88 9 30 10 31 11 32 12
REMARK SMILES IDX 82 13 33 14 87 15 81 16 83 17 34 18 86 19 80 20 79 21 35 23
REMARK SMILES IDX 67 24 47 25 66 26 48 27 51 28 65 29 84 30 49 31 50 32 64 34
REMARK SMILES IDX 85 35 52 36 36 37 37 38 45 39 38 40 40 41 46 42 39 43 41 44
REMARK SMILES IDX 42 45 43 46 44 47 68 48 69 49 77 50 70 51 72 52 78 53 71 54
REMARK SMILES IDX 73 55 74 56 75 57 76 58 53 59 54 60 62 61 55 62 57 63 63 64
REMARK SMILES IDX 56 65 58 66 59 67 60 68 61 69 5 70 6 71 7 72 8 73 9 74 10 75
REMARK SMILES IDX 25 76 22 77 24 78 26 79 23 80 11 81 12 82 13 83 14 85 15 86
REMARK SMILES IDX 16 87 20 88 17 89 19 90 21 91 18 92
REMARK H PARENT 83 22 51 33 13 84
REMARK Flexibility Score: inf
ROOT
ATOM      1  C   UNL A   1      37.008  20.598  25.394  1.00  0.00     0.275 C 
ENDROOT
BRANCH   1   2
ATOM      2  O   UNL A   1      38.152  21.469  25.271  1.00  0.00    -0.458 OA
BRANCH   2   3
ATOM      3  C   UNL A   1      39.156  21.373  26.169  1.00  0.00     0.338 C 
ATOM      4  O   UNL A   1      39.640  20.303  26.522  1.00  0.00    -0.246 OA
BRANCH   3   5
ATOM      5  C   UNL A   1      39.722  22.692  26.575  1.00  0.00     0.060 A 
ATOM      6  C   UNL A   1      39.192  23.908  26.129  1.00  0.00     0.016 A 
ATOM      7  C   UNL A   1      40.765  22.708  27.511  1.00  0.00     0.016 A 
ATOM      8  C   UNL A   1      39.669  25.117  26.639  1.00  0.00     0.010 A 
ATOM      9  C   UNL A   1      41.234  23.920  28.040  1.00  0.00     0.010 A 
ATOM     10  C   UNL A   1      40.674  25.134  27.620  1.00  0.00    -0.014 A 
BRANCH  10  11
ATOM     11  C   UNL A   1      41.242  26.447  28.018  1.00  0.00     0.031 A 
ATOM     12  C   UNL A   1      42.574  26.779  27.459  1.00  0.00     0.074 A 
ATOM     13  C   UNL A   1      40.617  27.330  28.822  1.00  0.00     0.049 A 
ATOM     14  N   UNL A   1      43.272  27.862  27.628  1.00  0.00    -0.248 NA
ATOM     15  C   UNL A   1      43.249  25.711  26.703  1.00  0.00     0.031 C 
ATOM     16  C   UNL A   1      39.469  27.012  29.635  1.00  0.00     0.029 A 
ATOM     17  N   UNL A   1      40.823  28.657  29.103  1.00  0.00    -0.354 N 
ATOM     18  C   UNL A   1      44.512  27.571  27.095  1.00  0.00     0.074 A 
ATOM     19  C   UNL A   1      44.459  26.223  26.574  1.00  0.00     0.031 C 
ATOM     20  C   UNL A   1      38.906  28.127  30.122  1.00  0.00     0.029 A 
ATOM     21  C   UNL A   1      39.801  29.233  29.842  1.00  0.00     0.049 A 
ATOM     22  H   UNL A   1      41.621  29.153  28.809  1.00  0.00     0.167 HD
ATOM     23  C   UNL A   1      45.608  28.354  27.088  1.00  0.00     0.034 A 
ATOM     24  C   UNL A   1      39.646  30.487  30.313  1.00  0.00     0.034 A 
ATOM     25  C   UNL A   1      45.635  29.670  27.658  1.00  0.00     0.049 A 
ATOM     26  C   UNL A   1      40.841  31.383  30.181  1.00  0.00     0.074 A 
ATOM     27  C   UNL A   1      46.679  30.572  27.686  1.00  0.00     0.029 A 
ATOM     28  N   UNL A   1      44.569  30.261  28.328  1.00  0.00    -0.354 N 
ATOM     29  N   UNL A   1      41.988  31.127  29.601  1.00  0.00    -0.248 NA
ATOM     30  C   UNL A   1      40.761  32.706  30.811  1.00  0.00     0.031 C 
ATOM     31  C   UNL A   1      46.250  31.702  28.390  1.00  0.00     0.029 A 
ATOM     32  C   UNL A   1      44.922  31.528  28.753  1.00  0.00     0.049 A 
ATOM     33  H   UNL A   1      43.692  29.840  28.476  1.00  0.00     0.167 HD
ATOM     34  C   UNL A   1      42.770  32.252  29.791  1.00  0.00     0.074 A 
ATOM     35  C   UNL A   1      41.950  33.209  30.513  1.00  0.00     0.031 C 
ATOM     36  C   UNL A   1      44.055  32.465  29.424  1.00  0.00     0.034 A 
BRANCH  23  37
ATOM     37  C   UNL A   1      46.841  27.743  26.494  1.00  0.00     0.023 A 
ATOM     38  C   UNL A   1      47.811  27.157  27.336  1.00  0.00     0.012 A 
ATOM     39  C   UNL A   1      47.091  27.855  25.115  1.00  0.00     0.148 A 
ATOM     40  C   UNL A   1      49.042  26.757  26.822  1.00  0.00     0.002 A 
ATOM     41  C   UNL A   1      48.295  27.398  24.602  1.00  0.00     0.091 A 
ATOM     42  F   UNL A   1      46.172  28.453  24.344  1.00  0.00    -0.205 F 
ATOM     43  C   UNL A   1      49.281  26.872  25.455  1.00  0.00     0.022 A 
BRANCH  41  44
ATOM     44  S   UNL A   1      48.675  27.438  22.851  1.00  0.00     0.127 S 
ATOM     45  O   UNL A   1      50.083  27.833  22.860  1.00  0.00    -0.237 OA
ATOM     46  O   UNL A   1      48.433  26.049  22.460  1.00  0.00    -0.237 OA
ATOM     47  O   UNL A   1      47.762  28.407  22.260  1.00  0.00    -0.744 OA
ENDBRANCH  41  44
ENDBRANCH  23  37
BRANCH  24  48
ATOM     48  C   UNL A   1      38.391  30.959  30.987  1.00  0.00     0.023 A 
ATOM     49  C   UNL A   1      38.253  30.783  32.382  1.00  0.00     0.012 A 
ATOM     50  C   UNL A   1      37.333  31.567  30.284  1.00  0.00     0.148 A 
ATOM     51  C   UNL A   1      37.087  31.175  33.049  1.00  0.00     0.002 A 
ATOM     52  C   UNL A   1      36.207  32.026  30.966  1.00  0.00     0.091 A 
ATOM     53  F   UNL A   1      37.436  31.683  28.953  1.00  0.00    -0.205 F 
ATOM     54  C   UNL A   1      36.071  31.812  32.344  1.00  0.00     0.022 A 
BRANCH  52  55
ATOM     55  S   UNL A   1      34.924  32.992  30.158  1.00  0.00     0.127 S 
ATOM     56  O   UNL A   1      34.024  33.285  31.269  1.00  0.00    -0.237 OA
ATOM     57  O   UNL A   1      35.681  34.141  29.656  1.00  0.00    -0.237 OA
ATOM     58  O   UNL A   1      34.388  32.129  29.114  1.00  0.00    -0.744 OA
ENDBRANCH  52  55
ENDBRANCH  24  48
BRANCH  36  59
ATOM     59  C   UNL A   1      44.607  33.831  29.692  1.00  0.00     0.023 A 
ATOM     60  C   UNL A   1      45.276  34.121  30.896  1.00  0.00     0.012 A 
ATOM     61  C   UNL A   1      44.500  34.814  28.692  1.00  0.00     0.148 A 
ATOM     62  C   UNL A   1      45.806  35.391  31.112  1.00  0.00     0.002 A 
ATOM     63  C   UNL A   1      45.084  36.054  28.888  1.00  0.00     0.091 A 
ATOM     64  F   UNL A   1      43.827  34.515  27.572  1.00  0.00    -0.205 F 
ATOM     65  C   UNL A   1      45.724  36.351  30.102  1.00  0.00     0.022 A 
BRANCH  63  66
ATOM     66  S   UNL A   1      45.120  37.294  27.594  1.00  0.00     0.127 S 
ATOM     67  O   UNL A   1      45.850  36.599  26.535  1.00  0.00    -0.237 OA
ATOM     68  O   UNL A   1      43.697  37.499  27.325  1.00  0.00    -0.237 OA
ATOM     69  O   UNL A   1      45.797  38.451  28.165  1.00  0.00    -0.744 OA
ENDBRANCH  63  66
ENDBRANCH  36  59
ENDBRANCH  10  11
ENDBRANCH   3   5
ENDBRANCH   2   3
ENDBRANCH   1   2
BRANCH   1  70
ATOM     70  C   UNL A   1      35.639  21.243  25.602  1.00  0.00     0.274 C 
BRANCH  70  71
ATOM     71  O   UNL A   1      35.684  22.685  25.583  1.00  0.00    -0.462 OA
BRANCH  71  72
ATOM     72  C   UNL A   1      34.732  23.217  26.386  1.00  0.00     0.310 C 
ATOM     73  O   UNL A   1      34.416  22.730  27.471  1.00  0.00    -0.252 OA
BRANCH  72  74
ATOM     74  C   UNL A   1      34.058  24.468  25.905  1.00  0.00     0.119 C 
ATOM     75  C   UNL A   1      32.562  24.579  26.288  1.00  0.00     0.100 C 
ATOM     76  C   UNL A   1      34.089  25.061  24.493  1.00  0.00     0.027 C 
ATOM     77  C   UNL A   1      32.021  25.582  25.227  1.00  0.00     0.025 C 
ATOM     78  C   UNL A   1      33.064  24.455  23.591  1.00  0.00    -0.027 C 
ATOM     79  C   UNL A   1      33.288  26.349  24.770  1.00  0.00     0.017 C 
ATOM     80  C   UNL A   1      31.832  24.823  23.974  1.00  0.00    -0.027 C 
BRANCH  75  81
ATOM     81  C   UNL A   1      31.819  23.242  26.603  1.00  0.00     0.224 C 
ATOM     82  O   UNL A   1      31.089  23.234  27.609  1.00  0.00    -0.275 OA
ATOM     83  N   UNL A   1      31.896  22.024  25.984  1.00  0.00    -0.352 N 
ATOM     84  H   UNL A   1      31.581  21.286  26.555  1.00  0.00     0.163 HD
BRANCH  83  85
ATOM     85  C   UNL A   1      32.339  21.573  24.669  1.00  0.00     0.153 C 
BRANCH  85  86
ATOM     86  C   UNL A   1      32.307  20.093  24.336  1.00  0.00    -0.010 A 
ATOM     87  C   UNL A   1      32.675  19.150  25.303  1.00  0.00     0.007 A 
ATOM     88  C   UNL A   1      32.230  19.661  22.992  1.00  0.00     0.046 A 
ATOM     89  C   UNL A   1      33.020  17.843  24.941  1.00  0.00     0.000 A 
ATOM     90  C   UNL A   1      32.565  18.349  22.634  1.00  0.00     0.021 A 
ATOM     91  Cl  UNL A   1      31.801  20.731  21.703  1.00  0.00    -0.084 Cl
ATOM     92  C   UNL A   1      32.988  17.448  23.607  1.00  0.00     0.002 A 
ENDBRANCH  85  86
ENDBRANCH  83  85
ENDBRANCH  75  81
ENDBRANCH  72  74
ENDBRANCH  71  72
ENDBRANCH  70  71
ENDBRANCH   1  70
TORSDOF 17
ENDMDL
