MODEL 1
REMARK VINA RESULT:     -10.7      0.000      0.000
REMARK SMILES C[C@H](NC1=[NH+]S(=O)(=O)c2ccccc21)C(=O)OCCOC(=O)c1ccc(-c2c3nc(c(-c4cccc(S(=O)(=O)[O-])c4F)c4ccc([nH]4)c(-c4cccc(S(=O)(=O)[O-])c4F)c4nc(c(-c5cccc(S(=O)(=O)[O-])c5F)c5ccc2[nH]5)C=C4)C=C3)cc1
REMARK SMILES IDX 19 1 18 2 17 3 15 4 16 5 2 6 1 7 3 8 4 9 5 11 14 12 6 13
REMARK SMILES IDX 9 15 13 16 7 17 8 18 10 19 12 20 11 21 20 22 21 23 22 24
REMARK SMILES IDX 23 25 24 26 85 27 25 28 84 29 26 30 27 31 28 32 78 33 29 34
REMARK SMILES IDX 83 35 77 36 79 37 30 38 82 39 76 40 75 41 31 43 63 44 43 45
REMARK SMILES IDX 62 46 44 47 47 48 61 49 80 50 45 51 46 52 60 54 81 55 48 56
REMARK SMILES IDX 32 57 33 58 41 59 34 60 36 61 42 62 35 63 37 64 38 65 39 66
REMARK SMILES IDX 40 67 64 68 65 69 73 70 66 71 68 72 74 73 67 74 69 75 70 76
REMARK SMILES IDX 71 77 72 78 49 79 50 80 58 81 51 82 53 83 59 84 52 85 54 86
REMARK SMILES IDX 55 87 56 88 57 89
REMARK H PARENT 3 10 5 14 79 42 47 53
REMARK Flexibility Score: inf
ROOT
ATOM      1  C   UNL A   1      40.498  20.206  26.265  1.00  0.00     0.275 C 
ENDROOT
BRANCH   1   2
ATOM      2  C   UNL A   1      41.761  19.340  26.228  1.00  0.00     0.274 C 
BRANCH   2   3
ATOM      3  O   UNL A   1      42.550  19.631  25.060  1.00  0.00    -0.459 OA
BRANCH   3   4
ATOM      4  C   UNL A   1      43.870  19.273  25.097  1.00  0.00     0.350 C 
ATOM      5  O   UNL A   1      44.274  18.119  25.152  1.00  0.00    -0.247 OA
BRANCH   4   6
ATOM      6  C   UNL A   1      44.798  20.504  25.051  1.00  0.00     0.279 C 
ATOM      7  C   UNL A   1      46.234  20.021  25.184  1.00  0.00     0.071 C 
BRANCH   6   8
ATOM      8  N   UNL A   1      44.375  21.496  26.050  1.00  0.00    -0.260 N 
ATOM      9  C   UNL A   1      45.056  22.597  26.489  1.00  0.00     0.292 C 
ATOM     10  H   UNL A   1      43.489  21.348  26.454  1.00  0.00     0.306 HD
ATOM     11  N   UNL A   1      46.015  23.192  25.843  1.00  0.00    -0.162 N 
ATOM     12  C   UNL A   1      44.753  23.166  27.826  1.00  0.00     0.087 A 
ATOM     13  S   UNL A   1      46.649  24.424  26.714  1.00  0.00     0.329 S 
ATOM     14  H   UNL A   1      46.320  22.934  24.943  1.00  0.00     0.327 HD
ATOM     15  C   UNL A   1      45.630  24.196  28.102  1.00  0.00     0.124 A 
ATOM     16  C   UNL A   1      43.834  22.760  28.779  1.00  0.00     0.018 A 
ATOM     17  O   UNL A   1      46.303  25.699  26.136  1.00  0.00    -0.179 OA
ATOM     18  O   UNL A   1      48.002  24.099  27.129  1.00  0.00    -0.179 OA
ATOM     19  C   UNL A   1      45.679  24.855  29.315  1.00  0.00     0.025 A 
ATOM     20  C   UNL A   1      43.844  23.416  30.018  1.00  0.00     0.001 A 
ATOM     21  C   UNL A   1      44.764  24.448  30.287  1.00  0.00     0.002 A 
ENDBRANCH   6   8
ENDBRANCH   4   6
ENDBRANCH   3   4
ENDBRANCH   2   3
ENDBRANCH   1   2
BRANCH   1  22
ATOM     22  O   UNL A   1      40.803  21.605  26.411  1.00  0.00    -0.458 OA
BRANCH  22  23
ATOM     23  C   UNL A   1      39.743  22.445  26.317  1.00  0.00     0.338 C 
ATOM     24  O   UNL A   1      38.615  22.151  25.944  1.00  0.00    -0.246 OA
BRANCH  23  25
ATOM     25  C   UNL A   1      40.081  23.752  26.918  1.00  0.00     0.060 A 
ATOM     26  C   UNL A   1      40.062  24.865  26.074  1.00  0.00     0.016 A 
ATOM     27  C   UNL A   1      40.429  23.899  28.264  1.00  0.00     0.016 A 
ATOM     28  C   UNL A   1      40.378  26.127  26.566  1.00  0.00     0.010 A 
ATOM     29  C   UNL A   1      40.760  25.169  28.757  1.00  0.00     0.010 A 
ATOM     30  C   UNL A   1      40.741  26.290  27.908  1.00  0.00    -0.014 A 
BRANCH  30  31
ATOM     31  C   UNL A   1      41.128  27.641  28.382  1.00  0.00     0.031 A 
ATOM     32  C   UNL A   1      42.565  28.074  28.333  1.00  0.00     0.074 A 
ATOM     33  C   UNL A   1      40.176  28.498  28.798  1.00  0.00     0.049 A 
ATOM     34  N   UNL A   1      43.089  29.228  28.654  1.00  0.00    -0.248 NA
ATOM     35  C   UNL A   1      43.541  27.083  27.852  1.00  0.00     0.031 C 
ATOM     36  C   UNL A   1      38.747  28.193  28.884  1.00  0.00     0.029 A 
ATOM     37  N   UNL A   1      40.267  29.799  29.226  1.00  0.00    -0.354 N 
ATOM     38  C   UNL A   1      44.455  29.100  28.436  1.00  0.00     0.074 A 
ATOM     39  C   UNL A   1      44.682  27.750  27.964  1.00  0.00     0.031 C 
ATOM     40  C   UNL A   1      38.097  29.275  29.345  1.00  0.00     0.029 A 
ATOM     41  C   UNL A   1      39.061  30.340  29.604  1.00  0.00     0.049 A 
ATOM     42  H   UNL A   1      41.116  30.297  29.259  1.00  0.00     0.167 HD
ATOM     43  C   UNL A   1      45.429  30.028  28.596  1.00  0.00     0.034 A 
ATOM     44  C   UNL A   1      38.769  31.553  30.113  1.00  0.00     0.034 A 
ATOM     45  C   UNL A   1      45.198  31.377  29.039  1.00  0.00     0.049 A 
ATOM     46  C   UNL A   1      39.874  32.562  30.283  1.00  0.00     0.074 A 
ATOM     47  C   UNL A   1      46.121  32.395  29.211  1.00  0.00     0.029 A 
ATOM     48  N   UNL A   1      43.961  31.899  29.380  1.00  0.00    -0.354 N 
ATOM     49  N   UNL A   1      41.144  32.455  29.975  1.00  0.00    -0.248 NA
ATOM     50  C   UNL A   1      39.501  33.869  30.842  1.00  0.00     0.031 C 
ATOM     51  C   UNL A   1      45.442  33.530  29.666  1.00  0.00     0.029 A 
ATOM     52  C   UNL A   1      44.095  33.223  29.765  1.00  0.00     0.049 A 
ATOM     53  H   UNL A   1      43.112  31.403  29.354  1.00  0.00     0.167 HD
ATOM     54  C   UNL A   1      41.716  33.684  30.283  1.00  0.00     0.074 A 
ATOM     55  C   UNL A   1      40.646  34.532  30.768  1.00  0.00     0.031 C 
ATOM     56  C   UNL A   1      43.013  34.069  30.198  1.00  0.00     0.034 A 
BRANCH  43  57
ATOM     57  C   UNL A   1      46.837  29.628  28.249  1.00  0.00     0.023 A 
ATOM     58  C   UNL A   1      47.345  29.930  26.969  1.00  0.00     0.012 A 
ATOM     59  C   UNL A   1      47.678  29.024  29.202  1.00  0.00     0.148 A 
ATOM     60  C   UNL A   1      48.662  29.618  26.637  1.00  0.00     0.002 A 
ATOM     61  C   UNL A   1      49.001  28.746  28.876  1.00  0.00     0.091 A 
ATOM     62  F   UNL A   1      47.168  28.725  30.406  1.00  0.00    -0.205 F 
ATOM     63  C   UNL A   1      49.492  29.038  27.593  1.00  0.00     0.022 A 
BRANCH  61  64
ATOM     64  S   UNL A   1      50.168  28.057  30.055  1.00  0.00     0.127 S 
ATOM     65  O   UNL A   1      49.700  26.675  30.157  1.00  0.00    -0.237 OA
ATOM     66  O   UNL A   1      51.443  28.219  29.357  1.00  0.00    -0.237 OA
ATOM     67  O   UNL A   1      50.032  28.852  31.267  1.00  0.00    -0.744 OA
ENDBRANCH  61  64
ENDBRANCH  43  57
BRANCH  44  68
ATOM     68  C   UNL A   1      37.362  31.895  30.467  1.00  0.00     0.023 A 
ATOM     69  C   UNL A   1      36.863  31.571  31.743  1.00  0.00     0.012 A 
ATOM     70  C   UNL A   1      36.520  32.553  29.550  1.00  0.00     0.148 A 
ATOM     71  C   UNL A   1      35.544  31.868  32.088  1.00  0.00     0.002 A 
ATOM     72  C   UNL A   1      35.225  32.897  29.919  1.00  0.00     0.091 A 
ATOM     73  F   UNL A   1      36.999  32.829  28.328  1.00  0.00    -0.205 F 
ATOM     74  C   UNL A   1      34.729  32.542  31.181  1.00  0.00     0.022 A 
BRANCH  72  75
ATOM     75  S   UNL A   1      34.172  33.886  28.851  1.00  0.00     0.127 S 
ATOM     76  O   UNL A   1      33.685  32.890  27.901  1.00  0.00    -0.237 OA
ATOM     77  O   UNL A   1      33.165  34.390  29.786  1.00  0.00    -0.237 OA
ATOM     78  O   UNL A   1      35.044  34.919  28.308  1.00  0.00    -0.744 OA
ENDBRANCH  72  75
ENDBRANCH  44  68
BRANCH  56  79
ATOM     79  C   UNL A   1      43.349  35.472  30.631  1.00  0.00     0.023 A 
ATOM     80  C   UNL A   1      43.716  35.714  31.970  1.00  0.00     0.012 A 
ATOM     81  C   UNL A   1      43.355  36.538  29.710  1.00  0.00     0.148 A 
ATOM     82  C   UNL A   1      44.051  36.999  32.394  1.00  0.00     0.002 A 
ATOM     83  C   UNL A   1      43.732  37.808  30.129  1.00  0.00     0.091 A 
ATOM     84  F   UNL A   1      42.982  36.294  28.445  1.00  0.00    -0.205 F 
ATOM     85  C   UNL A   1      44.070  38.043  31.472  1.00  0.00     0.022 A 
BRANCH  83  86
ATOM     86  S   UNL A   1      43.866  39.188  28.986  1.00  0.00     0.127 S 
ATOM     87  O   UNL A   1      42.475  39.374  28.577  1.00  0.00    -0.237 OA
ATOM     88  O   UNL A   1      44.400  40.253  29.838  1.00  0.00    -0.237 OA
ATOM     89  O   UNL A   1      44.779  38.745  27.941  1.00  0.00    -0.744 OA
ENDBRANCH  83  86
ENDBRANCH  56  79
ENDBRANCH  30  31
ENDBRANCH  23  25
ENDBRANCH  22  23
ENDBRANCH   1  22
TORSDOF 15
ENDMDL
MODEL 2
REMARK VINA RESULT:     -10.6      4.229      6.584
REMARK SMILES C[C@H](NC1=[NH+]S(=O)(=O)c2ccccc21)C(=O)OCCOC(=O)c1ccc(-c2c3nc(c(-c4cccc(S(=O)(=O)[O-])c4F)c4ccc([nH]4)c(-c4cccc(S(=O)(=O)[O-])c4F)c4nc(c(-c5cccc(S(=O)(=O)[O-])c5F)c5ccc2[nH]5)C=C4)C=C3)cc1
REMARK SMILES IDX 19 1 18 2 17 3 15 4 16 5 2 6 1 7 3 8 4 9 5 11 14 12 6 13
REMARK SMILES IDX 9 15 13 16 7 17 8 18 10 19 12 20 11 21 20 22 21 23 22 24
REMARK SMILES IDX 23 25 24 26 85 27 25 28 84 29 26 30 27 31 28 32 78 33 29 34
REMARK SMILES IDX 83 35 77 36 79 37 30 38 82 39 76 40 75 41 31 43 63 44 43 45
REMARK SMILES IDX 62 46 44 47 47 48 61 49 80 50 45 51 46 52 60 54 81 55 48 56
REMARK SMILES IDX 32 57 33 58 41 59 34 60 36 61 42 62 35 63 37 64 38 65 39 66
REMARK SMILES IDX 40 67 64 68 65 69 73 70 66 71 68 72 74 73 67 74 69 75 70 76
REMARK SMILES IDX 71 77 72 78 49 79 50 80 58 81 51 82 53 83 59 84 52 85 54 86
REMARK SMILES IDX 55 87 56 88 57 89
REMARK H PARENT 3 10 5 14 79 42 47 53
REMARK Flexibility Score: inf
ROOT
ATOM      1  C   UNL A   1      37.855  20.302  24.986  1.00  0.00     0.275 C 
ENDROOT
BRANCH   1   2
ATOM      2  C   UNL A   1      36.324  20.255  25.001  1.00  0.00     0.274 C 
BRANCH   2   3
ATOM      3  O   UNL A   1      35.767  21.464  24.453  1.00  0.00    -0.459 OA
BRANCH   3   4
ATOM      4  C   UNL A   1      34.451  21.721  24.725  1.00  0.00     0.350 C 
ATOM      5  O   UNL A   1      33.545  20.910  24.587  1.00  0.00    -0.247 OA
BRANCH   4   6
ATOM      6  C   UNL A   1      34.242  23.160  25.238  1.00  0.00     0.279 C 
ATOM      7  C   UNL A   1      34.347  23.143  26.754  1.00  0.00     0.071 C 
BRANCH   6   8
ATOM      8  N   UNL A   1      32.990  23.713  24.702  1.00  0.00    -0.260 N 
ATOM      9  C   UNL A   1      32.833  24.628  23.698  1.00  0.00     0.292 C 
ATOM     10  H   UNL A   1      32.161  23.382  25.117  1.00  0.00     0.306 HD
ATOM     11  N   UNL A   1      33.712  24.888  22.776  1.00  0.00    -0.162 N 
ATOM     12  C   UNL A   1      31.602  25.456  23.643  1.00  0.00     0.087 A 
ATOM     13  S   UNL A   1      33.210  26.099  21.795  1.00  0.00     0.329 S 
ATOM     14  H   UNL A   1      34.570  24.415  22.680  1.00  0.00     0.327 HD
ATOM     15  C   UNL A   1      31.708  26.378  22.621  1.00  0.00     0.124 A 
ATOM     16  C   UNL A   1      30.498  25.467  24.479  1.00  0.00     0.018 A 
ATOM     17  O   UNL A   1      32.889  25.602  20.481  1.00  0.00    -0.179 OA
ATOM     18  O   UNL A   1      34.028  27.281  22.001  1.00  0.00    -0.179 OA
ATOM     19  C   UNL A   1      30.773  27.366  22.383  1.00  0.00     0.025 A 
ATOM     20  C   UNL A   1      29.521  26.447  24.259  1.00  0.00     0.001 A 
ATOM     21  C   UNL A   1      29.661  27.394  23.226  1.00  0.00     0.002 A 
ENDBRANCH   6   8
ENDBRANCH   4   6
ENDBRANCH   3   4
ENDBRANCH   2   3
ENDBRANCH   1   2
BRANCH   1  22
ATOM     22  O   UNL A   1      38.370  21.438  25.705  1.00  0.00    -0.458 OA
BRANCH  22  23
ATOM     23  C   UNL A   1      39.540  21.232  26.359  1.00  0.00     0.338 C 
ATOM     24  O   UNL A   1      40.167  20.182  26.410  1.00  0.00    -0.246 OA
BRANCH  23  25
ATOM     25  C   UNL A   1      40.073  22.518  26.856  1.00  0.00     0.060 A 
ATOM     26  C   UNL A   1      39.595  23.683  26.249  1.00  0.00     0.016 A 
ATOM     27  C   UNL A   1      41.030  22.598  27.872  1.00  0.00     0.016 A 
ATOM     28  C   UNL A   1      40.058  24.929  26.657  1.00  0.00     0.010 A 
ATOM     29  C   UNL A   1      41.505  23.854  28.274  1.00  0.00     0.010 A 
ATOM     30  C   UNL A   1      41.025  25.026  27.664  1.00  0.00    -0.014 A 
BRANCH  30  31
ATOM     31  C   UNL A   1      41.537  26.369  28.032  1.00  0.00     0.031 A 
ATOM     32  C   UNL A   1      42.935  26.771  27.659  1.00  0.00     0.074 A 
ATOM     33  C   UNL A   1      40.721  27.248  28.646  1.00  0.00     0.049 A 
ATOM     34  N   UNL A   1      43.542  27.914  27.848  1.00  0.00    -0.248 NA
ATOM     35  C   UNL A   1      43.758  25.758  26.977  1.00  0.00     0.031 C 
ATOM     36  C   UNL A   1      39.342  26.974  29.052  1.00  0.00     0.029 A 
ATOM     37  N   UNL A   1      40.933  28.547  29.035  1.00  0.00    -0.354 N 
ATOM     38  C   UNL A   1      44.821  27.755  27.330  1.00  0.00     0.074 A 
ATOM     39  C   UNL A   1      44.908  26.401  26.827  1.00  0.00     0.031 C 
ATOM     40  C   UNL A   1      38.834  28.070  29.640  1.00  0.00     0.029 A 
ATOM     41  C   UNL A   1      39.854  29.114  29.671  1.00  0.00     0.049 A 
ATOM     42  H   UNL A   1      41.778  29.026  28.874  1.00  0.00     0.167 HD
ATOM     43  C   UNL A   1      45.826  28.661  27.262  1.00  0.00     0.034 A 
ATOM     44  C   UNL A   1      39.709  30.334  30.226  1.00  0.00     0.034 A 
ATOM     45  C   UNL A   1      45.729  30.016  27.738  1.00  0.00     0.049 A 
ATOM     46  C   UNL A   1      40.846  31.318  30.138  1.00  0.00     0.074 A 
ATOM     47  C   UNL A   1      46.689  31.013  27.693  1.00  0.00     0.029 A 
ATOM     48  N   UNL A   1      44.612  30.565  28.345  1.00  0.00    -0.354 N 
ATOM     49  N   UNL A   1      42.012  31.183  29.553  1.00  0.00    -0.248 NA
ATOM     50  C   UNL A   1      40.635  32.634  30.758  1.00  0.00     0.031 C 
ATOM     51  C   UNL A   1      46.153  32.164  28.282  1.00  0.00     0.029 A 
ATOM     52  C   UNL A   1      44.857  31.886  28.683  1.00  0.00     0.049 A 
ATOM     53  H   UNL A   1      43.767  30.088  28.512  1.00  0.00     0.167 HD
ATOM     54  C   UNL A   1      42.665  32.399  29.718  1.00  0.00     0.074 A 
ATOM     55  C   UNL A   1      41.748  33.271  30.425  1.00  0.00     0.031 C 
ATOM     56  C   UNL A   1      43.917  32.756  29.342  1.00  0.00     0.034 A 
BRANCH  43  57
ATOM     57  C   UNL A   1      47.111  28.231  26.610  1.00  0.00     0.023 A 
ATOM     58  C   UNL A   1      48.212  27.880  27.418  1.00  0.00     0.012 A 
ATOM     59  C   UNL A   1      47.211  28.105  25.211  1.00  0.00     0.148 A 
ATOM     60  C   UNL A   1      49.399  27.429  26.842  1.00  0.00     0.002 A 
ATOM     61  C   UNL A   1      48.385  27.622  24.646  1.00  0.00     0.091 A 
ATOM     62  F   UNL A   1      46.159  28.465  24.461  1.00  0.00    -0.205 F 
ATOM     63  C   UNL A   1      49.481  27.289  25.459  1.00  0.00     0.022 A 
BRANCH  61  64
ATOM     64  S   UNL A   1      48.571  27.346  22.880  1.00  0.00     0.127 S 
ATOM     65  O   UNL A   1      48.297  25.913  22.777  1.00  0.00    -0.237 OA
ATOM     66  O   UNL A   1      47.529  28.207  22.322  1.00  0.00    -0.237 OA
ATOM     67  O   UNL A   1      49.932  27.746  22.552  1.00  0.00    -0.744 OA
ENDBRANCH  61  64
ENDBRANCH  43  57
BRANCH  44  68
ATOM     68  C   UNL A   1      38.426  30.707  30.884  1.00  0.00     0.023 A 
ATOM     69  C   UNL A   1      38.216  30.388  32.239  1.00  0.00     0.012 A 
ATOM     70  C   UNL A   1      37.416  31.389  30.177  1.00  0.00     0.148 A 
ATOM     71  C   UNL A   1      37.014  30.714  32.869  1.00  0.00     0.002 A 
ATOM     72  C   UNL A   1      36.244  31.761  30.825  1.00  0.00     0.091 A 
ATOM     73  F   UNL A   1      37.617  31.660  28.879  1.00  0.00    -0.205 F 
ATOM     74  C   UNL A   1      36.034  31.412  32.167  1.00  0.00     0.022 A 
BRANCH  72  75
ATOM     75  S   UNL A   1      35.004  32.780  30.019  1.00  0.00     0.127 S 
ATOM     76  O   UNL A   1      34.066  33.033  31.110  1.00  0.00    -0.237 OA
ATOM     77  O   UNL A   1      35.783  33.943  29.594  1.00  0.00    -0.237 OA
ATOM     78  O   UNL A   1      34.503  31.968  28.917  1.00  0.00    -0.744 OA
ENDBRANCH  72  75
ENDBRANCH  44  68
BRANCH  56  79
ATOM     79  C   UNL A   1      44.371  34.152  29.681  1.00  0.00     0.023 A 
ATOM     80  C   UNL A   1      45.170  34.362  30.822  1.00  0.00     0.012 A 
ATOM     81  C   UNL A   1      44.056  35.243  28.848  1.00  0.00     0.148 A 
ATOM     82  C   UNL A   1      45.621  35.640  31.148  1.00  0.00     0.002 A 
ATOM     83  C   UNL A   1      44.545  36.508  29.155  1.00  0.00     0.091 A 
ATOM     84  F   UNL A   1      43.276  35.029  27.778  1.00  0.00    -0.205 F 
ATOM     85  C   UNL A   1      45.318  36.710  30.310  1.00  0.00     0.022 A 
BRANCH  83  86
ATOM     86  S   UNL A   1      44.273  37.922  28.080  1.00  0.00     0.127 S 
ATOM     87  O   UNL A   1      44.881  39.005  28.851  1.00  0.00    -0.237 OA
ATOM     88  O   UNL A   1      45.009  37.546  26.871  1.00  0.00    -0.237 OA
ATOM     89  O   UNL A   1      42.830  38.007  27.899  1.00  0.00    -0.744 OA
ENDBRANCH  83  86
ENDBRANCH  56  79
ENDBRANCH  30  31
ENDBRANCH  23  25
ENDBRANCH  22  23
ENDBRANCH   1  22
TORSDOF 15
ENDMDL
MODEL 3
REMARK VINA RESULT:     -10.6      4.350     12.109
REMARK SMILES C[C@H](NC1=[NH+]S(=O)(=O)c2ccccc21)C(=O)OCCOC(=O)c1ccc(-c2c3nc(c(-c4cccc(S(=O)(=O)[O-])c4F)c4ccc([nH]4)c(-c4cccc(S(=O)(=O)[O-])c4F)c4nc(c(-c5cccc(S(=O)(=O)[O-])c5F)c5ccc2[nH]5)C=C4)C=C3)cc1
REMARK SMILES IDX 19 1 18 2 17 3 15 4 16 5 2 6 1 7 3 8 4 9 5 11 14 12 6 13
REMARK SMILES IDX 9 15 13 16 7 17 8 18 10 19 12 20 11 21 20 22 21 23 22 24
REMARK SMILES IDX 23 25 24 26 85 27 25 28 84 29 26 30 27 31 28 32 78 33 29 34
REMARK SMILES IDX 83 35 77 36 79 37 30 38 82 39 76 40 75 41 31 43 63 44 43 45
REMARK SMILES IDX 62 46 44 47 47 48 61 49 80 50 45 51 46 52 60 54 81 55 48 56
REMARK SMILES IDX 32 57 33 58 41 59 34 60 36 61 42 62 35 63 37 64 38 65 39 66
REMARK SMILES IDX 40 67 64 68 65 69 73 70 66 71 68 72 74 73 67 74 69 75 70 76
REMARK SMILES IDX 71 77 72 78 49 79 50 80 58 81 51 82 53 83 59 84 52 85 54 86
REMARK SMILES IDX 55 87 56 88 57 89
REMARK H PARENT 3 10 5 14 79 42 47 53
REMARK Flexibility Score: inf
ROOT
ATOM      1  C   UNL A   1      33.382  33.152  27.968  1.00  0.00     0.275 C 
ENDROOT
BRANCH   1   2
ATOM      2  C   UNL A   1      33.638  34.480  28.687  1.00  0.00     0.274 C 
BRANCH   2   3
ATOM      3  O   UNL A   1      33.210  34.413  30.060  1.00  0.00    -0.459 OA
BRANCH   3   4
ATOM      4  C   UNL A   1      33.381  35.538  30.820  1.00  0.00     0.350 C 
ATOM      5  O   UNL A   1      32.881  36.626  30.567  1.00  0.00    -0.247 OA
BRANCH   4   6
ATOM      6  C   UNL A   1      34.277  35.271  32.046  1.00  0.00     0.279 C 
ATOM      7  C   UNL A   1      34.405  36.565  32.832  1.00  0.00     0.071 C 
BRANCH   6   8
ATOM      8  N   UNL A   1      35.548  34.665  31.622  1.00  0.00    -0.260 N 
ATOM      9  C   UNL A   1      36.681  34.476  32.363  1.00  0.00     0.292 C 
ATOM     10  H   UNL A   1      35.588  34.357  30.688  1.00  0.00     0.306 HD
ATOM     11  N   UNL A   1      36.729  34.431  33.662  1.00  0.00    -0.162 N 
ATOM     12  C   UNL A   1      37.995  34.359  31.682  1.00  0.00     0.087 A 
ATOM     13  S   UNL A   1      38.268  34.272  34.198  1.00  0.00     0.329 S 
ATOM     14  H   UNL A   1      35.940  34.485  34.247  1.00  0.00     0.327 HD
ATOM     15  C   UNL A   1      39.002  34.284  32.625  1.00  0.00     0.124 A 
ATOM     16  C   UNL A   1      38.306  34.404  30.333  1.00  0.00     0.018 A 
ATOM     17  O   UNL A   1      38.487  32.963  34.762  1.00  0.00    -0.179 OA
ATOM     18  O   UNL A   1      38.692  35.489  34.868  1.00  0.00    -0.179 OA
ATOM     19  C   UNL A   1      40.346  34.280  32.309  1.00  0.00     0.025 A 
ATOM     20  C   UNL A   1      39.661  34.388  29.974  1.00  0.00     0.001 A 
ATOM     21  C   UNL A   1      40.672  34.336  30.953  1.00  0.00     0.002 A 
ENDBRANCH   6   8
ENDBRANCH   4   6
ENDBRANCH   3   4
ENDBRANCH   2   3
ENDBRANCH   1   2
BRANCH   1  22
ATOM     22  O   UNL A   1      34.600  32.431  27.709  1.00  0.00    -0.458 OA
BRANCH  22  23
ATOM     23  C   UNL A   1      34.524  31.086  27.859  1.00  0.00     0.338 C 
ATOM     24  O   UNL A   1      33.568  30.378  27.574  1.00  0.00    -0.246 OA
BRANCH  23  25
ATOM     25  C   UNL A   1      35.845  30.546  28.243  1.00  0.00     0.060 A 
ATOM     26  C   UNL A   1      35.874  29.619  29.289  1.00  0.00     0.016 A 
ATOM     27  C   UNL A   1      37.034  30.940  27.623  1.00  0.00     0.016 A 
ATOM     28  C   UNL A   1      37.082  29.075  29.713  1.00  0.00     0.010 A 
ATOM     29  C   UNL A   1      38.252  30.401  28.059  1.00  0.00     0.010 A 
ATOM     30  C   UNL A   1      38.283  29.468  29.110  1.00  0.00    -0.014 A 
BRANCH  30  31
ATOM     31  C   UNL A   1      39.555  28.910  29.628  1.00  0.00     0.031 A 
ATOM     32  C   UNL A   1      40.175  29.475  30.874  1.00  0.00     0.074 A 
ATOM     33  C   UNL A   1      40.118  27.853  29.012  1.00  0.00     0.049 A 
ATOM     34  N   UNL A   1      41.253  29.089  31.506  1.00  0.00    -0.248 NA
ATOM     35  C   UNL A   1      39.490  30.620  31.496  1.00  0.00     0.031 C 
ATOM     36  C   UNL A   1      39.605  27.214  27.799  1.00  0.00     0.029 A 
ATOM     37  N   UNL A   1      41.245  27.131  29.320  1.00  0.00    -0.354 N 
ATOM     38  C   UNL A   1      41.389  29.952  32.586  1.00  0.00     0.074 A 
ATOM     39  C   UNL A   1      40.289  30.890  32.519  1.00  0.00     0.031 C 
ATOM     40  C   UNL A   1      40.419  26.200  27.462  1.00  0.00     0.029 A 
ATOM     41  C   UNL A   1      41.519  26.129  28.419  1.00  0.00     0.049 A 
ATOM     42  H   UNL A   1      41.802  27.314  30.111  1.00  0.00     0.167 HD
ATOM     43  C   UNL A   1      42.335  29.951  33.557  1.00  0.00     0.034 A 
ATOM     44  C   UNL A   1      42.548  25.260  28.367  1.00  0.00     0.034 A 
ATOM     45  C   UNL A   1      43.412  29.001  33.638  1.00  0.00     0.049 A 
ATOM     46  C   UNL A   1      43.585  25.286  29.458  1.00  0.00     0.074 A 
ATOM     47  C   UNL A   1      44.406  28.909  34.597  1.00  0.00     0.029 A 
ATOM     48  N   UNL A   1      43.640  27.981  32.729  1.00  0.00    -0.354 N 
ATOM     49  N   UNL A   1      43.640  26.044  30.527  1.00  0.00    -0.248 NA
ATOM     50  C   UNL A   1      44.685  24.316  29.353  1.00  0.00     0.031 C 
ATOM     51  C   UNL A   1      45.241  27.837  34.262  1.00  0.00     0.029 A 
ATOM     52  C   UNL A   1      44.759  27.255  33.101  1.00  0.00     0.049 A 
ATOM     53  H   UNL A   1      43.087  27.798  31.935  1.00  0.00     0.167 HD
ATOM     54  C   UNL A   1      44.766  25.630  31.230  1.00  0.00     0.074 A 
ATOM     55  C   UNL A   1      45.343  24.530  30.484  1.00  0.00     0.031 C 
ATOM     56  C   UNL A   1      45.292  26.131  32.375  1.00  0.00     0.034 A 
BRANCH  43  57
ATOM     57  C   UNL A   1      42.224  30.988  34.640  1.00  0.00     0.023 A 
ATOM     58  C   UNL A   1      41.552  30.668  35.838  1.00  0.00     0.012 A 
ATOM     59  C   UNL A   1      42.840  32.247  34.509  1.00  0.00     0.148 A 
ATOM     60  C   UNL A   1      41.477  31.592  36.879  1.00  0.00     0.002 A 
ATOM     61  C   UNL A   1      42.792  33.151  35.564  1.00  0.00     0.091 A 
ATOM     62  F   UNL A   1      43.455  32.540  33.353  1.00  0.00    -0.205 F 
ATOM     63  C   UNL A   1      42.107  32.827  36.746  1.00  0.00     0.022 A 
BRANCH  61  64
ATOM     64  S   UNL A   1      43.623  34.743  35.517  1.00  0.00     0.127 S 
ATOM     65  O   UNL A   1      42.753  35.501  34.619  1.00  0.00    -0.237 OA
ATOM     66  O   UNL A   1      43.566  35.162  36.918  1.00  0.00    -0.237 OA
ATOM     67  O   UNL A   1      44.964  34.482  35.014  1.00  0.00    -0.744 OA
ENDBRANCH  61  64
ENDBRANCH  43  57
BRANCH  44  68
ATOM     68  C   UNL A   1      42.630  24.266  27.259  1.00  0.00     0.023 A 
ATOM     69  C   UNL A   1      43.349  24.579  26.091  1.00  0.00     0.012 A 
ATOM     70  C   UNL A   1      42.010  23.006  27.364  1.00  0.00     0.148 A 
ATOM     71  C   UNL A   1      43.424  23.669  25.035  1.00  0.00     0.002 A 
ATOM     72  C   UNL A   1      42.136  22.081  26.334  1.00  0.00     0.091 A 
ATOM     73  F   UNL A   1      41.302  22.732  28.471  1.00  0.00    -0.205 F 
ATOM     74  C   UNL A   1      42.829  22.416  25.162  1.00  0.00     0.022 A 
BRANCH  72  75
ATOM     75  S   UNL A   1      41.512  20.404  26.491  1.00  0.00     0.127 S 
ATOM     76  O   UNL A   1      40.068  20.611  26.412  1.00  0.00    -0.237 OA
ATOM     77  O   UNL A   1      42.104  19.741  25.328  1.00  0.00    -0.237 OA
ATOM     78  O   UNL A   1      42.023  19.926  27.769  1.00  0.00    -0.744 OA
ENDBRANCH  72  75
ENDBRANCH  44  68
BRANCH  56  79
ATOM     79  C   UNL A   1      46.550  25.490  32.898  1.00  0.00     0.023 A 
ATOM     80  C   UNL A   1      47.803  25.975  32.472  1.00  0.00     0.012 A 
ATOM     81  C   UNL A   1      46.499  24.450  33.847  1.00  0.00     0.148 A 
ATOM     82  C   UNL A   1      48.984  25.414  32.955  1.00  0.00     0.002 A 
ATOM     83  C   UNL A   1      47.681  23.924  34.357  1.00  0.00     0.091 A 
ATOM     84  F   UNL A   1      45.300  23.986  34.225  1.00  0.00    -0.205 F 
ATOM     85  C   UNL A   1      48.924  24.397  33.904  1.00  0.00     0.022 A 
BRANCH  83  86
ATOM     86  S   UNL A   1      47.688  22.674  35.647  1.00  0.00     0.127 S 
ATOM     87  O   UNL A   1      49.104  22.314  35.705  1.00  0.00    -0.237 OA
ATOM     88  O   UNL A   1      47.199  23.417  36.810  1.00  0.00    -0.237 OA
ATOM     89  O   UNL A   1      46.788  21.626  35.185  1.00  0.00    -0.744 OA
ENDBRANCH  83  86
ENDBRANCH  56  79
ENDBRANCH  30  31
ENDBRANCH  23  25
ENDBRANCH  22  23
ENDBRANCH   1  22
TORSDOF 15
ENDMDL
