MODEL 1
REMARK VINA RESULT:     -10.5      0.000      0.000
REMARK SMILES CC[C@H]([NH2+]C1c2ccccc2-c2ccccc21)C(=O)OCCOC(=O)c1ccc(-c2c3nc(c(-c4cccc(S(=O)(=O)[O-])c4F)c4ccc([nH]4)c(-c4cccc(S(=O)(=O)[O-])c4F)c4nc(c(-c5cccc(S(=O)(=O)[O-])c5F)c5ccc2[nH]5)C=C4)C=C3)cc1
REMARK SMILES IDX 22 1 21 2 20 3 18 4 19 5 3 6 2 7 1 8 4 9 5 12 6 13 17 14
REMARK SMILES IDX 7 15 11 16 12 17 16 18 8 19 10 20 13 21 15 22 9 23 14 24
REMARK SMILES IDX 23 25 24 26 25 27 26 28 27 29 88 30 28 31 87 32 29 33 30 34
REMARK SMILES IDX 31 35 81 36 32 37 86 38 80 39 82 40 33 41 85 42 79 43 78 44
REMARK SMILES IDX 34 46 66 47 46 48 65 49 47 50 50 51 64 52 83 53 48 54 49 55
REMARK SMILES IDX 63 57 84 58 51 59 35 60 36 61 44 62 37 63 39 64 45 65 38 66
REMARK SMILES IDX 40 67 41 68 42 69 43 70 67 71 68 72 76 73 69 74 71 75 77 76
REMARK SMILES IDX 70 77 72 78 73 79 74 80 75 81 52 82 53 83 61 84 54 85 56 86
REMARK SMILES IDX 62 87 55 88 57 89 58 90 59 91 60 92
REMARK H PARENT 4 10 4 11 82 45 50 56
REMARK Flexibility Score: inf
ROOT
ATOM      1  C   UNL A   1      40.360  20.830  26.959  1.00  0.00     0.275 C 
ENDROOT
BRANCH   1   2
ATOM      2  C   UNL A   1      41.055  19.654  26.260  1.00  0.00     0.274 C 
BRANCH   2   3
ATOM      3  O   UNL A   1      42.443  19.526  26.632  1.00  0.00    -0.458 OA
BRANCH   3   4
ATOM      4  C   UNL A   1      43.338  19.317  25.636  1.00  0.00     0.364 C 
ATOM      5  O   UNL A   1      43.541  18.228  25.108  1.00  0.00    -0.245 OA
BRANCH   4   6
ATOM      6  C   UNL A   1      44.099  20.600  25.220  1.00  0.00     0.293 C 
BRANCH   6   7
ATOM      7  C   UNL A   1      45.169  20.247  24.179  1.00  0.00     0.074 C 
ATOM      8  C   UNL A   1      46.576  20.014  24.694  1.00  0.00     0.011 C 
ENDBRANCH   6   7
BRANCH   6   9
ATOM      9  N   UNL A   1      44.280  21.533  26.335  1.00  0.00    -0.325 N 
ATOM     10  H   UNL A   1      45.228  21.355  26.668  1.00  0.00     0.347 HD
ATOM     11  H   UNL A   1      43.432  21.315  26.858  1.00  0.00     0.347 HD
BRANCH   9  12
ATOM     12  C   UNL A   1      44.161  22.988  26.320  1.00  0.00     0.246 C 
ATOM     13  C   UNL A   1      43.918  23.385  27.801  1.00  0.00     0.022 A 
ATOM     14  C   UNL A   1      45.425  23.787  26.020  1.00  0.00     0.022 A 
ATOM     15  C   UNL A   1      42.936  22.904  28.661  1.00  0.00     0.011 A 
ATOM     16  C   UNL A   1      45.016  24.125  28.293  1.00  0.00    -0.008 A 
ATOM     17  C   UNL A   1      45.920  24.401  27.196  1.00  0.00    -0.008 A 
ATOM     18  C   UNL A   1      46.078  23.962  24.810  1.00  0.00     0.011 A 
ATOM     19  C   UNL A   1      43.084  23.132  30.032  1.00  0.00     0.001 A 
ATOM     20  C   UNL A   1      45.163  24.347  29.655  1.00  0.00     0.009 A 
ATOM     21  C   UNL A   1      47.119  25.095  27.186  1.00  0.00     0.009 A 
ATOM     22  C   UNL A   1      47.281  24.675  24.797  1.00  0.00     0.001 A 
ATOM     23  C   UNL A   1      44.195  23.834  30.526  1.00  0.00     0.001 A 
ATOM     24  C   UNL A   1      47.807  25.220  25.978  1.00  0.00     0.001 A 
ENDBRANCH   9  12
ENDBRANCH   6   9
ENDBRANCH   4   6
ENDBRANCH   3   4
ENDBRANCH   2   3
ENDBRANCH   1   2
BRANCH   1  25
ATOM     25  O   UNL A   1      40.548  22.077  26.265  1.00  0.00    -0.458 OA
BRANCH  25  26
ATOM     26  C   UNL A   1      39.488  22.900  26.352  1.00  0.00     0.338 C 
ATOM     27  O   UNL A   1      38.321  22.609  26.161  1.00  0.00    -0.246 OA
BRANCH  26  28
ATOM     28  C   UNL A   1      39.820  24.223  26.844  1.00  0.00     0.060 A 
ATOM     29  C   UNL A   1      39.528  24.506  28.183  1.00  0.00     0.016 A 
ATOM     30  C   UNL A   1      40.267  25.205  25.964  1.00  0.00     0.016 A 
ATOM     31  C   UNL A   1      39.742  25.780  28.673  1.00  0.00     0.010 A 
ATOM     32  C   UNL A   1      40.501  26.480  26.460  1.00  0.00     0.010 A 
ATOM     33  C   UNL A   1      40.268  26.756  27.819  1.00  0.00    -0.014 A 
BRANCH  33  34
ATOM     34  C   UNL A   1      40.751  28.022  28.388  1.00  0.00     0.031 A 
ATOM     35  C   UNL A   1      42.207  28.256  28.597  1.00  0.00     0.074 A 
ATOM     36  C   UNL A   1      39.812  28.904  28.775  1.00  0.00     0.049 A 
ATOM     37  N   UNL A   1      42.794  29.262  29.183  1.00  0.00    -0.248 NA
ATOM     38  C   UNL A   1      43.128  27.223  28.095  1.00  0.00     0.031 C 
ATOM     39  C   UNL A   1      38.365  28.710  28.616  1.00  0.00     0.029 A 
ATOM     40  N   UNL A   1      39.918  30.108  29.411  1.00  0.00    -0.354 N 
ATOM     41  C   UNL A   1      44.151  28.977  29.152  1.00  0.00     0.074 A 
ATOM     42  C   UNL A   1      44.303  27.700  28.486  1.00  0.00     0.031 C 
ATOM     43  C   UNL A   1      37.719  29.745  29.168  1.00  0.00     0.029 A 
ATOM     44  C   UNL A   1      38.700  30.652  29.745  1.00  0.00     0.049 A 
ATOM     45  H   UNL A   1      40.779  30.542  29.609  1.00  0.00     0.167 HD
ATOM     46  C   UNL A   1      45.169  29.728  29.636  1.00  0.00     0.034 A 
ATOM     47  C   UNL A   1      38.415  31.750  30.467  1.00  0.00     0.034 A 
ATOM     48  C   UNL A   1      44.971  30.995  30.290  1.00  0.00     0.049 A 
ATOM     49  C   UNL A   1      39.564  32.570  30.969  1.00  0.00     0.074 A 
ATOM     50  C   UNL A   1      45.920  31.862  30.799  1.00  0.00     0.029 A 
ATOM     51  N   UNL A   1      43.729  31.570  30.534  1.00  0.00    -0.354 N 
ATOM     52  N   UNL A   1      40.851  32.346  30.839  1.00  0.00    -0.248 NA
ATOM     53  C   UNL A   1      39.233  33.807  31.683  1.00  0.00     0.031 C 
ATOM     54  C   UNL A   1      45.250  32.956  31.360  1.00  0.00     0.029 A 
ATOM     55  C   UNL A   1      43.885  32.779  31.186  1.00  0.00     0.049 A 
ATOM     56  H   UNL A   1      42.865  31.175  30.278  1.00  0.00     0.167 HD
ATOM     57  C   UNL A   1      41.488  33.424  31.434  1.00  0.00     0.074 A 
ATOM     58  C   UNL A   1      40.440  34.314  31.903  1.00  0.00     0.031 C 
ATOM     59  C   UNL A   1      42.814  33.654  31.598  1.00  0.00     0.034 A 
BRANCH  46  60
ATOM     60  C   UNL A   1      46.569  29.208  29.449  1.00  0.00     0.023 A 
ATOM     61  C   UNL A   1      47.142  28.391  30.445  1.00  0.00     0.012 A 
ATOM     62  C   UNL A   1      47.306  29.496  28.285  1.00  0.00     0.148 A 
ATOM     63  C   UNL A   1      48.438  27.893  30.298  1.00  0.00     0.002 A 
ATOM     64  C   UNL A   1      48.584  28.970  28.130  1.00  0.00     0.091 A 
ATOM     65  F   UNL A   1      46.755  30.296  27.360  1.00  0.00    -0.205 F 
ATOM     66  C   UNL A   1      49.154  28.176  29.138  1.00  0.00     0.022 A 
BRANCH  64  67
ATOM     67  S   UNL A   1      49.568  29.229  26.649  1.00  0.00     0.127 S 
ATOM     68  O   UNL A   1      50.783  28.482  26.967  1.00  0.00    -0.237 OA
ATOM     69  O   UNL A   1      48.733  28.621  25.612  1.00  0.00    -0.237 OA
ATOM     70  O   UNL A   1      49.733  30.671  26.525  1.00  0.00    -0.744 OA
ENDBRANCH  64  67
ENDBRANCH  46  60
BRANCH  47  71
ATOM     71  C   UNL A   1      36.994  32.137  30.684  1.00  0.00     0.023 A 
ATOM     72  C   UNL A   1      36.417  31.953  31.954  1.00  0.00     0.012 A 
ATOM     73  C   UNL A   1      36.241  32.765  29.672  1.00  0.00     0.148 A 
ATOM     74  C   UNL A   1      35.109  32.369  32.208  1.00  0.00     0.002 A 
ATOM     75  C   UNL A   1      34.957  33.225  29.947  1.00  0.00     0.091 A 
ATOM     76  F   UNL A   1      36.802  32.924  28.465  1.00  0.00    -0.205 F 
ATOM     77  C   UNL A   1      34.385  33.016  31.211  1.00  0.00     0.022 A 
BRANCH  75  78
ATOM     78  S   UNL A   1      34.015  34.194  28.761  1.00  0.00     0.127 S 
ATOM     79  O   UNL A   1      34.970  35.238  28.402  1.00  0.00    -0.237 OA
ATOM     80  O   UNL A   1      33.747  33.216  27.706  1.00  0.00    -0.237 OA
ATOM     81  O   UNL A   1      32.826  34.635  29.479  1.00  0.00    -0.744 OA
ENDBRANCH  75  78
ENDBRANCH  47  71
BRANCH  59  82
ATOM     82  C   UNL A   1      43.198  34.924  32.304  1.00  0.00     0.023 A 
ATOM     83  C   UNL A   1      43.248  34.948  33.710  1.00  0.00     0.012 A 
ATOM     84  C   UNL A   1      43.572  36.067  31.573  1.00  0.00     0.148 A 
ATOM     85  C   UNL A   1      43.639  36.103  34.382  1.00  0.00     0.002 A 
ATOM     86  C   UNL A   1      44.004  37.200  32.247  1.00  0.00     0.091 A 
ATOM     87  F   UNL A   1      43.490  36.026  30.234  1.00  0.00    -0.205 F 
ATOM     88  C   UNL A   1      44.029  37.224  33.652  1.00  0.00     0.022 A 
BRANCH  86  89
ATOM     89  S   UNL A   1      44.610  38.652  31.382  1.00  0.00     0.127 S 
ATOM     90  O   UNL A   1      44.931  39.548  32.491  1.00  0.00    -0.237 OA
ATOM     91  O   UNL A   1      45.773  38.126  30.665  1.00  0.00    -0.237 OA
ATOM     92  O   UNL A   1      43.518  39.084  30.520  1.00  0.00    -0.744 OA
ENDBRANCH  86  89
ENDBRANCH  59  82
ENDBRANCH  33  34
ENDBRANCH  26  28
ENDBRANCH  25  26
ENDBRANCH   1  25
TORSDOF 17
ENDMDL
MODEL 2
REMARK VINA RESULT:     -10.5      5.622      9.585
REMARK SMILES CC[C@H]([NH2+]C1c2ccccc2-c2ccccc21)C(=O)OCCOC(=O)c1ccc(-c2c3nc(c(-c4cccc(S(=O)(=O)[O-])c4F)c4ccc([nH]4)c(-c4cccc(S(=O)(=O)[O-])c4F)c4nc(c(-c5cccc(S(=O)(=O)[O-])c5F)c5ccc2[nH]5)C=C4)C=C3)cc1
REMARK SMILES IDX 22 1 21 2 20 3 18 4 19 5 3 6 2 7 1 8 4 9 5 12 6 13 17 14
REMARK SMILES IDX 7 15 11 16 12 17 16 18 8 19 10 20 13 21 15 22 9 23 14 24
REMARK SMILES IDX 23 25 24 26 25 27 26 28 27 29 88 30 28 31 87 32 29 33 30 34
REMARK SMILES IDX 31 35 81 36 32 37 86 38 80 39 82 40 33 41 85 42 79 43 78 44
REMARK SMILES IDX 34 46 66 47 46 48 65 49 47 50 50 51 64 52 83 53 48 54 49 55
REMARK SMILES IDX 63 57 84 58 51 59 35 60 36 61 44 62 37 63 39 64 45 65 38 66
REMARK SMILES IDX 40 67 41 68 42 69 43 70 67 71 68 72 76 73 69 74 71 75 77 76
REMARK SMILES IDX 70 77 72 78 73 79 74 80 75 81 52 82 53 83 61 84 54 85 56 86
REMARK SMILES IDX 62 87 55 88 57 89 58 90 59 91 60 92
REMARK H PARENT 4 10 4 11 82 45 50 56
REMARK Flexibility Score: inf
ROOT
ATOM      1  C   UNL A   1      32.092  30.450  25.728  1.00  0.00     0.275 C 
ENDROOT
BRANCH   1   2
ATOM      2  C   UNL A   1      32.302  29.030  25.186  1.00  0.00     0.274 C 
BRANCH   2   3
ATOM      3  O   UNL A   1      31.196  28.153  25.480  1.00  0.00    -0.458 OA
BRANCH   3   4
ATOM      4  C   UNL A   1      31.375  27.231  26.458  1.00  0.00     0.364 C 
ATOM      5  O   UNL A   1      31.183  27.446  27.651  1.00  0.00    -0.245 OA
BRANCH   4   6
ATOM      6  C   UNL A   1      31.855  25.859  25.924  1.00  0.00     0.293 C 
BRANCH   6   7
ATOM      7  C   UNL A   1      30.770  24.804  26.172  1.00  0.00     0.074 C 
ATOM      8  C   UNL A   1      31.200  23.529  26.871  1.00  0.00     0.011 C 
ENDBRANCH   6   7
BRANCH   6   9
ATOM      9  N   UNL A   1      33.293  25.653  26.116  1.00  0.00    -0.325 N 
ATOM     10  H   UNL A   1      33.357  24.919  26.821  1.00  0.00     0.347 HD
ATOM     11  H   UNL A   1      33.569  26.624  26.265  1.00  0.00     0.347 HD
BRANCH   9  12
ATOM     12  C   UNL A   1      34.292  25.291  25.115  1.00  0.00     0.246 C 
ATOM     13  C   UNL A   1      34.534  23.772  25.322  1.00  0.00     0.022 A 
ATOM     14  C   UNL A   1      33.852  25.308  23.655  1.00  0.00     0.022 A 
ATOM     15  C   UNL A   1      34.882  23.118  26.500  1.00  0.00     0.011 A 
ATOM     16  C   UNL A   1      34.081  23.049  24.196  1.00  0.00    -0.008 A 
ATOM     17  C   UNL A   1      33.698  23.989  23.164  1.00  0.00    -0.008 A 
ATOM     18  C   UNL A   1      33.614  26.395  22.829  1.00  0.00     0.011 A 
ATOM     19  C   UNL A   1      34.730  21.730  26.558  1.00  0.00     0.001 A 
ATOM     20  C   UNL A   1      33.929  21.671  24.257  1.00  0.00     0.009 A 
ATOM     21  C   UNL A   1      33.205  23.756  21.889  1.00  0.00     0.009 A 
ATOM     22  C   UNL A   1      33.129  26.161  21.538  1.00  0.00     0.001 A 
ATOM     23  C   UNL A   1      34.245  21.014  25.452  1.00  0.00     0.001 A 
ATOM     24  C   UNL A   1      32.909  24.854  21.079  1.00  0.00     0.001 A 
ENDBRANCH   9  12
ENDBRANCH   6   9
ENDBRANCH   4   6
ENDBRANCH   3   4
ENDBRANCH   2   3
ENDBRANCH   1   2
BRANCH   1  25
ATOM     25  O   UNL A   1      32.445  30.570  27.118  1.00  0.00    -0.458 OA
BRANCH  25  26
ATOM     26  C   UNL A   1      33.275  31.597  27.370  1.00  0.00     0.338 C 
ATOM     27  O   UNL A   1      33.025  32.784  27.250  1.00  0.00    -0.246 OA
BRANCH  26  28
ATOM     28  C   UNL A   1      34.538  31.192  27.954  1.00  0.00     0.060 A 
ATOM     29  C   UNL A   1      35.554  32.153  28.029  1.00  0.00     0.016 A 
ATOM     30  C   UNL A   1      34.763  29.857  28.279  1.00  0.00     0.016 A 
ATOM     31  C   UNL A   1      36.803  31.789  28.494  1.00  0.00     0.010 A 
ATOM     32  C   UNL A   1      36.012  29.496  28.764  1.00  0.00     0.010 A 
ATOM     33  C   UNL A   1      37.019  30.468  28.900  1.00  0.00    -0.014 A 
BRANCH  33  34
ATOM     34  C   UNL A   1      38.243  30.136  29.643  1.00  0.00     0.031 A 
ATOM     35  C   UNL A   1      39.218  29.148  29.103  1.00  0.00     0.074 A 
ATOM     36  C   UNL A   1      38.383  30.707  30.852  1.00  0.00     0.049 A 
ATOM     37  N   UNL A   1      40.285  28.662  29.673  1.00  0.00    -0.248 NA
ATOM     38  C   UNL A   1      38.959  28.627  27.751  1.00  0.00     0.031 C 
ATOM     39  C   UNL A   1      37.439  31.666  31.442  1.00  0.00     0.029 A 
ATOM     40  N   UNL A   1      39.337  30.545  31.817  1.00  0.00    -0.354 N 
ATOM     41  C   UNL A   1      40.815  27.753  28.769  1.00  0.00     0.074 A 
ATOM     42  C   UNL A   1      39.950  27.756  27.607  1.00  0.00     0.031 C 
ATOM     43  C   UNL A   1      37.846  31.981  32.677  1.00  0.00     0.029 A 
ATOM     44  C   UNL A   1      39.053  31.226  32.977  1.00  0.00     0.049 A 
ATOM     45  H   UNL A   1      40.144  29.997  31.693  1.00  0.00     0.167 HD
ATOM     46  C   UNL A   1      41.928  26.997  28.909  1.00  0.00     0.034 A 
ATOM     47  C   UNL A   1      39.689  31.213  34.162  1.00  0.00     0.034 A 
ATOM     48  C   UNL A   1      42.760  27.028  30.083  1.00  0.00     0.049 A 
ATOM     49  C   UNL A   1      40.930  30.382  34.276  1.00  0.00     0.074 A 
ATOM     50  C   UNL A   1      43.927  26.331  30.335  1.00  0.00     0.029 A 
ATOM     51  N   UNL A   1      42.502  27.800  31.210  1.00  0.00    -0.354 N 
ATOM     52  N   UNL A   1      41.485  29.607  33.374  1.00  0.00    -0.248 NA
ATOM     53  C   UNL A   1      41.656  30.445  35.549  1.00  0.00     0.031 C 
ATOM     54  C   UNL A   1      44.368  26.673  31.619  1.00  0.00     0.029 A 
ATOM     55  C   UNL A   1      43.485  27.596  32.161  1.00  0.00     0.049 A 
ATOM     56  H   UNL A   1      41.732  28.403  31.316  1.00  0.00     0.167 HD
ATOM     57  C   UNL A   1      42.637  29.104  33.959  1.00  0.00     0.074 A 
ATOM     58  C   UNL A   1      42.713  29.687  35.287  1.00  0.00     0.031 C 
ATOM     59  C   UNL A   1      43.543  28.229  33.457  1.00  0.00     0.034 A 
BRANCH  46  60
ATOM     60  C   UNL A   1      42.312  26.102  27.761  1.00  0.00     0.023 A 
ATOM     61  C   UNL A   1      43.153  26.603  26.745  1.00  0.00     0.012 A 
ATOM     62  C   UNL A   1      41.873  24.766  27.697  1.00  0.00     0.148 A 
ATOM     63  C   UNL A   1      43.526  25.796  25.669  1.00  0.00     0.002 A 
ATOM     64  C   UNL A   1      42.276  23.958  26.639  1.00  0.00     0.091 A 
ATOM     65  F   UNL A   1      41.054  24.315  28.658  1.00  0.00    -0.205 F 
ATOM     66  C   UNL A   1      43.096  24.473  25.621  1.00  0.00     0.022 A 
BRANCH  64  67
ATOM     67  S   UNL A   1      41.822  22.224  26.514  1.00  0.00     0.127 S 
ATOM     68  O   UNL A   1      42.357  21.688  27.764  1.00  0.00    -0.237 OA
ATOM     69  O   UNL A   1      40.361  22.290  26.456  1.00  0.00    -0.237 OA
ATOM     70  O   UNL A   1      42.455  21.731  25.298  1.00  0.00    -0.744 OA
ENDBRANCH  64  67
ENDBRANCH  46  60
BRANCH  47  71
ATOM     71  C   UNL A   1      39.180  32.058  35.277  1.00  0.00     0.023 A 
ATOM     72  C   UNL A   1      38.255  31.514  36.187  1.00  0.00     0.012 A 
ATOM     73  C   UNL A   1      39.672  33.362  35.494  1.00  0.00     0.148 A 
ATOM     74  C   UNL A   1      37.813  32.258  37.282  1.00  0.00     0.002 A 
ATOM     75  C   UNL A   1      39.267  34.077  36.616  1.00  0.00     0.091 A 
ATOM     76  F   UNL A   1      40.545  33.869  34.613  1.00  0.00    -0.205 F 
ATOM     77  C   UNL A   1      38.328  33.532  37.504  1.00  0.00     0.022 A 
BRANCH  75  78
ATOM     78  S   UNL A   1      39.991  35.665  37.048  1.00  0.00     0.127 S 
ATOM     79  O   UNL A   1      39.648  36.477  35.884  1.00  0.00    -0.237 OA
ATOM     80  O   UNL A   1      39.270  36.011  38.273  1.00  0.00    -0.237 OA
ATOM     81  O   UNL A   1      41.411  35.402  37.247  1.00  0.00    -0.744 OA
ENDBRANCH  75  78
ENDBRANCH  47  71
BRANCH  59  82
ATOM     82  C   UNL A   1      44.695  27.863  34.349  1.00  0.00     0.023 A 
ATOM     83  C   UNL A   1      45.869  28.641  34.319  1.00  0.00     0.012 A 
ATOM     84  C   UNL A   1      44.588  26.797  35.260  1.00  0.00     0.148 A 
ATOM     85  C   UNL A   1      46.933  28.343  35.166  1.00  0.00     0.002 A 
ATOM     86  C   UNL A   1      45.635  26.534  36.133  1.00  0.00     0.091 A 
ATOM     87  F   UNL A   1      43.469  26.055  35.251  1.00  0.00    -0.205 F 
ATOM     88  C   UNL A   1      46.812  27.299  36.081  1.00  0.00     0.022 A 
BRANCH  86  89
ATOM     89  S   UNL A   1      45.524  25.268  37.402  1.00  0.00     0.127 S 
ATOM     90  O   UNL A   1      44.353  25.704  38.158  1.00  0.00    -0.237 OA
ATOM     91  O   UNL A   1      45.325  24.052  36.613  1.00  0.00    -0.237 OA
ATOM     92  O   UNL A   1      46.791  25.317  38.121  1.00  0.00    -0.744 OA
ENDBRANCH  86  89
ENDBRANCH  59  82
ENDBRANCH  33  34
ENDBRANCH  26  28
ENDBRANCH  25  26
ENDBRANCH   1  25
TORSDOF 17
ENDMDL
MODEL 3
REMARK VINA RESULT:     -10.5      4.025     10.259
REMARK SMILES CC[C@H]([NH2+]C1c2ccccc2-c2ccccc21)C(=O)OCCOC(=O)c1ccc(-c2c3nc(c(-c4cccc(S(=O)(=O)[O-])c4F)c4ccc([nH]4)c(-c4cccc(S(=O)(=O)[O-])c4F)c4nc(c(-c5cccc(S(=O)(=O)[O-])c5F)c5ccc2[nH]5)C=C4)C=C3)cc1
REMARK SMILES IDX 22 1 21 2 20 3 18 4 19 5 3 6 2 7 1 8 4 9 5 12 6 13 17 14
REMARK SMILES IDX 7 15 11 16 12 17 16 18 8 19 10 20 13 21 15 22 9 23 14 24
REMARK SMILES IDX 23 25 24 26 25 27 26 28 27 29 88 30 28 31 87 32 29 33 30 34
REMARK SMILES IDX 31 35 81 36 32 37 86 38 80 39 82 40 33 41 85 42 79 43 78 44
REMARK SMILES IDX 34 46 66 47 46 48 65 49 47 50 50 51 64 52 83 53 48 54 49 55
REMARK SMILES IDX 63 57 84 58 51 59 35 60 36 61 44 62 37 63 39 64 45 65 38 66
REMARK SMILES IDX 40 67 41 68 42 69 43 70 67 71 68 72 76 73 69 74 71 75 77 76
REMARK SMILES IDX 70 77 72 78 73 79 74 80 75 81 52 82 53 83 61 84 54 85 56 86
REMARK SMILES IDX 62 87 55 88 57 89 58 90 59 91 60 92
REMARK H PARENT 4 10 4 11 82 45 50 56
REMARK Flexibility Score: inf
ROOT
ATOM      1  C   UNL A   1      37.185  20.444  25.210  1.00  0.00     0.275 C 
ENDROOT
BRANCH   1   2
ATOM      2  C   UNL A   1      35.907  21.245  24.928  1.00  0.00     0.274 C 
BRANCH   2   3
ATOM      3  O   UNL A   1      36.164  22.650  24.727  1.00  0.00    -0.458 OA
BRANCH   3   4
ATOM      4  C   UNL A   1      35.677  23.215  23.594  1.00  0.00     0.364 C 
ATOM      5  O   UNL A   1      36.199  23.103  22.489  1.00  0.00    -0.245 OA
BRANCH   4   6
ATOM      6  C   UNL A   1      34.384  24.034  23.827  1.00  0.00     0.293 C 
BRANCH   6   7
ATOM      7  C   UNL A   1      33.507  23.976  22.570  1.00  0.00     0.074 C 
ATOM      8  C   UNL A   1      32.988  25.296  22.035  1.00  0.00     0.011 C 
ENDBRANCH   6   7
BRANCH   6   9
ATOM      9  N   UNL A   1      34.615  25.230  24.642  1.00  0.00    -0.325 N 
ATOM     10  H   UNL A   1      34.583  26.004  23.979  1.00  0.00     0.347 HD
ATOM     11  H   UNL A   1      35.454  24.922  25.133  1.00  0.00     0.347 HD
BRANCH   9  12
ATOM     12  C   UNL A   1      33.846  25.697  25.792  1.00  0.00     0.246 C 
ATOM     13  C   UNL A   1      33.175  27.014  25.316  1.00  0.00     0.022 A 
ATOM     14  C   UNL A   1      32.619  24.884  26.185  1.00  0.00     0.022 A 
ATOM     15  C   UNL A   1      33.791  28.129  24.757  1.00  0.00     0.011 A 
ATOM     16  C   UNL A   1      31.773  26.852  25.260  1.00  0.00    -0.008 A 
ATOM     17  C   UNL A   1      31.430  25.565  25.825  1.00  0.00    -0.008 A 
ATOM     18  C   UNL A   1      32.555  23.650  26.815  1.00  0.00     0.011 A 
ATOM     19  C   UNL A   1      32.992  29.067  24.096  1.00  0.00     0.001 A 
ATOM     20  C   UNL A   1      30.982  27.784  24.601  1.00  0.00     0.009 A 
ATOM     21  C   UNL A   1      30.190  24.970  25.991  1.00  0.00     0.009 A 
ATOM     22  C   UNL A   1      31.303  23.056  26.996  1.00  0.00     0.001 A 
ATOM     23  C   UNL A   1      31.602  28.888  24.006  1.00  0.00     0.001 A 
ATOM     24  C   UNL A   1      30.132  23.701  26.571  1.00  0.00     0.001 A 
ENDBRANCH   9  12
ENDBRANCH   6   9
ENDBRANCH   4   6
ENDBRANCH   3   4
ENDBRANCH   2   3
ENDBRANCH   1   2
BRANCH   1  25
ATOM     25  O   UNL A   1      38.378  21.237  25.067  1.00  0.00    -0.458 OA
BRANCH  25  26
ATOM     26  C   UNL A   1      39.225  21.118  26.106  1.00  0.00     0.338 C 
ATOM     27  O   UNL A   1      39.642  20.081  26.591  1.00  0.00    -0.246 OA
BRANCH  26  28
ATOM     28  C   UNL A   1      39.751  22.385  26.573  1.00  0.00     0.060 A 
ATOM     29  C   UNL A   1      40.716  22.350  27.586  1.00  0.00     0.016 A 
ATOM     30  C   UNL A   1      39.194  23.581  26.128  1.00  0.00     0.016 A 
ATOM     31  C   UNL A   1      41.180  23.534  28.127  1.00  0.00     0.010 A 
ATOM     32  C   UNL A   1      39.674  24.771  26.657  1.00  0.00     0.010 A 
ATOM     33  C   UNL A   1      40.687  24.746  27.632  1.00  0.00    -0.014 A 
BRANCH  33  34
ATOM     34  C   UNL A   1      41.362  25.999  27.999  1.00  0.00     0.031 A 
ATOM     35  C   UNL A   1      40.631  27.073  28.728  1.00  0.00     0.074 A 
ATOM     36  C   UNL A   1      42.630  26.145  27.574  1.00  0.00     0.049 A 
ATOM     37  N   UNL A   1      41.039  28.274  29.032  1.00  0.00    -0.248 NA
ATOM     38  C   UNL A   1      39.259  26.767  29.165  1.00  0.00     0.031 C 
ATOM     39  C   UNL A   1      43.385  25.129  26.829  1.00  0.00     0.029 A 
ATOM     40  N   UNL A   1      43.492  27.200  27.664  1.00  0.00    -0.354 N 
ATOM     41  C   UNL A   1      39.969  28.885  29.668  1.00  0.00     0.074 A 
ATOM     42  C   UNL A   1      38.890  27.920  29.710  1.00  0.00     0.031 C 
ATOM     43  C   UNL A   1      44.587  25.624  26.505  1.00  0.00     0.029 A 
ATOM     44  C   UNL A   1      44.671  26.995  26.987  1.00  0.00     0.049 A 
ATOM     45  H   UNL A   1      43.289  28.024  28.163  1.00  0.00     0.167 HD
ATOM     46  C   UNL A   1      39.910  30.139  30.174  1.00  0.00     0.034 A 
ATOM     47  C   UNL A   1      45.692  27.838  26.758  1.00  0.00     0.034 A 
ATOM     48  C   UNL A   1      41.010  31.066  30.112  1.00  0.00     0.049 A 
ATOM     49  C   UNL A   1      45.605  29.213  27.350  1.00  0.00     0.074 A 
ATOM     50  C   UNL A   1      41.085  32.354  30.610  1.00  0.00     0.029 A 
ATOM     51  N   UNL A   1      42.230  30.800  29.502  1.00  0.00    -0.354 N 
ATOM     52  N   UNL A   1      44.629  29.746  28.047  1.00  0.00    -0.248 NA
ATOM     53  C   UNL A   1      46.764  30.091  27.160  1.00  0.00     0.031 C 
ATOM     54  C   UNL A   1      42.347  32.869  30.291  1.00  0.00     0.029 A 
ATOM     55  C   UNL A   1      43.065  31.897  29.608  1.00  0.00     0.049 A 
ATOM     56  H   UNL A   1      42.467  29.953  29.059  1.00  0.00     0.167 HD
ATOM     57  C   UNL A   1      45.061  31.015  28.400  1.00  0.00     0.074 A 
ATOM     58  C   UNL A   1      46.401  31.159  27.860  1.00  0.00     0.031 C 
ATOM     59  C   UNL A   1      44.409  31.983  29.090  1.00  0.00     0.034 A 
BRANCH  46  60
ATOM     60  C   UNL A   1      38.633  30.559  30.851  1.00  0.00     0.023 A 
ATOM     61  C   UNL A   1      38.443  30.262  32.216  1.00  0.00     0.012 A 
ATOM     62  C   UNL A   1      37.638  31.271  30.155  1.00  0.00     0.148 A 
ATOM     63  C   UNL A   1      37.270  30.641  32.870  1.00  0.00     0.002 A 
ATOM     64  C   UNL A   1      36.485  31.674  30.821  1.00  0.00     0.091 A 
ATOM     65  F   UNL A   1      37.824  31.523  28.851  1.00  0.00    -0.205 F 
ATOM     66  C   UNL A   1      36.296  31.353  32.176  1.00  0.00     0.022 A 
BRANCH  64  67
ATOM     67  S   UNL A   1      35.196  32.645  30.031  1.00  0.00     0.127 S 
ATOM     68  O   UNL A   1      35.945  33.815  29.575  1.00  0.00    -0.237 OA
ATOM     69  O   UNL A   1      34.748  31.753  28.961  1.00  0.00    -0.237 OA
ATOM     70  O   UNL A   1      34.199  32.902  31.062  1.00  0.00    -0.744 OA
ENDBRANCH  64  67
ENDBRANCH  46  60
BRANCH  47  71
ATOM     71  C   UNL A   1      46.878  27.365  25.992  1.00  0.00     0.023 A 
ATOM     72  C   UNL A   1      46.972  27.657  24.619  1.00  0.00     0.012 A 
ATOM     73  C   UNL A   1      47.950  26.709  26.630  1.00  0.00     0.148 A 
ATOM     74  C   UNL A   1      48.102  27.287  23.890  1.00  0.00     0.002 A 
ATOM     75  C   UNL A   1      49.096  26.391  25.909  1.00  0.00     0.091 A 
ATOM     76  F   UNL A   1      47.841  26.431  27.937  1.00  0.00    -0.205 F 
ATOM     77  C   UNL A   1      49.169  26.668  24.536  1.00  0.00     0.022 A 
BRANCH  75  78
ATOM     78  S   UNL A   1      50.566  25.722  26.698  1.00  0.00     0.127 S 
ATOM     79  O   UNL A   1      50.933  26.800  27.612  1.00  0.00    -0.237 OA
ATOM     80  O   UNL A   1      50.049  24.517  27.345  1.00  0.00    -0.237 OA
ATOM     81  O   UNL A   1      51.503  25.459  25.613  1.00  0.00    -0.744 OA
ENDBRANCH  75  78
ENDBRANCH  47  71
BRANCH  59  82
ATOM     82  C   UNL A   1      45.148  33.273  29.306  1.00  0.00     0.023 A 
ATOM     83  C   UNL A   1      45.960  33.424  30.446  1.00  0.00     0.012 A 
ATOM     84  C   UNL A   1      45.090  34.303  28.349  1.00  0.00     0.148 A 
ATOM     85  C   UNL A   1      46.685  34.597  30.645  1.00  0.00     0.002 A 
ATOM     86  C   UNL A   1      45.849  35.450  28.531  1.00  0.00     0.091 A 
ATOM     87  F   UNL A   1      44.288  34.144  27.285  1.00  0.00    -0.205 F 
ATOM     88  C   UNL A   1      46.640  35.604  29.682  1.00  0.00     0.022 A 
BRANCH  86  89
ATOM     89  S   UNL A   1      45.920  36.753  27.298  1.00  0.00     0.127 S 
ATOM     90  O   UNL A   1      44.535  37.217  27.273  1.00  0.00    -0.237 OA
ATOM     91  O   UNL A   1      46.870  37.695  27.892  1.00  0.00    -0.237 OA
ATOM     92  O   UNL A   1      46.391  36.116  26.074  1.00  0.00    -0.744 OA
ENDBRANCH  86  89
ENDBRANCH  59  82
ENDBRANCH  33  34
ENDBRANCH  26  28
ENDBRANCH  25  26
ENDBRANCH   1  25
TORSDOF 17
ENDMDL
