MODEL 1
REMARK VINA RESULT:     -12.0      0.000      0.000
REMARK SMILES O=C(OCCOC(=O)[C@@]1(CCc2ccccc2)CCC[N@@H+](Cc2cccnc2)C1)c1ccc(-c2c3nc(c(-c4cccc(S(=O)(=O)[O-])c4F)c4ccc([nH]4)c(-c4cccc(S(=O)(=O)[O-])c4F)c4nc(c(-c5cccc(S(=O)(=O)[O-])c5F)c5ccc2[nH]5)C=C4)C=C3)cc1
REMARK SMILES IDX 4 1 3 2 2 3 1 4 30 5 31 6 92 7 32 8 91 9 33 10 34 11 35 12
REMARK SMILES IDX 85 13 36 14 90 15 84 16 86 17 37 18 89 19 83 20 82 21 38 23
REMARK SMILES IDX 70 24 50 25 69 26 51 27 54 28 68 29 87 30 52 31 53 32 67 34
REMARK SMILES IDX 88 35 55 36 39 37 40 38 48 39 41 40 43 41 49 42 42 43 44 44
REMARK SMILES IDX 45 45 46 46 47 47 71 48 72 49 80 50 73 51 75 52 81 53 74 54
REMARK SMILES IDX 76 55 77 56 78 57 79 58 56 59 57 60 65 61 58 62 60 63 66 64
REMARK SMILES IDX 59 65 61 66 62 67 63 68 64 69 5 70 6 71 7 72 8 73 9 74 18 75
REMARK SMILES IDX 29 76 19 77 21 78 20 79 10 81 11 82 12 83 13 84 17 85 14 86
REMARK SMILES IDX 16 87 15 88 22 89 23 90 24 91 28 92 25 93 27 94 26 95
REMARK H PARENT 86 22 54 33 21 80
REMARK Flexibility Score: inf
ROOT
ATOM      1  C   UNL A   1      31.755  30.453  26.165  1.00  0.00     0.275 C 
ENDROOT
BRANCH   1   2
ATOM      2  O   UNL A   1      32.753  30.351  27.188  1.00  0.00    -0.458 OA
BRANCH   2   3
ATOM      3  C   UNL A   1      33.567  31.334  27.639  1.00  0.00     0.338 C 
ATOM      4  O   UNL A   1      33.130  32.480  27.728  1.00  0.00    -0.246 OA
BRANCH   3   5
ATOM      5  C   UNL A   1      35.026  31.101  27.868  1.00  0.00     0.060 A 
ATOM      6  C   UNL A   1      36.048  32.039  28.016  1.00  0.00     0.016 A 
ATOM      7  C   UNL A   1      35.386  29.778  28.004  1.00  0.00     0.016 A 
ATOM      8  C   UNL A   1      37.341  31.659  28.486  1.00  0.00     0.010 A 
ATOM      9  C   UNL A   1      36.630  29.454  28.564  1.00  0.00     0.010 A 
ATOM     10  C   UNL A   1      37.628  30.352  28.900  1.00  0.00    -0.014 A 
BRANCH  10  11
ATOM     11  C   UNL A   1      38.973  29.904  29.474  1.00  0.00     0.031 A 
ATOM     12  C   UNL A   1      39.227  30.283  30.904  1.00  0.00     0.074 A 
ATOM     13  C   UNL A   1      40.065  29.358  28.856  1.00  0.00     0.049 A 
ATOM     14  N   UNL A   1      40.226  29.961  31.677  1.00  0.00    -0.248 NA
ATOM     15  C   UNL A   1      38.304  31.275  31.475  1.00  0.00     0.031 C 
ATOM     16  C   UNL A   1      40.360  29.310  27.437  1.00  0.00     0.029 A 
ATOM     17  N   UNL A   1      41.152  28.650  29.367  1.00  0.00    -0.354 N 
ATOM     18  C   UNL A   1      40.111  30.779  32.786  1.00  0.00     0.074 A 
ATOM     19  C   UNL A   1      38.958  31.627  32.568  1.00  0.00     0.031 C 
ATOM     20  C   UNL A   1      41.343  28.437  27.167  1.00  0.00     0.029 A 
ATOM     21  C   UNL A   1      41.839  27.906  28.408  1.00  0.00     0.049 A 
ATOM     22  H   UNL A   1      41.409  28.673  30.317  1.00  0.00     0.167 HD
ATOM     23  C   UNL A   1      40.886  30.814  33.893  1.00  0.00     0.034 A 
ATOM     24  C   UNL A   1      42.746  26.905  28.491  1.00  0.00     0.034 A 
ATOM     25  C   UNL A   1      42.000  29.941  34.127  1.00  0.00     0.049 A 
ATOM     26  C   UNL A   1      43.343  26.658  29.844  1.00  0.00     0.074 A 
ATOM     27  C   UNL A   1      42.775  29.822  35.267  1.00  0.00     0.029 A 
ATOM     28  N   UNL A   1      42.494  29.022  33.213  1.00  0.00    -0.354 N 
ATOM     29  N   UNL A   1      43.094  27.292  30.960  1.00  0.00    -0.248 NA
ATOM     30  C   UNL A   1      44.371  25.611  29.958  1.00  0.00     0.031 C 
ATOM     31  C   UNL A   1      43.712  28.805  35.056  1.00  0.00     0.029 A 
ATOM     32  C   UNL A   1      43.511  28.281  33.790  1.00  0.00     0.049 A 
ATOM     33  H   UNL A   1      42.169  28.915  32.289  1.00  0.00     0.167 HD
ATOM     34  C   UNL A   1      43.959  26.755  31.896  1.00  0.00     0.074 A 
ATOM     35  C   UNL A   1      44.671  25.674  31.247  1.00  0.00     0.031 C 
ATOM     36  C   UNL A   1      44.185  27.176  33.161  1.00  0.00     0.034 A 
BRANCH  23  37
ATOM     37  C   UNL A   1      40.473  31.792  34.956  1.00  0.00     0.023 A 
ATOM     38  C   UNL A   1      41.159  33.021  35.060  1.00  0.00     0.012 A 
ATOM     39  C   UNL A   1      39.445  31.492  35.867  1.00  0.00     0.148 A 
ATOM     40  C   UNL A   1      40.891  33.899  36.106  1.00  0.00     0.002 A 
ATOM     41  C   UNL A   1      39.133  32.405  36.864  1.00  0.00     0.091 A 
ATOM     42  F   UNL A   1      38.813  30.315  35.758  1.00  0.00    -0.205 F 
ATOM     43  C   UNL A   1      39.874  33.594  37.002  1.00  0.00     0.022 A 
BRANCH  41  44
ATOM     44  S   UNL A   1      37.775  32.176  38.012  1.00  0.00     0.127 S 
ATOM     45  O   UNL A   1      38.399  32.530  39.283  1.00  0.00    -0.237 OA
ATOM     46  O   UNL A   1      36.797  33.139  37.517  1.00  0.00    -0.237 OA
ATOM     47  O   UNL A   1      37.375  30.775  37.887  1.00  0.00    -0.744 OA
ENDBRANCH  41  44
ENDBRANCH  23  37
BRANCH  24  48
ATOM     48  C   UNL A   1      43.115  26.007  27.334  1.00  0.00     0.023 A 
ATOM     49  C   UNL A   1      43.995  26.517  26.347  1.00  0.00     0.012 A 
ATOM     50  C   UNL A   1      42.612  24.706  27.148  1.00  0.00     0.148 A 
ATOM     51  C   UNL A   1      44.309  25.792  25.192  1.00  0.00     0.002 A 
ATOM     52  C   UNL A   1      43.002  23.950  26.039  1.00  0.00     0.091 A 
ATOM     53  F   UNL A   1      41.730  24.226  28.036  1.00  0.00    -0.205 F 
ATOM     54  C   UNL A   1      43.823  24.501  25.043  1.00  0.00     0.022 A 
BRANCH  52  55
ATOM     55  S   UNL A   1      42.578  22.209  25.879  1.00  0.00     0.127 S 
ATOM     56  O   UNL A   1      43.322  21.821  24.684  1.00  0.00    -0.237 OA
ATOM     57  O   UNL A   1      43.090  21.647  27.131  1.00  0.00    -0.237 OA
ATOM     58  O   UNL A   1      41.125  22.187  25.772  1.00  0.00    -0.744 OA
ENDBRANCH  52  55
ENDBRANCH  24  48
BRANCH  36  59
ATOM     59  C   UNL A   1      45.226  26.438  33.946  1.00  0.00     0.023 A 
ATOM     60  C   UNL A   1      46.585  26.791  33.830  1.00  0.00     0.012 A 
ATOM     61  C   UNL A   1      44.843  25.419  34.836  1.00  0.00     0.148 A 
ATOM     62  C   UNL A   1      47.553  26.115  34.569  1.00  0.00     0.002 A 
ATOM     63  C   UNL A   1      45.806  24.786  35.606  1.00  0.00     0.091 A 
ATOM     64  F   UNL A   1      43.547  25.082  34.902  1.00  0.00    -0.205 F 
ATOM     65  C   UNL A   1      47.163  25.123  35.466  1.00  0.00     0.022 A 
BRANCH  63  66
ATOM     66  S   UNL A   1      45.381  23.563  36.847  1.00  0.00     0.127 S 
ATOM     67  O   UNL A   1      44.772  22.513  36.034  1.00  0.00    -0.237 OA
ATOM     68  O   UNL A   1      46.690  23.223  37.406  1.00  0.00    -0.237 OA
ATOM     69  O   UNL A   1      44.482  24.232  37.778  1.00  0.00    -0.744 OA
ENDBRANCH  63  66
ENDBRANCH  36  59
ENDBRANCH  10  11
ENDBRANCH   3   5
ENDBRANCH   2   3
ENDBRANCH   1   2
BRANCH   1  70
ATOM     70  C   UNL A   1      31.605  29.240  25.243  1.00  0.00     0.274 C 
BRANCH  70  71
ATOM     71  O   UNL A   1      32.290  28.039  25.652  1.00  0.00    -0.461 OA
BRANCH  71  72
ATOM     72  C   UNL A   1      31.486  27.066  26.164  1.00  0.00     0.317 C 
ATOM     73  O   UNL A   1      30.847  27.220  27.202  1.00  0.00    -0.251 OA
BRANCH  72  74
ATOM     74  C   UNL A   1      31.619  25.694  25.434  1.00  0.00     0.117 C 
ATOM     75  C   UNL A   1      30.646  25.804  24.209  1.00  0.00     0.030 C 
ATOM     76  C   UNL A   1      33.026  25.498  24.768  1.00  0.00     0.281 C 
ATOM     77  C   UNL A   1      30.896  24.771  23.105  1.00  0.00     0.063 C 
ATOM     78  N   UNL A   1      33.254  24.534  23.658  1.00  0.00    -0.330 N 
ATOM     79  C   UNL A   1      32.330  24.796  22.567  1.00  0.00     0.262 C 
ATOM     80  H   UNL A   1      33.061  23.665  24.155  1.00  0.00     0.348 HD
BRANCH  74  81
ATOM     81  C   UNL A   1      31.010  24.671  26.477  1.00  0.00     0.029 C 
BRANCH  81  82
ATOM     82  C   UNL A   1      31.615  23.364  27.063  1.00  0.00     0.037 C 
BRANCH  82  83
ATOM     83  C   UNL A   1      32.149  22.110  26.368  1.00  0.00    -0.048 A 
ATOM     84  C   UNL A   1      33.346  21.517  26.752  1.00  0.00     0.004 A 
ATOM     85  C   UNL A   1      31.667  21.739  25.096  1.00  0.00     0.004 A 
ATOM     86  C   UNL A   1      34.115  20.745  25.861  1.00  0.00     0.000 A 
ATOM     87  C   UNL A   1      32.397  20.896  24.233  1.00  0.00     0.000 A 
ATOM     88  C   UNL A   1      33.649  20.435  24.599  1.00  0.00     0.000 A 
ENDBRANCH  82  83
ENDBRANCH  81  82
ENDBRANCH  74  81
BRANCH  78  89
ATOM     89  C   UNL A   1      34.631  24.099  23.195  1.00  0.00     0.300 C 
BRANCH  89  90
ATOM     90  C   UNL A   1      35.720  23.436  24.070  1.00  0.00     0.025 A 
ATOM     91  C   UNL A   1      36.552  22.396  23.599  1.00  0.00     0.013 A 
ATOM     92  C   UNL A   1      36.138  23.942  25.292  1.00  0.00     0.120 A 
ATOM     93  C   UNL A   1      37.501  21.754  24.395  1.00  0.00     0.021 A 
ATOM     94  N   UNL A   1      37.117  23.403  26.082  1.00  0.00    -0.264 NA
ATOM     95  C   UNL A   1      37.754  22.299  25.628  1.00  0.00     0.111 A 
ENDBRANCH  89  90
ENDBRANCH  78  89
ENDBRANCH  72  74
ENDBRANCH  71  72
ENDBRANCH  70  71
ENDBRANCH   1  70
TORSDOF 19
ENDMDL
MODEL 2
REMARK VINA RESULT:     -11.8      1.586      3.278
REMARK SMILES O=C(OCCOC(=O)[C@@]1(CCc2ccccc2)CCC[N@@H+](Cc2cccnc2)C1)c1ccc(-c2c3nc(c(-c4cccc(S(=O)(=O)[O-])c4F)c4ccc([nH]4)c(-c4cccc(S(=O)(=O)[O-])c4F)c4nc(c(-c5cccc(S(=O)(=O)[O-])c5F)c5ccc2[nH]5)C=C4)C=C3)cc1
REMARK SMILES IDX 4 1 3 2 2 3 1 4 30 5 31 6 92 7 32 8 91 9 33 10 34 11 35 12
REMARK SMILES IDX 85 13 36 14 90 15 84 16 86 17 37 18 89 19 83 20 82 21 38 23
REMARK SMILES IDX 70 24 50 25 69 26 51 27 54 28 68 29 87 30 52 31 53 32 67 34
REMARK SMILES IDX 88 35 55 36 39 37 40 38 48 39 41 40 43 41 49 42 42 43 44 44
REMARK SMILES IDX 45 45 46 46 47 47 71 48 72 49 80 50 73 51 75 52 81 53 74 54
REMARK SMILES IDX 76 55 77 56 78 57 79 58 56 59 57 60 65 61 58 62 60 63 66 64
REMARK SMILES IDX 59 65 61 66 62 67 63 68 64 69 5 70 6 71 7 72 8 73 9 74 18 75
REMARK SMILES IDX 29 76 19 77 21 78 20 79 10 81 11 82 12 83 13 84 17 85 14 86
REMARK SMILES IDX 16 87 15 88 22 89 23 90 24 91 28 92 25 93 27 94 26 95
REMARK H PARENT 86 22 54 33 21 80
REMARK Flexibility Score: inf
ROOT
ATOM      1  C   UNL A   1      31.909  29.046  27.145  1.00  0.00     0.275 C 
ENDROOT
BRANCH   1   2
ATOM      2  O   UNL A   1      32.678  30.116  26.582  1.00  0.00    -0.458 OA
BRANCH   2   3
ATOM      3  C   UNL A   1      33.369  31.069  27.249  1.00  0.00     0.338 C 
ATOM      4  O   UNL A   1      32.817  32.136  27.512  1.00  0.00    -0.246 OA
BRANCH   3   5
ATOM      5  C   UNL A   1      34.832  30.931  27.524  1.00  0.00     0.060 A 
ATOM      6  C   UNL A   1      35.753  31.918  27.878  1.00  0.00     0.016 A 
ATOM      7  C   UNL A   1      35.311  29.639  27.468  1.00  0.00     0.016 A 
ATOM      8  C   UNL A   1      37.053  31.581  28.357  1.00  0.00     0.010 A 
ATOM      9  C   UNL A   1      36.554  29.339  28.043  1.00  0.00     0.010 A 
ATOM     10  C   UNL A   1      37.446  30.254  28.575  1.00  0.00    -0.014 A 
BRANCH  10  11
ATOM     11  C   UNL A   1      38.802  29.837  29.148  1.00  0.00     0.031 A 
ATOM     12  C   UNL A   1      39.121  30.375  30.513  1.00  0.00     0.074 A 
ATOM     13  C   UNL A   1      39.855  29.191  28.559  1.00  0.00     0.049 A 
ATOM     14  N   UNL A   1      40.143  30.118  31.282  1.00  0.00    -0.248 NA
ATOM     15  C   UNL A   1      38.246  31.454  30.995  1.00  0.00     0.031 C 
ATOM     16  C   UNL A   1      40.092  28.968  27.147  1.00  0.00     0.029 A 
ATOM     17  N   UNL A   1      40.943  28.517  29.111  1.00  0.00    -0.354 N 
ATOM     18  C   UNL A   1      40.092  31.063  32.289  1.00  0.00     0.074 A 
ATOM     19  C   UNL A   1      38.953  31.913  32.014  1.00  0.00     0.031 C 
ATOM     20  C   UNL A   1      41.041  28.041  26.946  1.00  0.00     0.029 A 
ATOM     21  C   UNL A   1      41.574  27.646  28.222  1.00  0.00     0.049 A 
ATOM     22  H   UNL A   1      41.239  28.644  30.041  1.00  0.00     0.167 HD
ATOM     23  C   UNL A   1      40.911  31.206  33.355  1.00  0.00     0.034 A 
ATOM     24  C   UNL A   1      42.458  26.635  28.391  1.00  0.00     0.034 A 
ATOM     25  C   UNL A   1      42.012  30.334  33.650  1.00  0.00     0.049 A 
ATOM     26  C   UNL A   1      43.102  26.532  29.740  1.00  0.00     0.074 A 
ATOM     27  C   UNL A   1      42.828  30.327  34.766  1.00  0.00     0.029 A 
ATOM     28  N   UNL A   1      42.446  29.300  32.834  1.00  0.00    -0.354 N 
ATOM     29  N   UNL A   1      42.913  27.300  30.782  1.00  0.00    -0.248 NA
ATOM     30  C   UNL A   1      44.108  25.477  29.941  1.00  0.00     0.031 C 
ATOM     31  C   UNL A   1      43.731  29.266  34.644  1.00  0.00     0.029 A 
ATOM     32  C   UNL A   1      43.466  28.602  33.457  1.00  0.00     0.049 A 
ATOM     33  H   UNL A   1      42.082  29.094  31.942  1.00  0.00     0.167 HD
ATOM     34  C   UNL A   1      43.802  26.852  31.743  1.00  0.00     0.074 A 
ATOM     35  C   UNL A   1      44.460  25.682  31.201  1.00  0.00     0.031 C 
ATOM     36  C   UNL A   1      44.088  27.412  32.940  1.00  0.00     0.034 A 
BRANCH  23  37
ATOM     37  C   UNL A   1      40.564  32.313  34.308  1.00  0.00     0.023 A 
ATOM     38  C   UNL A   1      41.244  33.546  34.202  1.00  0.00     0.012 A 
ATOM     39  C   UNL A   1      39.607  32.135  35.322  1.00  0.00     0.148 A 
ATOM     40  C   UNL A   1      41.042  34.553  35.141  1.00  0.00     0.002 A 
ATOM     41  C   UNL A   1      39.357  33.169  36.212  1.00  0.00     0.091 A 
ATOM     42  F   UNL A   1      38.981  30.952  35.412  1.00  0.00    -0.205 F 
ATOM     43  C   UNL A   1      40.094  34.367  36.141  1.00  0.00     0.022 A 
BRANCH  41  44
ATOM     44  S   UNL A   1      38.086  33.091  37.474  1.00  0.00     0.127 S 
ATOM     45  O   UNL A   1      38.498  31.916  38.236  1.00  0.00    -0.237 OA
ATOM     46  O   UNL A   1      38.266  34.365  38.162  1.00  0.00    -0.237 OA
ATOM     47  O   UNL A   1      36.818  32.953  36.759  1.00  0.00    -0.744 OA
ENDBRANCH  41  44
ENDBRANCH  23  37
BRANCH  24  48
ATOM     48  C   UNL A   1      42.759  25.597  27.336  1.00  0.00     0.023 A 
ATOM     49  C   UNL A   1      43.662  25.940  26.300  1.00  0.00     0.012 A 
ATOM     50  C   UNL A   1      42.171  24.320  27.291  1.00  0.00     0.148 A 
ATOM     51  C   UNL A   1      43.919  25.078  25.228  1.00  0.00     0.002 A 
ATOM     52  C   UNL A   1      42.502  23.426  26.268  1.00  0.00     0.091 A 
ATOM     53  F   UNL A   1      41.266  23.996  28.225  1.00  0.00    -0.205 F 
ATOM     54  C   UNL A   1      43.349  23.812  25.219  1.00  0.00     0.022 A 
BRANCH  52  55
ATOM     55  S   UNL A   1      41.964  21.709  26.295  1.00  0.00     0.127 S 
ATOM     56  O   UNL A   1      40.550  21.825  25.954  1.00  0.00    -0.237 OA
ATOM     57  O   UNL A   1      42.800  21.104  25.256  1.00  0.00    -0.237 OA
ATOM     58  O   UNL A   1      42.268  21.244  27.642  1.00  0.00    -0.744 OA
ENDBRANCH  52  55
ENDBRANCH  24  48
BRANCH  36  59
ATOM     59  C   UNL A   1      45.141  26.742  33.769  1.00  0.00     0.023 A 
ATOM     60  C   UNL A   1      46.483  27.162  33.685  1.00  0.00     0.012 A 
ATOM     61  C   UNL A   1      44.783  25.720  34.665  1.00  0.00     0.148 A 
ATOM     62  C   UNL A   1      47.462  26.549  34.465  1.00  0.00     0.002 A 
ATOM     63  C   UNL A   1      45.753  25.150  35.475  1.00  0.00     0.091 A 
ATOM     64  F   UNL A   1      43.504  25.318  34.700  1.00  0.00    -0.205 F 
ATOM     65  C   UNL A   1      47.095  25.554  35.369  1.00  0.00     0.022 A 
BRANCH  63  66
ATOM     66  S   UNL A   1      45.353  23.929  36.726  1.00  0.00     0.127 S 
ATOM     67  O   UNL A   1      46.663  23.677  37.324  1.00  0.00    -0.237 OA
ATOM     68  O   UNL A   1      44.420  24.660  37.583  1.00  0.00    -0.237 OA
ATOM     69  O   UNL A   1      44.765  22.802  36.014  1.00  0.00    -0.744 OA
ENDBRANCH  63  66
ENDBRANCH  36  59
ENDBRANCH  10  11
ENDBRANCH   3   5
ENDBRANCH   2   3
ENDBRANCH   1   2
BRANCH   1  70
ATOM     70  C   UNL A   1      32.408  27.628  26.857  1.00  0.00     0.274 C 
BRANCH  70  71
ATOM     71  O   UNL A   1      31.906  27.007  25.656  1.00  0.00    -0.461 OA
BRANCH  71  72
ATOM     72  C   UNL A   1      32.863  26.572  24.791  1.00  0.00     0.317 C 
ATOM     73  O   UNL A   1      33.921  27.175  24.623  1.00  0.00    -0.251 OA
BRANCH  72  74
ATOM     74  C   UNL A   1      32.408  25.376  23.899  1.00  0.00     0.117 C 
ATOM     75  C   UNL A   1      33.575  25.185  22.870  1.00  0.00     0.030 C 
ATOM     76  C   UNL A   1      32.381  24.016  24.681  1.00  0.00     0.281 C 
ATOM     77  C   UNL A   1      33.577  23.827  22.158  1.00  0.00     0.063 C 
ATOM     78  N   UNL A   1      32.440  22.699  23.991  1.00  0.00    -0.330 N 
ATOM     79  C   UNL A   1      33.604  22.638  23.123  1.00  0.00     0.262 C 
ATOM     80  H   UNL A   1      31.556  22.742  23.483  1.00  0.00     0.348 HD
BRANCH  74  81
ATOM     81  C   UNL A   1      31.147  25.956  23.137  1.00  0.00     0.029 C 
BRANCH  81  82
ATOM     82  C   UNL A   1      30.955  27.325  22.424  1.00  0.00     0.037 C 
BRANCH  82  83
ATOM     83  C   UNL A   1      29.928  28.436  22.652  1.00  0.00    -0.048 A 
ATOM     84  C   UNL A   1      28.686  28.176  23.218  1.00  0.00     0.004 A 
ATOM     85  C   UNL A   1      30.038  29.661  21.963  1.00  0.00     0.004 A 
ATOM     86  C   UNL A   1      27.567  28.991  22.966  1.00  0.00     0.000 A 
ATOM     87  C   UNL A   1      28.937  30.523  21.781  1.00  0.00     0.000 A 
ATOM     88  C   UNL A   1      27.684  30.163  22.245  1.00  0.00     0.000 A 
ENDBRANCH  82  83
ENDBRANCH  81  82
ENDBRANCH  74  81
BRANCH  78  89
ATOM     89  C   UNL A   1      32.119  21.382  24.670  1.00  0.00     0.300 C 
BRANCH  89  90
ATOM     90  C   UNL A   1      32.586  19.982  24.210  1.00  0.00     0.025 A 
ATOM     91  C   UNL A   1      32.117  19.368  23.028  1.00  0.00     0.013 A 
ATOM     92  C   UNL A   1      33.661  19.308  24.771  1.00  0.00     0.120 A 
ATOM     93  C   UNL A   1      32.490  18.083  22.630  1.00  0.00     0.021 A 
ATOM     94  N   UNL A   1      34.125  18.082  24.374  1.00  0.00    -0.264 NA
ATOM     95  C   UNL A   1      33.505  17.483  23.332  1.00  0.00     0.111 A 
ENDBRANCH  89  90
ENDBRANCH  78  89
ENDBRANCH  72  74
ENDBRANCH  71  72
ENDBRANCH  70  71
ENDBRANCH   1  70
TORSDOF 19
ENDMDL
MODEL 3
REMARK VINA RESULT:     -11.6      4.950      9.938
REMARK SMILES O=C(OCCOC(=O)[C@@]1(CCc2ccccc2)CCC[N@@H+](Cc2cccnc2)C1)c1ccc(-c2c3nc(c(-c4cccc(S(=O)(=O)[O-])c4F)c4ccc([nH]4)c(-c4cccc(S(=O)(=O)[O-])c4F)c4nc(c(-c5cccc(S(=O)(=O)[O-])c5F)c5ccc2[nH]5)C=C4)C=C3)cc1
REMARK SMILES IDX 4 1 3 2 2 3 1 4 30 5 31 6 92 7 32 8 91 9 33 10 34 11 35 12
REMARK SMILES IDX 85 13 36 14 90 15 84 16 86 17 37 18 89 19 83 20 82 21 38 23
REMARK SMILES IDX 70 24 50 25 69 26 51 27 54 28 68 29 87 30 52 31 53 32 67 34
REMARK SMILES IDX 88 35 55 36 39 37 40 38 48 39 41 40 43 41 49 42 42 43 44 44
REMARK SMILES IDX 45 45 46 46 47 47 71 48 72 49 80 50 73 51 75 52 81 53 74 54
REMARK SMILES IDX 76 55 77 56 78 57 79 58 56 59 57 60 65 61 58 62 60 63 66 64
REMARK SMILES IDX 59 65 61 66 62 67 63 68 64 69 5 70 6 71 7 72 8 73 9 74 18 75
REMARK SMILES IDX 29 76 19 77 21 78 20 79 10 81 11 82 12 83 13 84 17 85 14 86
REMARK SMILES IDX 16 87 15 88 22 89 23 90 24 91 28 92 25 93 27 94 26 95
REMARK H PARENT 86 22 54 33 21 80
REMARK Flexibility Score: inf
ROOT
ATOM      1  C   UNL A   1      36.801  23.113  24.067  1.00  0.00     0.275 C 
ENDROOT
BRANCH   1   2
ATOM      2  O   UNL A   1      37.147  22.057  24.972  1.00  0.00    -0.458 OA
BRANCH   2   3
ATOM      3  C   UNL A   1      38.346  21.841  25.562  1.00  0.00     0.338 C 
ATOM      4  O   UNL A   1      38.881  20.740  25.446  1.00  0.00    -0.246 OA
BRANCH   3   5
ATOM      5  C   UNL A   1      38.955  22.842  26.491  1.00  0.00     0.060 A 
ATOM      6  C   UNL A   1      40.129  22.740  27.237  1.00  0.00     0.016 A 
ATOM      7  C   UNL A   1      38.283  24.043  26.568  1.00  0.00     0.016 A 
ATOM      8  C   UNL A   1      40.705  23.881  27.871  1.00  0.00     0.010 A 
ATOM      9  C   UNL A   1      38.929  25.162  27.111  1.00  0.00     0.010 A 
ATOM     10  C   UNL A   1      40.175  25.168  27.713  1.00  0.00    -0.014 A 
BRANCH  10  11
ATOM     11  C   UNL A   1      40.788  26.434  28.313  1.00  0.00     0.031 A 
ATOM     12  C   UNL A   1      42.230  26.680  27.975  1.00  0.00     0.074 A 
ATOM     13  C   UNL A   1      40.295  27.302  29.250  1.00  0.00     0.049 A 
ATOM     14  N   UNL A   1      42.979  27.709  28.259  1.00  0.00    -0.248 NA
ATOM     15  C   UNL A   1      42.946  25.548  27.370  1.00  0.00     0.031 C 
ATOM     16  C   UNL A   1      39.170  27.111  30.143  1.00  0.00     0.029 A 
ATOM     17  N   UNL A   1      40.661  28.607  29.576  1.00  0.00    -0.354 N 
ATOM     18  C   UNL A   1      44.270  27.317  27.960  1.00  0.00     0.074 A 
ATOM     19  C   UNL A   1      44.200  25.947  27.497  1.00  0.00     0.031 C 
ATOM     20  C   UNL A   1      38.777  28.267  30.698  1.00  0.00     0.029 A 
ATOM     21  C   UNL A   1      39.681  29.306  30.281  1.00  0.00     0.049 A 
ATOM     22  H   UNL A   1      41.530  28.999  29.330  1.00  0.00     0.167 HD
ATOM     23  C   UNL A   1      45.413  28.034  28.049  1.00  0.00     0.034 A 
ATOM     24  C   UNL A   1      39.500  30.619  30.555  1.00  0.00     0.034 A 
ATOM     25  C   UNL A   1      45.474  29.407  28.464  1.00  0.00     0.049 A 
ATOM     26  C   UNL A   1      40.661  31.524  30.275  1.00  0.00     0.074 A 
ATOM     27  C   UNL A   1      46.568  30.253  28.476  1.00  0.00     0.029 A 
ATOM     28  N   UNL A   1      44.395  30.145  28.927  1.00  0.00    -0.354 N 
ATOM     29  N   UNL A   1      41.834  31.201  29.795  1.00  0.00    -0.248 NA
ATOM     30  C   UNL A   1      40.516  32.949  30.612  1.00  0.00     0.031 C 
ATOM     31  C   UNL A   1      46.143  31.513  28.910  1.00  0.00     0.029 A 
ATOM     32  C   UNL A   1      44.781  31.455  29.153  1.00  0.00     0.049 A 
ATOM     33  H   UNL A   1      43.489  29.788  29.073  1.00  0.00     0.167 HD
ATOM     34  C   UNL A   1      42.578  32.367  29.811  1.00  0.00     0.074 A 
ATOM     35  C   UNL A   1      41.698  33.428  30.253  1.00  0.00     0.031 C 
ATOM     36  C   UNL A   1      43.896  32.519  29.547  1.00  0.00     0.034 A 
BRANCH  23  37
ATOM     37  C   UNL A   1      46.665  27.337  27.601  1.00  0.00     0.023 A 
ATOM     38  C   UNL A   1      47.450  26.656  28.558  1.00  0.00     0.012 A 
ATOM     39  C   UNL A   1      47.088  27.379  26.261  1.00  0.00     0.148 A 
ATOM     40  C   UNL A   1      48.678  26.105  28.208  1.00  0.00     0.002 A 
ATOM     41  C   UNL A   1      48.279  26.763  25.905  1.00  0.00     0.091 A 
ATOM     42  F   UNL A   1      46.335  28.040  25.371  1.00  0.00    -0.205 F 
ATOM     43  C   UNL A   1      49.089  26.152  26.881  1.00  0.00     0.022 A 
BRANCH  41  44
ATOM     44  S   UNL A   1      48.862  26.663  24.212  1.00  0.00     0.127 S 
ATOM     45  O   UNL A   1      50.276  26.355  24.403  1.00  0.00    -0.237 OA
ATOM     46  O   UNL A   1      48.059  25.567  23.682  1.00  0.00    -0.237 OA
ATOM     47  O   UNL A   1      48.588  27.970  23.614  1.00  0.00    -0.744 OA
ENDBRANCH  41  44
ENDBRANCH  23  37
BRANCH  24  48
ATOM     48  C   UNL A   1      38.196  31.203  31.045  1.00  0.00     0.023 A 
ATOM     49  C   UNL A   1      37.922  31.153  32.435  1.00  0.00     0.012 A 
ATOM     50  C   UNL A   1      37.213  31.762  30.208  1.00  0.00     0.148 A 
ATOM     51  C   UNL A   1      36.697  31.578  32.962  1.00  0.00     0.002 A 
ATOM     52  C   UNL A   1      36.029  32.270  30.750  1.00  0.00     0.091 A 
ATOM     53  F   UNL A   1      37.423  31.763  28.884  1.00  0.00    -0.205 F 
ATOM     54  C   UNL A   1      35.754  32.150  32.120  1.00  0.00     0.022 A 
BRANCH  52  55
ATOM     55  S   UNL A   1      34.853  33.202  29.757  1.00  0.00     0.127 S 
ATOM     56  O   UNL A   1      35.717  34.168  29.085  1.00  0.00    -0.237 OA
ATOM     57  O   UNL A   1      34.291  32.168  28.886  1.00  0.00    -0.237 OA
ATOM     58  O   UNL A   1      33.901  33.745  30.719  1.00  0.00    -0.744 OA
ENDBRANCH  52  55
ENDBRANCH  24  48
BRANCH  36  59
ATOM     59  C   UNL A   1      44.463  33.898  29.693  1.00  0.00     0.023 A 
ATOM     60  C   UNL A   1      44.930  34.344  30.946  1.00  0.00     0.012 A 
ATOM     61  C   UNL A   1      44.570  34.736  28.569  1.00  0.00     0.148 A 
ATOM     62  C   UNL A   1      45.469  35.621  31.081  1.00  0.00     0.002 A 
ATOM     63  C   UNL A   1      45.155  35.985  28.701  1.00  0.00     0.091 A 
ATOM     64  F   UNL A   1      44.088  34.298  27.397  1.00  0.00    -0.205 F 
ATOM     65  C   UNL A   1      45.595  36.436  29.958  1.00  0.00     0.022 A 
BRANCH  63  66
ATOM     66  S   UNL A   1      45.437  37.059  27.293  1.00  0.00     0.127 S 
ATOM     67  O   UNL A   1      45.954  36.119  26.301  1.00  0.00    -0.237 OA
ATOM     68  O   UNL A   1      44.091  37.563  27.015  1.00  0.00    -0.237 OA
ATOM     69  O   UNL A   1      46.381  38.073  27.743  1.00  0.00    -0.744 OA
ENDBRANCH  63  66
ENDBRANCH  36  59
ENDBRANCH  10  11
ENDBRANCH   3   5
ENDBRANCH   2   3
ENDBRANCH   1   2
BRANCH   1  70
ATOM     70  C   UNL A   1      35.474  22.958  23.320  1.00  0.00     0.274 C 
BRANCH  70  71
ATOM     71  O   UNL A   1      34.540  24.050  23.449  1.00  0.00    -0.461 OA
BRANCH  71  72
ATOM     72  C   UNL A   1      33.335  23.847  22.847  1.00  0.00     0.317 C 
ATOM     73  O   UNL A   1      33.212  23.785  21.627  1.00  0.00    -0.251 OA
BRANCH  72  74
ATOM     74  C   UNL A   1      32.125  23.912  23.829  1.00  0.00     0.117 C 
ATOM     75  C   UNL A   1      32.733  24.453  25.170  1.00  0.00     0.030 C 
ATOM     76  C   UNL A   1      31.081  25.014  23.429  1.00  0.00     0.281 C 
ATOM     77  C   UNL A   1      31.700  25.004  26.158  1.00  0.00     0.063 C 
ATOM     78  N   UNL A   1      30.116  25.588  24.406  1.00  0.00    -0.330 N 
ATOM     79  C   UNL A   1      30.823  26.110  25.564  1.00  0.00     0.262 C 
ATOM     80  H   UNL A   1      29.569  24.750  24.606  1.00  0.00     0.348 HD
BRANCH  74  81
ATOM     81  C   UNL A   1      31.738  22.390  24.024  1.00  0.00     0.029 C 
BRANCH  81  82
ATOM     82  C   UNL A   1      32.572  21.216  24.612  1.00  0.00     0.037 C 
BRANCH  82  83
ATOM     83  C   UNL A   1      33.100  19.938  23.957  1.00  0.00    -0.048 A 
ATOM     84  C   UNL A   1      32.371  19.260  22.988  1.00  0.00     0.004 A 
ATOM     85  C   UNL A   1      34.136  19.200  24.566  1.00  0.00     0.004 A 
ATOM     86  C   UNL A   1      32.534  17.880  22.761  1.00  0.00     0.000 A 
ATOM     87  C   UNL A   1      34.357  17.838  24.278  1.00  0.00     0.000 A 
ATOM     88  C   UNL A   1      33.521  17.162  23.406  1.00  0.00     0.000 A 
ENDBRANCH  82  83
ENDBRANCH  81  82
ENDBRANCH  74  81
BRANCH  78  89
ATOM     89  C   UNL A   1      28.912  26.418  24.004  1.00  0.00     0.300 C 
BRANCH  89  90
ATOM     90  C   UNL A   1      28.939  27.721  23.173  1.00  0.00     0.025 A 
ATOM     91  C   UNL A   1      27.856  28.627  23.134  1.00  0.00     0.013 A 
ATOM     92  C   UNL A   1      30.087  28.235  22.587  1.00  0.00     0.120 A 
ATOM     93  C   UNL A   1      27.848  29.779  22.346  1.00  0.00     0.021 A 
ATOM     94  N   UNL A   1      30.159  29.399  21.869  1.00  0.00    -0.264 NA
ATOM     95  C   UNL A   1      29.028  30.127  21.737  1.00  0.00     0.111 A 
ENDBRANCH  89  90
ENDBRANCH  78  89
ENDBRANCH  72  74
ENDBRANCH  71  72
ENDBRANCH  70  71
ENDBRANCH   1  70
TORSDOF 19
ENDMDL
