MODEL 1
REMARK VINA RESULT:     -11.9      0.000      0.000
REMARK SMILES Cn1ncc2c(NCCC3=CCCCC3)c(C(=O)OCCOC(=O)c3ccc(-c4c5nc(c(-c6cccc(S(=O)(=O)[O-])c6F)c6ccc([nH]6)c(-c6cccc(S(=O)(=O)[O-])c6F)c6nc(c(-c7cccc(S(=O)(=O)[O-])c7F)c7ccc4[nH]7)C=C6)C=C5)cc3)cnc21
REMARK SMILES IDX 20 1 19 2 17 3 18 4 16 5 1 6 2 7 3 8 90 9 4 10 5 11 89 12
REMARK SMILES IDX 6 13 88 14 7 15 8 17 9 18 10 19 11 20 15 21 12 22 14 23
REMARK SMILES IDX 13 24 21 25 22 26 23 27 24 28 25 29 26 30 87 31 27 32 86 33
REMARK SMILES IDX 28 34 29 35 30 36 80 37 31 38 85 39 79 40 81 41 32 42 84 43
REMARK SMILES IDX 78 44 77 45 33 47 65 48 45 49 64 50 46 51 49 52 63 53 82 54
REMARK SMILES IDX 47 55 48 56 62 58 83 59 50 60 34 61 35 62 43 63 36 64 38 65
REMARK SMILES IDX 44 66 37 67 39 68 40 69 41 70 42 71 66 72 67 73 75 74 68 75
REMARK SMILES IDX 70 76 76 77 69 78 71 79 72 80 73 81 74 82 51 83 52 84 60 85
REMARK SMILES IDX 53 86 55 87 61 88 54 89 56 90 57 91 58 92 59 93
REMARK H PARENT 7 16 81 46 49 57
REMARK Flexibility Score: inf
ROOT
ATOM      1  C   UNL A   1      32.924  30.104  26.759  1.00  0.00     0.275 C 
ENDROOT
BRANCH   1   2
ATOM      2  O   UNL A   1      33.334  28.771  27.123  1.00  0.00    -0.458 OA
BRANCH   2   3
ATOM      3  C   UNL A   1      32.441  27.774  26.868  1.00  0.00     0.341 C 
ATOM      4  O   UNL A   1      31.340  27.675  27.395  1.00  0.00    -0.246 OA
BRANCH   3   5
ATOM      5  C   UNL A   1      32.936  26.848  25.804  1.00  0.00     0.102 A 
ATOM      6  C   UNL A   1      35.131  23.066  23.106  1.00  0.00     0.176 C 
ATOM      7  N   UNL A   1      34.221  24.181  23.048  1.00  0.00    -0.250 N 
ATOM      8  N   UNL A   1      33.538  24.430  21.917  1.00  0.00    -0.179 NA
ATOM      9  C   UNL A   1      33.924  25.037  24.076  1.00  0.00     0.159 A 
ATOM     10  C   UNL A   1      32.791  25.488  22.249  1.00  0.00     0.147 A 
ATOM     11  C   UNL A   1      32.941  25.901  23.601  1.00  0.00     0.063 A 
ATOM     12  N   UNL A   1      34.479  25.010  25.301  1.00  0.00    -0.236 NA
ATOM     13  C   UNL A   1      32.379  26.863  24.487  1.00  0.00     0.063 A 
ATOM     14  C   UNL A   1      33.966  25.959  26.118  1.00  0.00     0.131 A 
BRANCH  13  15
ATOM     15  N   UNL A   1      31.350  27.742  24.170  1.00  0.00    -0.383 N 
ATOM     16  H   UNL A   1      30.527  27.652  24.702  1.00  0.00     0.160 HD
BRANCH  15  17
ATOM     17  C   UNL A   1      31.336  28.775  23.149  1.00  0.00     0.117 C 
BRANCH  17  18
ATOM     18  C   UNL A   1      30.003  28.773  22.385  1.00  0.00     0.052 C 
BRANCH  18  19
ATOM     19  C   UNL A   1      29.245  30.078  22.268  1.00  0.00    -0.072 C 
ATOM     20  C   UNL A   1      28.920  30.657  21.098  1.00  0.00    -0.028 C 
ATOM     21  C   UNL A   1      28.854  30.696  23.592  1.00  0.00     0.031 C 
ATOM     22  C   UNL A   1      28.189  31.965  20.990  1.00  0.00     0.027 C 
ATOM     23  C   UNL A   1      27.823  31.817  23.473  1.00  0.00     0.005 C 
ATOM     24  C   UNL A   1      28.151  32.741  22.306  1.00  0.00     0.004 C 
ENDBRANCH  18  19
ENDBRANCH  17  18
ENDBRANCH  15  17
ENDBRANCH  13  15
ENDBRANCH   3   5
ENDBRANCH   2   3
ENDBRANCH   1   2
BRANCH   1  25
ATOM     25  C   UNL A   1      33.621  31.171  27.598  1.00  0.00     0.275 C 
BRANCH  25  26
ATOM     26  O   UNL A   1      34.782  30.659  28.247  1.00  0.00    -0.458 OA
BRANCH  26  27
ATOM     27  C   UNL A   1      35.608  31.615  28.731  1.00  0.00     0.338 C 
ATOM     28  O   UNL A   1      35.291  32.721  29.138  1.00  0.00    -0.246 OA
BRANCH  27  29
ATOM     29  C   UNL A   1      36.999  31.208  28.547  1.00  0.00     0.060 A 
ATOM     30  C   UNL A   1      37.224  30.025  27.835  1.00  0.00     0.016 A 
ATOM     31  C   UNL A   1      38.004  31.827  29.303  1.00  0.00     0.016 A 
ATOM     32  C   UNL A   1      38.423  29.374  28.008  1.00  0.00     0.010 A 
ATOM     33  C   UNL A   1      39.195  31.167  29.489  1.00  0.00     0.010 A 
ATOM     34  C   UNL A   1      39.361  29.921  28.889  1.00  0.00    -0.014 A 
BRANCH  34  35
ATOM     35  C   UNL A   1      40.556  29.157  29.154  1.00  0.00     0.031 A 
ATOM     36  C   UNL A   1      40.774  28.844  30.583  1.00  0.00     0.074 A 
ATOM     37  C   UNL A   1      41.336  28.704  28.158  1.00  0.00     0.049 A 
ATOM     38  N   UNL A   1      41.713  29.287  31.349  1.00  0.00    -0.248 NA
ATOM     39  C   UNL A   1      39.743  28.058  31.277  1.00  0.00     0.031 C 
ATOM     40  C   UNL A   1      41.063  28.701  26.719  1.00  0.00     0.029 A 
ATOM     41  N   UNL A   1      42.498  28.010  28.256  1.00  0.00    -0.354 N 
ATOM     42  C   UNL A   1      41.510  28.668  32.578  1.00  0.00     0.074 A 
ATOM     43  C   UNL A   1      40.202  28.067  32.528  1.00  0.00     0.031 C 
ATOM     44  C   UNL A   1      41.902  27.827  26.117  1.00  0.00     0.029 A 
ATOM     45  C   UNL A   1      42.830  27.307  27.106  1.00  0.00     0.049 A 
ATOM     46  H   UNL A   1      43.054  28.006  29.069  1.00  0.00     0.167 HD
ATOM     47  C   UNL A   1      42.518  28.494  33.472  1.00  0.00     0.034 A 
ATOM     48  C   UNL A   1      43.734  26.299  27.036  1.00  0.00     0.034 A 
ATOM     49  C   UNL A   1      43.671  29.289  33.160  1.00  0.00     0.049 A 
ATOM     50  C   UNL A   1      44.625  26.440  28.218  1.00  0.00     0.074 A 
ATOM     51  C   UNL A   1      43.914  30.642  33.037  1.00  0.00     0.029 A 
ATOM     52  N   UNL A   1      44.717  28.651  32.538  1.00  0.00    -0.354 N 
ATOM     53  N   UNL A   1      45.445  27.441  28.389  1.00  0.00    -0.248 NA
ATOM     54  C   UNL A   1      44.298  25.688  29.421  1.00  0.00     0.031 C 
ATOM     55  C   UNL A   1      44.828  30.749  31.951  1.00  0.00     0.029 A 
ATOM     56  C   UNL A   1      45.115  29.456  31.506  1.00  0.00     0.049 A 
ATOM     57  H   UNL A   1      45.105  27.781  32.787  1.00  0.00     0.167 HD
ATOM     58  C   UNL A   1      45.396  27.706  29.752  1.00  0.00     0.074 A 
ATOM     59  C   UNL A   1      44.762  26.532  30.348  1.00  0.00     0.031 C 
ATOM     60  C   UNL A   1      45.601  28.965  30.236  1.00  0.00     0.034 A 
BRANCH  47  61
ATOM     61  C   UNL A   1      42.593  27.349  34.437  1.00  0.00     0.023 A 
ATOM     62  C   UNL A   1      42.238  27.588  35.780  1.00  0.00     0.012 A 
ATOM     63  C   UNL A   1      43.245  26.132  34.141  1.00  0.00     0.148 A 
ATOM     64  C   UNL A   1      42.532  26.660  36.784  1.00  0.00     0.002 A 
ATOM     65  C   UNL A   1      43.462  25.180  35.126  1.00  0.00     0.091 A 
ATOM     66  F   UNL A   1      43.785  25.944  32.930  1.00  0.00    -0.205 F 
ATOM     67  C   UNL A   1      43.130  25.449  36.456  1.00  0.00     0.022 A 
BRANCH  65  68
ATOM     68  S   UNL A   1      44.190  23.588  34.732  1.00  0.00     0.127 S 
ATOM     69  O   UNL A   1      43.189  23.020  33.836  1.00  0.00    -0.237 OA
ATOM     70  O   UNL A   1      45.447  23.979  34.093  1.00  0.00    -0.237 OA
ATOM     71  O   UNL A   1      44.361  22.920  36.017  1.00  0.00    -0.744 OA
ENDBRANCH  65  68
ENDBRANCH  47  61
BRANCH  48  72
ATOM     72  C   UNL A   1      43.729  25.076  26.191  1.00  0.00     0.023 A 
ATOM     73  C   UNL A   1      44.749  24.906  25.231  1.00  0.00     0.012 A 
ATOM     74  C   UNL A   1      42.914  23.960  26.489  1.00  0.00     0.148 A 
ATOM     75  C   UNL A   1      44.979  23.662  24.628  1.00  0.00     0.002 A 
ATOM     76  C   UNL A   1      43.135  22.731  25.873  1.00  0.00     0.091 A 
ATOM     77  F   UNL A   1      41.986  24.065  27.447  1.00  0.00    -0.205 F 
ATOM     78  C   UNL A   1      44.177  22.573  24.953  1.00  0.00     0.022 A 
BRANCH  76  79
ATOM     79  S   UNL A   1      42.132  21.287  26.258  1.00  0.00     0.127 S 
ATOM     80  O   UNL A   1      42.322  21.153  27.702  1.00  0.00    -0.237 OA
ATOM     81  O   UNL A   1      40.799  21.726  25.854  1.00  0.00    -0.237 OA
ATOM     82  O   UNL A   1      42.704  20.195  25.481  1.00  0.00    -0.744 OA
ENDBRANCH  76  79
ENDBRANCH  48  72
BRANCH  60  83
ATOM     83  C   UNL A   1      46.091  30.025  29.286  1.00  0.00     0.023 A 
ATOM     84  C   UNL A   1      47.457  30.133  28.948  1.00  0.00     0.012 A 
ATOM     85  C   UNL A   1      45.139  30.731  28.534  1.00  0.00     0.148 A 
ATOM     86  C   UNL A   1      47.863  30.925  27.871  1.00  0.00     0.002 A 
ATOM     87  C   UNL A   1      45.543  31.485  27.439  1.00  0.00     0.091 A 
ATOM     88  F   UNL A   1      43.846  30.597  28.867  1.00  0.00    -0.205 F 
ATOM     89  C   UNL A   1      46.905  31.587  27.107  1.00  0.00     0.022 A 
BRANCH  87  90
ATOM     90  S   UNL A   1      44.361  32.250  26.328  1.00  0.00     0.127 S 
ATOM     91  O   UNL A   1      45.211  32.656  25.211  1.00  0.00    -0.237 OA
ATOM     92  O   UNL A   1      43.451  31.142  26.033  1.00  0.00    -0.237 OA
ATOM     93  O   UNL A   1      43.751  33.345  27.073  1.00  0.00    -0.744 OA
ENDBRANCH  87  90
ENDBRANCH  60  83
ENDBRANCH  34  35
ENDBRANCH  27  29
ENDBRANCH  26  27
ENDBRANCH  25  26
ENDBRANCH   1  25
TORSDOF 18
ENDMDL
MODEL 2
REMARK VINA RESULT:     -11.6      3.217      8.631
REMARK SMILES Cn1ncc2c(NCCC3=CCCCC3)c(C(=O)OCCOC(=O)c3ccc(-c4c5nc(c(-c6cccc(S(=O)(=O)[O-])c6F)c6ccc([nH]6)c(-c6cccc(S(=O)(=O)[O-])c6F)c6nc(c(-c7cccc(S(=O)(=O)[O-])c7F)c7ccc4[nH]7)C=C6)C=C5)cc3)cnc21
REMARK SMILES IDX 20 1 19 2 17 3 18 4 16 5 1 6 2 7 3 8 90 9 4 10 5 11 89 12
REMARK SMILES IDX 6 13 88 14 7 15 8 17 9 18 10 19 11 20 15 21 12 22 14 23
REMARK SMILES IDX 13 24 21 25 22 26 23 27 24 28 25 29 26 30 87 31 27 32 86 33
REMARK SMILES IDX 28 34 29 35 30 36 80 37 31 38 85 39 79 40 81 41 32 42 84 43
REMARK SMILES IDX 78 44 77 45 33 47 65 48 45 49 64 50 46 51 49 52 63 53 82 54
REMARK SMILES IDX 47 55 48 56 62 58 83 59 50 60 34 61 35 62 43 63 36 64 38 65
REMARK SMILES IDX 44 66 37 67 39 68 40 69 41 70 42 71 66 72 67 73 75 74 68 75
REMARK SMILES IDX 70 76 76 77 69 78 71 79 72 80 73 81 74 82 51 83 52 84 60 85
REMARK SMILES IDX 53 86 55 87 61 88 54 89 56 90 57 91 58 92 59 93
REMARK H PARENT 7 16 81 46 49 57
REMARK Flexibility Score: inf
ROOT
ATOM      1  C   UNL A   1      36.600  22.229  25.482  1.00  0.00     0.275 C 
ENDROOT
BRANCH   1   2
ATOM      2  O   UNL A   1      35.651  21.686  24.542  1.00  0.00    -0.458 OA
BRANCH   2   3
ATOM      3  C   UNL A   1      34.903  22.590  23.850  1.00  0.00     0.341 C 
ATOM      4  O   UNL A   1      35.214  23.067  22.766  1.00  0.00    -0.246 OA
BRANCH   3   5
ATOM      5  C   UNL A   1      33.609  22.879  24.541  1.00  0.00     0.102 A 
ATOM      6  C   UNL A   1      29.282  22.707  27.307  1.00  0.00     0.176 C 
ATOM      7  N   UNL A   1      30.184  23.564  26.582  1.00  0.00    -0.250 N 
ATOM      8  N   UNL A   1      29.992  24.895  26.584  1.00  0.00    -0.179 NA
ATOM      9  C   UNL A   1      31.295  23.165  25.887  1.00  0.00     0.159 A 
ATOM     10  C   UNL A   1      31.020  25.344  25.856  1.00  0.00     0.147 A 
ATOM     11  C   UNL A   1      31.910  24.325  25.420  1.00  0.00     0.063 A 
ATOM     12  N   UNL A   1      31.699  21.893  25.721  1.00  0.00    -0.236 NA
ATOM     13  C   UNL A   1      33.143  24.219  24.718  1.00  0.00     0.063 A 
ATOM     14  C   UNL A   1      32.850  21.806  25.015  1.00  0.00     0.131 A 
BRANCH  13  15
ATOM     15  N   UNL A   1      33.897  25.291  24.255  1.00  0.00    -0.383 N 
ATOM     16  H   UNL A   1      34.827  25.334  24.574  1.00  0.00     0.160 HD
BRANCH  15  17
ATOM     17  C   UNL A   1      33.483  26.357  23.360  1.00  0.00     0.117 C 
BRANCH  17  18
ATOM     18  C   UNL A   1      34.018  27.716  23.841  1.00  0.00     0.052 C 
BRANCH  18  19
ATOM     19  C   UNL A   1      33.227  28.463  24.892  1.00  0.00    -0.072 C 
ATOM     20  C   UNL A   1      32.262  29.358  24.612  1.00  0.00    -0.028 C 
ATOM     21  C   UNL A   1      33.594  28.115  26.317  1.00  0.00     0.031 C 
ATOM     22  C   UNL A   1      31.497  30.115  25.661  1.00  0.00     0.027 C 
ATOM     23  C   UNL A   1      32.588  28.612  27.356  1.00  0.00     0.005 C 
ATOM     24  C   UNL A   1      32.140  30.035  27.045  1.00  0.00     0.004 C 
ENDBRANCH  18  19
ENDBRANCH  17  18
ENDBRANCH  15  17
ENDBRANCH  13  15
ENDBRANCH   3   5
ENDBRANCH   2   3
ENDBRANCH   1   2
BRANCH   1  25
ATOM     25  C   UNL A   1      37.955  21.529  25.402  1.00  0.00     0.275 C 
BRANCH  25  26
ATOM     26  O   UNL A   1      39.034  22.460  25.440  1.00  0.00    -0.458 OA
BRANCH  26  27
ATOM     27  C   UNL A   1      39.992  22.153  26.344  1.00  0.00     0.338 C 
ATOM     28  O   UNL A   1      40.599  21.097  26.441  1.00  0.00    -0.246 OA
BRANCH  27  29
ATOM     29  C   UNL A   1      40.102  23.223  27.333  1.00  0.00     0.060 A 
ATOM     30  C   UNL A   1      39.147  24.243  27.271  1.00  0.00     0.016 A 
ATOM     31  C   UNL A   1      41.275  23.342  28.092  1.00  0.00     0.016 A 
ATOM     32  C   UNL A   1      39.445  25.455  27.850  1.00  0.00     0.010 A 
ATOM     33  C   UNL A   1      41.578  24.558  28.655  1.00  0.00     0.010 A 
ATOM     34  C   UNL A   1      40.688  25.613  28.471  1.00  0.00    -0.014 A 
BRANCH  34  35
ATOM     35  C   UNL A   1      41.031  26.928  28.956  1.00  0.00     0.031 A 
ATOM     36  C   UNL A   1      42.304  27.461  28.423  1.00  0.00     0.074 A 
ATOM     37  C   UNL A   1      40.200  27.622  29.753  1.00  0.00     0.049 A 
ATOM     38  N   UNL A   1      43.395  27.685  29.075  1.00  0.00    -0.248 NA
ATOM     39  C   UNL A   1      42.419  27.628  26.968  1.00  0.00     0.031 C 
ATOM     40  C   UNL A   1      38.810  27.320  30.099  1.00  0.00     0.029 A 
ATOM     41  N   UNL A   1      40.403  28.842  30.311  1.00  0.00    -0.354 N 
ATOM     42  C   UNL A   1      44.276  28.222  28.144  1.00  0.00     0.074 A 
ATOM     43  C   UNL A   1      43.692  28.006  26.846  1.00  0.00     0.031 C 
ATOM     44  C   UNL A   1      38.229  28.439  30.591  1.00  0.00     0.029 A 
ATOM     45  C   UNL A   1      39.233  29.484  30.696  1.00  0.00     0.049 A 
ATOM     46  H   UNL A   1      41.297  29.235  30.432  1.00  0.00     0.167 HD
ATOM     47  C   UNL A   1      45.319  29.012  28.511  1.00  0.00     0.034 A 
ATOM     48  C   UNL A   1      39.117  30.807  30.969  1.00  0.00     0.034 A 
ATOM     49  C   UNL A   1      45.588  28.945  29.919  1.00  0.00     0.049 A 
ATOM     50  C   UNL A   1      40.485  31.301  31.278  1.00  0.00     0.074 A 
ATOM     51  C   UNL A   1      45.947  27.938  30.792  1.00  0.00     0.029 A 
ATOM     52  N   UNL A   1      45.118  29.978  30.692  1.00  0.00    -0.354 N 
ATOM     53  N   UNL A   1      41.166  30.933  32.329  1.00  0.00    -0.248 NA
ATOM     54  C   UNL A   1      41.270  31.879  30.196  1.00  0.00     0.031 C 
ATOM     55  C   UNL A   1      45.239  28.229  31.992  1.00  0.00     0.029 A 
ATOM     56  C   UNL A   1      44.525  29.413  31.789  1.00  0.00     0.049 A 
ATOM     57  H   UNL A   1      45.193  30.940  30.496  1.00  0.00     0.167 HD
ATOM     58  C   UNL A   1      42.477  30.833  31.880  1.00  0.00     0.074 A 
ATOM     59  C   UNL A   1      42.497  31.529  30.596  1.00  0.00     0.031 C 
ATOM     60  C   UNL A   1      43.351  29.949  32.442  1.00  0.00     0.034 A 
BRANCH  47  61
ATOM     61  C   UNL A   1      45.880  30.110  27.658  1.00  0.00     0.023 A 
ATOM     62  C   UNL A   1      47.281  30.251  27.593  1.00  0.00     0.012 A 
ATOM     63  C   UNL A   1      45.093  31.160  27.136  1.00  0.00     0.148 A 
ATOM     64  C   UNL A   1      47.870  31.395  27.046  1.00  0.00     0.002 A 
ATOM     65  C   UNL A   1      45.682  32.256  26.522  1.00  0.00     0.091 A 
ATOM     66  F   UNL A   1      43.773  31.174  27.355  1.00  0.00    -0.205 F 
ATOM     67  C   UNL A   1      47.071  32.391  26.496  1.00  0.00     0.022 A 
BRANCH  65  68
ATOM     68  S   UNL A   1      44.684  33.538  25.761  1.00  0.00     0.127 S 
ATOM     69  O   UNL A   1      44.024  34.126  26.922  1.00  0.00    -0.237 OA
ATOM     70  O   UNL A   1      45.701  34.380  25.131  1.00  0.00    -0.237 OA
ATOM     71  O   UNL A   1      43.824  32.839  24.813  1.00  0.00    -0.744 OA
ENDBRANCH  65  68
ENDBRANCH  47  61
BRANCH  48  72
ATOM     72  C   UNL A   1      37.979  31.730  30.724  1.00  0.00     0.023 A 
ATOM     73  C   UNL A   1      37.351  31.719  29.460  1.00  0.00     0.012 A 
ATOM     74  C   UNL A   1      37.329  32.418  31.774  1.00  0.00     0.148 A 
ATOM     75  C   UNL A   1      36.104  32.326  29.263  1.00  0.00     0.002 A 
ATOM     76  C   UNL A   1      36.098  33.036  31.568  1.00  0.00     0.091 A 
ATOM     77  F   UNL A   1      37.859  32.387  33.003  1.00  0.00    -0.205 F 
ATOM     78  C   UNL A   1      35.474  32.978  30.318  1.00  0.00     0.022 A 
BRANCH  76  79
ATOM     79  S   UNL A   1      35.236  33.890  32.897  1.00  0.00     0.127 S 
ATOM     80  O   UNL A   1      33.921  34.140  32.304  1.00  0.00    -0.237 OA
ATOM     81  O   UNL A   1      35.249  32.891  33.960  1.00  0.00    -0.237 OA
ATOM     82  O   UNL A   1      36.010  35.100  33.150  1.00  0.00    -0.744 OA
ENDBRANCH  76  79
ENDBRANCH  48  72
BRANCH  60  83
ATOM     83  C   UNL A   1      42.934  29.231  33.698  1.00  0.00     0.023 A 
ATOM     84  C   UNL A   1      42.030  28.149  33.659  1.00  0.00     0.012 A 
ATOM     85  C   UNL A   1      43.662  29.477  34.873  1.00  0.00     0.148 A 
ATOM     86  C   UNL A   1      41.862  27.321  34.771  1.00  0.00     0.002 A 
ATOM     87  C   UNL A   1      43.523  28.626  35.963  1.00  0.00     0.091 A 
ATOM     88  F   UNL A   1      44.528  30.502  34.876  1.00  0.00    -0.205 F 
ATOM     89  C   UNL A   1      42.621  27.549  35.917  1.00  0.00     0.022 A 
BRANCH  87  90
ATOM     90  S   UNL A   1      44.564  28.772  37.417  1.00  0.00     0.127 S 
ATOM     91  O   UNL A   1      44.082  30.016  38.013  1.00  0.00    -0.237 OA
ATOM     92  O   UNL A   1      44.222  27.562  38.165  1.00  0.00    -0.237 OA
ATOM     93  O   UNL A   1      45.939  28.808  36.932  1.00  0.00    -0.744 OA
ENDBRANCH  87  90
ENDBRANCH  60  83
ENDBRANCH  34  35
ENDBRANCH  27  29
ENDBRANCH  26  27
ENDBRANCH  25  26
ENDBRANCH   1  25
TORSDOF 18
ENDMDL
MODEL 3
REMARK VINA RESULT:     -11.6      1.684      2.061
REMARK SMILES Cn1ncc2c(NCCC3=CCCCC3)c(C(=O)OCCOC(=O)c3ccc(-c4c5nc(c(-c6cccc(S(=O)(=O)[O-])c6F)c6ccc([nH]6)c(-c6cccc(S(=O)(=O)[O-])c6F)c6nc(c(-c7cccc(S(=O)(=O)[O-])c7F)c7ccc4[nH]7)C=C6)C=C5)cc3)cnc21
REMARK SMILES IDX 20 1 19 2 17 3 18 4 16 5 1 6 2 7 3 8 90 9 4 10 5 11 89 12
REMARK SMILES IDX 6 13 88 14 7 15 8 17 9 18 10 19 11 20 15 21 12 22 14 23
REMARK SMILES IDX 13 24 21 25 22 26 23 27 24 28 25 29 26 30 87 31 27 32 86 33
REMARK SMILES IDX 28 34 29 35 30 36 80 37 31 38 85 39 79 40 81 41 32 42 84 43
REMARK SMILES IDX 78 44 77 45 33 47 65 48 45 49 64 50 46 51 49 52 63 53 82 54
REMARK SMILES IDX 47 55 48 56 62 58 83 59 50 60 34 61 35 62 43 63 36 64 38 65
REMARK SMILES IDX 44 66 37 67 39 68 40 69 41 70 42 71 66 72 67 73 75 74 68 75
REMARK SMILES IDX 70 76 76 77 69 78 71 79 72 80 73 81 74 82 51 83 52 84 60 85
REMARK SMILES IDX 53 86 55 87 61 88 54 89 56 90 57 91 58 92 59 93
REMARK H PARENT 7 16 81 46 49 57
REMARK Flexibility Score: inf
ROOT
ATOM      1  C   UNL A   1      33.344  28.653  27.274  1.00  0.00     0.275 C 
ENDROOT
BRANCH   1   2
ATOM      2  O   UNL A   1      32.522  28.125  26.214  1.00  0.00    -0.458 OA
BRANCH   2   3
ATOM      3  C   UNL A   1      33.182  27.602  25.142  1.00  0.00     0.341 C 
ATOM      4  O   UNL A   1      33.695  28.266  24.250  1.00  0.00    -0.246 OA
BRANCH   3   5
ATOM      5  C   UNL A   1      33.271  26.112  25.222  1.00  0.00     0.102 A 
ATOM      6  C   UNL A   1      34.690  21.232  25.977  1.00  0.00     0.176 C 
ATOM      7  N   UNL A   1      33.595  22.101  25.630  1.00  0.00    -0.250 N 
ATOM      8  N   UNL A   1      32.361  21.592  25.466  1.00  0.00    -0.179 NA
ATOM      9  C   UNL A   1      33.659  23.461  25.480  1.00  0.00     0.159 A 
ATOM     10  C   UNL A   1      31.627  22.677  25.195  1.00  0.00     0.147 A 
ATOM     11  C   UNL A   1      32.359  23.895  25.230  1.00  0.00     0.063 A 
ATOM     12  N   UNL A   1      34.774  24.207  25.578  1.00  0.00    -0.236 NA
ATOM     13  C   UNL A   1      32.108  25.290  25.105  1.00  0.00     0.063 A 
ATOM     14  C   UNL A   1      34.525  25.527  25.412  1.00  0.00     0.131 A 
BRANCH  13  15
ATOM     15  N   UNL A   1      30.856  25.867  24.922  1.00  0.00    -0.383 N 
ATOM     16  H   UNL A   1      30.507  26.389  25.679  1.00  0.00     0.160 HD
BRANCH  15  17
ATOM     17  C   UNL A   1      29.998  25.794  23.752  1.00  0.00     0.117 C 
BRANCH  17  18
ATOM     18  C   UNL A   1      28.827  26.782  23.869  1.00  0.00     0.052 C 
BRANCH  18  19
ATOM     19  C   UNL A   1      28.929  28.101  23.135  1.00  0.00    -0.072 C 
ATOM     20  C   UNL A   1      30.065  28.568  22.583  1.00  0.00    -0.028 C 
ATOM     21  C   UNL A   1      27.633  28.874  23.049  1.00  0.00     0.031 C 
ATOM     22  C   UNL A   1      30.166  29.890  21.877  1.00  0.00     0.027 C 
ATOM     23  C   UNL A   1      27.660  30.023  22.042  1.00  0.00     0.005 C 
ATOM     24  C   UNL A   1      28.967  30.802  22.137  1.00  0.00     0.004 C 
ENDBRANCH  18  19
ENDBRANCH  17  18
ENDBRANCH  15  17
ENDBRANCH  13  15
ENDBRANCH   3   5
ENDBRANCH   2   3
ENDBRANCH   1   2
BRANCH   1  25
ATOM     25  C   UNL A   1      33.410  30.178  27.245  1.00  0.00     0.275 C 
BRANCH  25  26
ATOM     26  O   UNL A   1      34.754  30.650  27.315  1.00  0.00    -0.458 OA
BRANCH  26  27
ATOM     27  C   UNL A   1      35.023  31.378  28.423  1.00  0.00     0.338 C 
ATOM     28  O   UNL A   1      34.461  32.400  28.785  1.00  0.00    -0.246 OA
BRANCH  27  29
ATOM     29  C   UNL A   1      36.225  30.862  29.074  1.00  0.00     0.060 A 
ATOM     30  C   UNL A   1      37.395  31.616  28.933  1.00  0.00     0.016 A 
ATOM     31  C   UNL A   1      36.239  29.543  29.551  1.00  0.00     0.016 A 
ATOM     32  C   UNL A   1      38.605  30.990  29.125  1.00  0.00     0.010 A 
ATOM     33  C   UNL A   1      37.448  28.915  29.725  1.00  0.00     0.010 A 
ATOM     34  C   UNL A   1      38.611  29.629  29.448  1.00  0.00    -0.014 A 
BRANCH  34  35
ATOM     35  C   UNL A   1      39.889  28.964  29.517  1.00  0.00     0.031 A 
ATOM     36  C   UNL A   1      40.431  28.827  30.886  1.00  0.00     0.074 A 
ATOM     37  C   UNL A   1      40.470  28.442  28.422  1.00  0.00     0.049 A 
ATOM     38  N   UNL A   1      41.477  29.403  31.378  1.00  0.00    -0.248 NA
ATOM     39  C   UNL A   1      39.636  28.072  31.865  1.00  0.00     0.031 C 
ATOM     40  C   UNL A   1      39.897  28.262  27.087  1.00  0.00     0.029 A 
ATOM     41  N   UNL A   1      41.676  27.826  28.330  1.00  0.00    -0.354 N 
ATOM     42  C   UNL A   1      41.588  28.918  32.676  1.00  0.00     0.074 A 
ATOM     43  C   UNL A   1      40.350  28.247  32.977  1.00  0.00     0.031 C 
ATOM     44  C   UNL A   1      40.652  27.370  26.404  1.00  0.00     0.029 A 
ATOM     45  C   UNL A   1      41.807  27.015  27.210  1.00  0.00     0.049 A 
ATOM     46  H   UNL A   1      42.391  27.943  28.996  1.00  0.00     0.167 HD
ATOM     47  C   UNL A   1      42.775  28.899  33.338  1.00  0.00     0.034 A 
ATOM     48  C   UNL A   1      42.749  26.054  27.043  1.00  0.00     0.034 A 
ATOM     49  C   UNL A   1      43.770  29.712  32.701  1.00  0.00     0.049 A 
ATOM     50  C   UNL A   1      43.858  26.375  27.979  1.00  0.00     0.074 A 
ATOM     51  C   UNL A   1      43.879  31.054  32.394  1.00  0.00     0.029 A 
ATOM     52  N   UNL A   1      44.704  29.064  31.931  1.00  0.00    -0.354 N 
ATOM     53  N   UNL A   1      44.618  27.430  27.864  1.00  0.00    -0.248 NA
ATOM     54  C   UNL A   1      43.854  25.749  29.293  1.00  0.00     0.031 C 
ATOM     55  C   UNL A   1      44.528  31.085  31.128  1.00  0.00     0.029 A 
ATOM     56  C   UNL A   1      44.811  29.766  30.761  1.00  0.00     0.049 A 
ATOM     57  H   UNL A   1      45.202  28.249  32.173  1.00  0.00     0.167 HD
ATOM     58  C   UNL A   1      44.841  27.846  29.171  1.00  0.00     0.074 A 
ATOM     59  C   UNL A   1      44.441  26.715  30.006  1.00  0.00     0.031 C 
ATOM     60  C   UNL A   1      45.049  29.161  29.470  1.00  0.00     0.034 A 
BRANCH  47  61
ATOM     61  C   UNL A   1      43.141  27.877  34.371  1.00  0.00     0.023 A 
ATOM     62  C   UNL A   1      43.391  28.320  35.686  1.00  0.00     0.012 A 
ATOM     63  C   UNL A   1      43.507  26.551  34.050  1.00  0.00     0.148 A 
ATOM     64  C   UNL A   1      43.991  27.484  36.632  1.00  0.00     0.002 A 
ATOM     65  C   UNL A   1      44.028  25.701  35.013  1.00  0.00     0.091 A 
ATOM     66  F   UNL A   1      43.485  26.146  32.774  1.00  0.00    -0.205 F 
ATOM     67  C   UNL A   1      44.295  26.169  36.301  1.00  0.00     0.022 A 
BRANCH  65  68
ATOM     68  S   UNL A   1      44.391  23.984  34.636  1.00  0.00     0.127 S 
ATOM     69  O   UNL A   1      43.095  23.505  34.167  1.00  0.00    -0.237 OA
ATOM     70  O   UNL A   1      45.418  24.112  33.601  1.00  0.00    -0.237 OA
ATOM     71  O   UNL A   1      44.878  23.414  35.886  1.00  0.00    -0.744 OA
ENDBRANCH  65  68
ENDBRANCH  47  61
BRANCH  48  72
ATOM     72  C   UNL A   1      42.656  24.745  26.346  1.00  0.00     0.023 A 
ATOM     73  C   UNL A   1      43.696  24.361  25.474  1.00  0.00     0.012 A 
ATOM     74  C   UNL A   1      41.715  23.759  26.722  1.00  0.00     0.148 A 
ATOM     75  C   UNL A   1      43.823  23.037  25.033  1.00  0.00     0.002 A 
ATOM     76  C   UNL A   1      41.835  22.448  26.265  1.00  0.00     0.091 A 
ATOM     77  F   UNL A   1      40.759  24.069  27.605  1.00  0.00    -0.205 F 
ATOM     78  C   UNL A   1      42.898  22.079  25.434  1.00  0.00     0.022 A 
BRANCH  76  79
ATOM     79  S   UNL A   1      40.669  21.167  26.754  1.00  0.00     0.127 S 
ATOM     80  O   UNL A   1      40.696  21.264  28.214  1.00  0.00    -0.237 OA
ATOM     81  O   UNL A   1      39.432  21.628  26.132  1.00  0.00    -0.237 OA
ATOM     82  O   UNL A   1      41.217  19.920  26.233  1.00  0.00    -0.744 OA
ENDBRANCH  76  79
ENDBRANCH  48  72
BRANCH  60  83
ATOM     83  C   UNL A   1      45.243  30.130  28.335  1.00  0.00     0.023 A 
ATOM     84  C   UNL A   1      44.151  30.815  27.761  1.00  0.00     0.012 A 
ATOM     85  C   UNL A   1      46.549  30.546  28.036  1.00  0.00     0.148 A 
ATOM     86  C   UNL A   1      44.360  31.902  26.909  1.00  0.00     0.002 A 
ATOM     87  C   UNL A   1      46.753  31.654  27.222  1.00  0.00     0.091 A 
ATOM     88  F   UNL A   1      47.568  29.889  28.610  1.00  0.00    -0.205 F 
ATOM     89  C   UNL A   1      45.661  32.332  26.654  1.00  0.00     0.022 A 
BRANCH  87  90
ATOM     90  S   UNL A   1      48.385  32.350  26.960  1.00  0.00     0.127 S 
ATOM     91  O   UNL A   1      48.741  32.807  28.302  1.00  0.00    -0.237 OA
ATOM     92  O   UNL A   1      49.144  31.190  26.488  1.00  0.00    -0.237 OA
ATOM     93  O   UNL A   1      48.225  33.405  25.967  1.00  0.00    -0.744 OA
ENDBRANCH  87  90
ENDBRANCH  60  83
ENDBRANCH  34  35
ENDBRANCH  27  29
ENDBRANCH  26  27
ENDBRANCH  25  26
ENDBRANCH   1  25
TORSDOF 18
ENDMDL
