MODEL 1
REMARK VINA RESULT:     -13.1      0.000      0.000
REMARK SMILES Cc1ccc2c(CC(=O)N3CCC(C(=O)OCCOC(=O)c4ccc(-c5c6nc(c(-c7cccc(S(=O)(=O)[O-])c7F)c7ccc([nH]7)c(-c7cccc(S(=O)(=O)[O-])c7F)c7nc(c(-c8cccc(S(=O)(=O)[O-])c8F)c8ccc5[nH]8)C=C7)C=C6)cc4)CC3)coc2c1
REMARK SMILES IDX 18 1 17 2 16 3 14 4 15 5 13 6 8 7 9 8 10 9 11 10 86 11 12 12
REMARK SMILES IDX 85 13 7 14 6 15 1 16 2 17 3 18 90 19 4 20 89 21 5 22 88 23
REMARK SMILES IDX 87 24 19 25 20 26 21 27 22 28 23 29 84 30 24 31 83 32 25 33
REMARK SMILES IDX 26 34 27 35 77 36 28 37 82 38 76 39 78 40 29 41 81 42 75 43
REMARK SMILES IDX 74 44 30 46 62 47 42 48 61 49 43 50 46 51 60 52 79 53 44 54
REMARK SMILES IDX 45 55 59 57 80 58 47 59 31 60 32 61 40 62 33 63 35 64 41 65
REMARK SMILES IDX 34 66 36 67 37 68 38 69 39 70 63 71 64 72 72 73 65 74 67 75
REMARK SMILES IDX 73 76 66 77 68 78 69 79 70 80 71 81 48 82 49 83 57 84 50 85
REMARK SMILES IDX 52 86 58 87 51 88 53 89 54 90 55 91 56 92
REMARK H PARENT 78 45 46 56
REMARK Flexibility Score: inf
ROOT
ATOM      1  C   UNL A   1      35.528  21.175  25.306  1.00  0.00     0.275 C 
ENDROOT
BRANCH   1   2
ATOM      2  C   UNL A   1      34.946  19.828  24.868  1.00  0.00     0.274 C 
BRANCH   2   3
ATOM      3  O   UNL A   1      33.828  20.072  23.994  1.00  0.00    -0.462 OA
BRANCH   3   4
ATOM      4  C   UNL A   1      32.588  19.928  24.535  1.00  0.00     0.309 C 
ATOM      5  O   UNL A   1      32.168  18.903  25.055  1.00  0.00    -0.252 OA
BRANCH   4   6
ATOM      6  C   UNL A   1      31.837  21.241  24.559  1.00  0.00     0.103 C 
ATOM      7  C   UNL A   1      32.251  25.025  25.253  1.00  0.00     0.227 C 
ATOM      8  O   UNL A   1      32.630  25.089  26.429  1.00  0.00    -0.275 OA
ATOM      9  N   UNL A   1      31.377  24.025  24.840  1.00  0.00    -0.342 N 
ATOM     10  C   UNL A   1      30.798  23.148  25.845  1.00  0.00     0.120 C 
ATOM     11  C   UNL A   1      31.371  23.438  23.503  1.00  0.00     0.120 C 
ATOM     12  C   UNL A   1      31.629  21.870  25.948  1.00  0.00     0.037 C 
ATOM     13  C   UNL A   1      32.337  22.248  23.523  1.00  0.00     0.037 C 
BRANCH   7  14
ATOM     14  C   UNL A   1      32.642  26.135  24.289  1.00  0.00     0.139 C 
BRANCH  14  15
ATOM     15  C   UNL A   1      32.168  27.505  24.622  1.00  0.00     0.008 A 
ATOM     16  C   UNL A   1      33.943  31.782  27.933  1.00  0.00     0.044 C 
ATOM     17  C   UNL A   1      33.525  30.624  27.079  1.00  0.00    -0.047 A 
ATOM     18  C   UNL A   1      34.339  29.486  27.028  1.00  0.00     0.004 A 
ATOM     19  C   UNL A   1      32.335  30.668  26.342  1.00  0.00     0.051 A 
ATOM     20  C   UNL A   1      34.009  28.370  26.258  1.00  0.00     0.012 A 
ATOM     21  C   UNL A   1      32.040  29.552  25.561  1.00  0.00     0.134 A 
ATOM     22  C   UNL A   1      32.838  28.420  25.489  1.00  0.00     0.024 A 
ATOM     23  O   UNL A   1      30.944  29.397  24.767  1.00  0.00    -0.464 OA
ATOM     24  C   UNL A   1      31.035  28.168  24.194  1.00  0.00     0.200 A 
ENDBRANCH  14  15
ENDBRANCH   7  14
ENDBRANCH   4   6
ENDBRANCH   3   4
ENDBRANCH   2   3
ENDBRANCH   1   2
BRANCH   1  25
ATOM     25  O   UNL A   1      36.734  21.418  24.562  1.00  0.00    -0.458 OA
BRANCH  25  26
ATOM     26  C   UNL A   1      37.854  20.789  24.992  1.00  0.00     0.338 C 
ATOM     27  O   UNL A   1      38.362  19.785  24.506  1.00  0.00    -0.246 OA
BRANCH  26  28
ATOM     28  C   UNL A   1      38.540  21.693  25.943  1.00  0.00     0.060 A 
ATOM     29  C   UNL A   1      38.176  23.039  26.073  1.00  0.00     0.016 A 
ATOM     30  C   UNL A   1      39.706  21.219  26.552  1.00  0.00     0.016 A 
ATOM     31  C   UNL A   1      39.052  23.931  26.694  1.00  0.00     0.010 A 
ATOM     32  C   UNL A   1      40.595  22.121  27.137  1.00  0.00     0.010 A 
ATOM     33  C   UNL A   1      40.297  23.488  27.163  1.00  0.00    -0.014 A 
BRANCH  33  34
ATOM     34  C   UNL A   1      41.120  24.360  28.001  1.00  0.00     0.031 A 
ATOM     35  C   UNL A   1      40.467  25.662  28.217  1.00  0.00     0.074 A 
ATOM     36  C   UNL A   1      42.322  24.173  28.586  1.00  0.00     0.049 A 
ATOM     37  N   UNL A   1      40.716  26.723  27.524  1.00  0.00    -0.248 NA
ATOM     38  C   UNL A   1      39.346  25.775  29.150  1.00  0.00     0.031 C 
ATOM     39  C   UNL A   1      43.232  23.035  28.509  1.00  0.00     0.029 A 
ATOM     40  N   UNL A   1      42.988  25.037  29.423  1.00  0.00    -0.354 N 
ATOM     41  C   UNL A   1      39.958  27.718  28.106  1.00  0.00     0.074 A 
ATOM     42  C   UNL A   1      39.011  27.055  28.972  1.00  0.00     0.031 C 
ATOM     43  C   UNL A   1      44.263  23.215  29.373  1.00  0.00     0.029 A 
ATOM     44  C   UNL A   1      44.123  24.512  30.024  1.00  0.00     0.049 A 
ATOM     45  H   UNL A   1      42.682  25.958  29.584  1.00  0.00     0.167 HD
ATOM     46  C   UNL A   1      40.334  29.019  28.021  1.00  0.00     0.034 A 
ATOM     47  C   UNL A   1      45.090  25.176  30.712  1.00  0.00     0.034 A 
ATOM     48  C   UNL A   1      41.333  29.252  27.007  1.00  0.00     0.049 A 
ATOM     49  C   UNL A   1      45.157  26.533  30.141  1.00  0.00     0.074 A 
ATOM     50  C   UNL A   1      41.439  29.002  25.651  1.00  0.00     0.029 A 
ATOM     51  N   UNL A   1      42.613  29.516  27.427  1.00  0.00    -0.354 N 
ATOM     52  N   UNL A   1      45.624  26.800  28.955  1.00  0.00    -0.248 NA
ATOM     53  C   UNL A   1      44.378  27.577  30.776  1.00  0.00     0.031 C 
ATOM     54  C   UNL A   1      42.808  28.654  25.439  1.00  0.00     0.029 A 
ATOM     55  C   UNL A   1      43.452  28.738  26.672  1.00  0.00     0.049 A 
ATOM     56  H   UNL A   1      42.879  30.146  28.136  1.00  0.00     0.167 HD
ATOM     57  C   UNL A   1      44.845  27.859  28.519  1.00  0.00     0.074 A 
ATOM     58  C   UNL A   1      44.158  28.346  29.711  1.00  0.00     0.031 C 
ATOM     59  C   UNL A   1      44.632  28.086  27.193  1.00  0.00     0.034 A 
BRANCH  46  60
ATOM     60  C   UNL A   1      40.041  30.013  29.102  1.00  0.00     0.023 A 
ATOM     61  C   UNL A   1      40.918  30.073  30.202  1.00  0.00     0.012 A 
ATOM     62  C   UNL A   1      38.819  30.717  29.199  1.00  0.00     0.148 A 
ATOM     63  C   UNL A   1      40.593  30.806  31.346  1.00  0.00     0.002 A 
ATOM     64  C   UNL A   1      38.542  31.515  30.298  1.00  0.00     0.091 A 
ATOM     65  F   UNL A   1      37.859  30.512  28.289  1.00  0.00    -0.205 F 
ATOM     66  C   UNL A   1      39.415  31.546  31.387  1.00  0.00     0.022 A 
BRANCH  64  67
ATOM     67  S   UNL A   1      37.061  32.527  30.367  1.00  0.00     0.127 S 
ATOM     68  O   UNL A   1      36.030  31.518  30.579  1.00  0.00    -0.237 OA
ATOM     69  O   UNL A   1      37.340  33.386  31.520  1.00  0.00    -0.237 OA
ATOM     70  O   UNL A   1      37.024  33.235  29.094  1.00  0.00    -0.744 OA
ENDBRANCH  64  67
ENDBRANCH  46  60
BRANCH  47  71
ATOM     71  C   UNL A   1      45.601  24.916  32.084  1.00  0.00     0.023 A 
ATOM     72  C   UNL A   1      46.803  25.531  32.503  1.00  0.00     0.012 A 
ATOM     73  C   UNL A   1      44.881  24.164  33.033  1.00  0.00     0.148 A 
ATOM     74  C   UNL A   1      47.294  25.363  33.804  1.00  0.00     0.002 A 
ATOM     75  C   UNL A   1      45.401  23.953  34.312  1.00  0.00     0.091 A 
ATOM     76  F   UNL A   1      43.696  23.651  32.676  1.00  0.00    -0.205 F 
ATOM     77  C   UNL A   1      46.603  24.558  34.703  1.00  0.00     0.022 A 
BRANCH  75  78
ATOM     78  S   UNL A   1      44.678  22.770  35.464  1.00  0.00     0.127 S 
ATOM     79  O   UNL A   1      45.531  22.945  36.641  1.00  0.00    -0.237 OA
ATOM     80  O   UNL A   1      43.316  23.269  35.614  1.00  0.00    -0.237 OA
ATOM     81  O   UNL A   1      44.815  21.467  34.825  1.00  0.00    -0.744 OA
ENDBRANCH  75  78
ENDBRANCH  47  71
BRANCH  59  82
ATOM     82  C   UNL A   1      45.518  27.397  26.193  1.00  0.00     0.023 A 
ATOM     83  C   UNL A   1      46.715  27.971  25.721  1.00  0.00     0.012 A 
ATOM     84  C   UNL A   1      45.223  26.062  25.867  1.00  0.00     0.148 A 
ATOM     85  C   UNL A   1      47.605  27.222  24.943  1.00  0.00     0.002 A 
ATOM     86  C   UNL A   1      46.125  25.309  25.126  1.00  0.00     0.091 A 
ATOM     87  F   UNL A   1      44.075  25.541  26.328  1.00  0.00    -0.205 F 
ATOM     88  C   UNL A   1      47.317  25.887  24.660  1.00  0.00     0.022 A 
BRANCH  86  89
ATOM     89  S   UNL A   1      45.873  23.559  24.815  1.00  0.00     0.127 S 
ATOM     90  O   UNL A   1      46.835  23.295  23.747  1.00  0.00    -0.237 OA
ATOM     91  O   UNL A   1      46.215  22.965  26.108  1.00  0.00    -0.237 OA
ATOM     92  O   UNL A   1      44.474  23.410  24.434  1.00  0.00    -0.744 OA
ENDBRANCH  86  89
ENDBRANCH  59  82
ENDBRANCH  33  34
ENDBRANCH  26  28
ENDBRANCH  25  26
ENDBRANCH   1  25
TORSDOF 16
ENDMDL
MODEL 2
REMARK VINA RESULT:     -13.0      3.570     10.350
REMARK SMILES Cc1ccc2c(CC(=O)N3CCC(C(=O)OCCOC(=O)c4ccc(-c5c6nc(c(-c7cccc(S(=O)(=O)[O-])c7F)c7ccc([nH]7)c(-c7cccc(S(=O)(=O)[O-])c7F)c7nc(c(-c8cccc(S(=O)(=O)[O-])c8F)c8ccc5[nH]8)C=C7)C=C6)cc4)CC3)coc2c1
REMARK SMILES IDX 18 1 17 2 16 3 14 4 15 5 13 6 8 7 9 8 10 9 11 10 86 11 12 12
REMARK SMILES IDX 85 13 7 14 6 15 1 16 2 17 3 18 90 19 4 20 89 21 5 22 88 23
REMARK SMILES IDX 87 24 19 25 20 26 21 27 22 28 23 29 84 30 24 31 83 32 25 33
REMARK SMILES IDX 26 34 27 35 77 36 28 37 82 38 76 39 78 40 29 41 81 42 75 43
REMARK SMILES IDX 74 44 30 46 62 47 42 48 61 49 43 50 46 51 60 52 79 53 44 54
REMARK SMILES IDX 45 55 59 57 80 58 47 59 31 60 32 61 40 62 33 63 35 64 41 65
REMARK SMILES IDX 34 66 36 67 37 68 38 69 39 70 63 71 64 72 72 73 65 74 67 75
REMARK SMILES IDX 73 76 66 77 68 78 69 79 70 80 71 81 48 82 49 83 57 84 50 85
REMARK SMILES IDX 52 86 58 87 51 88 53 89 54 90 55 91 56 92
REMARK H PARENT 78 45 46 56
REMARK Flexibility Score: inf
ROOT
ATOM      1  C   UNL A   1      31.960  29.642  25.091  1.00  0.00     0.275 C 
ENDROOT
BRANCH   1   2
ATOM      2  C   UNL A   1      30.646  29.795  24.319  1.00  0.00     0.274 C 
BRANCH   2   3
ATOM      3  O   UNL A   1      30.169  28.486  23.957  1.00  0.00    -0.462 OA
BRANCH   3   4
ATOM      4  C   UNL A   1      30.298  28.130  22.651  1.00  0.00     0.309 C 
ATOM      5  O   UNL A   1      29.988  28.837  21.701  1.00  0.00    -0.252 OA
BRANCH   4   6
ATOM      6  C   UNL A   1      31.018  26.808  22.504  1.00  0.00     0.103 C 
ATOM      7  C   UNL A   1      33.498  24.426  24.278  1.00  0.00     0.227 C 
ATOM      8  O   UNL A   1      34.525  25.098  24.431  1.00  0.00    -0.275 OA
ATOM      9  N   UNL A   1      32.684  24.610  23.165  1.00  0.00    -0.342 N 
ATOM     10  C   UNL A   1      33.141  25.500  22.109  1.00  0.00     0.120 C 
ATOM     11  C   UNL A   1      31.236  24.425  23.164  1.00  0.00     0.120 C 
ATOM     12  C   UNL A   1      32.544  26.891  22.320  1.00  0.00     0.037 C 
ATOM     13  C   UNL A   1      30.605  25.769  23.547  1.00  0.00     0.037 C 
BRANCH   7  14
ATOM     14  C   UNL A   1      33.204  23.294  25.252  1.00  0.00     0.139 C 
BRANCH  14  15
ATOM     15  C   UNL A   1      34.102  22.110  25.190  1.00  0.00     0.008 A 
ATOM     16  C   UNL A   1      33.642  16.678  23.550  1.00  0.00     0.044 C 
ATOM     17  C   UNL A   1      33.704  18.117  23.966  1.00  0.00    -0.047 A 
ATOM     18  C   UNL A   1      32.573  18.924  23.798  1.00  0.00     0.004 A 
ATOM     19  C   UNL A   1      34.873  18.654  24.520  1.00  0.00     0.051 A 
ATOM     20  C   UNL A   1      32.559  20.270  24.168  1.00  0.00     0.012 A 
ATOM     21  C   UNL A   1      34.843  20.005  24.857  1.00  0.00     0.134 A 
ATOM     22  C   UNL A   1      33.735  20.825  24.690  1.00  0.00     0.024 A 
ATOM     23  O   UNL A   1      35.870  20.720  25.397  1.00  0.00    -0.464 OA
ATOM     24  C   UNL A   1      35.420  21.990  25.582  1.00  0.00     0.200 A 
ENDBRANCH  14  15
ENDBRANCH   7  14
ENDBRANCH   4   6
ENDBRANCH   3   4
ENDBRANCH   2   3
ENDBRANCH   1   2
BRANCH   1  25
ATOM     25  O   UNL A   1      31.720  29.961  26.473  1.00  0.00    -0.458 OA
BRANCH  25  26
ATOM     26  C   UNL A   1      32.017  31.221  26.870  1.00  0.00     0.338 C 
ATOM     27  O   UNL A   1      31.218  32.099  27.180  1.00  0.00    -0.246 OA
BRANCH  26  28
ATOM     28  C   UNL A   1      33.465  31.267  27.173  1.00  0.00     0.060 A 
ATOM     29  C   UNL A   1      34.230  30.101  27.294  1.00  0.00     0.016 A 
ATOM     30  C   UNL A   1      34.003  32.503  27.549  1.00  0.00     0.016 A 
ATOM     31  C   UNL A   1      35.476  30.159  27.920  1.00  0.00     0.010 A 
ATOM     32  C   UNL A   1      35.231  32.548  28.209  1.00  0.00     0.010 A 
ATOM     33  C   UNL A   1      35.949  31.370  28.445  1.00  0.00    -0.014 A 
BRANCH  33  34
ATOM     34  C   UNL A   1      37.333  31.484  28.904  1.00  0.00     0.031 A 
ATOM     35  C   UNL A   1      38.066  30.221  28.701  1.00  0.00     0.074 A 
ATOM     36  C   UNL A   1      38.019  32.509  29.452  1.00  0.00     0.049 A 
ATOM     37  N   UNL A   1      38.233  29.325  29.616  1.00  0.00    -0.248 NA
ATOM     38  C   UNL A   1      38.510  29.838  27.362  1.00  0.00     0.031 C 
ATOM     39  C   UNL A   1      37.563  33.842  29.829  1.00  0.00     0.029 A 
ATOM     40  N   UNL A   1      39.352  32.538  29.787  1.00  0.00    -0.354 N 
ATOM     41  C   UNL A   1      39.032  28.363  29.033  1.00  0.00     0.074 A 
ATOM     42  C   UNL A   1      39.024  28.632  27.613  1.00  0.00     0.031 C 
ATOM     43  C   UNL A   1      38.624  34.597  30.211  1.00  0.00     0.029 A 
ATOM     44  C   UNL A   1      39.833  33.783  30.165  1.00  0.00     0.049 A 
ATOM     45  H   UNL A   1      39.922  31.737  29.760  1.00  0.00     0.167 HD
ATOM     46  C   UNL A   1      39.837  27.576  29.789  1.00  0.00     0.034 A 
ATOM     47  C   UNL A   1      41.024  34.079  30.750  1.00  0.00     0.034 A 
ATOM     48  C   UNL A   1      39.498  27.604  31.191  1.00  0.00     0.049 A 
ATOM     49  C   UNL A   1      41.403  32.902  31.552  1.00  0.00     0.074 A 
ATOM     50  C   UNL A   1      38.356  27.367  31.934  1.00  0.00     0.029 A 
ATOM     51  N   UNL A   1      40.344  28.279  32.036  1.00  0.00    -0.354 N 
ATOM     52  N   UNL A   1      40.798  32.545  32.648  1.00  0.00    -0.248 NA
ATOM     53  C   UNL A   1      42.266  31.912  30.940  1.00  0.00     0.031 C 
ATOM     54  C   UNL A   1      38.393  28.322  32.995  1.00  0.00     0.029 A 
ATOM     55  C   UNL A   1      39.564  29.062  32.845  1.00  0.00     0.049 A 
ATOM     56  H   UNL A   1      41.327  28.213  32.056  1.00  0.00     0.167 HD
ATOM     57  C   UNL A   1      40.858  31.161  32.626  1.00  0.00     0.074 A 
ATOM     58  C   UNL A   1      41.844  30.835  31.601  1.00  0.00     0.031 C 
ATOM     59  C   UNL A   1      39.924  30.399  33.260  1.00  0.00     0.034 A 
BRANCH  46  60
ATOM     60  C   UNL A   1      41.151  27.055  29.292  1.00  0.00     0.023 A 
ATOM     61  C   UNL A   1      42.242  27.943  29.253  1.00  0.00     0.012 A 
ATOM     62  C   UNL A   1      41.296  25.808  28.643  1.00  0.00     0.148 A 
ATOM     63  C   UNL A   1      43.428  27.601  28.598  1.00  0.00     0.002 A 
ATOM     64  C   UNL A   1      42.505  25.439  28.073  1.00  0.00     0.091 A 
ATOM     65  F   UNL A   1      40.225  25.027  28.454  1.00  0.00    -0.205 F 
ATOM     66  C   UNL A   1      43.569  26.340  28.027  1.00  0.00     0.022 A 
BRANCH  64  67
ATOM     67  S   UNL A   1      42.745  23.803  27.375  1.00  0.00     0.127 S 
ATOM     68  O   UNL A   1      44.129  23.881  26.922  1.00  0.00    -0.237 OA
ATOM     69  O   UNL A   1      42.517  22.944  28.538  1.00  0.00    -0.237 OA
ATOM     70  O   UNL A   1      41.730  23.678  26.336  1.00  0.00    -0.744 OA
ENDBRANCH  64  67
ENDBRANCH  46  60
BRANCH  47  71
ATOM     71  C   UNL A   1      42.062  35.050  30.310  1.00  0.00     0.023 A 
ATOM     72  C   UNL A   1      43.109  35.392  31.195  1.00  0.00     0.012 A 
ATOM     73  C   UNL A   1      42.110  35.569  29.002  1.00  0.00     0.148 A 
ATOM     74  C   UNL A   1      44.141  36.257  30.806  1.00  0.00     0.002 A 
ATOM     75  C   UNL A   1      43.108  36.474  28.634  1.00  0.00     0.091 A 
ATOM     76  F   UNL A   1      41.174  35.182  28.125  1.00  0.00    -0.205 F 
ATOM     77  C   UNL A   1      44.130  36.813  29.532  1.00  0.00     0.022 A 
BRANCH  75  78
ATOM     78  S   UNL A   1      43.057  37.390  27.083  1.00  0.00     0.127 S 
ATOM     79  O   UNL A   1      42.933  36.307  26.105  1.00  0.00    -0.237 OA
ATOM     80  O   UNL A   1      41.862  38.212  27.242  1.00  0.00    -0.237 OA
ATOM     81  O   UNL A   1      44.323  38.109  27.009  1.00  0.00    -0.744 OA
ENDBRANCH  75  78
ENDBRANCH  47  71
BRANCH  59  82
ATOM     82  C   UNL A   1      39.023  31.056  34.270  1.00  0.00     0.023 A 
ATOM     83  C   UNL A   1      39.327  31.091  35.646  1.00  0.00     0.012 A 
ATOM     84  C   UNL A   1      37.941  31.811  33.788  1.00  0.00     0.148 A 
ATOM     85  C   UNL A   1      38.568  31.873  36.521  1.00  0.00     0.002 A 
ATOM     86  C   UNL A   1      37.211  32.616  34.653  1.00  0.00     0.091 A 
ATOM     87  F   UNL A   1      37.672  31.758  32.474  1.00  0.00    -0.205 F 
ATOM     88  C   UNL A   1      37.520  32.647  36.023  1.00  0.00     0.022 A 
BRANCH  86  89
ATOM     89  S   UNL A   1      35.922  33.719  34.067  1.00  0.00     0.127 S 
ATOM     90  O   UNL A   1      35.144  32.845  33.191  1.00  0.00    -0.237 OA
ATOM     91  O   UNL A   1      35.249  34.093  35.311  1.00  0.00    -0.237 OA
ATOM     92  O   UNL A   1      36.601  34.819  33.394  1.00  0.00    -0.744 OA
ENDBRANCH  86  89
ENDBRANCH  59  82
ENDBRANCH  33  34
ENDBRANCH  26  28
ENDBRANCH  25  26
ENDBRANCH   1  25
TORSDOF 16
ENDMDL
MODEL 3
REMARK VINA RESULT:     -12.9      3.557     10.105
REMARK SMILES Cc1ccc2c(CC(=O)N3CCC(C(=O)OCCOC(=O)c4ccc(-c5c6nc(c(-c7cccc(S(=O)(=O)[O-])c7F)c7ccc([nH]7)c(-c7cccc(S(=O)(=O)[O-])c7F)c7nc(c(-c8cccc(S(=O)(=O)[O-])c8F)c8ccc5[nH]8)C=C7)C=C6)cc4)CC3)coc2c1
REMARK SMILES IDX 18 1 17 2 16 3 14 4 15 5 13 6 8 7 9 8 10 9 11 10 86 11 12 12
REMARK SMILES IDX 85 13 7 14 6 15 1 16 2 17 3 18 90 19 4 20 89 21 5 22 88 23
REMARK SMILES IDX 87 24 19 25 20 26 21 27 22 28 23 29 84 30 24 31 83 32 25 33
REMARK SMILES IDX 26 34 27 35 77 36 28 37 82 38 76 39 78 40 29 41 81 42 75 43
REMARK SMILES IDX 74 44 30 46 62 47 42 48 61 49 43 50 46 51 60 52 79 53 44 54
REMARK SMILES IDX 45 55 59 57 80 58 47 59 31 60 32 61 40 62 33 63 35 64 41 65
REMARK SMILES IDX 34 66 36 67 37 68 38 69 39 70 63 71 64 72 72 73 65 74 67 75
REMARK SMILES IDX 73 76 66 77 68 78 69 79 70 80 71 81 48 82 49 83 57 84 50 85
REMARK SMILES IDX 52 86 58 87 51 88 53 89 54 90 55 91 56 92
REMARK H PARENT 78 45 46 56
REMARK Flexibility Score: inf
ROOT
ATOM      1  C   UNL A   1      31.452  29.967  25.265  1.00  0.00     0.275 C 
ENDROOT
BRANCH   1   2
ATOM      2  C   UNL A   1      31.955  28.586  24.836  1.00  0.00     0.274 C 
BRANCH   2   3
ATOM      3  O   UNL A   1      30.891  27.633  25.011  1.00  0.00    -0.462 OA
BRANCH   3   4
ATOM      4  C   UNL A   1      31.027  26.746  26.033  1.00  0.00     0.309 C 
ATOM      5  O   UNL A   1      31.026  27.045  27.220  1.00  0.00    -0.252 OA
BRANCH   4   6
ATOM      6  C   UNL A   1      31.024  25.318  25.534  1.00  0.00     0.103 C 
ATOM      7  C   UNL A   1      33.070  22.760  23.476  1.00  0.00     0.227 C 
ATOM      8  O   UNL A   1      33.176  23.271  22.355  1.00  0.00    -0.275 OA
ATOM      9  N   UNL A   1      31.929  22.960  24.246  1.00  0.00    -0.342 N 
ATOM     10  C   UNL A   1      30.800  23.656  23.648  1.00  0.00     0.120 C 
ATOM     11  C   UNL A   1      31.918  23.010  25.705  1.00  0.00     0.120 C 
ATOM     12  C   UNL A   1      30.862  25.138  24.015  1.00  0.00     0.037 C 
ATOM     13  C   UNL A   1      32.155  24.468  26.113  1.00  0.00     0.037 C 
BRANCH   7  14
ATOM     14  C   UNL A   1      34.144  21.792  23.951  1.00  0.00     0.139 C 
BRANCH  14  15
ATOM     15  C   UNL A   1      35.359  22.393  24.564  1.00  0.00     0.008 A 
ATOM     16  C   UNL A   1      40.440  20.515  26.316  1.00  0.00     0.044 C 
ATOM     17  C   UNL A   1      39.089  20.952  25.838  1.00  0.00    -0.047 A 
ATOM     18  C   UNL A   1      38.235  20.009  25.254  1.00  0.00     0.004 A 
ATOM     19  C   UNL A   1      38.675  22.284  25.973  1.00  0.00     0.051 A 
ATOM     20  C   UNL A   1      36.962  20.345  24.792  1.00  0.00     0.012 A 
ATOM     21  C   UNL A   1      37.411  22.599  25.481  1.00  0.00     0.134 A 
ATOM     22  C   UNL A   1      36.554  21.682  24.890  1.00  0.00     0.024 A 
ATOM     23  O   UNL A   1      36.826  23.830  25.504  1.00  0.00    -0.464 OA
ATOM     24  C   UNL A   1      35.596  23.700  24.938  1.00  0.00     0.200 A 
ENDBRANCH  14  15
ENDBRANCH   7  14
ENDBRANCH   4   6
ENDBRANCH   3   4
ENDBRANCH   2   3
ENDBRANCH   1   2
BRANCH   1  25
ATOM     25  O   UNL A   1      31.909  30.228  26.603  1.00  0.00    -0.458 OA
BRANCH  25  26
ATOM     26  C   UNL A   1      32.132  31.522  26.931  1.00  0.00     0.338 C 
ATOM     27  O   UNL A   1      31.315  32.436  26.904  1.00  0.00    -0.246 OA
BRANCH  26  28
ATOM     28  C   UNL A   1      33.435  31.590  27.631  1.00  0.00     0.060 A 
ATOM     29  C   UNL A   1      33.967  32.804  28.082  1.00  0.00     0.016 A 
ATOM     30  C   UNL A   1      34.221  30.433  27.637  1.00  0.00     0.016 A 
ATOM     31  C   UNL A   1      35.323  32.883  28.405  1.00  0.00     0.010 A 
ATOM     32  C   UNL A   1      35.583  30.526  27.924  1.00  0.00     0.010 A 
ATOM     33  C   UNL A   1      36.151  31.761  28.256  1.00  0.00    -0.014 A 
BRANCH  33  34
ATOM     34  C   UNL A   1      37.511  31.774  28.794  1.00  0.00     0.031 A 
ATOM     35  C   UNL A   1      38.163  30.464  28.623  1.00  0.00     0.074 A 
ATOM     36  C   UNL A   1      38.235  32.745  29.390  1.00  0.00     0.049 A 
ATOM     37  N   UNL A   1      38.214  29.553  29.537  1.00  0.00    -0.248 NA
ATOM     38  C   UNL A   1      38.657  30.057  27.308  1.00  0.00     0.031 C 
ATOM     39  C   UNL A   1      37.853  34.106  29.753  1.00  0.00     0.029 A 
ATOM     40  N   UNL A   1      39.545  32.678  29.801  1.00  0.00    -0.354 N 
ATOM     41  C   UNL A   1      38.976  28.540  28.992  1.00  0.00     0.074 A 
ATOM     42  C   UNL A   1      39.068  28.816  27.577  1.00  0.00     0.031 C 
ATOM     43  C   UNL A   1      38.941  34.781  30.201  1.00  0.00     0.029 A 
ATOM     44  C   UNL A   1      40.090  33.884  30.218  1.00  0.00     0.049 A 
ATOM     45  H   UNL A   1      40.058  31.838  29.799  1.00  0.00     0.167 HD
ATOM     46  C   UNL A   1      39.678  27.694  29.787  1.00  0.00     0.034 A 
ATOM     47  C   UNL A   1      41.264  34.091  30.873  1.00  0.00     0.034 A 
ATOM     48  C   UNL A   1      39.261  27.739  31.166  1.00  0.00     0.049 A 
ATOM     49  C   UNL A   1      41.512  32.887  31.684  1.00  0.00     0.074 A 
ATOM     50  C   UNL A   1      38.064  27.581  31.841  1.00  0.00     0.029 A 
ATOM     51  N   UNL A   1      40.103  28.348  32.064  1.00  0.00    -0.354 N 
ATOM     52  N   UNL A   1      40.820  32.568  32.741  1.00  0.00    -0.248 NA
ATOM     53  C   UNL A   1      42.336  31.841  31.114  1.00  0.00     0.031 C 
ATOM     54  C   UNL A   1      38.107  28.525  32.911  1.00  0.00     0.029 A 
ATOM     55  C   UNL A   1      39.334  29.181  32.835  1.00  0.00     0.049 A 
ATOM     56  H   UNL A   1      41.076  28.212  32.141  1.00  0.00     0.167 HD
ATOM     57  C   UNL A   1      40.783  31.184  32.710  1.00  0.00     0.074 A 
ATOM     58  C   UNL A   1      41.801  30.793  31.740  1.00  0.00     0.031 C 
ATOM     59  C   UNL A   1      39.763  30.487  33.282  1.00  0.00     0.034 A 
BRANCH  46  60
ATOM     60  C   UNL A   1      40.978  27.084  29.361  1.00  0.00     0.023 A 
ATOM     61  C   UNL A   1      42.126  27.898  29.373  1.00  0.00     0.012 A 
ATOM     62  C   UNL A   1      41.074  25.824  28.727  1.00  0.00     0.148 A 
ATOM     63  C   UNL A   1      43.319  27.473  28.782  1.00  0.00     0.002 A 
ATOM     64  C   UNL A   1      42.283  25.371  28.222  1.00  0.00     0.091 A 
ATOM     65  F   UNL A   1      39.964  25.114  28.487  1.00  0.00    -0.205 F 
ATOM     66  C   UNL A   1      43.405  26.200  28.226  1.00  0.00     0.022 A 
BRANCH  64  67
ATOM     67  S   UNL A   1      42.450  23.717  27.546  1.00  0.00     0.127 S 
ATOM     68  O   UNL A   1      43.899  23.562  27.513  1.00  0.00    -0.237 OA
ATOM     69  O   UNL A   1      41.759  22.911  28.554  1.00  0.00    -0.237 OA
ATOM     70  O   UNL A   1      41.774  23.762  26.255  1.00  0.00    -0.744 OA
ENDBRANCH  64  67
ENDBRANCH  46  60
BRANCH  47  71
ATOM     71  C   UNL A   1      42.391  34.989  30.502  1.00  0.00     0.023 A 
ATOM     72  C   UNL A   1      43.277  35.439  31.506  1.00  0.00     0.012 A 
ATOM     73  C   UNL A   1      42.684  35.328  29.166  1.00  0.00     0.148 A 
ATOM     74  C   UNL A   1      44.386  36.238  31.198  1.00  0.00     0.002 A 
ATOM     75  C   UNL A   1      43.758  36.170  28.868  1.00  0.00     0.091 A 
ATOM     76  F   UNL A   1      41.904  34.833  28.195  1.00  0.00    -0.205 F 
ATOM     77  C   UNL A   1      44.616  36.619  29.881  1.00  0.00     0.022 A 
BRANCH  75  78
ATOM     78  S   UNL A   1      44.007  36.871  27.226  1.00  0.00     0.127 S 
ATOM     79  O   UNL A   1      44.996  37.916  27.499  1.00  0.00    -0.237 OA
ATOM     80  O   UNL A   1      44.513  35.731  26.470  1.00  0.00    -0.237 OA
ATOM     81  O   UNL A   1      42.705  37.383  26.817  1.00  0.00    -0.744 OA
ENDBRANCH  75  78
ENDBRANCH  47  71
BRANCH  59  82
ATOM     82  C   UNL A   1      38.854  31.201  34.245  1.00  0.00     0.023 A 
ATOM     83  C   UNL A   1      39.114  31.260  35.629  1.00  0.00     0.012 A 
ATOM     84  C   UNL A   1      37.816  31.981  33.708  1.00  0.00     0.148 A 
ATOM     85  C   UNL A   1      38.355  32.092  36.459  1.00  0.00     0.002 A 
ATOM     86  C   UNL A   1      37.088  32.833  34.528  1.00  0.00     0.091 A 
ATOM     87  F   UNL A   1      37.589  31.904  32.387  1.00  0.00    -0.205 F 
ATOM     88  C   UNL A   1      37.353  32.889  35.906  1.00  0.00     0.022 A 
BRANCH  86  89
ATOM     89  S   UNL A   1      35.860  33.965  33.872  1.00  0.00     0.127 S 
ATOM     90  O   UNL A   1      35.049  33.087  33.031  1.00  0.00    -0.237 OA
ATOM     91  O   UNL A   1      35.193  34.433  35.087  1.00  0.00    -0.237 OA
ATOM     92  O   UNL A   1      36.597  34.997  33.153  1.00  0.00    -0.744 OA
ENDBRANCH  86  89
ENDBRANCH  59  82
ENDBRANCH  33  34
ENDBRANCH  26  28
ENDBRANCH  25  26
ENDBRANCH   1  25
TORSDOF 16
ENDMDL
