MODEL 1
REMARK VINA RESULT:     -10.9      0.000      0.000
REMARK SMILES CCOc1cc(OCC)cc(-c2ccc([C@@H](C)C(=O)OCCOC(=O)c3ccc(-c4c5nc(c(-c6cccc(S(=O)(=O)[O-])c6F)c6ccc([nH]6)c(-c6cccc(S(=O)(=O)[O-])c6F)c6nc(c(-c7cccc(S(=O)(=O)[O-])c7F)c7ccc4[nH]7)C=C6)C=C5)cc3)cc2F)c1
REMARK SMILES IDX 21 1 20 2 18 3 19 4 16 5 17 6 15 7 12 8 13 9 90 10 14 11
REMARK SMILES IDX 89 12 91 13 11 14 4 15 5 16 92 17 6 18 10 19 3 20 2 21 1 22
REMARK SMILES IDX 7 23 8 24 9 25 22 26 23 27 24 28 25 29 26 30 27 31 88 32
REMARK SMILES IDX 28 33 87 34 29 35 30 36 31 37 81 38 32 39 86 40 80 41 82 42
REMARK SMILES IDX 33 43 85 44 79 45 78 46 34 48 66 49 46 50 65 51 47 52 50 53
REMARK SMILES IDX 64 54 83 55 48 56 49 57 63 59 84 60 51 61 35 62 36 63 44 64
REMARK SMILES IDX 37 65 39 66 45 67 38 68 40 69 41 70 42 71 43 72 67 73 68 74
REMARK SMILES IDX 76 75 69 76 71 77 77 78 70 79 72 80 73 81 74 82 75 83 52 84
REMARK SMILES IDX 53 85 61 86 54 87 56 88 62 89 55 90 57 91 58 92 59 93 60 94
REMARK H PARENT 82 47 50 58
REMARK Flexibility Score: inf
ROOT
ATOM      1  C   UNL A   1      33.217  34.997  28.657  1.00  0.00     0.274 C 
ENDROOT
BRANCH   1   2
ATOM      2  O   UNL A   1      33.962  33.860  29.137  1.00  0.00    -0.462 OA
BRANCH   2   3
ATOM      3  C   UNL A   1      34.845  33.295  28.271  1.00  0.00     0.313 C 
ATOM      4  O   UNL A   1      35.410  33.904  27.368  1.00  0.00    -0.252 OA
BRANCH   3   5
ATOM      5  C   UNL A   1      35.031  31.794  28.475  1.00  0.00     0.126 C 
ATOM      6  C   UNL A   1      36.499  31.423  28.273  1.00  0.00     0.025 C 
BRANCH   5   7
ATOM      7  C   UNL A   1      34.101  30.891  27.679  1.00  0.00    -0.031 A 
ATOM      8  C   UNL A   1      32.418  29.190  26.140  1.00  0.00     0.018 A 
ATOM      9  C   UNL A   1      31.993  30.467  26.542  1.00  0.00     0.012 A 
ATOM     10  C   UNL A   1      33.689  28.775  26.550  1.00  0.00     0.131 A 
ATOM     11  C   UNL A   1      32.821  31.307  27.292  1.00  0.00     0.005 A 
ATOM     12  C   UNL A   1      34.523  29.609  27.294  1.00  0.00     0.044 A 
ATOM     13  F   UNL A   1      34.158  27.569  26.190  1.00  0.00    -0.206 F 
BRANCH   8  14
ATOM     14  C   UNL A   1      31.573  28.369  25.263  1.00  0.00    -0.008 A 
ATOM     15  C   UNL A   1      30.339  28.002  23.208  1.00  0.00     0.123 A 
ATOM     16  C   UNL A   1      29.963  26.730  23.646  1.00  0.00     0.092 A 
ATOM     17  C   UNL A   1      31.119  28.826  24.020  1.00  0.00     0.055 A 
ATOM     18  C   UNL A   1      30.378  26.267  24.894  1.00  0.00     0.123 A 
ATOM     19  C   UNL A   1      31.183  27.086  25.685  1.00  0.00     0.055 A 
BRANCH  15  20
ATOM     20  O   UNL A   1      29.815  28.449  22.026  1.00  0.00    -0.494 OA
BRANCH  20  21
ATOM     21  C   UNL A   1      29.652  29.870  21.969  1.00  0.00     0.226 C 
ATOM     22  C   UNL A   1      28.246  30.262  21.546  1.00  0.00     0.049 C 
ENDBRANCH  20  21
ENDBRANCH  15  20
BRANCH  18  23
ATOM     23  O   UNL A   1      29.966  25.007  25.236  1.00  0.00    -0.494 OA
BRANCH  23  24
ATOM     24  C   UNL A   1      30.973  24.072  25.633  1.00  0.00     0.226 C 
ATOM     25  C   UNL A   1      30.461  23.135  26.716  1.00  0.00     0.049 C 
ENDBRANCH  23  24
ENDBRANCH  18  23
ENDBRANCH   8  14
ENDBRANCH   5   7
ENDBRANCH   3   5
ENDBRANCH   2   3
ENDBRANCH   1   2
BRANCH   1  26
ATOM     26  C   UNL A   1      32.833  35.926  29.810  1.00  0.00     0.275 C 
BRANCH  26  27
ATOM     27  O   UNL A   1      32.526  35.175  30.998  1.00  0.00    -0.458 OA
BRANCH  27  28
ATOM     28  C   UNL A   1      32.887  35.769  32.159  1.00  0.00     0.338 C 
ATOM     29  O   UNL A   1      32.314  36.678  32.734  1.00  0.00    -0.246 OA
BRANCH  28  30
ATOM     30  C   UNL A   1      34.041  35.064  32.734  1.00  0.00     0.060 A 
ATOM     31  C   UNL A   1      35.313  35.563  32.451  1.00  0.00     0.016 A 
ATOM     32  C   UNL A   1      33.891  33.880  33.455  1.00  0.00     0.016 A 
ATOM     33  C   UNL A   1      36.447  34.865  32.847  1.00  0.00     0.010 A 
ATOM     34  C   UNL A   1      35.034  33.189  33.877  1.00  0.00     0.010 A 
ATOM     35  C   UNL A   1      36.317  33.663  33.554  1.00  0.00    -0.014 A 
BRANCH  35  36
ATOM     36  C   UNL A   1      37.536  32.897  33.910  1.00  0.00     0.031 A 
ATOM     37  C   UNL A   1      38.319  33.257  35.142  1.00  0.00     0.074 A 
ATOM     38  C   UNL A   1      37.925  31.865  33.138  1.00  0.00     0.049 A 
ATOM     39  N   UNL A   1      39.412  32.712  35.611  1.00  0.00    -0.248 NA
ATOM     40  C   UNL A   1      37.809  34.375  35.951  1.00  0.00     0.031 C 
ATOM     41  C   UNL A   1      37.247  31.424  31.919  1.00  0.00     0.029 A 
ATOM     42  N   UNL A   1      38.989  31.008  33.258  1.00  0.00    -0.354 N 
ATOM     43  C   UNL A   1      39.744  33.443  36.745  1.00  0.00     0.074 A 
ATOM     44  C   UNL A   1      38.737  34.472  36.893  1.00  0.00     0.031 C 
ATOM     45  C   UNL A   1      37.916  30.382  31.399  1.00  0.00     0.029 A 
ATOM     46  C   UNL A   1      39.084  30.100  32.231  1.00  0.00     0.049 A 
ATOM     47  H   UNL A   1      39.625  31.040  34.009  1.00  0.00     0.167 HD
ATOM     48  C   UNL A   1      40.781  33.261  37.596  1.00  0.00     0.034 A 
ATOM     49  C   UNL A   1      40.011  29.156  31.980  1.00  0.00     0.034 A 
ATOM     50  C   UNL A   1      41.753  32.206  37.475  1.00  0.00     0.049 A 
ATOM     51  C   UNL A   1      41.143  28.966  32.953  1.00  0.00     0.074 A 
ATOM     52  C   UNL A   1      42.812  31.912  38.316  1.00  0.00     0.029 A 
ATOM     53  N   UNL A   1      41.785  31.273  36.451  1.00  0.00    -0.354 N 
ATOM     54  N   UNL A   1      41.378  29.595  34.079  1.00  0.00    -0.248 NA
ATOM     55  C   UNL A   1      42.123  27.916  32.636  1.00  0.00     0.031 C 
ATOM     56  C   UNL A   1      43.489  30.805  37.796  1.00  0.00     0.029 A 
ATOM     57  C   UNL A   1      42.847  30.404  36.634  1.00  0.00     0.049 A 
ATOM     58  H   UNL A   1      41.146  31.234  35.703  1.00  0.00     0.167 HD
ATOM     59  C   UNL A   1      42.515  29.003  34.617  1.00  0.00     0.074 A 
ATOM     60  C   UNL A   1      42.905  27.946  33.706  1.00  0.00     0.031 C 
ATOM     61  C   UNL A   1      43.190  29.322  35.749  1.00  0.00     0.034 A 
BRANCH  48  62
ATOM     62  C   UNL A   1      40.898  34.202  38.763  1.00  0.00     0.023 A 
ATOM     63  C   UNL A   1      41.845  35.244  38.724  1.00  0.00     0.012 A 
ATOM     64  C   UNL A   1      40.037  34.092  39.873  1.00  0.00     0.148 A 
ATOM     65  C   UNL A   1      41.950  36.149  39.779  1.00  0.00     0.002 A 
ATOM     66  C   UNL A   1      40.124  35.018  40.906  1.00  0.00     0.091 A 
ATOM     67  F   UNL A   1      39.161  33.077  39.905  1.00  0.00    -0.205 F 
ATOM     68  C   UNL A   1      41.084  36.042  40.865  1.00  0.00     0.022 A 
BRANCH  66  69
ATOM     69  S   UNL A   1      39.006  34.999  42.313  1.00  0.00     0.127 S 
ATOM     70  O   UNL A   1      38.992  33.579  42.660  1.00  0.00    -0.237 OA
ATOM     71  O   UNL A   1      39.701  35.855  43.275  1.00  0.00    -0.237 OA
ATOM     72  O   UNL A   1      37.744  35.540  41.826  1.00  0.00    -0.744 OA
ENDBRANCH  66  69
ENDBRANCH  48  62
BRANCH  49  73
ATOM     73  C   UNL A   1      39.876  28.287  30.778  1.00  0.00     0.023 A 
ATOM     74  C   UNL A   1      39.026  27.165  30.827  1.00  0.00     0.012 A 
ATOM     75  C   UNL A   1      40.552  28.585  29.579  1.00  0.00     0.148 A 
ATOM     76  C   UNL A   1      38.869  26.344  29.709  1.00  0.00     0.002 A 
ATOM     77  C   UNL A   1      40.347  27.795  28.453  1.00  0.00     0.091 A 
ATOM     78  F   UNL A   1      41.377  29.642  29.558  1.00  0.00    -0.205 F 
ATOM     79  C   UNL A   1      39.518  26.666  28.520  1.00  0.00     0.022 A 
BRANCH  77  80
ATOM     80  S   UNL A   1      41.040  28.225  26.853  1.00  0.00     0.127 S 
ATOM     81  O   UNL A   1      40.188  29.339  26.445  1.00  0.00    -0.237 OA
ATOM     82  O   UNL A   1      42.413  28.594  27.200  1.00  0.00    -0.237 OA
ATOM     83  O   UNL A   1      40.936  27.012  26.050  1.00  0.00    -0.744 OA
ENDBRANCH  77  80
ENDBRANCH  49  73
BRANCH  61  84
ATOM     84  C   UNL A   1      44.416  28.510  36.078  1.00  0.00     0.023 A 
ATOM     85  C   UNL A   1      45.679  28.958  35.645  1.00  0.00     0.012 A 
ATOM     86  C   UNL A   1      44.327  27.348  36.869  1.00  0.00     0.148 A 
ATOM     87  C   UNL A   1      46.833  28.246  35.968  1.00  0.00     0.002 A 
ATOM     88  C   UNL A   1      45.486  26.667  37.223  1.00  0.00     0.091 A 
ATOM     89  F   UNL A   1      43.115  26.923  37.255  1.00  0.00    -0.205 F 
ATOM     90  C   UNL A   1      46.739  27.108  36.765  1.00  0.00     0.022 A 
BRANCH  88  91
ATOM     91  S   UNL A   1      45.455  25.243  38.319  1.00  0.00     0.127 S 
ATOM     92  O   UNL A   1      44.705  24.270  37.525  1.00  0.00    -0.237 OA
ATOM     93  O   UNL A   1      46.876  24.933  38.479  1.00  0.00    -0.237 OA
ATOM     94  O   UNL A   1      44.802  25.701  39.538  1.00  0.00    -0.744 OA
ENDBRANCH  88  91
ENDBRANCH  61  84
ENDBRANCH  35  36
ENDBRANCH  28  30
ENDBRANCH  27  28
ENDBRANCH  26  27
ENDBRANCH   1  26
TORSDOF 20
ENDMDL
MODEL 2
REMARK VINA RESULT:     -10.6      6.327     11.607
REMARK SMILES CCOc1cc(OCC)cc(-c2ccc([C@@H](C)C(=O)OCCOC(=O)c3ccc(-c4c5nc(c(-c6cccc(S(=O)(=O)[O-])c6F)c6ccc([nH]6)c(-c6cccc(S(=O)(=O)[O-])c6F)c6nc(c(-c7cccc(S(=O)(=O)[O-])c7F)c7ccc4[nH]7)C=C6)C=C5)cc3)cc2F)c1
REMARK SMILES IDX 21 1 20 2 18 3 19 4 16 5 17 6 15 7 12 8 13 9 90 10 14 11
REMARK SMILES IDX 89 12 91 13 11 14 4 15 5 16 92 17 6 18 10 19 3 20 2 21 1 22
REMARK SMILES IDX 7 23 8 24 9 25 22 26 23 27 24 28 25 29 26 30 27 31 88 32
REMARK SMILES IDX 28 33 87 34 29 35 30 36 31 37 81 38 32 39 86 40 80 41 82 42
REMARK SMILES IDX 33 43 85 44 79 45 78 46 34 48 66 49 46 50 65 51 47 52 50 53
REMARK SMILES IDX 64 54 83 55 48 56 49 57 63 59 84 60 51 61 35 62 36 63 44 64
REMARK SMILES IDX 37 65 39 66 45 67 38 68 40 69 41 70 42 71 43 72 67 73 68 74
REMARK SMILES IDX 76 75 69 76 71 77 77 78 70 79 72 80 73 81 74 82 75 83 52 84
REMARK SMILES IDX 53 85 61 86 54 87 56 88 62 89 55 90 57 91 58 92 59 93 60 94
REMARK H PARENT 82 47 50 58
REMARK Flexibility Score: inf
ROOT
ATOM      1  C   UNL A   1      36.073  21.447  25.305  1.00  0.00     0.274 C 
ENDROOT
BRANCH   1   2
ATOM      2  O   UNL A   1      34.900  20.949  24.634  1.00  0.00    -0.462 OA
BRANCH   2   3
ATOM      3  C   UNL A   1      33.696  21.307  25.154  1.00  0.00     0.313 C 
ATOM      4  O   UNL A   1      32.619  20.869  24.762  1.00  0.00    -0.252 OA
BRANCH   3   5
ATOM      5  C   UNL A   1      33.789  22.372  26.243  1.00  0.00     0.126 C 
ATOM      6  C   UNL A   1      33.195  21.834  27.543  1.00  0.00     0.025 C 
BRANCH   5   7
ATOM      7  C   UNL A   1      33.232  23.742  25.887  1.00  0.00    -0.031 A 
ATOM      8  C   UNL A   1      32.126  26.272  25.198  1.00  0.00     0.018 A 
ATOM      9  C   UNL A   1      33.412  25.897  24.773  1.00  0.00     0.012 A 
ATOM     10  C   UNL A   1      31.422  25.366  25.997  1.00  0.00     0.131 A 
ATOM     11  C   UNL A   1      33.954  24.652  25.105  1.00  0.00     0.005 A 
ATOM     12  C   UNL A   1      31.953  24.120  26.328  1.00  0.00     0.044 A 
ATOM     13  F   UNL A   1      30.185  25.660  26.427  1.00  0.00    -0.206 F 
BRANCH   8  14
ATOM     14  C   UNL A   1      31.537  27.540  24.747  1.00  0.00    -0.008 A 
ATOM     15  C   UNL A   1      30.176  28.849  23.227  1.00  0.00     0.123 A 
ATOM     16  C   UNL A   1      30.446  30.006  23.961  1.00  0.00     0.092 A 
ATOM     17  C   UNL A   1      30.736  27.629  23.603  1.00  0.00     0.055 A 
ATOM     18  C   UNL A   1      31.266  29.947  25.088  1.00  0.00     0.123 A 
ATOM     19  C   UNL A   1      31.796  28.716  25.473  1.00  0.00     0.055 A 
BRANCH  15  20
ATOM     20  O   UNL A   1      29.458  28.983  22.071  1.00  0.00    -0.494 OA
BRANCH  20  21
ATOM     21  C   UNL A   1      29.293  30.340  21.647  1.00  0.00     0.226 C 
ATOM     22  C   UNL A   1      28.022  30.530  20.835  1.00  0.00     0.049 C 
ENDBRANCH  20  21
ENDBRANCH  15  20
BRANCH  18  23
ATOM     23  O   UNL A   1      31.469  31.129  25.748  1.00  0.00    -0.494 OA
BRANCH  23  24
ATOM     24  C   UNL A   1      31.876  31.055  27.117  1.00  0.00     0.226 C 
ATOM     25  C   UNL A   1      33.363  30.758  27.236  1.00  0.00     0.049 C 
ENDBRANCH  23  24
ENDBRANCH  18  23
ENDBRANCH   8  14
ENDBRANCH   5   7
ENDBRANCH   3   5
ENDBRANCH   2   3
ENDBRANCH   1   2
BRANCH   1  26
ATOM     26  C   UNL A   1      37.250  20.485  25.140  1.00  0.00     0.275 C 
BRANCH  26  27
ATOM     27  O   UNL A   1      38.497  21.200  25.078  1.00  0.00    -0.458 OA
BRANCH  27  28
ATOM     28  C   UNL A   1      39.341  20.965  26.110  1.00  0.00     0.338 C 
ATOM     29  O   UNL A   1      39.760  19.886  26.491  1.00  0.00    -0.246 OA
BRANCH  28  30
ATOM     30  C   UNL A   1      39.813  22.244  26.659  1.00  0.00     0.060 A 
ATOM     31  C   UNL A   1      39.299  23.416  26.104  1.00  0.00     0.016 A 
ATOM     32  C   UNL A   1      40.810  22.300  27.631  1.00  0.00     0.016 A 
ATOM     33  C   UNL A   1      39.806  24.654  26.482  1.00  0.00     0.010 A 
ATOM     34  C   UNL A   1      41.304  23.548  28.032  1.00  0.00     0.010 A 
ATOM     35  C   UNL A   1      40.822  24.730  27.441  1.00  0.00    -0.014 A 
BRANCH  35  36
ATOM     36  C   UNL A   1      41.398  26.054  27.784  1.00  0.00     0.031 A 
ATOM     37  C   UNL A   1      42.792  26.405  27.347  1.00  0.00     0.074 A 
ATOM     38  C   UNL A   1      40.656  26.946  28.467  1.00  0.00     0.049 A 
ATOM     39  N   UNL A   1      43.468  27.505  27.558  1.00  0.00    -0.248 NA
ATOM     40  C   UNL A   1      43.523  25.389  26.574  1.00  0.00     0.031 C 
ATOM     41  C   UNL A   1      39.293  26.718  28.945  1.00  0.00     0.029 A 
ATOM     42  N   UNL A   1      40.950  28.219  28.886  1.00  0.00    -0.354 N 
ATOM     43  C   UNL A   1      44.716  27.301  26.981  1.00  0.00     0.074 A 
ATOM     44  C   UNL A   1      44.704  25.969  26.412  1.00  0.00     0.031 C 
ATOM     45  C   UNL A   1      38.870  27.812  29.599  1.00  0.00     0.029 A 
ATOM     46  C   UNL A   1      39.940  28.806  29.611  1.00  0.00     0.049 A 
ATOM     47  H   UNL A   1      41.803  28.669  28.688  1.00  0.00     0.167 HD
ATOM     48  C   UNL A   1      45.767  28.150  26.914  1.00  0.00     0.034 A 
ATOM     49  C   UNL A   1      39.887  30.004  30.225  1.00  0.00     0.034 A 
ATOM     50  C   UNL A   1      45.760  29.491  27.436  1.00  0.00     0.049 A 
ATOM     51  C   UNL A   1      41.065  30.934  30.119  1.00  0.00     0.074 A 
ATOM     52  C   UNL A   1      46.762  30.444  27.374  1.00  0.00     0.029 A 
ATOM     53  N   UNL A   1      44.700  30.070  28.116  1.00  0.00    -0.354 N 
ATOM     54  N   UNL A   1      42.194  30.766  29.475  1.00  0.00    -0.248 NA
ATOM     55  C   UNL A   1      40.950  32.232  30.800  1.00  0.00     0.031 C 
ATOM     56  C   UNL A   1      46.310  31.597  28.023  1.00  0.00     0.029 A 
ATOM     57  C   UNL A   1      45.023  31.366  28.484  1.00  0.00     0.049 A 
ATOM     58  H   UNL A   1      43.843  29.625  28.310  1.00  0.00     0.167 HD
ATOM     59  C   UNL A   1      42.913  31.942  29.651  1.00  0.00     0.074 A 
ATOM     60  C   UNL A   1      42.080  32.826  30.440  1.00  0.00     0.031 C 
ATOM     61  C   UNL A   1      44.161  32.253  29.221  1.00  0.00     0.034 A 
BRANCH  48  62
ATOM     62  C   UNL A   1      47.009  27.670  26.213  1.00  0.00     0.023 A 
ATOM     63  C   UNL A   1      47.970  26.932  26.930  1.00  0.00     0.012 A 
ATOM     64  C   UNL A   1      47.198  27.899  24.836  1.00  0.00     0.148 A 
ATOM     65  C   UNL A   1      49.113  26.447  26.295  1.00  0.00     0.002 A 
ATOM     66  C   UNL A   1      48.322  27.383  24.201  1.00  0.00     0.091 A 
ATOM     67  F   UNL A   1      46.285  28.627  24.176  1.00  0.00    -0.205 F 
ATOM     68  C   UNL A   1      49.284  26.664  24.930  1.00  0.00     0.022 A 
BRANCH  66  69
ATOM     69  S   UNL A   1      48.594  27.556  22.433  1.00  0.00     0.127 S 
ATOM     70  O   UNL A   1      47.411  28.312  22.024  1.00  0.00    -0.237 OA
ATOM     71  O   UNL A   1      49.847  28.309  22.382  1.00  0.00    -0.237 OA
ATOM     72  O   UNL A   1      48.685  26.199  21.910  1.00  0.00    -0.744 OA
ENDBRANCH  66  69
ENDBRANCH  48  62
BRANCH  49  73
ATOM     73  C   UNL A   1      38.652  30.407  30.953  1.00  0.00     0.023 A 
ATOM     74  C   UNL A   1      38.439  29.942  32.265  1.00  0.00     0.012 A 
ATOM     75  C   UNL A   1      37.708  31.276  30.372  1.00  0.00     0.148 A 
ATOM     76  C   UNL A   1      37.299  30.318  32.976  1.00  0.00     0.002 A 
ATOM     77  C   UNL A   1      36.602  31.690  31.106  1.00  0.00     0.091 A 
ATOM     78  F   UNL A   1      37.913  31.688  29.112  1.00  0.00    -0.205 F 
ATOM     79  C   UNL A   1      36.388  31.201  32.402  1.00  0.00     0.022 A 
BRANCH  77  80
ATOM     80  S   UNL A   1      35.461  32.930  30.485  1.00  0.00     0.127 S 
ATOM     81  O   UNL A   1      34.415  32.914  31.504  1.00  0.00    -0.237 OA
ATOM     82  O   UNL A   1      36.291  34.136  30.474  1.00  0.00    -0.237 OA
ATOM     83  O   UNL A   1      35.071  32.466  29.159  1.00  0.00    -0.744 OA
ENDBRANCH  77  80
ENDBRANCH  49  73
BRANCH  61  84
ATOM     84  C   UNL A   1      44.701  33.612  29.581  1.00  0.00     0.023 A 
ATOM     85  C   UNL A   1      45.399  33.780  30.793  1.00  0.00     0.012 A 
ATOM     86  C   UNL A   1      44.578  34.701  28.696  1.00  0.00     0.148 A 
ATOM     87  C   UNL A   1      45.942  35.019  31.133  1.00  0.00     0.002 A 
ATOM     88  C   UNL A   1      45.158  35.922  29.023  1.00  0.00     0.091 A 
ATOM     89  F   UNL A   1      43.891  34.530  27.557  1.00  0.00    -0.205 F 
ATOM     90  C   UNL A   1      45.832  36.086  30.245  1.00  0.00     0.022 A 
BRANCH  88  91
ATOM     91  S   UNL A   1      45.133  37.319  27.892  1.00  0.00     0.127 S 
ATOM     92  O   UNL A   1      45.627  38.401  28.742  1.00  0.00    -0.237 OA
ATOM     93  O   UNL A   1      46.060  36.895  26.843  1.00  0.00    -0.237 OA
ATOM     94  O   UNL A   1      43.749  37.441  27.453  1.00  0.00    -0.744 OA
ENDBRANCH  88  91
ENDBRANCH  61  84
ENDBRANCH  35  36
ENDBRANCH  28  30
ENDBRANCH  27  28
ENDBRANCH  26  27
ENDBRANCH   1  26
TORSDOF 20
ENDMDL
MODEL 3
REMARK VINA RESULT:     -10.5      4.468      8.328
REMARK SMILES CCOc1cc(OCC)cc(-c2ccc([C@@H](C)C(=O)OCCOC(=O)c3ccc(-c4c5nc(c(-c6cccc(S(=O)(=O)[O-])c6F)c6ccc([nH]6)c(-c6cccc(S(=O)(=O)[O-])c6F)c6nc(c(-c7cccc(S(=O)(=O)[O-])c7F)c7ccc4[nH]7)C=C6)C=C5)cc3)cc2F)c1
REMARK SMILES IDX 21 1 20 2 18 3 19 4 16 5 17 6 15 7 12 8 13 9 90 10 14 11
REMARK SMILES IDX 89 12 91 13 11 14 4 15 5 16 92 17 6 18 10 19 3 20 2 21 1 22
REMARK SMILES IDX 7 23 8 24 9 25 22 26 23 27 24 28 25 29 26 30 27 31 88 32
REMARK SMILES IDX 28 33 87 34 29 35 30 36 31 37 81 38 32 39 86 40 80 41 82 42
REMARK SMILES IDX 33 43 85 44 79 45 78 46 34 48 66 49 46 50 65 51 47 52 50 53
REMARK SMILES IDX 64 54 83 55 48 56 49 57 63 59 84 60 51 61 35 62 36 63 44 64
REMARK SMILES IDX 37 65 39 66 45 67 38 68 40 69 41 70 42 71 43 72 67 73 68 74
REMARK SMILES IDX 76 75 69 76 71 77 77 78 70 79 72 80 73 81 74 82 75 83 52 84
REMARK SMILES IDX 53 85 61 86 54 87 56 88 62 89 55 90 57 91 58 92 59 93 60 94
REMARK H PARENT 82 47 50 58
REMARK Flexibility Score: inf
ROOT
ATOM      1  C   UNL A   1      33.534  34.059  28.072  1.00  0.00     0.274 C 
ENDROOT
BRANCH   1   2
ATOM      2  O   UNL A   1      34.669  34.391  28.896  1.00  0.00    -0.462 OA
BRANCH   2   3
ATOM      3  C   UNL A   1      34.543  34.172  30.231  1.00  0.00     0.313 C 
ATOM      4  O   UNL A   1      33.714  34.728  30.945  1.00  0.00    -0.252 OA
BRANCH   3   5
ATOM      5  C   UNL A   1      35.584  33.210  30.798  1.00  0.00     0.126 C 
ATOM      6  C   UNL A   1      35.365  33.039  32.300  1.00  0.00     0.025 C 
BRANCH   5   7
ATOM      7  C   UNL A   1      37.035  33.523  30.466  1.00  0.00    -0.031 A 
ATOM      8  C   UNL A   1      39.741  34.177  29.879  1.00  0.00     0.018 A 
ATOM      9  C   UNL A   1      38.875  33.692  28.884  1.00  0.00     0.012 A 
ATOM     10  C   UNL A   1      39.230  34.299  31.174  1.00  0.00     0.131 A 
ATOM     11  C   UNL A   1      37.543  33.377  29.169  1.00  0.00     0.005 A 
ATOM     12  C   UNL A   1      37.902  33.992  31.466  1.00  0.00     0.044 A 
ATOM     13  F   UNL A   1      40.003  34.766  32.167  1.00  0.00    -0.206 F 
BRANCH   8  14
ATOM     14  C   UNL A   1      41.104  34.602  29.532  1.00  0.00    -0.008 A 
ATOM     15  C   UNL A   1      43.498  34.237  29.416  1.00  0.00     0.123 A 
ATOM     16  C   UNL A   1      43.674  35.492  28.829  1.00  0.00     0.092 A 
ATOM     17  C   UNL A   1      42.225  33.804  29.787  1.00  0.00     0.055 A 
ATOM     18  C   UNL A   1      42.574  36.316  28.594  1.00  0.00     0.123 A 
ATOM     19  C   UNL A   1      41.302  35.861  28.939  1.00  0.00     0.055 A 
BRANCH  15  20
ATOM     20  O   UNL A   1      44.618  33.516  29.726  1.00  0.00    -0.494 OA
BRANCH  20  21
ATOM     21  C   UNL A   1      44.340  32.243  30.318  1.00  0.00     0.226 C 
ATOM     22  C   UNL A   1      45.566  31.344  30.331  1.00  0.00     0.049 C 
ENDBRANCH  20  21
ENDBRANCH  15  20
BRANCH  18  23
ATOM     23  O   UNL A   1      42.842  37.525  28.009  1.00  0.00    -0.494 OA
BRANCH  23  24
ATOM     24  C   UNL A   1      41.949  37.972  26.985  1.00  0.00     0.226 C 
ATOM     25  C   UNL A   1      41.666  39.461  27.110  1.00  0.00     0.049 C 
ENDBRANCH  23  24
ENDBRANCH  18  23
ENDBRANCH   8  14
ENDBRANCH   5   7
ENDBRANCH   3   5
ENDBRANCH   2   3
ENDBRANCH   1   2
BRANCH   1  26
ATOM     26  C   UNL A   1      33.327  32.545  28.007  1.00  0.00     0.275 C 
BRANCH  26  27
ATOM     27  O   UNL A   1      34.444  31.899  27.370  1.00  0.00    -0.458 OA
BRANCH  27  28
ATOM     28  C   UNL A   1      34.529  30.565  27.582  1.00  0.00     0.338 C 
ATOM     29  O   UNL A   1      33.725  29.711  27.252  1.00  0.00    -0.246 OA
BRANCH  28  30
ATOM     30  C   UNL A   1      35.835  30.244  28.175  1.00  0.00     0.060 A 
ATOM     31  C   UNL A   1      36.967  30.406  27.375  1.00  0.00     0.016 A 
ATOM     32  C   UNL A   1      35.945  29.704  29.455  1.00  0.00     0.016 A 
ATOM     33  C   UNL A   1      38.214  29.990  27.828  1.00  0.00     0.010 A 
ATOM     34  C   UNL A   1      37.205  29.308  29.922  1.00  0.00     0.010 A 
ATOM     35  C   UNL A   1      38.341  29.426  29.103  1.00  0.00    -0.014 A 
BRANCH  35  36
ATOM     36  C   UNL A   1      39.666  28.926  29.544  1.00  0.00     0.031 A 
ATOM     37  C   UNL A   1      40.390  29.604  30.673  1.00  0.00     0.074 A 
ATOM     38  C   UNL A   1      40.207  27.849  28.943  1.00  0.00     0.049 A 
ATOM     39  N   UNL A   1      41.556  29.320  31.192  1.00  0.00    -0.248 NA
ATOM     40  C   UNL A   1      39.716  30.753  31.300  1.00  0.00     0.031 C 
ATOM     41  C   UNL A   1      39.600  27.109  27.836  1.00  0.00     0.029 A 
ATOM     42  N   UNL A   1      41.392  27.197  29.172  1.00  0.00    -0.354 N 
ATOM     43  C   UNL A   1      41.776  30.275  32.178  1.00  0.00     0.074 A 
ATOM     44  C   UNL A   1      40.623  31.149  32.183  1.00  0.00     0.031 C 
ATOM     45  C   UNL A   1      40.420  26.108  27.477  1.00  0.00     0.029 A 
ATOM     46  C   UNL A   1      41.622  26.153  28.308  1.00  0.00     0.049 A 
ATOM     47  H   UNL A   1      42.019  27.453  29.887  1.00  0.00     0.167 HD
ATOM     48  C   UNL A   1      42.833  30.400  33.014  1.00  0.00     0.034 A 
ATOM     49  C   UNL A   1      42.684  25.333  28.189  1.00  0.00     0.034 A 
ATOM     50  C   UNL A   1      43.956  29.501  33.041  1.00  0.00     0.049 A 
ATOM     51  C   UNL A   1      43.836  25.485  29.145  1.00  0.00     0.074 A 
ATOM     52  C   UNL A   1      45.053  29.519  33.886  1.00  0.00     0.029 A 
ATOM     53  N   UNL A   1      44.128  28.423  32.187  1.00  0.00    -0.354 N 
ATOM     54  N   UNL A   1      43.976  26.325  30.142  1.00  0.00    -0.248 NA
ATOM     55  C   UNL A   1      44.965  24.559  28.977  1.00  0.00     0.031 C 
ATOM     56  C   UNL A   1      45.891  28.456  33.537  1.00  0.00     0.029 A 
ATOM     57  C   UNL A   1      45.314  27.770  32.479  1.00  0.00     0.049 A 
ATOM     58  H   UNL A   1      43.500  28.161  31.476  1.00  0.00     0.167 HD
ATOM     59  C   UNL A   1      45.194  26.013  30.735  1.00  0.00     0.074 A 
ATOM     60  C   UNL A   1      45.739  24.889  30.002  1.00  0.00     0.031 C 
ATOM     61  C   UNL A   1      45.816  26.619  31.776  1.00  0.00     0.034 A 
BRANCH  48  62
ATOM     62  C   UNL A   1      42.808  31.533  34.004  1.00  0.00     0.023 A 
ATOM     63  C   UNL A   1      43.365  32.777  33.650  1.00  0.00     0.012 A 
ATOM     64  C   UNL A   1      42.186  31.385  35.260  1.00  0.00     0.148 A 
ATOM     65  C   UNL A   1      43.325  33.852  34.538  1.00  0.00     0.002 A 
ATOM     66  C   UNL A   1      42.119  32.470  36.126  1.00  0.00     0.091 A 
ATOM     67  F   UNL A   1      41.686  30.184  35.589  1.00  0.00    -0.205 F 
ATOM     68  C   UNL A   1      42.694  33.701  35.771  1.00  0.00     0.022 A 
BRANCH  66  69
ATOM     69  S   UNL A   1      41.269  32.388  37.707  1.00  0.00     0.127 S 
ATOM     70  O   UNL A   1      42.152  31.510  38.474  1.00  0.00    -0.237 OA
ATOM     71  O   UNL A   1      41.275  33.786  38.137  1.00  0.00    -0.237 OA
ATOM     72  O   UNL A   1      39.945  31.853  37.419  1.00  0.00    -0.744 OA
ENDBRANCH  66  69
ENDBRANCH  48  62
BRANCH  49  73
ATOM     73  C   UNL A   1      42.679  24.262  27.154  1.00  0.00     0.023 A 
ATOM     74  C   UNL A   1      43.370  24.467  25.944  1.00  0.00     0.012 A 
ATOM     75  C   UNL A   1      42.030  23.032  27.374  1.00  0.00     0.148 A 
ATOM     76  C   UNL A   1      43.396  23.474  24.964  1.00  0.00     0.002 A 
ATOM     77  C   UNL A   1      42.107  22.027  26.416  1.00  0.00     0.091 A 
ATOM     78  F   UNL A   1      41.356  22.864  28.520  1.00  0.00    -0.205 F 
ATOM     79  C   UNL A   1      42.776  22.251  25.205  1.00  0.00     0.022 A 
BRANCH  77  80
ATOM     80  S   UNL A   1      41.451  20.381  26.713  1.00  0.00     0.127 S 
ATOM     81  O   UNL A   1      42.184  19.976  27.909  1.00  0.00    -0.237 OA
ATOM     82  O   UNL A   1      40.027  20.650  26.923  1.00  0.00    -0.237 OA
ATOM     83  O   UNL A   1      41.740  19.627  25.499  1.00  0.00    -0.744 OA
ENDBRANCH  77  80
ENDBRANCH  49  73
BRANCH  61  84
ATOM     84  C   UNL A   1      47.155  26.071  32.198  1.00  0.00     0.023 A 
ATOM     85  C   UNL A   1      48.320  26.514  31.543  1.00  0.00     0.012 A 
ATOM     86  C   UNL A   1      47.266  25.177  33.281  1.00  0.00     0.148 A 
ATOM     87  C   UNL A   1      49.575  26.051  31.939  1.00  0.00     0.002 A 
ATOM     88  C   UNL A   1      48.523  24.753  33.696  1.00  0.00     0.091 A 
ATOM     89  F   UNL A   1      46.145  24.748  33.879  1.00  0.00    -0.205 F 
ATOM     90  C   UNL A   1      49.678  25.181  33.021  1.00  0.00     0.022 A 
BRANCH  88  91
ATOM     91  S   UNL A   1      48.743  23.701  35.137  1.00  0.00     0.127 S 
ATOM     92  O   UNL A   1      48.103  24.491  36.186  1.00  0.00    -0.237 OA
ATOM     93  O   UNL A   1      48.017  22.487  34.758  1.00  0.00    -0.237 OA
ATOM     94  O   UNL A   1      50.182  23.518  35.272  1.00  0.00    -0.744 OA
ENDBRANCH  88  91
ENDBRANCH  61  84
ENDBRANCH  35  36
ENDBRANCH  28  30
ENDBRANCH  27  28
ENDBRANCH  26  27
ENDBRANCH   1  26
TORSDOF 20
ENDMDL
