MODEL 1
REMARK VINA RESULT:     -11.6      0.000      0.000
REMARK SMILES COCCC(=O)N1CCc2cc(C(=O)OCCOC(=O)c3ccc(-c4c5nc(c(-c6cccc(S(=O)(=O)[O-])c6F)c6ccc([nH]6)c(-c6cccc(S(=O)(=O)[O-])c6F)c6nc(c(-c7cccc(S(=O)(=O)[O-])c7F)c7ccc4[nH]7)C=C6)C=C5)cc3)ccc21
REMARK SMILES IDX 16 1 15 2 13 3 14 4 12 5 7 6 8 7 86 8 9 9 10 10 85 11 11 12
REMARK SMILES IDX 84 13 5 14 6 15 4 16 3 17 2 18 1 19 17 20 18 21 19 22 20 23
REMARK SMILES IDX 21 24 22 25 83 26 23 27 82 28 24 29 25 30 26 31 76 32 27 33
REMARK SMILES IDX 81 34 75 35 77 36 28 37 80 38 74 39 73 40 29 42 61 43 41 44
REMARK SMILES IDX 60 45 42 46 45 47 59 48 78 49 43 50 44 51 58 53 79 54 46 55
REMARK SMILES IDX 30 56 31 57 39 58 32 59 34 60 40 61 33 62 35 63 36 64 37 65
REMARK SMILES IDX 38 66 62 67 63 68 71 69 64 70 66 71 72 72 65 73 67 74 68 75
REMARK SMILES IDX 69 76 70 77 47 78 48 79 56 80 49 81 51 82 57 83 50 84 52 85
REMARK SMILES IDX 53 86 54 87 55 88
REMARK H PARENT 77 41 45 52
REMARK Flexibility Score: inf
ROOT
ATOM      1  C   UNL A   1      32.193  28.990  25.075  1.00  0.00     0.275 C 
ENDROOT
BRANCH   1   2
ATOM      2  O   UNL A   1      31.230  27.944  25.325  1.00  0.00    -0.458 OA
BRANCH   2   3
ATOM      3  C   UNL A   1      31.375  27.293  26.506  1.00  0.00     0.338 C 
ATOM      4  O   UNL A   1      31.042  27.691  27.606  1.00  0.00    -0.246 OA
BRANCH   3   5
ATOM      5  C   UNL A   1      32.012  25.976  26.307  1.00  0.00     0.060 A 
ATOM      6  N   UNL A   1      34.004  22.379  25.542  1.00  0.00    -0.312 N 
ATOM      7  C   UNL A   1      35.220  22.875  24.865  1.00  0.00     0.130 C 
ATOM      8  C   UNL A   1      33.149  23.476  25.767  1.00  0.00     0.047 A 
ATOM      9  C   UNL A   1      35.241  24.392  25.023  1.00  0.00     0.059 C 
ATOM     10  C   UNL A   1      33.854  24.649  25.518  1.00  0.00    -0.022 A 
ATOM     11  C   UNL A   1      31.842  23.559  26.233  1.00  0.00     0.027 A 
ATOM     12  C   UNL A   1      33.309  25.890  25.796  1.00  0.00     0.021 A 
ATOM     13  C   UNL A   1      31.274  24.810  26.513  1.00  0.00     0.018 A 
BRANCH   6  14
ATOM     14  C   UNL A   1      33.927  21.054  25.906  1.00  0.00     0.229 C 
ATOM     15  O   UNL A   1      33.712  20.729  27.081  1.00  0.00    -0.274 OA
BRANCH  14  16
ATOM     16  C   UNL A   1      34.069  19.952  24.886  1.00  0.00     0.129 C 
BRANCH  16  17
ATOM     17  C   UNL A   1      32.753  19.299  24.474  1.00  0.00     0.169 C 
BRANCH  17  18
ATOM     18  O   UNL A   1      32.213  18.417  25.451  1.00  0.00    -0.384 OA
ATOM     19  C   UNL A   1      32.627  17.064  25.285  1.00  0.00     0.194 C 
ENDBRANCH  17  18
ENDBRANCH  16  17
ENDBRANCH  14  16
ENDBRANCH   6  14
ENDBRANCH   3   5
ENDBRANCH   2   3
ENDBRANCH   1   2
BRANCH   1  20
ATOM     20  C   UNL A   1      31.819  30.307  25.759  1.00  0.00     0.275 C 
BRANCH  20  21
ATOM     21  O   UNL A   1      32.451  30.427  27.045  1.00  0.00    -0.458 OA
BRANCH  21  22
ATOM     22  C   UNL A   1      33.100  31.593  27.244  1.00  0.00     0.338 C 
ATOM     23  O   UNL A   1      32.628  32.719  27.225  1.00  0.00    -0.246 OA
BRANCH  22  24
ATOM     24  C   UNL A   1      34.498  31.346  27.610  1.00  0.00     0.060 A 
ATOM     25  C   UNL A   1      34.852  30.045  27.934  1.00  0.00     0.016 A 
ATOM     26  C   UNL A   1      35.376  32.392  27.866  1.00  0.00     0.016 A 
ATOM     27  C   UNL A   1      35.981  29.795  28.697  1.00  0.00     0.010 A 
ATOM     28  C   UNL A   1      36.607  32.110  28.466  1.00  0.00     0.010 A 
ATOM     29  C   UNL A   1      36.903  30.815  28.938  1.00  0.00    -0.014 A 
BRANCH  29  30
ATOM     30  C   UNL A   1      38.175  30.529  29.657  1.00  0.00     0.031 A 
ATOM     31  C   UNL A   1      39.192  29.601  29.046  1.00  0.00     0.074 A 
ATOM     32  C   UNL A   1      38.399  31.065  30.876  1.00  0.00     0.049 A 
ATOM     33  N   UNL A   1      40.211  29.008  29.608  1.00  0.00    -0.248 NA
ATOM     34  C   UNL A   1      39.027  29.278  27.618  1.00  0.00     0.031 C 
ATOM     35  C   UNL A   1      37.518  32.013  31.566  1.00  0.00     0.029 A 
ATOM     36  N   UNL A   1      39.422  30.864  31.770  1.00  0.00    -0.354 N 
ATOM     37  C   UNL A   1      40.750  28.172  28.637  1.00  0.00     0.074 A 
ATOM     38  C   UNL A   1      39.958  28.350  27.439  1.00  0.00     0.031 C 
ATOM     39  C   UNL A   1      38.036  32.316  32.762  1.00  0.00     0.029 A 
ATOM     40  C   UNL A   1      39.216  31.493  32.978  1.00  0.00     0.049 A 
ATOM     41  H   UNL A   1      40.220  30.324  31.569  1.00  0.00     0.167 HD
ATOM     42  C   UNL A   1      41.803  27.328  28.742  1.00  0.00     0.034 A 
ATOM     43  C   UNL A   1      39.847  31.366  34.160  1.00  0.00     0.034 A 
ATOM     44  C   UNL A   1      42.611  27.208  29.928  1.00  0.00     0.049 A 
ATOM     45  C   UNL A   1      40.993  30.406  34.259  1.00  0.00     0.074 A 
ATOM     46  C   UNL A   1      43.728  26.417  30.131  1.00  0.00     0.029 A 
ATOM     47  N   UNL A   1      42.389  27.899  31.110  1.00  0.00    -0.354 N 
ATOM     48  N   UNL A   1      41.505  29.637  33.328  1.00  0.00    -0.248 NA
ATOM     49  C   UNL A   1      41.659  30.301  35.564  1.00  0.00     0.031 C 
ATOM     50  C   UNL A   1      44.159  26.604  31.448  1.00  0.00     0.029 A 
ATOM     51  C   UNL A   1      43.342  27.548  32.049  1.00  0.00     0.049 A 
ATOM     52  H   UNL A   1      41.661  28.545  31.257  1.00  0.00     0.167 HD
ATOM     53  C   UNL A   1      42.579  28.988  33.922  1.00  0.00     0.074 A 
ATOM     54  C   UNL A   1      42.650  29.462  35.290  1.00  0.00     0.031 C 
ATOM     55  C   UNL A   1      43.426  28.077  33.386  1.00  0.00     0.034 A 
BRANCH  42  56
ATOM     56  C   UNL A   1      42.142  26.460  27.557  1.00  0.00     0.023 A 
ATOM     57  C   UNL A   1      42.923  26.969  26.501  1.00  0.00     0.012 A 
ATOM     58  C   UNL A   1      41.728  25.112  27.519  1.00  0.00     0.148 A 
ATOM     59  C   UNL A   1      43.256  26.163  25.411  1.00  0.00     0.002 A 
ATOM     60  C   UNL A   1      42.103  24.302  26.455  1.00  0.00     0.091 A 
ATOM     61  F   UNL A   1      40.968  24.649  28.523  1.00  0.00    -0.205 F 
ATOM     62  C   UNL A   1      42.855  24.829  25.392  1.00  0.00     0.022 A 
BRANCH  60  63
ATOM     63  S   UNL A   1      41.708  22.551  26.380  1.00  0.00     0.127 S 
ATOM     64  O   UNL A   1      42.471  22.126  25.207  1.00  0.00    -0.237 OA
ATOM     65  O   UNL A   1      42.231  22.064  27.656  1.00  0.00    -0.237 OA
ATOM     66  O   UNL A   1      40.260  22.469  26.244  1.00  0.00    -0.744 OA
ENDBRANCH  60  63
ENDBRANCH  42  56
BRANCH  43  67
ATOM     67  C   UNL A   1      39.387  32.154  35.339  1.00  0.00     0.023 A 
ATOM     68  C   UNL A   1      38.535  31.552  36.283  1.00  0.00     0.012 A 
ATOM     69  C   UNL A   1      39.824  33.477  35.554  1.00  0.00     0.148 A 
ATOM     70  C   UNL A   1      38.103  32.262  37.404  1.00  0.00     0.002 A 
ATOM     71  C   UNL A   1      39.441  34.157  36.702  1.00  0.00     0.091 A 
ATOM     72  F   UNL A   1      40.629  34.037  34.638  1.00  0.00    -0.205 F 
ATOM     73  C   UNL A   1      38.565  33.557  37.621  1.00  0.00     0.022 A 
BRANCH  71  74
ATOM     74  S   UNL A   1      40.096  35.773  37.132  1.00  0.00     0.127 S 
ATOM     75  O   UNL A   1      39.417  36.043  38.396  1.00  0.00    -0.237 OA
ATOM     76  O   UNL A   1      41.528  35.496  37.249  1.00  0.00    -0.237 OA
ATOM     77  O   UNL A   1      39.742  36.650  36.025  1.00  0.00    -0.744 OA
ENDBRANCH  71  74
ENDBRANCH  43  67
BRANCH  55  78
ATOM     78  C   UNL A   1      44.555  27.587  34.250  1.00  0.00     0.023 A 
ATOM     79  C   UNL A   1      45.756  28.315  34.331  1.00  0.00     0.012 A 
ATOM     80  C   UNL A   1      44.380  26.441  35.051  1.00  0.00     0.148 A 
ATOM     81  C   UNL A   1      46.779  27.894  35.180  1.00  0.00     0.002 A 
ATOM     82  C   UNL A   1      45.380  26.060  35.933  1.00  0.00     0.091 A 
ATOM     83  F   UNL A   1      43.234  25.753  34.939  1.00  0.00    -0.205 F 
ATOM     84  C   UNL A   1      46.586  26.776  35.990  1.00  0.00     0.022 A 
BRANCH  82  85
ATOM     85  S   UNL A   1      45.178  24.699  37.087  1.00  0.00     0.127 S 
ATOM     86  O   UNL A   1      44.604  23.663  36.229  1.00  0.00    -0.237 OA
ATOM     87  O   UNL A   1      46.556  24.448  37.510  1.00  0.00    -0.237 OA
ATOM     88  O   UNL A   1      44.300  25.189  38.141  1.00  0.00    -0.744 OA
ENDBRANCH  82  85
ENDBRANCH  55  78
ENDBRANCH  29  30
ENDBRANCH  22  24
ENDBRANCH  21  22
ENDBRANCH  20  21
ENDBRANCH   1  20
TORSDOF 18
ENDMDL
MODEL 2
REMARK VINA RESULT:     -11.3      4.948     10.194
REMARK SMILES COCCC(=O)N1CCc2cc(C(=O)OCCOC(=O)c3ccc(-c4c5nc(c(-c6cccc(S(=O)(=O)[O-])c6F)c6ccc([nH]6)c(-c6cccc(S(=O)(=O)[O-])c6F)c6nc(c(-c7cccc(S(=O)(=O)[O-])c7F)c7ccc4[nH]7)C=C6)C=C5)cc3)ccc21
REMARK SMILES IDX 16 1 15 2 13 3 14 4 12 5 7 6 8 7 86 8 9 9 10 10 85 11 11 12
REMARK SMILES IDX 84 13 5 14 6 15 4 16 3 17 2 18 1 19 17 20 18 21 19 22 20 23
REMARK SMILES IDX 21 24 22 25 83 26 23 27 82 28 24 29 25 30 26 31 76 32 27 33
REMARK SMILES IDX 81 34 75 35 77 36 28 37 80 38 74 39 73 40 29 42 61 43 41 44
REMARK SMILES IDX 60 45 42 46 45 47 59 48 78 49 43 50 44 51 58 53 79 54 46 55
REMARK SMILES IDX 30 56 31 57 39 58 32 59 34 60 40 61 33 62 35 63 36 64 37 65
REMARK SMILES IDX 38 66 62 67 63 68 71 69 64 70 66 71 72 72 65 73 67 74 68 75
REMARK SMILES IDX 69 76 70 77 47 78 48 79 56 80 49 81 51 82 57 83 50 84 52 85
REMARK SMILES IDX 53 86 54 87 55 88
REMARK H PARENT 77 41 45 52
REMARK Flexibility Score: inf
ROOT
ATOM      1  C   UNL A   1      35.197  20.405  24.980  1.00  0.00     0.275 C 
ENDROOT
BRANCH   1   2
ATOM      2  O   UNL A   1      33.790  20.567  25.257  1.00  0.00    -0.458 OA
BRANCH   2   3
ATOM      3  C   UNL A   1      33.022  20.887  24.186  1.00  0.00     0.338 C 
ATOM      4  O   UNL A   1      32.465  20.114  23.430  1.00  0.00    -0.246 OA
BRANCH   3   5
ATOM      5  C   UNL A   1      32.922  22.351  24.026  1.00  0.00     0.060 A 
ATOM      6  N   UNL A   1      32.770  26.467  23.294  1.00  0.00    -0.312 N 
ATOM      7  C   UNL A   1      33.000  26.496  21.835  1.00  0.00     0.130 C 
ATOM      8  C   UNL A   1      32.911  25.135  23.733  1.00  0.00     0.047 A 
ATOM      9  C   UNL A   1      32.917  25.058  21.332  1.00  0.00     0.059 C 
ATOM     10  C   UNL A   1      32.953  24.301  22.620  1.00  0.00    -0.022 A 
ATOM     11  C   UNL A   1      32.938  24.570  25.003  1.00  0.00     0.027 A 
ATOM     12  C   UNL A   1      32.941  22.923  22.752  1.00  0.00     0.021 A 
ATOM     13  C   UNL A   1      32.933  23.175  25.151  1.00  0.00     0.018 A 
BRANCH   6  14
ATOM     14  C   UNL A   1      32.394  27.621  23.942  1.00  0.00     0.229 C 
ATOM     15  O   UNL A   1      33.242  28.433  24.338  1.00  0.00    -0.274 OA
BRANCH  14  16
ATOM     16  C   UNL A   1      30.941  27.955  24.168  1.00  0.00     0.129 C 
BRANCH  16  17
ATOM     17  C   UNL A   1      30.423  29.120  23.329  1.00  0.00     0.169 C 
BRANCH  17  18
ATOM     18  O   UNL A   1      29.522  28.735  22.298  1.00  0.00    -0.384 OA
ATOM     19  C   UNL A   1      28.158  29.007  22.605  1.00  0.00     0.194 C 
ENDBRANCH  17  18
ENDBRANCH  16  17
ENDBRANCH  14  16
ENDBRANCH   6  14
ENDBRANCH   3   5
ENDBRANCH   2   3
ENDBRANCH   1   2
BRANCH   1  20
ATOM     20  C   UNL A   1      36.071  21.351  25.807  1.00  0.00     0.275 C 
BRANCH  20  21
ATOM     21  O   UNL A   1      37.235  21.766  25.072  1.00  0.00    -0.458 OA
BRANCH  21  22
ATOM     22  C   UNL A   1      38.407  21.371  25.610  1.00  0.00     0.338 C 
ATOM     23  O   UNL A   1      38.993  20.316  25.425  1.00  0.00    -0.246 OA
BRANCH  22  24
ATOM     24  C   UNL A   1      38.994  22.452  26.409  1.00  0.00     0.060 A 
ATOM     25  C   UNL A   1      38.571  23.745  26.139  1.00  0.00     0.016 A 
ATOM     26  C   UNL A   1      40.097  22.234  27.224  1.00  0.00     0.016 A 
ATOM     27  C   UNL A   1      39.356  24.829  26.502  1.00  0.00     0.010 A 
ATOM     28  C   UNL A   1      40.777  23.337  27.750  1.00  0.00     0.010 A 
ATOM     29  C   UNL A   1      40.448  24.648  27.353  1.00  0.00    -0.014 A 
BRANCH  29  30
ATOM     30  C   UNL A   1      41.226  25.820  27.841  1.00  0.00     0.031 A 
ATOM     31  C   UNL A   1      40.546  26.885  28.661  1.00  0.00     0.074 A 
ATOM     32  C   UNL A   1      42.529  25.951  27.512  1.00  0.00     0.049 A 
ATOM     33  N   UNL A   1      40.952  28.094  28.942  1.00  0.00    -0.248 NA
ATOM     34  C   UNL A   1      39.224  26.554  29.219  1.00  0.00     0.031 C 
ATOM     35  C   UNL A   1      43.322  24.974  26.759  1.00  0.00     0.029 A 
ATOM     36  N   UNL A   1      43.412  26.979  27.739  1.00  0.00    -0.354 N 
ATOM     37  C   UNL A   1      39.903  28.700  29.624  1.00  0.00     0.074 A 
ATOM     38  C   UNL A   1      38.847  27.717  29.734  1.00  0.00     0.031 C 
ATOM     39  C   UNL A   1      44.566  25.439  26.594  1.00  0.00     0.029 A 
ATOM     40  C   UNL A   1      44.627  26.795  27.116  1.00  0.00     0.049 A 
ATOM     41  H   UNL A   1      43.198  27.766  28.290  1.00  0.00     0.167 HD
ATOM     42  C   UNL A   1      39.829  29.964  30.103  1.00  0.00     0.034 A 
ATOM     43  C   UNL A   1      45.650  27.644  26.907  1.00  0.00     0.034 A 
ATOM     44  C   UNL A   1      40.914  30.908  30.030  1.00  0.00     0.049 A 
ATOM     45  C   UNL A   1      45.533  29.046  27.424  1.00  0.00     0.074 A 
ATOM     46  C   UNL A   1      40.964  32.201  30.521  1.00  0.00     0.029 A 
ATOM     47  N   UNL A   1      42.139  30.660  29.429  1.00  0.00    -0.354 N 
ATOM     48  N   UNL A   1      44.545  29.600  28.084  1.00  0.00    -0.248 NA
ATOM     49  C   UNL A   1      46.674  29.939  27.181  1.00  0.00     0.031 C 
ATOM     50  C   UNL A   1      42.206  32.746  30.186  1.00  0.00     0.029 A 
ATOM     51  C   UNL A   1      42.949  31.777  29.529  1.00  0.00     0.049 A 
ATOM     52  H   UNL A   1      42.394  29.813  28.996  1.00  0.00     0.167 HD
ATOM     53  C   UNL A   1      44.960  30.893  28.372  1.00  0.00     0.074 A 
ATOM     54  C   UNL A   1      46.294  31.036  27.823  1.00  0.00     0.031 C 
ATOM     55  C   UNL A   1      44.295  31.875  29.026  1.00  0.00     0.034 A 
BRANCH  42  56
ATOM     56  C   UNL A   1      38.537  30.410  30.739  1.00  0.00     0.023 A 
ATOM     57  C   UNL A   1      38.302  30.187  32.110  1.00  0.00     0.012 A 
ATOM     58  C   UNL A   1      37.572  31.106  29.980  1.00  0.00     0.148 A 
ATOM     59  C   UNL A   1      37.116  30.615  32.707  1.00  0.00     0.002 A 
ATOM     60  C   UNL A   1      36.415  31.573  30.592  1.00  0.00     0.091 A 
ATOM     61  F   UNL A   1      37.802  31.293  28.672  1.00  0.00    -0.205 F 
ATOM     62  C   UNL A   1      36.178  31.316  31.952  1.00  0.00     0.022 A 
BRANCH  60  63
ATOM     63  S   UNL A   1      35.187  32.556  29.725  1.00  0.00     0.127 S 
ATOM     64  O   UNL A   1      34.658  31.589  28.765  1.00  0.00    -0.237 OA
ATOM     65  O   UNL A   1      34.264  32.913  30.803  1.00  0.00    -0.237 OA
ATOM     66  O   UNL A   1      35.907  33.681  29.144  1.00  0.00    -0.744 OA
ENDBRANCH  60  63
ENDBRANCH  42  56
BRANCH  43  67
ATOM     67  C   UNL A   1      46.855  27.189  26.155  1.00  0.00     0.023 A 
ATOM     68  C   UNL A   1      46.944  27.441  24.774  1.00  0.00     0.012 A 
ATOM     69  C   UNL A   1      47.929  26.551  26.809  1.00  0.00     0.148 A 
ATOM     70  C   UNL A   1      48.067  27.039  24.050  1.00  0.00     0.002 A 
ATOM     71  C   UNL A   1      49.070  26.210  26.095  1.00  0.00     0.091 A 
ATOM     72  F   UNL A   1      47.821  26.312  28.124  1.00  0.00    -0.205 F 
ATOM     73  C   UNL A   1      49.135  26.437  24.711  1.00  0.00     0.022 A 
BRANCH  71  74
ATOM     74  S   UNL A   1      50.546  25.559  26.886  1.00  0.00     0.127 S 
ATOM     75  O   UNL A   1      50.904  26.648  27.791  1.00  0.00    -0.237 OA
ATOM     76  O   UNL A   1      50.030  24.357  27.542  1.00  0.00    -0.237 OA
ATOM     77  O   UNL A   1      51.489  25.297  25.808  1.00  0.00    -0.744 OA
ENDBRANCH  71  74
ENDBRANCH  43  67
BRANCH  55  78
ATOM     78  C   UNL A   1      45.024  33.170  29.258  1.00  0.00     0.023 A 
ATOM     79  C   UNL A   1      45.839  33.334  30.393  1.00  0.00     0.012 A 
ATOM     80  C   UNL A   1      44.960  34.194  28.292  1.00  0.00     0.148 A 
ATOM     81  C   UNL A   1      46.563  34.511  30.576  1.00  0.00     0.002 A 
ATOM     82  C   UNL A   1      45.726  35.339  28.454  1.00  0.00     0.091 A 
ATOM     83  F   UNL A   1      44.159  34.022  27.230  1.00  0.00    -0.205 F 
ATOM     84  C   UNL A   1      46.518  35.506  29.601  1.00  0.00     0.022 A 
BRANCH  82  85
ATOM     85  S   UNL A   1      45.811  36.625  27.203  1.00  0.00     0.127 S 
ATOM     86  O   UNL A   1      46.744  37.571  27.811  1.00  0.00    -0.237 OA
ATOM     87  O   UNL A   1      46.343  35.897  26.050  1.00  0.00    -0.237 OA
ATOM     88  O   UNL A   1      44.449  37.115  27.034  1.00  0.00    -0.744 OA
ENDBRANCH  82  85
ENDBRANCH  55  78
ENDBRANCH  29  30
ENDBRANCH  22  24
ENDBRANCH  21  22
ENDBRANCH  20  21
ENDBRANCH   1  20
TORSDOF 18
ENDMDL
MODEL 3
REMARK VINA RESULT:     -11.3      1.522      1.782
REMARK SMILES COCCC(=O)N1CCc2cc(C(=O)OCCOC(=O)c3ccc(-c4c5nc(c(-c6cccc(S(=O)(=O)[O-])c6F)c6ccc([nH]6)c(-c6cccc(S(=O)(=O)[O-])c6F)c6nc(c(-c7cccc(S(=O)(=O)[O-])c7F)c7ccc4[nH]7)C=C6)C=C5)cc3)ccc21
REMARK SMILES IDX 16 1 15 2 13 3 14 4 12 5 7 6 8 7 86 8 9 9 10 10 85 11 11 12
REMARK SMILES IDX 84 13 5 14 6 15 4 16 3 17 2 18 1 19 17 20 18 21 19 22 20 23
REMARK SMILES IDX 21 24 22 25 83 26 23 27 82 28 24 29 25 30 26 31 76 32 27 33
REMARK SMILES IDX 81 34 75 35 77 36 28 37 80 38 74 39 73 40 29 42 61 43 41 44
REMARK SMILES IDX 60 45 42 46 45 47 59 48 78 49 43 50 44 51 58 53 79 54 46 55
REMARK SMILES IDX 30 56 31 57 39 58 32 59 34 60 40 61 33 62 35 63 36 64 37 65
REMARK SMILES IDX 38 66 62 67 63 68 71 69 64 70 66 71 72 72 65 73 67 74 68 75
REMARK SMILES IDX 69 76 70 77 47 78 48 79 56 80 49 81 51 82 57 83 50 84 52 85
REMARK SMILES IDX 53 86 54 87 55 88
REMARK H PARENT 77 41 45 52
REMARK Flexibility Score: inf
ROOT
ATOM      1  C   UNL A   1      32.173  28.942  25.042  1.00  0.00     0.275 C 
ENDROOT
BRANCH   1   2
ATOM      2  O   UNL A   1      31.116  27.963  25.132  1.00  0.00    -0.458 OA
BRANCH   2   3
ATOM      3  C   UNL A   1      31.260  27.045  26.120  1.00  0.00     0.338 C 
ATOM      4  O   UNL A   1      31.086  27.220  27.311  1.00  0.00    -0.246 OA
BRANCH   3   5
ATOM      5  C   UNL A   1      31.669  25.737  25.570  1.00  0.00     0.060 A 
ATOM      6  N   UNL A   1      33.119  22.114  24.065  1.00  0.00    -0.312 N 
ATOM      7  C   UNL A   1      34.505  22.139  24.574  1.00  0.00     0.130 C 
ATOM      8  C   UNL A   1      32.511  23.344  24.388  1.00  0.00     0.047 A 
ATOM      9  C   UNL A   1      34.606  23.298  25.561  1.00  0.00     0.059 C 
ATOM     10  C   UNL A   1      33.330  24.024  25.285  1.00  0.00    -0.022 A 
ATOM     11  C   UNL A   1      31.287  23.900  24.035  1.00  0.00     0.027 A 
ATOM     12  C   UNL A   1      32.917  25.198  25.888  1.00  0.00     0.021 A 
ATOM     13  C   UNL A   1      30.859  25.095  24.634  1.00  0.00     0.018 A 
BRANCH   6  14
ATOM     14  C   UNL A   1      32.633  20.965  23.483  1.00  0.00     0.229 C 
ATOM     15  O   UNL A   1      31.932  21.017  22.463  1.00  0.00    -0.274 OA
BRANCH  14  16
ATOM     16  C   UNL A   1      32.959  19.604  24.044  1.00  0.00     0.129 C 
BRANCH  16  17
ATOM     17  C   UNL A   1      32.341  18.440  23.276  1.00  0.00     0.169 C 
BRANCH  17  18
ATOM     18  O   UNL A   1      33.000  17.196  23.481  1.00  0.00    -0.384 OA
ATOM     19  C   UNL A   1      34.299  17.328  24.052  1.00  0.00     0.194 C 
ENDBRANCH  17  18
ENDBRANCH  16  17
ENDBRANCH  14  16
ENDBRANCH   6  14
ENDBRANCH   3   5
ENDBRANCH   2   3
ENDBRANCH   1   2
BRANCH   1  20
ATOM     20  C   UNL A   1      31.826  30.247  25.763  1.00  0.00     0.275 C 
BRANCH  20  21
ATOM     21  O   UNL A   1      32.479  30.328  27.041  1.00  0.00    -0.458 OA
BRANCH  21  22
ATOM     22  C   UNL A   1      33.105  31.500  27.276  1.00  0.00     0.338 C 
ATOM     23  O   UNL A   1      32.612  32.617  27.289  1.00  0.00    -0.246 OA
BRANCH  22  24
ATOM     24  C   UNL A   1      34.506  31.269  27.641  1.00  0.00     0.060 A 
ATOM     25  C   UNL A   1      34.870  29.975  27.986  1.00  0.00     0.016 A 
ATOM     26  C   UNL A   1      35.378  32.325  27.876  1.00  0.00     0.016 A 
ATOM     27  C   UNL A   1      36.004  29.746  28.748  1.00  0.00     0.010 A 
ATOM     28  C   UNL A   1      36.613  32.061  28.476  1.00  0.00     0.010 A 
ATOM     29  C   UNL A   1      36.920  30.776  28.968  1.00  0.00    -0.014 A 
BRANCH  29  30
ATOM     30  C   UNL A   1      38.197  30.511  29.686  1.00  0.00     0.031 A 
ATOM     31  C   UNL A   1      39.223  29.591  29.080  1.00  0.00     0.074 A 
ATOM     32  C   UNL A   1      38.415  31.058  30.901  1.00  0.00     0.049 A 
ATOM     33  N   UNL A   1      40.251  29.014  29.644  1.00  0.00    -0.248 NA
ATOM     34  C   UNL A   1      39.060  29.256  27.654  1.00  0.00     0.031 C 
ATOM     35  C   UNL A   1      37.525  32.000  31.587  1.00  0.00     0.029 A 
ATOM     36  N   UNL A   1      39.443  30.876  31.795  1.00  0.00    -0.354 N 
ATOM     37  C   UNL A   1      40.798  28.179  28.678  1.00  0.00     0.074 A 
ATOM     38  C   UNL A   1      40.001  28.339  27.481  1.00  0.00     0.031 C 
ATOM     39  C   UNL A   1      38.041  32.318  32.779  1.00  0.00     0.029 A 
ATOM     40  C   UNL A   1      39.231  31.510  32.999  1.00  0.00     0.049 A 
ATOM     41  H   UNL A   1      40.247  30.344  31.596  1.00  0.00     0.167 HD
ATOM     42  C   UNL A   1      41.862  27.348  28.787  1.00  0.00     0.034 A 
ATOM     43  C   UNL A   1      39.866  31.399  34.181  1.00  0.00     0.034 A 
ATOM     44  C   UNL A   1      42.673  27.246  29.972  1.00  0.00     0.049 A 
ATOM     45  C   UNL A   1      41.024  30.454  34.284  1.00  0.00     0.074 A 
ATOM     46  C   UNL A   1      43.800  26.470  30.179  1.00  0.00     0.029 A 
ATOM     47  N   UNL A   1      42.444  27.943  31.149  1.00  0.00    -0.354 N 
ATOM     48  N   UNL A   1      41.544  29.685  33.357  1.00  0.00    -0.248 NA
ATOM     49  C   UNL A   1      41.694  30.367  35.588  1.00  0.00     0.031 C 
ATOM     50  C   UNL A   1      44.232  26.671  31.493  1.00  0.00     0.029 A 
ATOM     51  C   UNL A   1      43.404  27.610  32.089  1.00  0.00     0.049 A 
ATOM     52  H   UNL A   1      41.709  28.581  31.294  1.00  0.00     0.167 HD
ATOM     53  C   UNL A   1      42.627  29.053  33.953  1.00  0.00     0.074 A 
ATOM     54  C   UNL A   1      42.694  29.538  35.318  1.00  0.00     0.031 C 
ATOM     55  C   UNL A   1      43.484  28.149  33.422  1.00  0.00     0.034 A 
BRANCH  42  56
ATOM     56  C   UNL A   1      42.209  26.476  27.607  1.00  0.00     0.023 A 
ATOM     57  C   UNL A   1      42.950  26.998  26.529  1.00  0.00     0.012 A 
ATOM     58  C   UNL A   1      41.844  25.113  27.596  1.00  0.00     0.148 A 
ATOM     59  C   UNL A   1      43.291  26.190  25.443  1.00  0.00     0.002 A 
ATOM     60  C   UNL A   1      42.228  24.303  26.535  1.00  0.00     0.091 A 
ATOM     61  F   UNL A   1      41.122  24.638  28.621  1.00  0.00    -0.205 F 
ATOM     62  C   UNL A   1      42.940  24.842  25.451  1.00  0.00     0.022 A 
BRANCH  60  63
ATOM     63  S   UNL A   1      41.897  22.538  26.492  1.00  0.00     0.127 S 
ATOM     64  O   UNL A   1      42.729  22.054  27.592  1.00  0.00    -0.237 OA
ATOM     65  O   UNL A   1      40.458  22.490  26.750  1.00  0.00    -0.237 OA
ATOM     66  O   UNL A   1      42.293  22.084  25.165  1.00  0.00    -0.744 OA
ENDBRANCH  60  63
ENDBRANCH  42  56
BRANCH  43  67
ATOM     67  C   UNL A   1      39.398  32.189  35.355  1.00  0.00     0.023 A 
ATOM     68  C   UNL A   1      39.617  33.579  35.385  1.00  0.00     0.012 A 
ATOM     69  C   UNL A   1      38.700  31.581  36.419  1.00  0.00     0.148 A 
ATOM     70  C   UNL A   1      39.175  34.345  36.464  1.00  0.00     0.002 A 
ATOM     71  C   UNL A   1      38.208  32.357  37.460  1.00  0.00     0.091 A 
ATOM     72  F   UNL A   1      38.509  30.254  36.376  1.00  0.00    -0.205 F 
ATOM     73  C   UNL A   1      38.460  33.738  37.494  1.00  0.00     0.022 A 
BRANCH  71  74
ATOM     74  S   UNL A   1      37.161  31.685  38.755  1.00  0.00     0.127 S 
ATOM     75  O   UNL A   1      38.011  31.833  39.933  1.00  0.00    -0.237 OA
ATOM     76  O   UNL A   1      36.009  32.586  38.708  1.00  0.00    -0.237 OA
ATOM     77  O   UNL A   1      36.868  30.315  38.355  1.00  0.00    -0.744 OA
ENDBRANCH  71  74
ENDBRANCH  43  67
BRANCH  55  78
ATOM     78  C   UNL A   1      44.620  27.679  34.288  1.00  0.00     0.023 A 
ATOM     79  C   UNL A   1      45.785  28.458  34.416  1.00  0.00     0.012 A 
ATOM     80  C   UNL A   1      44.485  26.497  35.043  1.00  0.00     0.148 A 
ATOM     81  C   UNL A   1      46.813  28.052  35.267  1.00  0.00     0.002 A 
ATOM     82  C   UNL A   1      45.487  26.129  35.928  1.00  0.00     0.091 A 
ATOM     83  F   UNL A   1      43.374  25.762  34.886  1.00  0.00    -0.205 F 
ATOM     84  C   UNL A   1      46.658  26.897  36.032  1.00  0.00     0.022 A 
BRANCH  82  85
ATOM     85  S   UNL A   1      45.330  24.718  37.027  1.00  0.00     0.127 S 
ATOM     86  O   UNL A   1      44.712  23.724  36.151  1.00  0.00    -0.237 OA
ATOM     87  O   UNL A   1      46.724  24.443  37.376  1.00  0.00    -0.237 OA
ATOM     88  O   UNL A   1      44.503  25.164  38.141  1.00  0.00    -0.744 OA
ENDBRANCH  82  85
ENDBRANCH  55  78
ENDBRANCH  29  30
ENDBRANCH  22  24
ENDBRANCH  21  22
ENDBRANCH  20  21
ENDBRANCH   1  20
TORSDOF 18
ENDMDL
