MODEL 1
REMARK VINA RESULT:     -11.4      0.000      0.000
REMARK SMILES C[C@@H]1CN(S(=O)(=O)N[C@H](C(=O)OCCOC(=O)c2ccc(-c3c4nc(c(-c5cccc(S(=O)(=O)[O-])c5F)c5ccc([nH]5)c(-c5cccc(S(=O)(=O)[O-])c5F)c5nc(c(-c6cccc(S(=O)(=O)[O-])c6F)c6ccc3[nH]6)C=C5)C=C4)cc2)[C@@H](C)O)C[C@@H](C)O1
REMARK SMILES IDX 13 1 12 2 10 3 11 4 9 5 8 6 5 8 6 9 7 10 4 11 1 12 2 13 3 14
REMARK SMILES IDX 87 15 85 16 84 17 86 18 81 19 82 20 83 21 14 23 15 24 16 25
REMARK SMILES IDX 17 26 18 27 19 28 80 29 20 30 79 31 21 32 22 33 23 34 73 35
REMARK SMILES IDX 24 36 78 37 72 38 74 39 25 40 77 41 71 42 70 43 26 45 58 46
REMARK SMILES IDX 38 47 57 48 39 49 42 50 56 51 75 52 40 53 41 54 55 56 76 57
REMARK SMILES IDX 43 58 27 59 28 60 36 61 29 62 31 63 37 64 30 65 32 66 33 67
REMARK SMILES IDX 34 68 35 69 59 70 60 71 68 72 61 73 63 74 69 75 62 76 64 77
REMARK SMILES IDX 65 78 66 79 67 80 44 81 45 82 53 83 46 84 48 85 54 86 47 87
REMARK SMILES IDX 49 88 50 89 51 90 52 91
REMARK H PARENT 8 7 83 22 74 44 42 55
REMARK Flexibility Score: inf
ROOT
ATOM      1  C   UNL A   1      32.847  29.352  24.619  1.00  0.00     0.274 C 
ENDROOT
BRANCH   1   2
ATOM      2  O   UNL A   1      32.665  27.920  24.625  1.00  0.00    -0.461 OA
BRANCH   2   3
ATOM      3  C   UNL A   1      31.452  27.469  24.201  1.00  0.00     0.327 C 
ATOM      4  O   UNL A   1      30.717  26.723  24.840  1.00  0.00    -0.250 OA
BRANCH   3   5
ATOM      5  C   UNL A   1      31.102  27.996  22.793  1.00  0.00     0.208 C 
BRANCH   5   6
ATOM      6  N   UNL A   1      31.379  26.819  21.893  1.00  0.00    -0.185 NA
ATOM      7  H   UNL A   1      30.812  26.069  22.289  1.00  0.00     0.143 HD
BRANCH   6   8
ATOM      8  S   UNL A   1      32.800  26.073  21.493  1.00  0.00     0.280 S 
ATOM      9  O   UNL A   1      33.911  26.942  21.759  1.00  0.00    -0.195 OA
ATOM     10  O   UNL A   1      32.589  25.636  20.123  1.00  0.00    -0.195 OA
BRANCH   8  11
ATOM     11  N   UNL A   1      32.891  24.653  22.397  1.00  0.00    -0.184 NA
ATOM     12  C   UNL A   1      32.152  21.635  22.654  1.00  0.00     0.040 C 
ATOM     13  C   UNL A   1      31.914  22.748  23.670  1.00  0.00     0.130 C 
ATOM     14  C   UNL A   1      31.669  24.111  23.021  1.00  0.00     0.135 C 
ATOM     15  O   UNL A   1      32.947  22.835  24.655  1.00  0.00    -0.373 OA
ATOM     16  C   UNL A   1      34.168  23.402  24.151  1.00  0.00     0.130 C 
ATOM     17  C   UNL A   1      33.952  24.760  23.456  1.00  0.00     0.135 C 
ATOM     18  C   UNL A   1      35.100  23.560  25.352  1.00  0.00     0.040 C 
ENDBRANCH   8  11
ENDBRANCH   6   8
ENDBRANCH   5   6
BRANCH   5  19
ATOM     19  C   UNL A   1      29.712  28.655  22.912  1.00  0.00     0.140 C 
ATOM     20  C   UNL A   1      29.419  29.750  21.884  1.00  0.00     0.040 C 
BRANCH  19  21
ATOM     21  O   UNL A   1      28.620  27.768  22.944  1.00  0.00    -0.391 OA
ATOM     22  H   UNL A   1      28.946  26.854  22.923  1.00  0.00     0.211 HD
ENDBRANCH  19  21
ENDBRANCH   5  19
ENDBRANCH   3   5
ENDBRANCH   2   3
ENDBRANCH   1   2
BRANCH   1  23
ATOM     23  C   UNL A   1      31.801  30.010  25.514  1.00  0.00     0.275 C 
BRANCH  23  24
ATOM     24  O   UNL A   1      32.294  30.067  26.868  1.00  0.00    -0.458 OA
BRANCH  24  25
ATOM     25  C   UNL A   1      32.942  31.207  27.206  1.00  0.00     0.338 C 
ATOM     26  O   UNL A   1      32.428  32.296  27.414  1.00  0.00    -0.246 OA
BRANCH  25  27
ATOM     27  C   UNL A   1      34.383  30.964  27.460  1.00  0.00     0.060 A 
ATOM     28  C   UNL A   1      34.839  29.674  27.696  1.00  0.00     0.016 A 
ATOM     29  C   UNL A   1      35.216  32.044  27.759  1.00  0.00     0.016 A 
ATOM     30  C   UNL A   1      36.002  29.498  28.452  1.00  0.00     0.010 A 
ATOM     31  C   UNL A   1      36.481  31.829  28.329  1.00  0.00     0.010 A 
ATOM     32  C   UNL A   1      36.881  30.553  28.755  1.00  0.00    -0.014 A 
BRANCH  32  33
ATOM     33  C   UNL A   1      38.187  30.325  29.485  1.00  0.00     0.031 A 
ATOM     34  C   UNL A   1      39.289  29.440  28.915  1.00  0.00     0.074 A 
ATOM     35  C   UNL A   1      38.404  30.872  30.705  1.00  0.00     0.049 A 
ATOM     36  N   UNL A   1      40.302  28.878  29.529  1.00  0.00    -0.248 NA
ATOM     37  C   UNL A   1      39.241  29.134  27.475  1.00  0.00     0.031 C 
ATOM     38  C   UNL A   1      37.497  31.772  31.420  1.00  0.00     0.029 A 
ATOM     39  N   UNL A   1      39.461  30.733  31.582  1.00  0.00    -0.354 N 
ATOM     40  C   UNL A   1      40.941  28.070  28.589  1.00  0.00     0.074 A 
ATOM     41  C   UNL A   1      40.218  28.242  27.346  1.00  0.00     0.031 C 
ATOM     42  C   UNL A   1      38.049  32.154  32.574  1.00  0.00     0.029 A 
ATOM     43  C   UNL A   1      39.256  31.375  32.783  1.00  0.00     0.049 A 
ATOM     44  H   UNL A   1      40.278  30.225  31.370  1.00  0.00     0.167 HD
ATOM     45  C   UNL A   1      42.022  27.262  28.743  1.00  0.00     0.034 A 
ATOM     46  C   UNL A   1      39.873  31.287  33.977  1.00  0.00     0.034 A 
ATOM     47  C   UNL A   1      42.806  27.167  29.951  1.00  0.00     0.049 A 
ATOM     48  C   UNL A   1      41.033  30.359  34.140  1.00  0.00     0.074 A 
ATOM     49  C   UNL A   1      43.950  26.416  30.177  1.00  0.00     0.029 A 
ATOM     50  N   UNL A   1      42.546  27.849  31.129  1.00  0.00    -0.354 N 
ATOM     51  N   UNL A   1      41.601  29.590  33.248  1.00  0.00    -0.248 NA
ATOM     52  C   UNL A   1      41.638  30.291  35.477  1.00  0.00     0.031 C 
ATOM     53  C   UNL A   1      44.357  26.614  31.500  1.00  0.00     0.029 A 
ATOM     54  C   UNL A   1      43.494  27.524  32.087  1.00  0.00     0.049 A 
ATOM     55  H   UNL A   1      41.797  28.472  31.266  1.00  0.00     0.167 HD
ATOM     56  C   UNL A   1      42.652  28.965  33.907  1.00  0.00     0.074 A 
ATOM     57  C   UNL A   1      42.652  29.465  35.266  1.00  0.00     0.031 C 
ATOM     58  C   UNL A   1      43.525  28.048  33.427  1.00  0.00     0.034 A 
BRANCH  45  59
ATOM     59  C   UNL A   1      42.449  26.390  27.580  1.00  0.00     0.023 A 
ATOM     60  C   UNL A   1      43.374  26.867  26.630  1.00  0.00     0.012 A 
ATOM     61  C   UNL A   1      42.011  25.049  27.497  1.00  0.00     0.148 A 
ATOM     62  C   UNL A   1      43.831  26.037  25.603  1.00  0.00     0.002 A 
ATOM     63  C   UNL A   1      42.507  24.215  26.501  1.00  0.00     0.091 A 
ATOM     64  F   UNL A   1      41.126  24.610  28.404  1.00  0.00    -0.205 F 
ATOM     65  C   UNL A   1      43.408  24.711  25.545  1.00  0.00     0.022 A 
BRANCH  63  66
ATOM     66  S   UNL A   1      42.091  22.469  26.396  1.00  0.00     0.127 S 
ATOM     67  O   UNL A   1      42.624  21.963  27.660  1.00  0.00    -0.237 OA
ATOM     68  O   UNL A   1      40.630  22.503  26.323  1.00  0.00    -0.237 OA
ATOM     69  O   UNL A   1      42.747  21.970  25.196  1.00  0.00    -0.744 OA
ENDBRANCH  63  66
ENDBRANCH  45  59
BRANCH  46  70
ATOM     70  C   UNL A   1      39.345  32.069  35.132  1.00  0.00     0.023 A 
ATOM     71  C   UNL A   1      38.463  31.456  36.040  1.00  0.00     0.012 A 
ATOM     72  C   UNL A   1      39.770  33.393  35.371  1.00  0.00     0.148 A 
ATOM     73  C   UNL A   1      38.001  32.153  37.157  1.00  0.00     0.002 A 
ATOM     74  C   UNL A   1      39.367  34.053  36.524  1.00  0.00     0.091 A 
ATOM     75  F   UNL A   1      40.596  33.965  34.484  1.00  0.00    -0.205 F 
ATOM     76  C   UNL A   1      38.467  33.442  37.409  1.00  0.00     0.022 A 
BRANCH  74  77
ATOM     77  S   UNL A   1      40.052  35.642  37.007  1.00  0.00     0.127 S 
ATOM     78  O   UNL A   1      41.478  35.339  37.093  1.00  0.00    -0.237 OA
ATOM     79  O   UNL A   1      39.668  36.492  35.880  1.00  0.00    -0.237 OA
ATOM     80  O   UNL A   1      39.400  35.987  38.264  1.00  0.00    -0.744 OA
ENDBRANCH  74  77
ENDBRANCH  46  70
BRANCH  58  81
ATOM     81  C   UNL A   1      44.599  27.563  34.365  1.00  0.00     0.023 A 
ATOM     82  C   UNL A   1      45.799  28.289  34.501  1.00  0.00     0.012 A 
ATOM     83  C   UNL A   1      44.404  26.399  35.132  1.00  0.00     0.148 A 
ATOM     84  C   UNL A   1      46.806  27.838  35.353  1.00  0.00     0.002 A 
ATOM     85  C   UNL A   1      45.390  25.984  36.019  1.00  0.00     0.091 A 
ATOM     86  F   UNL A   1      43.264  25.711  34.972  1.00  0.00    -0.205 F 
ATOM     87  C   UNL A   1      46.598  26.694  36.119  1.00  0.00     0.022 A 
BRANCH  85  88
ATOM     88  S   UNL A   1      45.176  24.574  37.111  1.00  0.00     0.127 S 
ATOM     89  O   UNL A   1      46.456  24.547  37.815  1.00  0.00    -0.237 OA
ATOM     90  O   UNL A   1      44.037  24.990  37.929  1.00  0.00    -0.237 OA
ATOM     91  O   UNL A   1      44.915  23.431  36.247  1.00  0.00    -0.744 OA
ENDBRANCH  85  88
ENDBRANCH  58  81
ENDBRANCH  32  33
ENDBRANCH  25  27
ENDBRANCH  24  25
ENDBRANCH  23  24
ENDBRANCH   1  23
TORSDOF 19
ENDMDL
MODEL 2
REMARK VINA RESULT:     -10.9      5.123      9.983
REMARK SMILES C[C@@H]1CN(S(=O)(=O)N[C@H](C(=O)OCCOC(=O)c2ccc(-c3c4nc(c(-c5cccc(S(=O)(=O)[O-])c5F)c5ccc([nH]5)c(-c5cccc(S(=O)(=O)[O-])c5F)c5nc(c(-c6cccc(S(=O)(=O)[O-])c6F)c6ccc3[nH]6)C=C5)C=C4)cc2)[C@@H](C)O)C[C@@H](C)O1
REMARK SMILES IDX 13 1 12 2 10 3 11 4 9 5 8 6 5 8 6 9 7 10 4 11 1 12 2 13 3 14
REMARK SMILES IDX 87 15 85 16 84 17 86 18 81 19 82 20 83 21 14 23 15 24 16 25
REMARK SMILES IDX 17 26 18 27 19 28 80 29 20 30 79 31 21 32 22 33 23 34 73 35
REMARK SMILES IDX 24 36 78 37 72 38 74 39 25 40 77 41 71 42 70 43 26 45 58 46
REMARK SMILES IDX 38 47 57 48 39 49 42 50 56 51 75 52 40 53 41 54 55 56 76 57
REMARK SMILES IDX 43 58 27 59 28 60 36 61 29 62 31 63 37 64 30 65 32 66 33 67
REMARK SMILES IDX 34 68 35 69 59 70 60 71 68 72 61 73 63 74 69 75 62 76 64 77
REMARK SMILES IDX 65 78 66 79 67 80 44 81 45 82 53 83 46 84 48 85 54 86 47 87
REMARK SMILES IDX 49 88 50 89 51 90 52 91
REMARK H PARENT 8 7 83 22 74 44 42 55
REMARK Flexibility Score: inf
ROOT
ATOM      1  C   UNL A   1      35.539  21.064  25.120  1.00  0.00     0.274 C 
ENDROOT
BRANCH   1   2
ATOM      2  O   UNL A   1      35.470  22.494  24.931  1.00  0.00    -0.461 OA
BRANCH   2   3
ATOM      3  C   UNL A   1      34.478  23.139  25.604  1.00  0.00     0.327 C 
ATOM      4  O   UNL A   1      34.486  23.382  26.807  1.00  0.00    -0.250 OA
BRANCH   3   5
ATOM      5  C   UNL A   1      33.308  23.525  24.673  1.00  0.00     0.208 C 
BRANCH   5   6
ATOM      6  N   UNL A   1      32.470  24.450  25.520  1.00  0.00    -0.185 NA
ATOM      7  H   UNL A   1      32.566  24.073  26.463  1.00  0.00     0.143 HD
BRANCH   6   8
ATOM      8  S   UNL A   1      30.871  24.860  25.416  1.00  0.00     0.280 S 
ATOM      9  O   UNL A   1      30.267  24.845  26.718  1.00  0.00    -0.195 OA
ATOM     10  O   UNL A   1      30.345  23.953  24.410  1.00  0.00    -0.195 OA
BRANCH   8  11
ATOM     11  N   UNL A   1      30.791  26.389  24.711  1.00  0.00    -0.184 NA
ATOM     12  C   UNL A   1      29.176  28.419  22.983  1.00  0.00     0.040 C 
ATOM     13  C   UNL A   1      30.614  27.953  22.780  1.00  0.00     0.130 C 
ATOM     14  C   UNL A   1      30.848  26.514  23.242  1.00  0.00     0.135 C 
ATOM     15  O   UNL A   1      31.575  28.836  23.366  1.00  0.00    -0.373 OA
ATOM     16  C   UNL A   1      31.630  28.748  24.799  1.00  0.00     0.130 C 
ATOM     17  C   UNL A   1      31.828  27.304  25.301  1.00  0.00     0.135 C 
ATOM     18  C   UNL A   1      32.794  29.631  25.243  1.00  0.00     0.040 C 
ENDBRANCH   8  11
ENDBRANCH   6   8
ENDBRANCH   5   6
BRANCH   5  19
ATOM     19  C   UNL A   1      33.944  23.956  23.335  1.00  0.00     0.140 C 
ATOM     20  C   UNL A   1      33.307  23.346  22.085  1.00  0.00     0.040 C 
BRANCH  19  21
ATOM     21  O   UNL A   1      34.071  25.343  23.142  1.00  0.00    -0.391 OA
ATOM     22  H   UNL A   1      33.266  25.788  23.449  1.00  0.00     0.211 HD
ENDBRANCH  19  21
ENDBRANCH   5  19
ENDBRANCH   3   5
ENDBRANCH   2   3
ENDBRANCH   1   2
BRANCH   1  23
ATOM     23  C   UNL A   1      36.978  20.588  24.948  1.00  0.00     0.275 C 
BRANCH  23  24
ATOM     24  O   UNL A   1      37.876  21.703  25.116  1.00  0.00    -0.458 OA
BRANCH  24  25
ATOM     25  C   UNL A   1      38.986  21.454  25.851  1.00  0.00     0.338 C 
ATOM     26  O   UNL A   1      39.717  20.480  25.749  1.00  0.00    -0.246 OA
BRANCH  25  27
ATOM     27  C   UNL A   1      39.333  22.599  26.727  1.00  0.00     0.060 A 
ATOM     28  C   UNL A   1      38.786  23.851  26.482  1.00  0.00     0.016 A 
ATOM     29  C   UNL A   1      40.422  22.491  27.594  1.00  0.00     0.016 A 
ATOM     30  C   UNL A   1      39.485  24.987  26.902  1.00  0.00     0.010 A 
ATOM     31  C   UNL A   1      40.981  23.640  28.178  1.00  0.00     0.010 A 
ATOM     32  C   UNL A   1      40.572  24.926  27.793  1.00  0.00    -0.014 A 
BRANCH  32  33
ATOM     33  C   UNL A   1      41.251  26.173  28.317  1.00  0.00     0.031 A 
ATOM     34  C   UNL A   1      40.487  27.251  29.077  1.00  0.00     0.074 A 
ATOM     35  C   UNL A   1      42.567  26.394  28.088  1.00  0.00     0.049 A 
ATOM     36  N   UNL A   1      40.819  28.501  29.300  1.00  0.00    -0.248 NA
ATOM     37  C   UNL A   1      39.178  26.888  29.645  1.00  0.00     0.031 C 
ATOM     38  C   UNL A   1      43.489  25.481  27.409  1.00  0.00     0.029 A 
ATOM     39  N   UNL A   1      43.365  27.480  28.386  1.00  0.00    -0.354 N 
ATOM     40  C   UNL A   1      39.726  29.098  29.928  1.00  0.00     0.074 A 
ATOM     41  C   UNL A   1      38.728  28.060  30.083  1.00  0.00     0.031 C 
ATOM     42  C   UNL A   1      44.719  26.001  27.398  1.00  0.00     0.029 A 
ATOM     43  C   UNL A   1      44.644  27.366  27.886  1.00  0.00     0.049 A 
ATOM     44  H   UNL A   1      43.052  28.258  28.902  1.00  0.00     0.167 HD
ATOM     45  C   UNL A   1      39.566  30.384  30.336  1.00  0.00     0.034 A 
ATOM     46  C   UNL A   1      45.634  28.262  27.710  1.00  0.00     0.034 A 
ATOM     47  C   UNL A   1      40.596  31.394  30.277  1.00  0.00     0.049 A 
ATOM     48  C   UNL A   1      45.424  29.682  28.123  1.00  0.00     0.074 A 
ATOM     49  C   UNL A   1      40.537  32.706  30.719  1.00  0.00     0.029 A 
ATOM     50  N   UNL A   1      41.869  31.209  29.763  1.00  0.00    -0.354 N 
ATOM     51  N   UNL A   1      44.378  30.227  28.690  1.00  0.00    -0.248 NA
ATOM     52  C   UNL A   1      46.534  30.611  27.874  1.00  0.00     0.031 C 
ATOM     53  C   UNL A   1      41.760  33.324  30.437  1.00  0.00     0.029 A 
ATOM     54  C   UNL A   1      42.597  32.385  29.861  1.00  0.00     0.049 A 
ATOM     55  H   UNL A   1      42.207  30.366  29.383  1.00  0.00     0.167 HD
ATOM     56  C   UNL A   1      44.714  31.559  28.893  1.00  0.00     0.074 A 
ATOM     57  C   UNL A   1      46.068  31.731  28.409  1.00  0.00     0.031 C 
ATOM     58  C   UNL A   1      43.957  32.551  29.420  1.00  0.00     0.034 A 
BRANCH  45  59
ATOM     59  C   UNL A   1      38.222  30.808  30.890  1.00  0.00     0.023 A 
ATOM     60  C   UNL A   1      37.920  30.624  32.254  1.00  0.00     0.012 A 
ATOM     61  C   UNL A   1      37.299  31.497  30.071  1.00  0.00     0.148 A 
ATOM     62  C   UNL A   1      36.713  31.088  32.785  1.00  0.00     0.002 A 
ATOM     63  C   UNL A   1      36.122  31.997  30.617  1.00  0.00     0.091 A 
ATOM     64  F   UNL A   1      37.596  31.660  28.774  1.00  0.00    -0.205 F 
ATOM     65  C   UNL A   1      35.821  31.783  31.971  1.00  0.00     0.022 A 
BRANCH  63  66
ATOM     66  S   UNL A   1      34.952  32.982  29.672  1.00  0.00     0.127 S 
ATOM     67  O   UNL A   1      34.386  31.981  28.769  1.00  0.00    -0.237 OA
ATOM     68  O   UNL A   1      34.034  33.453  30.710  1.00  0.00    -0.237 OA
ATOM     69  O   UNL A   1      35.733  34.030  29.031  1.00  0.00    -0.744 OA
ENDBRANCH  63  66
ENDBRANCH  45  59
BRANCH  46  70
ATOM     70  C   UNL A   1      46.899  27.833  27.046  1.00  0.00     0.023 A 
ATOM     71  C   UNL A   1      47.911  27.224  27.809  1.00  0.00     0.012 A 
ATOM     72  C   UNL A   1      47.070  27.964  25.652  1.00  0.00     0.148 A 
ATOM     73  C   UNL A   1      49.078  26.765  27.196  1.00  0.00     0.002 A 
ATOM     74  C   UNL A   1      48.199  27.437  25.040  1.00  0.00     0.091 A 
ATOM     75  F   UNL A   1      46.101  28.565  24.946  1.00  0.00    -0.205 F 
ATOM     76  C   UNL A   1      49.214  26.856  25.812  1.00  0.00     0.022 A 
BRANCH  74  77
ATOM     77  S   UNL A   1      48.372  27.359  23.253  1.00  0.00     0.127 S 
ATOM     78  O   UNL A   1      48.302  25.922  23.009  1.00  0.00    -0.237 OA
ATOM     79  O   UNL A   1      47.206  28.120  22.803  1.00  0.00    -0.237 OA
ATOM     80  O   UNL A   1      49.650  27.992  22.952  1.00  0.00    -0.744 OA
ENDBRANCH  74  77
ENDBRANCH  46  70
BRANCH  58  81
ATOM     81  C   UNL A   1      44.598  33.907  29.557  1.00  0.00     0.023 A 
ATOM     82  C   UNL A   1      45.278  34.251  30.742  1.00  0.00     0.012 A 
ATOM     83  C   UNL A   1      44.547  34.831  28.496  1.00  0.00     0.148 A 
ATOM     84  C   UNL A   1      45.858  35.510  30.886  1.00  0.00     0.002 A 
ATOM     85  C   UNL A   1      45.172  36.065  28.626  1.00  0.00     0.091 A 
ATOM     86  F   UNL A   1      43.876  34.493  27.385  1.00  0.00    -0.205 F 
ATOM     87  C   UNL A   1      45.816  36.412  29.825  1.00  0.00     0.022 A 
BRANCH  85  88
ATOM     88  S   UNL A   1      45.246  37.255  27.283  1.00  0.00     0.127 S 
ATOM     89  O   UNL A   1      45.973  38.360  27.905  1.00  0.00    -0.237 OA
ATOM     90  O   UNL A   1      46.002  36.524  26.265  1.00  0.00    -0.237 OA
ATOM     91  O   UNL A   1      43.865  37.542  26.921  1.00  0.00    -0.744 OA
ENDBRANCH  85  88
ENDBRANCH  58  81
ENDBRANCH  32  33
ENDBRANCH  25  27
ENDBRANCH  24  25
ENDBRANCH  23  24
ENDBRANCH   1  23
TORSDOF 19
ENDMDL
MODEL 3
REMARK VINA RESULT:     -10.7      1.723      2.215
REMARK SMILES C[C@@H]1CN(S(=O)(=O)N[C@H](C(=O)OCCOC(=O)c2ccc(-c3c4nc(c(-c5cccc(S(=O)(=O)[O-])c5F)c5ccc([nH]5)c(-c5cccc(S(=O)(=O)[O-])c5F)c5nc(c(-c6cccc(S(=O)(=O)[O-])c6F)c6ccc3[nH]6)C=C5)C=C4)cc2)[C@@H](C)O)C[C@@H](C)O1
REMARK SMILES IDX 13 1 12 2 10 3 11 4 9 5 8 6 5 8 6 9 7 10 4 11 1 12 2 13 3 14
REMARK SMILES IDX 87 15 85 16 84 17 86 18 81 19 82 20 83 21 14 23 15 24 16 25
REMARK SMILES IDX 17 26 18 27 19 28 80 29 20 30 79 31 21 32 22 33 23 34 73 35
REMARK SMILES IDX 24 36 78 37 72 38 74 39 25 40 77 41 71 42 70 43 26 45 58 46
REMARK SMILES IDX 38 47 57 48 39 49 42 50 56 51 75 52 40 53 41 54 55 56 76 57
REMARK SMILES IDX 43 58 27 59 28 60 36 61 29 62 31 63 37 64 30 65 32 66 33 67
REMARK SMILES IDX 34 68 35 69 59 70 60 71 68 72 61 73 63 74 69 75 62 76 64 77
REMARK SMILES IDX 65 78 66 79 67 80 44 81 45 82 53 83 46 84 48 85 54 86 47 87
REMARK SMILES IDX 49 88 50 89 51 90 52 91
REMARK H PARENT 8 7 83 22 74 44 42 55
REMARK Flexibility Score: inf
ROOT
ATOM      1  C   UNL A   1      31.947  28.590  27.562  1.00  0.00     0.274 C 
ENDROOT
BRANCH   1   2
ATOM      2  O   UNL A   1      31.701  27.615  26.525  1.00  0.00    -0.461 OA
BRANCH   2   3
ATOM      3  C   UNL A   1      32.790  27.208  25.817  1.00  0.00     0.327 C 
ATOM      4  O   UNL A   1      33.808  26.728  26.305  1.00  0.00    -0.250 OA
BRANCH   3   5
ATOM      5  C   UNL A   1      32.608  27.438  24.301  1.00  0.00     0.208 C 
BRANCH   5   6
ATOM      6  N   UNL A   1      33.600  26.489  23.676  1.00  0.00    -0.185 NA
ATOM      7  H   UNL A   1      33.848  26.940  22.795  1.00  0.00     0.143 HD
BRANCH   6   8
ATOM      8  S   UNL A   1      33.465  24.889  23.280  1.00  0.00     0.280 S 
ATOM      9  O   UNL A   1      33.822  24.683  21.906  1.00  0.00    -0.195 OA
ATOM     10  O   UNL A   1      32.115  24.543  23.692  1.00  0.00    -0.195 OA
BRANCH   8  11
ATOM     11  N   UNL A   1      34.474  24.030  24.321  1.00  0.00    -0.184 NA
ATOM     12  C   UNL A   1      37.382  23.318  25.191  1.00  0.00     0.040 C 
ATOM     13  C   UNL A   1      36.248  22.360  24.842  1.00  0.00     0.130 C 
ATOM     14  C   UNL A   1      35.290  22.922  23.790  1.00  0.00     0.135 C 
ATOM     15  O   UNL A   1      35.527  21.906  25.992  1.00  0.00    -0.373 OA
ATOM     16  C   UNL A   1      34.661  22.906  26.552  1.00  0.00     0.130 C 
ATOM     17  C   UNL A   1      33.707  23.521  25.510  1.00  0.00     0.135 C 
ATOM     18  C   UNL A   1      33.867  22.219  27.661  1.00  0.00     0.040 C 
ENDBRANCH   8  11
ENDBRANCH   6   8
ENDBRANCH   5   6
BRANCH   5  19
ATOM     19  C   UNL A   1      31.091  27.365  24.031  1.00  0.00     0.140 C 
ATOM     20  C   UNL A   1      30.685  27.467  22.560  1.00  0.00     0.040 C 
BRANCH  19  21
ATOM     21  O   UNL A   1      30.424  26.268  24.605  1.00  0.00    -0.391 OA
ATOM     22  H   UNL A   1      30.188  25.634  23.910  1.00  0.00     0.211 HD
ENDBRANCH  19  21
ENDBRANCH   5  19
ENDBRANCH   3   5
ENDBRANCH   2   3
ENDBRANCH   1   2
BRANCH   1  23
ATOM     23  C   UNL A   1      31.844  29.998  26.983  1.00  0.00     0.275 C 
BRANCH  23  24
ATOM     24  O   UNL A   1      33.151  30.442  26.566  1.00  0.00    -0.458 OA
BRANCH  24  25
ATOM     25  C   UNL A   1      33.752  31.338  27.385  1.00  0.00     0.338 C 
ATOM     26  O   UNL A   1      33.199  32.229  28.012  1.00  0.00    -0.246 OA
BRANCH  25  27
ATOM     27  C   UNL A   1      35.189  31.027  27.577  1.00  0.00     0.060 A 
ATOM     28  C   UNL A   1      35.611  29.706  27.647  1.00  0.00     0.016 A 
ATOM     29  C   UNL A   1      36.059  32.040  27.985  1.00  0.00     0.016 A 
ATOM     30  C   UNL A   1      36.782  29.407  28.350  1.00  0.00     0.010 A 
ATOM     31  C   UNL A   1      37.328  31.723  28.496  1.00  0.00     0.010 A 
ATOM     32  C   UNL A   1      37.698  30.394  28.758  1.00  0.00    -0.014 A 
BRANCH  32  33
ATOM     33  C   UNL A   1      39.009  30.045  29.427  1.00  0.00     0.031 A 
ATOM     34  C   UNL A   1      39.977  29.030  28.829  1.00  0.00     0.074 A 
ATOM     35  C   UNL A   1      39.351  30.597  30.615  1.00  0.00     0.049 A 
ATOM     36  N   UNL A   1      40.956  28.376  29.409  1.00  0.00    -0.248 NA
ATOM     37  C   UNL A   1      39.818  28.693  27.404  1.00  0.00     0.031 C 
ATOM     38  C   UNL A   1      38.586  31.609  31.347  1.00  0.00     0.029 A 
ATOM     39  N   UNL A   1      40.433  30.366  31.441  1.00  0.00    -0.354 N 
ATOM     40  C   UNL A   1      41.452  27.479  28.463  1.00  0.00     0.074 A 
ATOM     41  C   UNL A   1      40.684  27.696  27.254  1.00  0.00     0.031 C 
ATOM     42  C   UNL A   1      39.239  31.958  32.458  1.00  0.00     0.029 A 
ATOM     43  C   UNL A   1      40.365  31.058  32.630  1.00  0.00     0.049 A 
ATOM     44  H   UNL A   1      41.177  29.767  31.203  1.00  0.00     0.167 HD
ATOM     45  C   UNL A   1      42.446  26.562  28.587  1.00  0.00     0.034 A 
ATOM     46  C   UNL A   1      41.033  30.935  33.792  1.00  0.00     0.034 A 
ATOM     47  C   UNL A   1      43.281  26.414  29.756  1.00  0.00     0.049 A 
ATOM     48  C   UNL A   1      42.093  29.890  33.925  1.00  0.00     0.074 A 
ATOM     49  C   UNL A   1      44.347  25.549  29.946  1.00  0.00     0.029 A 
ATOM     50  N   UNL A   1      43.160  27.151  30.923  1.00  0.00    -0.354 N 
ATOM     51  N   UNL A   1      42.526  29.040  33.030  1.00  0.00    -0.248 NA
ATOM     52  C   UNL A   1      42.759  29.792  35.231  1.00  0.00     0.031 C 
ATOM     53  C   UNL A   1      44.845  25.736  31.240  1.00  0.00     0.029 A 
ATOM     54  C   UNL A   1      44.119  26.749  31.841  1.00  0.00     0.049 A 
ATOM     55  H   UNL A   1      42.491  27.856  31.078  1.00  0.00     0.167 HD
ATOM     56  C   UNL A   1      43.537  28.322  33.654  1.00  0.00     0.074 A 
ATOM     57  C   UNL A   1      43.666  28.854  34.995  1.00  0.00     0.031 C 
ATOM     58  C   UNL A   1      44.279  27.302  33.160  1.00  0.00     0.034 A 
BRANCH  45  59
ATOM     59  C   UNL A   1      42.712  25.619  27.433  1.00  0.00     0.023 A 
ATOM     60  C   UNL A   1      43.634  25.963  26.424  1.00  0.00     0.012 A 
ATOM     61  C   UNL A   1      42.124  24.333  27.413  1.00  0.00     0.148 A 
ATOM     62  C   UNL A   1      43.942  25.061  25.402  1.00  0.00     0.002 A 
ATOM     63  C   UNL A   1      42.472  23.424  26.419  1.00  0.00     0.091 A 
ATOM     64  F   UNL A   1      41.244  24.020  28.374  1.00  0.00    -0.205 F 
ATOM     65  C   UNL A   1      43.371  23.791  25.406  1.00  0.00     0.022 A 
BRANCH  63  66
ATOM     66  S   UNL A   1      41.859  21.734  26.389  1.00  0.00     0.127 S 
ATOM     67  O   UNL A   1      42.680  21.142  25.334  1.00  0.00    -0.237 OA
ATOM     68  O   UNL A   1      42.174  21.267  27.739  1.00  0.00    -0.237 OA
ATOM     69  O   UNL A   1      40.436  21.826  26.096  1.00  0.00    -0.744 OA
ENDBRANCH  63  66
ENDBRANCH  45  59
BRANCH  46  70
ATOM     70  C   UNL A   1      40.656  31.800  34.948  1.00  0.00     0.023 A 
ATOM     71  C   UNL A   1      41.287  33.045  35.117  1.00  0.00     0.012 A 
ATOM     72  C   UNL A   1      39.626  31.423  35.835  1.00  0.00     0.148 A 
ATOM     73  C   UNL A   1      40.910  33.893  36.160  1.00  0.00     0.002 A 
ATOM     74  C   UNL A   1      39.204  32.303  36.822  1.00  0.00     0.091 A 
ATOM     75  F   UNL A   1      39.050  30.223  35.667  1.00  0.00    -0.205 F 
ATOM     76  C   UNL A   1      39.858  33.530  36.999  1.00  0.00     0.022 A 
BRANCH  74  77
ATOM     77  S   UNL A   1      37.752  31.987  37.830  1.00  0.00     0.127 S 
ATOM     78  O   UNL A   1      37.449  30.599  37.491  1.00  0.00    -0.237 OA
ATOM     79  O   UNL A   1      38.271  32.193  39.182  1.00  0.00    -0.237 OA
ATOM     80  O   UNL A   1      36.761  32.971  37.415  1.00  0.00    -0.744 OA
ENDBRANCH  74  77
ENDBRANCH  46  70
BRANCH  58  81
ATOM     81  C   UNL A   1      45.344  26.728  34.056  1.00  0.00     0.023 A 
ATOM     82  C   UNL A   1      46.648  27.262  34.036  1.00  0.00     0.012 A 
ATOM     83  C   UNL A   1      45.042  25.674  34.939  1.00  0.00     0.148 A 
ATOM     84  C   UNL A   1      47.645  26.725  34.849  1.00  0.00     0.002 A 
ATOM     85  C   UNL A   1      46.027  25.179  35.785  1.00  0.00     0.091 A 
ATOM     86  F   UNL A   1      43.801  25.166  34.928  1.00  0.00    -0.205 F 
ATOM     87  C   UNL A   1      47.333  25.692  35.730  1.00  0.00     0.022 A 
BRANCH  85  88
ATOM     88  S   UNL A   1      45.696  23.912  37.014  1.00  0.00     0.127 S 
ATOM     89  O   UNL A   1      47.003  23.768  37.652  1.00  0.00    -0.237 OA
ATOM     90  O   UNL A   1      44.677  24.551  37.847  1.00  0.00    -0.237 OA
ATOM     91  O   UNL A   1      45.230  22.746  36.277  1.00  0.00    -0.744 OA
ENDBRANCH  85  88
ENDBRANCH  58  81
ENDBRANCH  32  33
ENDBRANCH  25  27
ENDBRANCH  24  25
ENDBRANCH  23  24
ENDBRANCH   1  23
TORSDOF 19
ENDMDL
