MODEL 1
REMARK VINA RESULT:     -12.1      0.000      0.000
REMARK SMILES Cc1ccc(C(=O)N2C[C@H](C(=O)OCCOC(=O)c3ccc(-c4c5nc(c(-c6cccc(S(=O)(=O)[O-])c6F)c6ccc([nH]6)c(-c6cccc(S(=O)(=O)[O-])c6F)c6nc(c(-c7cccc(S(=O)(=O)[O-])c7F)c7ccc4[nH]7)C=C6)C=C5)cc3)Oc3ccccc32)o1
REMARK SMILES IDX 15 1 14 2 13 3 11 4 12 5 10 6 8 7 9 8 88 9 83 10 87 11 82 12
REMARK SMILES IDX 84 13 86 14 85 15 6 16 7 17 5 18 1 19 2 20 3 21 89 22 4 23
REMARK SMILES IDX 16 24 17 25 18 26 19 27 20 28 81 29 21 30 80 31 22 32 23 33
REMARK SMILES IDX 24 34 74 35 25 36 79 37 73 38 75 39 26 40 78 41 72 42 71 43
REMARK SMILES IDX 27 45 59 46 39 47 58 48 40 49 43 50 57 51 76 52 41 53 42 54
REMARK SMILES IDX 56 56 77 57 44 58 28 59 29 60 37 61 30 62 32 63 38 64 31 65
REMARK SMILES IDX 33 66 34 67 35 68 36 69 60 70 61 71 69 72 62 73 64 74 70 75
REMARK SMILES IDX 63 76 65 77 66 78 67 79 68 80 45 81 46 82 54 83 47 84 49 85
REMARK SMILES IDX 55 86 48 87 50 88 51 89 52 90 53 91
REMARK H PARENT 75 44 43 55
REMARK Flexibility Score: inf
ROOT
ATOM      1  C   UNL A   1      31.827  32.964  26.630  1.00  0.00     0.275 C 
ENDROOT
BRANCH   1   2
ATOM      2  C   UNL A   1      31.250  31.589  26.266  1.00  0.00     0.274 C 
BRANCH   2   3
ATOM      3  O   UNL A   1      31.811  30.522  27.060  1.00  0.00    -0.459 OA
BRANCH   3   4
ATOM      4  C   UNL A   1      32.708  29.728  26.413  1.00  0.00     0.349 C 
ATOM      5  O   UNL A   1      33.911  29.962  26.350  1.00  0.00    -0.248 OA
BRANCH   4   6
ATOM      6  C   UNL A   1      32.078  28.527  25.726  1.00  0.00     0.302 C 
ATOM      7  N   UNL A   1      31.528  27.319  23.670  1.00  0.00    -0.298 N 
ATOM      8  C   UNL A   1      32.295  28.452  24.218  1.00  0.00     0.183 C 
ATOM      9  C   UNL A   1      31.406  26.182  24.536  1.00  0.00     0.087 A 
ATOM     10  C   UNL A   1      31.965  26.225  25.828  1.00  0.00     0.144 A 
ATOM     11  C   UNL A   1      30.791  24.993  24.121  1.00  0.00     0.030 A 
ATOM     12  O   UNL A   1      32.582  27.340  26.348  1.00  0.00    -0.475 OA
ATOM     13  C   UNL A   1      31.918  25.112  26.670  1.00  0.00     0.049 A 
ATOM     14  C   UNL A   1      30.728  23.885  24.972  1.00  0.00     0.002 A 
ATOM     15  C   UNL A   1      31.292  23.944  26.243  1.00  0.00     0.004 A 
BRANCH   7  16
ATOM     16  C   UNL A   1      30.799  27.423  22.476  1.00  0.00     0.294 C 
ATOM     17  O   UNL A   1      31.216  26.916  21.433  1.00  0.00    -0.265 OA
BRANCH  16  18
ATOM     18  C   UNL A   1      29.582  28.224  22.497  1.00  0.00     0.192 A 
ATOM     19  C   UNL A   1      28.149  31.165  21.033  1.00  0.00     0.087 C 
ATOM     20  C   UNL A   1      28.374  29.967  21.866  1.00  0.00     0.101 A 
ATOM     21  C   UNL A   1      27.688  29.380  22.902  1.00  0.00     0.046 A 
ATOM     22  O   UNL A   1      29.511  29.269  21.609  1.00  0.00    -0.456 OA
ATOM     23  C   UNL A   1      28.462  28.264  23.311  1.00  0.00     0.056 A 
ENDBRANCH  16  18
ENDBRANCH   7  16
ENDBRANCH   4   6
ENDBRANCH   3   4
ENDBRANCH   2   3
ENDBRANCH   1   2
BRANCH   1  24
ATOM     24  O   UNL A   1      32.444  32.980  27.931  1.00  0.00    -0.458 OA
BRANCH  24  25
ATOM     25  C   UNL A   1      33.512  33.803  28.035  1.00  0.00     0.338 C 
ATOM     26  O   UNL A   1      33.497  35.023  27.983  1.00  0.00    -0.246 OA
BRANCH  25  27
ATOM     27  C   UNL A   1      34.728  33.046  28.377  1.00  0.00     0.060 A 
ATOM     28  C   UNL A   1      34.564  31.813  29.015  1.00  0.00     0.016 A 
ATOM     29  C   UNL A   1      36.000  33.589  28.195  1.00  0.00     0.016 A 
ATOM     30  C   UNL A   1      35.670  31.129  29.509  1.00  0.00     0.010 A 
ATOM     31  C   UNL A   1      37.112  32.900  28.692  1.00  0.00     0.010 A 
ATOM     32  C   UNL A   1      36.949  31.683  29.378  1.00  0.00    -0.014 A 
BRANCH  32  33
ATOM     33  C   UNL A   1      38.095  31.023  30.048  1.00  0.00     0.031 A 
ATOM     34  C   UNL A   1      38.444  31.401  31.460  1.00  0.00     0.074 A 
ATOM     35  C   UNL A   1      38.798  30.074  29.404  1.00  0.00     0.049 A 
ATOM     36  N   UNL A   1      39.422  30.969  32.213  1.00  0.00    -0.248 NA
ATOM     37  C   UNL A   1      37.582  32.400  32.111  1.00  0.00     0.031 C 
ATOM     38  C   UNL A   1      38.543  29.614  28.039  1.00  0.00     0.029 A 
ATOM     39  N   UNL A   1      39.880  29.334  29.812  1.00  0.00    -0.354 N 
ATOM     40  C   UNL A   1      39.319  31.668  33.408  1.00  0.00     0.074 A 
ATOM     41  C   UNL A   1      38.184  32.559  33.281  1.00  0.00     0.031 C 
ATOM     42  C   UNL A   1      39.453  28.680  27.716  1.00  0.00     0.029 A 
ATOM     43  C   UNL A   1      40.368  28.494  28.839  1.00  0.00     0.049 A 
ATOM     44  H   UNL A   1      40.268  29.398  30.714  1.00  0.00     0.167 HD
ATOM     45  C   UNL A   1      40.086  31.565  34.519  1.00  0.00     0.034 A 
ATOM     46  C   UNL A   1      41.440  27.679  28.850  1.00  0.00     0.034 A 
ATOM     47  C   UNL A   1      41.181  30.645  34.660  1.00  0.00     0.049 A 
ATOM     48  C   UNL A   1      42.270  27.576  30.102  1.00  0.00     0.074 A 
ATOM     49  C   UNL A   1      41.998  30.442  35.759  1.00  0.00     0.029 A 
ATOM     50  N   UNL A   1      41.609  29.768  33.675  1.00  0.00    -0.354 N 
ATOM     51  N   UNL A   1      42.102  28.177  31.256  1.00  0.00    -0.248 NA
ATOM     52  C   UNL A   1      43.417  26.657  30.067  1.00  0.00     0.031 C 
ATOM     53  C   UNL A   1      42.926  29.445  35.435  1.00  0.00     0.029 A 
ATOM     54  C   UNL A   1      42.679  29.021  34.138  1.00  0.00     0.049 A 
ATOM     55  H   UNL A   1      41.210  29.688  32.779  1.00  0.00     0.167 HD
ATOM     56  C   UNL A   1      43.099  27.687  32.091  1.00  0.00     0.074 A 
ATOM     57  C   UNL A   1      43.855  26.723  31.317  1.00  0.00     0.031 C 
ATOM     58  C   UNL A   1      43.379  28.019  33.377  1.00  0.00     0.034 A 
BRANCH  45  59
ATOM     59  C   UNL A   1      39.744  32.452  35.687  1.00  0.00     0.023 A 
ATOM     60  C   UNL A   1      40.317  33.737  35.774  1.00  0.00     0.012 A 
ATOM     61  C   UNL A   1      38.823  32.037  36.668  1.00  0.00     0.148 A 
ATOM     62  C   UNL A   1      39.999  34.584  36.834  1.00  0.00     0.002 A 
ATOM     63  C   UNL A   1      38.484  32.901  37.702  1.00  0.00     0.091 A 
ATOM     64  F   UNL A   1      38.310  30.801  36.582  1.00  0.00    -0.205 F 
ATOM     65  C   UNL A   1      39.076  34.172  37.791  1.00  0.00     0.022 A 
BRANCH  63  66
ATOM     66  S   UNL A   1      37.254  32.481  38.943  1.00  0.00     0.127 S 
ATOM     67  O   UNL A   1      37.581  33.422  40.014  1.00  0.00    -0.237 OA
ATOM     68  O   UNL A   1      35.998  32.764  38.247  1.00  0.00    -0.237 OA
ATOM     69  O   UNL A   1      37.467  31.076  39.255  1.00  0.00    -0.744 OA
ENDBRANCH  63  66
ENDBRANCH  45  59
BRANCH  46  70
ATOM     70  C   UNL A   1      41.760  26.859  27.648  1.00  0.00     0.023 A 
ATOM     71  C   UNL A   1      42.370  27.470  26.535  1.00  0.00     0.012 A 
ATOM     72  C   UNL A   1      41.495  25.476  27.613  1.00  0.00     0.148 A 
ATOM     73  C   UNL A   1      42.688  26.723  25.400  1.00  0.00     0.002 A 
ATOM     74  C   UNL A   1      41.863  24.728  26.500  1.00  0.00     0.091 A 
ATOM     75  F   UNL A   1      40.893  24.916  28.671  1.00  0.00    -0.205 F 
ATOM     76  C   UNL A   1      42.446  25.352  25.387  1.00  0.00     0.022 A 
BRANCH  74  77
ATOM     77  S   UNL A   1      41.705  22.939  26.456  1.00  0.00     0.127 S 
ATOM     78  O   UNL A   1      42.278  22.619  25.151  1.00  0.00    -0.237 OA
ATOM     79  O   UNL A   1      42.516  22.531  27.603  1.00  0.00    -0.237 OA
ATOM     80  O   UNL A   1      40.281  22.673  26.609  1.00  0.00    -0.744 OA
ENDBRANCH  74  77
ENDBRANCH  46  70
BRANCH  58  81
ATOM     81  C   UNL A   1      44.530  27.317  34.045  1.00  0.00     0.023 A 
ATOM     82  C   UNL A   1      45.827  27.858  33.945  1.00  0.00     0.012 A 
ATOM     83  C   UNL A   1      44.317  26.171  34.838  1.00  0.00     0.148 A 
ATOM     84  C   UNL A   1      46.899  27.255  34.600  1.00  0.00     0.002 A 
ATOM     85  C   UNL A   1      45.384  25.600  35.522  1.00  0.00     0.091 A 
ATOM     86  F   UNL A   1      43.080  25.658  34.904  1.00  0.00    -0.205 F 
ATOM     87  C   UNL A   1      46.676  26.134  35.397  1.00  0.00     0.022 A 
BRANCH  85  88
ATOM     88  S   UNL A   1      45.165  24.211  36.642  1.00  0.00     0.127 S 
ATOM     89  O   UNL A   1      46.523  24.013  37.142  1.00  0.00    -0.237 OA
ATOM     90  O   UNL A   1      44.225  24.746  37.628  1.00  0.00    -0.237 OA
ATOM     91  O   UNL A   1      44.627  23.128  35.828  1.00  0.00    -0.744 OA
ENDBRANCH  85  88
ENDBRANCH  58  81
ENDBRANCH  32  33
ENDBRANCH  25  27
ENDBRANCH  24  25
ENDBRANCH   1  24
TORSDOF 16
ENDMDL
MODEL 2
REMARK VINA RESULT:     -12.0      1.265      1.582
REMARK SMILES Cc1ccc(C(=O)N2C[C@H](C(=O)OCCOC(=O)c3ccc(-c4c5nc(c(-c6cccc(S(=O)(=O)[O-])c6F)c6ccc([nH]6)c(-c6cccc(S(=O)(=O)[O-])c6F)c6nc(c(-c7cccc(S(=O)(=O)[O-])c7F)c7ccc4[nH]7)C=C6)C=C5)cc3)Oc3ccccc32)o1
REMARK SMILES IDX 15 1 14 2 13 3 11 4 12 5 10 6 8 7 9 8 88 9 83 10 87 11 82 12
REMARK SMILES IDX 84 13 86 14 85 15 6 16 7 17 5 18 1 19 2 20 3 21 89 22 4 23
REMARK SMILES IDX 16 24 17 25 18 26 19 27 20 28 81 29 21 30 80 31 22 32 23 33
REMARK SMILES IDX 24 34 74 35 25 36 79 37 73 38 75 39 26 40 78 41 72 42 71 43
REMARK SMILES IDX 27 45 59 46 39 47 58 48 40 49 43 50 57 51 76 52 41 53 42 54
REMARK SMILES IDX 56 56 77 57 44 58 28 59 29 60 37 61 30 62 32 63 38 64 31 65
REMARK SMILES IDX 33 66 34 67 35 68 36 69 60 70 61 71 69 72 62 73 64 74 70 75
REMARK SMILES IDX 63 76 65 77 66 78 67 79 68 80 45 81 46 82 54 83 47 84 49 85
REMARK SMILES IDX 55 86 48 87 50 88 51 89 52 90 53 91
REMARK H PARENT 75 44 43 55
REMARK Flexibility Score: inf
ROOT
ATOM      1  C   UNL A   1      31.527  32.504  26.906  1.00  0.00     0.275 C 
ENDROOT
BRANCH   1   2
ATOM      2  C   UNL A   1      31.472  31.141  26.204  1.00  0.00     0.274 C 
BRANCH   2   3
ATOM      3  O   UNL A   1      31.877  30.054  27.065  1.00  0.00    -0.459 OA
BRANCH   3   4
ATOM      4  C   UNL A   1      32.798  29.205  26.533  1.00  0.00     0.349 C 
ATOM      5  O   UNL A   1      34.012  29.366  26.622  1.00  0.00    -0.248 OA
BRANCH   4   6
ATOM      6  C   UNL A   1      32.188  28.041  25.770  1.00  0.00     0.302 C 
ATOM      7  N   UNL A   1      31.655  26.959  23.640  1.00  0.00    -0.298 N 
ATOM      8  C   UNL A   1      32.404  28.067  24.260  1.00  0.00     0.183 C 
ATOM      9  C   UNL A   1      31.554  25.767  24.430  1.00  0.00     0.087 A 
ATOM     10  C   UNL A   1      32.114  25.735  25.722  1.00  0.00     0.144 A 
ATOM     11  C   UNL A   1      30.959  24.597  23.940  1.00  0.00     0.030 A 
ATOM     12  O   UNL A   1      32.713  26.824  26.314  1.00  0.00    -0.475 OA
ATOM     13  C   UNL A   1      32.088  24.570  26.490  1.00  0.00     0.049 A 
ATOM     14  C   UNL A   1      30.916  23.435  24.717  1.00  0.00     0.002 A 
ATOM     15  C   UNL A   1      31.481  23.421  25.989  1.00  0.00     0.004 A 
BRANCH   7  16
ATOM     16  C   UNL A   1      30.922  27.128  22.456  1.00  0.00     0.294 C 
ATOM     17  O   UNL A   1      31.314  26.641  21.394  1.00  0.00    -0.265 OA
BRANCH  16  18
ATOM     18  C   UNL A   1      29.735  27.971  22.512  1.00  0.00     0.192 A 
ATOM     19  C   UNL A   1      28.473  31.102  21.307  1.00  0.00     0.087 C 
ATOM     20  C   UNL A   1      28.619  29.816  22.019  1.00  0.00     0.101 A 
ATOM     21  C   UNL A   1      27.868  29.154  22.960  1.00  0.00     0.046 A 
ATOM     22  O   UNL A   1      29.741  29.103  21.735  1.00  0.00    -0.456 OA
ATOM     23  C   UNL A   1      28.584  27.972  23.280  1.00  0.00     0.056 A 
ENDBRANCH  16  18
ENDBRANCH   7  16
ENDBRANCH   4   6
ENDBRANCH   3   4
ENDBRANCH   2   3
ENDBRANCH   1   2
BRANCH   1  24
ATOM     24  O   UNL A   1      32.798  33.161  26.745  1.00  0.00    -0.458 OA
BRANCH  24  25
ATOM     25  C   UNL A   1      33.326  33.648  27.891  1.00  0.00     0.338 C 
ATOM     26  O   UNL A   1      32.819  34.478  28.630  1.00  0.00    -0.246 OA
BRANCH  25  27
ATOM     27  C   UNL A   1      34.564  32.935  28.244  1.00  0.00     0.060 A 
ATOM     28  C   UNL A   1      34.439  31.687  28.863  1.00  0.00     0.016 A 
ATOM     29  C   UNL A   1      35.817  33.530  28.092  1.00  0.00     0.016 A 
ATOM     30  C   UNL A   1      35.561  31.041  29.368  1.00  0.00     0.010 A 
ATOM     31  C   UNL A   1      36.946  32.878  28.600  1.00  0.00     0.010 A 
ATOM     32  C   UNL A   1      36.820  31.645  29.267  1.00  0.00    -0.014 A 
BRANCH  32  33
ATOM     33  C   UNL A   1      37.979  31.022  29.949  1.00  0.00     0.031 A 
ATOM     34  C   UNL A   1      38.297  31.403  31.367  1.00  0.00     0.074 A 
ATOM     35  C   UNL A   1      38.723  30.102  29.309  1.00  0.00     0.049 A 
ATOM     36  N   UNL A   1      39.279  31.001  32.131  1.00  0.00    -0.248 NA
ATOM     37  C   UNL A   1      37.391  32.368  32.012  1.00  0.00     0.031 C 
ATOM     38  C   UNL A   1      38.502  29.642  27.938  1.00  0.00     0.029 A 
ATOM     39  N   UNL A   1      39.825  29.398  29.727  1.00  0.00    -0.354 N 
ATOM     40  C   UNL A   1      39.136  31.688  33.328  1.00  0.00     0.074 A 
ATOM     41  C   UNL A   1      37.973  32.540  33.191  1.00  0.00     0.031 C 
ATOM     42  C   UNL A   1      39.449  28.742  27.621  1.00  0.00     0.029 A 
ATOM     43  C   UNL A   1      40.355  28.581  28.756  1.00  0.00     0.049 A 
ATOM     44  H   UNL A   1      40.199  29.470  30.634  1.00  0.00     0.167 HD
ATOM     45  C   UNL A   1      39.891  31.605  34.449  1.00  0.00     0.034 A 
ATOM     46  C   UNL A   1      41.454  27.804  28.776  1.00  0.00     0.034 A 
ATOM     47  C   UNL A   1      41.016  30.723  34.599  1.00  0.00     0.049 A 
ATOM     48  C   UNL A   1      42.271  27.722  30.039  1.00  0.00     0.074 A 
ATOM     49  C   UNL A   1      41.825  30.541  35.708  1.00  0.00     0.029 A 
ATOM     50  N   UNL A   1      41.487  29.867  33.615  1.00  0.00    -0.354 N 
ATOM     51  N   UNL A   1      42.067  28.310  31.194  1.00  0.00    -0.248 NA
ATOM     52  C   UNL A   1      43.450  26.844  30.014  1.00  0.00     0.031 C 
ATOM     53  C   UNL A   1      42.790  29.580  35.390  1.00  0.00     0.029 A 
ATOM     54  C   UNL A   1      42.576  29.155  34.088  1.00  0.00     0.049 A 
ATOM     55  H   UNL A   1      41.103  29.780  32.713  1.00  0.00     0.167 HD
ATOM     56  C   UNL A   1      43.070  27.849  32.039  1.00  0.00     0.074 A 
ATOM     57  C   UNL A   1      43.869  26.917  31.270  1.00  0.00     0.031 C 
ATOM     58  C   UNL A   1      43.320  28.183  33.330  1.00  0.00     0.034 A 
BRANCH  45  59
ATOM     59  C   UNL A   1      39.503  32.472  35.617  1.00  0.00     0.023 A 
ATOM     60  C   UNL A   1      38.732  31.924  36.662  1.00  0.00     0.012 A 
ATOM     61  C   UNL A   1      39.941  33.808  35.706  1.00  0.00     0.148 A 
ATOM     62  C   UNL A   1      38.380  32.701  37.765  1.00  0.00     0.002 A 
ATOM     63  C   UNL A   1      39.615  34.565  36.825  1.00  0.00     0.091 A 
ATOM     64  F   UNL A   1      40.650  34.318  34.689  1.00  0.00    -0.205 F 
ATOM     65  C   UNL A   1      38.829  34.016  37.852  1.00  0.00     0.022 A 
BRANCH  63  66
ATOM     66  S   UNL A   1      40.206  36.246  37.056  1.00  0.00     0.127 S 
ATOM     67  O   UNL A   1      41.640  36.031  37.250  1.00  0.00    -0.237 OA
ATOM     68  O   UNL A   1      39.853  36.878  35.784  1.00  0.00    -0.237 OA
ATOM     69  O   UNL A   1      39.486  36.767  38.208  1.00  0.00    -0.744 OA
ENDBRANCH  63  66
ENDBRANCH  45  59
BRANCH  46  70
ATOM     70  C   UNL A   1      41.818  27.003  27.574  1.00  0.00     0.023 A 
ATOM     71  C   UNL A   1      42.431  27.639  26.477  1.00  0.00     0.012 A 
ATOM     72  C   UNL A   1      41.593  25.614  27.523  1.00  0.00     0.148 A 
ATOM     73  C   UNL A   1      42.790  26.912  25.342  1.00  0.00     0.002 A 
ATOM     74  C   UNL A   1      42.002  24.885  26.412  1.00  0.00     0.091 A 
ATOM     75  F   UNL A   1      40.988  25.028  28.566  1.00  0.00    -0.205 F 
ATOM     76  C   UNL A   1      42.587  25.535  25.314  1.00  0.00     0.022 A 
BRANCH  74  77
ATOM     77  S   UNL A   1      41.895  23.093  26.351  1.00  0.00     0.127 S 
ATOM     78  O   UNL A   1      40.451  22.877  26.399  1.00  0.00    -0.237 OA
ATOM     79  O   UNL A   1      42.520  22.792  25.063  1.00  0.00    -0.237 OA
ATOM     80  O   UNL A   1      42.649  22.621  27.504  1.00  0.00    -0.744 OA
ENDBRANCH  74  77
ENDBRANCH  46  70
BRANCH  58  81
ATOM     81  C   UNL A   1      44.487  27.517  34.010  1.00  0.00     0.023 A 
ATOM     82  C   UNL A   1      45.754  28.130  33.974  1.00  0.00     0.012 A 
ATOM     83  C   UNL A   1      44.311  26.331  34.751  1.00  0.00     0.148 A 
ATOM     84  C   UNL A   1      46.836  27.559  34.642  1.00  0.00     0.002 A 
ATOM     85  C   UNL A   1      45.385  25.791  35.449  1.00  0.00     0.091 A 
ATOM     86  F   UNL A   1      43.103  25.750  34.756  1.00  0.00    -0.205 F 
ATOM     87  C   UNL A   1      46.650  26.397  35.388  1.00  0.00     0.022 A 
BRANCH  85  88
ATOM     88  S   UNL A   1      45.207  24.349  36.507  1.00  0.00     0.127 S 
ATOM     89  O   UNL A   1      44.855  23.310  35.541  1.00  0.00    -0.237 OA
ATOM     90  O   UNL A   1      46.544  24.215  37.086  1.00  0.00    -0.237 OA
ATOM     91  O   UNL A   1      44.169  24.693  37.471  1.00  0.00    -0.744 OA
ENDBRANCH  85  88
ENDBRANCH  58  81
ENDBRANCH  32  33
ENDBRANCH  25  27
ENDBRANCH  24  25
ENDBRANCH   1  24
TORSDOF 16
ENDMDL
MODEL 3
REMARK VINA RESULT:     -12.0      5.156     10.411
REMARK SMILES Cc1ccc(C(=O)N2C[C@H](C(=O)OCCOC(=O)c3ccc(-c4c5nc(c(-c6cccc(S(=O)(=O)[O-])c6F)c6ccc([nH]6)c(-c6cccc(S(=O)(=O)[O-])c6F)c6nc(c(-c7cccc(S(=O)(=O)[O-])c7F)c7ccc4[nH]7)C=C6)C=C5)cc3)Oc3ccccc32)o1
REMARK SMILES IDX 15 1 14 2 13 3 11 4 12 5 10 6 8 7 9 8 88 9 83 10 87 11 82 12
REMARK SMILES IDX 84 13 86 14 85 15 6 16 7 17 5 18 1 19 2 20 3 21 89 22 4 23
REMARK SMILES IDX 16 24 17 25 18 26 19 27 20 28 81 29 21 30 80 31 22 32 23 33
REMARK SMILES IDX 24 34 74 35 25 36 79 37 73 38 75 39 26 40 78 41 72 42 71 43
REMARK SMILES IDX 27 45 59 46 39 47 58 48 40 49 43 50 57 51 76 52 41 53 42 54
REMARK SMILES IDX 56 56 77 57 44 58 28 59 29 60 37 61 30 62 32 63 38 64 31 65
REMARK SMILES IDX 33 66 34 67 35 68 36 69 60 70 61 71 69 72 62 73 64 74 70 75
REMARK SMILES IDX 63 76 65 77 66 78 67 79 68 80 45 81 46 82 54 83 47 84 49 85
REMARK SMILES IDX 55 86 48 87 50 88 51 89 52 90 53 91
REMARK H PARENT 75 44 43 55
REMARK Flexibility Score: inf
ROOT
ATOM      1  C   UNL A   1      37.390  20.420  25.030  1.00  0.00     0.275 C 
ENDROOT
BRANCH   1   2
ATOM      2  C   UNL A   1      35.857  20.406  24.956  1.00  0.00     0.274 C 
BRANCH   2   3
ATOM      3  O   UNL A   1      35.297  21.725  24.776  1.00  0.00    -0.459 OA
BRANCH   3   4
ATOM      4  C   UNL A   1      34.207  22.001  25.541  1.00  0.00     0.349 C 
ATOM      5  O   UNL A   1      33.845  21.316  26.493  1.00  0.00    -0.248 OA
BRANCH   4   6
ATOM      6  C   UNL A   1      33.434  23.230  25.087  1.00  0.00     0.302 C 
ATOM      7  N   UNL A   1      32.680  25.521  25.498  1.00  0.00    -0.298 N 
ATOM      8  C   UNL A   1      33.577  24.456  25.982  1.00  0.00     0.183 C 
ATOM      9  C   UNL A   1      32.487  25.564  24.078  1.00  0.00     0.087 A 
ATOM     10  C   UNL A   1      33.103  24.598  23.260  1.00  0.00     0.144 A 
ATOM     11  C   UNL A   1      31.743  26.577  23.458  1.00  0.00     0.030 A 
ATOM     12  O   UNL A   1      33.847  23.551  23.754  1.00  0.00    -0.475 OA
ATOM     13  C   UNL A   1      32.986  24.651  21.870  1.00  0.00     0.049 A 
ATOM     14  C   UNL A   1      31.610  26.619  22.067  1.00  0.00     0.002 A 
ATOM     15  C   UNL A   1      32.231  25.658  21.274  1.00  0.00     0.004 A 
BRANCH   7  16
ATOM     16  C   UNL A   1      31.913  26.303  26.375  1.00  0.00     0.294 C 
ATOM     17  O   UNL A   1      30.845  25.886  26.826  1.00  0.00    -0.265 OA
BRANCH  16  18
ATOM     18  C   UNL A   1      32.382  27.653  26.659  1.00  0.00     0.192 A 
ATOM     19  C   UNL A   1      35.364  29.456  27.497  1.00  0.00     0.087 C 
ATOM     20  C   UNL A   1      33.958  29.102  27.214  1.00  0.00     0.101 A 
ATOM     21  C   UNL A   1      32.769  29.789  27.272  1.00  0.00     0.046 A 
ATOM     22  O   UNL A   1      33.734  27.817  26.834  1.00  0.00    -0.456 OA
ATOM     23  C   UNL A   1      31.756  28.861  26.920  1.00  0.00     0.056 A 
ENDBRANCH  16  18
ENDBRANCH   7  16
ENDBRANCH   4   6
ENDBRANCH   3   4
ENDBRANCH   2   3
ENDBRANCH   1   2
BRANCH   1  24
ATOM     24  O   UNL A   1      37.905  21.619  25.640  1.00  0.00    -0.458 OA
BRANCH  24  25
ATOM     25  C   UNL A   1      39.157  21.500  26.139  1.00  0.00     0.338 C 
ATOM     26  O   UNL A   1      39.914  20.554  25.985  1.00  0.00    -0.246 OA
BRANCH  25  27
ATOM     27  C   UNL A   1      39.581  22.747  26.796  1.00  0.00     0.060 A 
ATOM     28  C   UNL A   1      38.947  23.931  26.408  1.00  0.00     0.016 A 
ATOM     29  C   UNL A   1      40.663  22.776  27.677  1.00  0.00     0.016 A 
ATOM     30  C   UNL A   1      39.413  25.158  26.869  1.00  0.00     0.010 A 
ATOM     31  C   UNL A   1      41.131  24.010  28.140  1.00  0.00     0.010 A 
ATOM     32  C   UNL A   1      40.528  25.208  27.714  1.00  0.00    -0.014 A 
BRANCH  32  33
ATOM     33  C   UNL A   1      41.109  26.526  28.067  1.00  0.00     0.031 A 
ATOM     34  C   UNL A   1      42.534  26.829  27.697  1.00  0.00     0.074 A 
ATOM     35  C   UNL A   1      40.356  27.450  28.689  1.00  0.00     0.049 A 
ATOM     36  N   UNL A   1      43.240  27.903  27.940  1.00  0.00    -0.248 NA
ATOM     37  C   UNL A   1      43.264  25.784  26.960  1.00  0.00     0.031 C 
ATOM     38  C   UNL A   1      38.959  27.275  29.084  1.00  0.00     0.029 A 
ATOM     39  N   UNL A   1      40.669  28.720  29.109  1.00  0.00    -0.354 N 
ATOM     40  C   UNL A   1      44.504  27.651  27.423  1.00  0.00     0.074 A 
ATOM     41  C   UNL A   1      44.472  26.319  26.856  1.00  0.00     0.031 C 
ATOM     42  C   UNL A   1      38.537  28.391  29.702  1.00  0.00     0.029 A 
ATOM     43  C   UNL A   1      39.639  29.347  29.769  1.00  0.00     0.049 A 
ATOM     44  H   UNL A   1      41.544  29.140  28.950  1.00  0.00     0.167 HD
ATOM     45  C   UNL A   1      45.588  28.462  27.403  1.00  0.00     0.034 A 
ATOM     46  C   UNL A   1      39.596  30.551  30.371  1.00  0.00     0.034 A 
ATOM     47  C   UNL A   1      45.602  29.802  27.923  1.00  0.00     0.049 A 
ATOM     48  C   UNL A   1      40.813  31.438  30.326  1.00  0.00     0.074 A 
ATOM     49  C   UNL A   1      46.642  30.715  27.920  1.00  0.00     0.029 A 
ATOM     50  N   UNL A   1      44.523  30.425  28.531  1.00  0.00    -0.354 N 
ATOM     51  N   UNL A   1      41.972  31.220  29.751  1.00  0.00    -0.248 NA
ATOM     52  C   UNL A   1      40.707  32.749  30.981  1.00  0.00     0.031 C 
ATOM     53  C   UNL A   1      46.193  31.890  28.534  1.00  0.00     0.029 A 
ATOM     54  C   UNL A   1      44.871  31.711  28.910  1.00  0.00     0.049 A 
ATOM     55  H   UNL A   1      43.640  30.014  28.673  1.00  0.00     0.167 HD
ATOM     56  C   UNL A   1      42.719  32.375  29.947  1.00  0.00     0.074 A 
ATOM     57  C   UNL A   1      41.874  33.299  30.677  1.00  0.00     0.031 C 
ATOM     58  C   UNL A   1      43.997  32.641  29.576  1.00  0.00     0.034 A 
BRANCH  45  59
ATOM     59  C   UNL A   1      46.845  27.930  26.767  1.00  0.00     0.023 A 
ATOM     60  C   UNL A   1      47.818  27.303  27.572  1.00  0.00     0.012 A 
ATOM     61  C   UNL A   1      47.041  28.005  25.375  1.00  0.00     0.148 A 
ATOM     62  C   UNL A   1      48.980  26.784  27.003  1.00  0.00     0.002 A 
ATOM     63  C   UNL A   1      48.185  27.453  24.812  1.00  0.00     0.091 A 
ATOM     64  F   UNL A   1      46.117  28.630  24.631  1.00  0.00    -0.205 F 
ATOM     65  C   UNL A   1      49.159  26.849  25.624  1.00  0.00     0.022 A 
BRANCH  63  66
ATOM     66  S   UNL A   1      48.470  27.431  23.037  1.00  0.00     0.127 S 
ATOM     67  O   UNL A   1      49.822  27.981  22.948  1.00  0.00    -0.237 OA
ATOM     68  O   UNL A   1      48.371  26.005  22.723  1.00  0.00    -0.237 OA
ATOM     69  O   UNL A   1      47.418  28.250  22.455  1.00  0.00    -0.744 OA
ENDBRANCH  63  66
ENDBRANCH  45  59
BRANCH  46  70
ATOM     70  C   UNL A   1      38.339  31.008  31.028  1.00  0.00     0.023 A 
ATOM     71  C   UNL A   1      38.169  30.811  32.412  1.00  0.00     0.012 A 
ATOM     72  C   UNL A   1      37.328  31.663  30.298  1.00  0.00     0.148 A 
ATOM     73  C   UNL A   1      37.006  31.237  33.053  1.00  0.00     0.002 A 
ATOM     74  C   UNL A   1      36.195  32.133  30.953  1.00  0.00     0.091 A 
ATOM     75  F   UNL A   1      37.496  31.821  28.978  1.00  0.00    -0.205 F 
ATOM     76  C   UNL A   1      36.025  31.907  32.328  1.00  0.00     0.022 A 
BRANCH  74  77
ATOM     77  S   UNL A   1      34.947  33.118  30.117  1.00  0.00     0.127 S 
ATOM     78  O   UNL A   1      34.085  33.516  31.226  1.00  0.00    -0.237 OA
ATOM     79  O   UNL A   1      35.746  34.198  29.538  1.00  0.00    -0.237 OA
ATOM     80  O   UNL A   1      34.347  32.227  29.132  1.00  0.00    -0.744 OA
ENDBRANCH  74  77
ENDBRANCH  46  70
BRANCH  58  81
ATOM     81  C   UNL A   1      44.557  33.995  29.922  1.00  0.00     0.023 A 
ATOM     82  C   UNL A   1      45.240  34.174  31.141  1.00  0.00     0.012 A 
ATOM     83  C   UNL A   1      44.479  35.064  29.008  1.00  0.00     0.148 A 
ATOM     84  C   UNL A   1      45.813  35.404  31.458  1.00  0.00     0.002 A 
ATOM     85  C   UNL A   1      45.089  36.276  29.313  1.00  0.00     0.091 A 
ATOM     86  F   UNL A   1      43.806  34.882  27.863  1.00  0.00    -0.205 F 
ATOM     87  C   UNL A   1      45.748  36.451  30.540  1.00  0.00     0.022 A 
BRANCH  85  88
ATOM     88  S   UNL A   1      45.131  37.643  28.147  1.00  0.00     0.127 S 
ATOM     89  O   UNL A   1      46.069  38.559  28.793  1.00  0.00    -0.237 OA
ATOM     90  O   UNL A   1      45.641  37.007  26.932  1.00  0.00    -0.237 OA
ATOM     91  O   UNL A   1      43.757  38.116  28.044  1.00  0.00    -0.744 OA
ENDBRANCH  85  88
ENDBRANCH  58  81
ENDBRANCH  32  33
ENDBRANCH  25  27
ENDBRANCH  24  25
ENDBRANCH   1  24
TORSDOF 16
ENDMDL
