MODEL 1
REMARK VINA RESULT:     -10.3      0.000      0.000
REMARK SMILES CCCCC[NH2+][C@](C)(C(=O)OCCOC(=O)c1ccc(-c2c3nc(c(-c4cccc(S(=O)(=O)[O-])c4F)c4ccc([nH]4)c(-c4cccc(S(=O)(=O)[O-])c4F)c4nc(c(-c5cccc(S(=O)(=O)[O-])c5F)c5ccc2[nH]5)C=C4)C=C3)cc1)C(F)(F)F
REMARK SMILES IDX 12 1 11 2 9 3 10 4 7 5 8 6 6 7 5 10 4 11 3 12 2 13 1 14
REMARK SMILES IDX 80 15 81 16 82 17 83 18 13 19 14 20 15 21 16 22 17 23 18 24
REMARK SMILES IDX 79 25 19 26 78 27 20 28 21 29 22 30 72 31 23 32 77 33 71 34
REMARK SMILES IDX 73 35 24 36 76 37 70 38 69 39 25 41 57 42 37 43 56 44 38 45
REMARK SMILES IDX 41 46 55 47 74 48 39 49 40 50 54 52 75 53 42 54 26 55 27 56
REMARK SMILES IDX 35 57 28 58 30 59 36 60 29 61 31 62 32 63 33 64 34 65 58 66
REMARK SMILES IDX 59 67 67 68 60 69 62 70 68 71 61 72 63 73 64 74 65 75 66 76
REMARK SMILES IDX 43 77 44 78 52 79 45 80 47 81 53 82 46 83 48 84 49 85 50 86
REMARK SMILES IDX 51 87
REMARK H PARENT 6 8 6 9 73 40 41 51
REMARK Flexibility Score: inf
ROOT
ATOM      1  C   UNL A   1      36.436  22.903  23.520  1.00  0.00     0.274 C 
ENDROOT
BRANCH   1   2
ATOM      2  O   UNL A   1      35.100  23.105  24.020  1.00  0.00    -0.457 OA
BRANCH   2   3
ATOM      3  C   UNL A   1      34.074  22.957  23.130  1.00  0.00     0.377 C 
ATOM      4  O   UNL A   1      34.041  23.504  22.035  1.00  0.00    -0.244 OA
BRANCH   3   5
ATOM      5  C   UNL A   1      32.900  22.169  23.739  1.00  0.00     0.287 C 
ATOM      6  C   UNL A   1      31.856  21.821  22.657  1.00  0.00     0.103 C 
BRANCH   5   7
ATOM      7  N   UNL A   1      33.541  20.971  24.397  1.00  0.00    -0.325 N 
ATOM      8  H   UNL A   1      34.048  20.453  23.680  1.00  0.00     0.347 HD
ATOM      9  H   UNL A   1      34.136  21.345  25.136  1.00  0.00     0.347 HD
BRANCH   7  10
ATOM     10  C   UNL A   1      32.630  20.049  25.051  1.00  0.00     0.261 C 
BRANCH  10  11
ATOM     11  C   UNL A   1      32.519  18.730  24.280  1.00  0.00     0.061 C 
BRANCH  11  12
ATOM     12  C   UNL A   1      32.525  17.467  25.153  1.00  0.00     0.006 C 
BRANCH  12  13
ATOM     13  C   UNL A   1      33.164  16.226  24.521  1.00  0.00    -0.003 C 
ATOM     14  C   UNL A   1      34.170  16.541  23.424  1.00  0.00     0.004 C 
ENDBRANCH  12  13
ENDBRANCH  11  12
ENDBRANCH  10  11
ENDBRANCH   7  10
ENDBRANCH   5   7
BRANCH   5  15
ATOM     15  C   UNL A   1      32.213  23.130  24.739  1.00  0.00     0.455 C 
ATOM     16  F   UNL A   1      32.833  23.152  25.936  1.00  0.00    -0.164 F 
ATOM     17  F   UNL A   1      32.250  24.404  24.264  1.00  0.00    -0.164 F 
ATOM     18  F   UNL A   1      30.908  22.841  24.939  1.00  0.00    -0.164 F 
ENDBRANCH   5  15
ENDBRANCH   3   5
ENDBRANCH   2   3
ENDBRANCH   1   2
BRANCH   1  19
ATOM     19  C   UNL A   1      37.001  21.577  24.016  1.00  0.00     0.275 C 
BRANCH  19  20
ATOM     20  O   UNL A   1      37.263  21.662  25.426  1.00  0.00    -0.458 OA
BRANCH  20  21
ATOM     21  C   UNL A   1      38.504  21.303  25.817  1.00  0.00     0.338 C 
ATOM     22  O   UNL A   1      39.055  20.223  25.645  1.00  0.00    -0.246 OA
BRANCH  21  23
ATOM     23  C   UNL A   1      39.163  22.449  26.451  1.00  0.00     0.060 A 
ATOM     24  C   UNL A   1      38.582  23.709  26.333  1.00  0.00     0.016 A 
ATOM     25  C   UNL A   1      40.413  22.303  27.047  1.00  0.00     0.016 A 
ATOM     26  C   UNL A   1      39.292  24.844  26.709  1.00  0.00     0.010 A 
ATOM     27  C   UNL A   1      41.079  23.437  27.524  1.00  0.00     0.010 A 
ATOM     28  C   UNL A   1      40.546  24.724  27.322  1.00  0.00    -0.014 A 
BRANCH  28  29
ATOM     29  C   UNL A   1      41.309  25.938  27.717  1.00  0.00     0.031 A 
ATOM     30  C   UNL A   1      40.655  26.995  28.567  1.00  0.00     0.074 A 
ATOM     31  C   UNL A   1      42.586  26.101  27.314  1.00  0.00     0.049 A 
ATOM     32  N   UNL A   1      41.074  28.200  28.853  1.00  0.00    -0.248 NA
ATOM     33  C   UNL A   1      39.349  26.659  29.161  1.00  0.00     0.031 C 
ATOM     34  C   UNL A   1      43.350  25.143  26.511  1.00  0.00     0.029 A 
ATOM     35  N   UNL A   1      43.466  27.134  27.520  1.00  0.00    -0.354 N 
ATOM     36  C   UNL A   1      40.052  28.794  29.583  1.00  0.00     0.074 A 
ATOM     37  C   UNL A   1      38.999  27.811  29.716  1.00  0.00     0.031 C 
ATOM     38  C   UNL A   1      44.588  25.620  26.315  1.00  0.00     0.029 A 
ATOM     39  C   UNL A   1      44.683  26.950  26.906  1.00  0.00     0.049 A 
ATOM     40  H   UNL A   1      43.247  27.931  28.055  1.00  0.00     0.167 HD
ATOM     41  C   UNL A   1      39.999  30.043  30.101  1.00  0.00     0.034 A 
ATOM     42  C   UNL A   1      45.745  27.771  26.795  1.00  0.00     0.034 A 
ATOM     43  C   UNL A   1      41.086  30.984  30.050  1.00  0.00     0.049 A 
ATOM     44  C   UNL A   1      45.675  29.139  27.411  1.00  0.00     0.074 A 
ATOM     45  C   UNL A   1      41.142  32.265  30.571  1.00  0.00     0.029 A 
ATOM     46  N   UNL A   1      42.319  30.736  29.465  1.00  0.00    -0.354 N 
ATOM     47  N   UNL A   1      44.706  29.680  28.110  1.00  0.00    -0.248 NA
ATOM     48  C   UNL A   1      46.843  30.011  27.227  1.00  0.00     0.031 C 
ATOM     49  C   UNL A   1      42.412  32.789  30.307  1.00  0.00     0.029 A 
ATOM     50  C   UNL A   1      43.145  31.835  29.621  1.00  0.00     0.049 A 
ATOM     51  H   UNL A   1      42.569  29.901  29.007  1.00  0.00     0.167 HD
ATOM     52  C   UNL A   1      45.149  30.950  28.456  1.00  0.00     0.074 A 
ATOM     53  C   UNL A   1      46.489  31.086  27.920  1.00  0.00     0.031 C 
ATOM     54  C   UNL A   1      44.495  31.929  29.128  1.00  0.00     0.034 A 
BRANCH  41  55
ATOM     55  C   UNL A   1      38.734  30.459  30.801  1.00  0.00     0.023 A 
ATOM     56  C   UNL A   1      38.592  30.225  32.183  1.00  0.00     0.012 A 
ATOM     57  C   UNL A   1      37.710  31.128  30.103  1.00  0.00     0.148 A 
ATOM     58  C   UNL A   1      37.440  30.631  32.855  1.00  0.00     0.002 A 
ATOM     59  C   UNL A   1      36.579  31.561  30.788  1.00  0.00     0.091 A 
ATOM     60  F   UNL A   1      37.849  31.315  28.783  1.00  0.00    -0.205 F 
ATOM     61  C   UNL A   1      36.439  31.308  32.161  1.00  0.00     0.022 A 
BRANCH  59  62
ATOM     62  S   UNL A   1      35.274  32.499  29.983  1.00  0.00     0.127 S 
ATOM     63  O   UNL A   1      34.322  32.680  31.078  1.00  0.00    -0.237 OA
ATOM     64  O   UNL A   1      35.970  33.720  29.574  1.00  0.00    -0.237 OA
ATOM     65  O   UNL A   1      34.816  31.670  28.877  1.00  0.00    -0.744 OA
ENDBRANCH  59  62
ENDBRANCH  41  55
BRANCH  42  66
ATOM     66  C   UNL A   1      46.971  27.303  26.087  1.00  0.00     0.023 A 
ATOM     67  C   UNL A   1      47.155  27.640  24.733  1.00  0.00     0.012 A 
ATOM     68  C   UNL A   1      47.980  26.584  26.757  1.00  0.00     0.148 A 
ATOM     69  C   UNL A   1      48.316  27.260  24.057  1.00  0.00     0.002 A 
ATOM     70  C   UNL A   1      49.160  26.262  26.095  1.00  0.00     0.091 A 
ATOM     71  F   UNL A   1      47.778  26.242  28.037  1.00  0.00    -0.205 F 
ATOM     72  C   UNL A   1      49.324  26.588  24.742  1.00  0.00     0.022 A 
BRANCH  70  73
ATOM     73  S   UNL A   1      50.556  25.540  26.965  1.00  0.00     0.127 S 
ATOM     74  O   UNL A   1      50.880  26.582  27.934  1.00  0.00    -0.237 OA
ATOM     75  O   UNL A   1      49.975  24.325  27.540  1.00  0.00    -0.237 OA
ATOM     76  O   UNL A   1      51.553  25.286  25.932  1.00  0.00    -0.744 OA
ENDBRANCH  70  73
ENDBRANCH  42  66
BRANCH  54  77
ATOM     77  C   UNL A   1      45.218  33.231  29.328  1.00  0.00     0.023 A 
ATOM     78  C   UNL A   1      46.030  33.397  30.468  1.00  0.00     0.012 A 
ATOM     79  C   UNL A   1      45.155  34.254  28.365  1.00  0.00     0.148 A 
ATOM     80  C   UNL A   1      46.752  34.574  30.656  1.00  0.00     0.002 A 
ATOM     81  C   UNL A   1      45.907  35.411  28.541  1.00  0.00     0.091 A 
ATOM     82  F   UNL A   1      44.358  34.086  27.300  1.00  0.00    -0.205 F 
ATOM     83  C   UNL A   1      46.700  35.575  29.688  1.00  0.00     0.022 A 
BRANCH  81  84
ATOM     84  S   UNL A   1      45.954  36.710  27.302  1.00  0.00     0.127 S 
ATOM     85  O   UNL A   1      46.884  37.664  27.903  1.00  0.00    -0.237 OA
ATOM     86  O   UNL A   1      46.474  36.011  26.127  1.00  0.00    -0.237 OA
ATOM     87  O   UNL A   1      44.578  37.170  27.164  1.00  0.00    -0.744 OA
ENDBRANCH  81  84
ENDBRANCH  54  77
ENDBRANCH  28  29
ENDBRANCH  21  23
ENDBRANCH  20  21
ENDBRANCH  19  20
ENDBRANCH   1  19
TORSDOF 20
ENDMDL
MODEL 2
REMARK VINA RESULT:     -10.2      5.229     10.111
REMARK SMILES CCCCC[NH2+][C@](C)(C(=O)OCCOC(=O)c1ccc(-c2c3nc(c(-c4cccc(S(=O)(=O)[O-])c4F)c4ccc([nH]4)c(-c4cccc(S(=O)(=O)[O-])c4F)c4nc(c(-c5cccc(S(=O)(=O)[O-])c5F)c5ccc2[nH]5)C=C4)C=C3)cc1)C(F)(F)F
REMARK SMILES IDX 12 1 11 2 9 3 10 4 7 5 8 6 6 7 5 10 4 11 3 12 2 13 1 14
REMARK SMILES IDX 80 15 81 16 82 17 83 18 13 19 14 20 15 21 16 22 17 23 18 24
REMARK SMILES IDX 79 25 19 26 78 27 20 28 21 29 22 30 72 31 23 32 77 33 71 34
REMARK SMILES IDX 73 35 24 36 76 37 70 38 69 39 25 41 57 42 37 43 56 44 38 45
REMARK SMILES IDX 41 46 55 47 74 48 39 49 40 50 54 52 75 53 42 54 26 55 27 56
REMARK SMILES IDX 35 57 28 58 30 59 36 60 29 61 31 62 32 63 33 64 34 65 58 66
REMARK SMILES IDX 59 67 67 68 60 69 62 70 68 71 61 72 63 73 64 74 65 75 66 76
REMARK SMILES IDX 43 77 44 78 52 79 45 80 47 81 53 82 46 83 48 84 49 85 50 86
REMARK SMILES IDX 51 87
REMARK H PARENT 6 8 6 9 73 40 41 51
REMARK Flexibility Score: inf
ROOT
ATOM      1  C   UNL A   1      31.226  29.353  24.641  1.00  0.00     0.274 C 
ENDROOT
BRANCH   1   2
ATOM      2  O   UNL A   1      31.784  28.174  25.254  1.00  0.00    -0.457 OA
BRANCH   2   3
ATOM      3  C   UNL A   1      31.856  27.048  24.484  1.00  0.00     0.377 C 
ATOM      4  O   UNL A   1      30.933  26.253  24.355  1.00  0.00    -0.244 OA
BRANCH   3   5
ATOM      5  C   UNL A   1      33.280  26.813  23.949  1.00  0.00     0.287 C 
ATOM      6  C   UNL A   1      34.270  27.821  24.568  1.00  0.00     0.103 C 
BRANCH   5   7
ATOM      7  N   UNL A   1      33.578  25.368  24.269  1.00  0.00    -0.325 N 
ATOM      8  H   UNL A   1      32.709  24.842  24.185  1.00  0.00     0.347 HD
ATOM      9  H   UNL A   1      34.301  25.081  23.609  1.00  0.00     0.347 HD
BRANCH   7  10
ATOM     10  C   UNL A   1      34.126  25.115  25.590  1.00  0.00     0.261 C 
BRANCH  10  11
ATOM     11  C   UNL A   1      34.382  23.621  25.813  1.00  0.00     0.061 C 
BRANCH  11  12
ATOM     12  C   UNL A   1      35.861  23.231  25.946  1.00  0.00     0.006 C 
BRANCH  12  13
ATOM     13  C   UNL A   1      36.768  23.664  24.789  1.00  0.00    -0.003 C 
ATOM     14  C   UNL A   1      36.532  22.895  23.499  1.00  0.00     0.004 C 
ENDBRANCH  12  13
ENDBRANCH  11  12
ENDBRANCH  10  11
ENDBRANCH   7  10
ENDBRANCH   5   7
BRANCH   5  15
ATOM     15  C   UNL A   1      33.221  27.110  22.431  1.00  0.00     0.455 C 
ATOM     16  F   UNL A   1      33.571  26.042  21.686  1.00  0.00    -0.164 F 
ATOM     17  F   UNL A   1      31.951  27.432  22.066  1.00  0.00    -0.164 F 
ATOM     18  F   UNL A   1      33.993  28.156  22.066  1.00  0.00    -0.164 F 
ENDBRANCH   5  15
ENDBRANCH   3   5
ENDBRANCH   2   3
ENDBRANCH   1   2
BRANCH   1  19
ATOM     19  C   UNL A   1      31.368  30.558  25.563  1.00  0.00     0.275 C 
BRANCH  19  20
ATOM     20  O   UNL A   1      32.487  30.362  26.443  1.00  0.00    -0.458 OA
BRANCH  20  21
ATOM     21  C   UNL A   1      32.988  31.476  27.015  1.00  0.00     0.338 C 
ATOM     22  O   UNL A   1      32.432  32.559  27.147  1.00  0.00    -0.246 OA
BRANCH  21  23
ATOM     23  C   UNL A   1      34.328  31.192  27.539  1.00  0.00     0.060 A 
ATOM     24  C   UNL A   1      34.680  29.871  27.802  1.00  0.00     0.016 A 
ATOM     25  C   UNL A   1      35.184  32.233  27.890  1.00  0.00     0.016 A 
ATOM     26  C   UNL A   1      35.839  29.586  28.517  1.00  0.00     0.010 A 
ATOM     27  C   UNL A   1      36.401  31.935  28.512  1.00  0.00     0.010 A 
ATOM     28  C   UNL A   1      36.722  30.613  28.872  1.00  0.00    -0.014 A 
BRANCH  28  29
ATOM     29  C   UNL A   1      37.957  30.310  29.644  1.00  0.00     0.031 A 
ATOM     30  C   UNL A   1      39.029  29.443  29.038  1.00  0.00     0.074 A 
ATOM     31  C   UNL A   1      38.121  30.804  30.888  1.00  0.00     0.049 A 
ATOM     32  N   UNL A   1      40.076  28.906  29.608  1.00  0.00    -0.248 NA
ATOM     33  C   UNL A   1      38.898  29.123  27.606  1.00  0.00     0.031 C 
ATOM     34  C   UNL A   1      37.176  31.680  31.584  1.00  0.00     0.029 A 
ATOM     35  N   UNL A   1      39.142  30.637  31.791  1.00  0.00    -0.354 N 
ATOM     36  C   UNL A   1      40.677  28.120  28.634  1.00  0.00     0.074 A 
ATOM     37  C   UNL A   1      39.892  28.264  27.427  1.00  0.00     0.031 C 
ATOM     38  C   UNL A   1      37.670  31.993  32.791  1.00  0.00     0.029 A 
ATOM     39  C   UNL A   1      38.925  31.278  32.988  1.00  0.00     0.049 A 
ATOM     40  H   UNL A   1      39.950  30.108  31.600  1.00  0.00     0.167 HD
ATOM     41  C   UNL A   1      41.788  27.352  28.733  1.00  0.00     0.034 A 
ATOM     42  C   UNL A   1      39.635  31.265  34.134  1.00  0.00     0.034 A 
ATOM     43  C   UNL A   1      42.621  27.286  29.905  1.00  0.00     0.049 A 
ATOM     44  C   UNL A   1      40.884  30.434  34.207  1.00  0.00     0.074 A 
ATOM     45  C   UNL A   1      43.783  26.560  30.096  1.00  0.00     0.029 A 
ATOM     46  N   UNL A   1      42.393  27.993  31.076  1.00  0.00    -0.354 N 
ATOM     47  N   UNL A   1      41.447  29.707  33.271  1.00  0.00    -0.248 NA
ATOM     48  C   UNL A   1      41.600  30.420  35.490  1.00  0.00     0.031 C 
ATOM     49  C   UNL A   1      44.263  26.834  31.381  1.00  0.00     0.029 A 
ATOM     50  C   UNL A   1      43.398  27.729  31.990  1.00  0.00     0.049 A 
ATOM     51  H   UNL A   1      41.629  28.594  31.234  1.00  0.00     0.167 HD
ATOM     52  C   UNL A   1      42.584  29.158  33.847  1.00  0.00     0.074 A 
ATOM     53  C   UNL A   1      42.651  29.663  35.205  1.00  0.00     0.031 C 
ATOM     54  C   UNL A   1      43.476  28.286  33.315  1.00  0.00     0.034 A 
BRANCH  41  55
ATOM     55  C   UNL A   1      42.191  26.543  27.531  1.00  0.00     0.023 A 
ATOM     56  C   UNL A   1      42.932  27.149  26.497  1.00  0.00     0.012 A 
ATOM     57  C   UNL A   1      41.884  25.170  27.449  1.00  0.00     0.148 A 
ATOM     58  C   UNL A   1      43.342  26.409  25.390  1.00  0.00     0.002 A 
ATOM     59  C   UNL A   1      42.326  24.430  26.357  1.00  0.00     0.091 A 
ATOM     60  F   UNL A   1      41.152  24.617  28.426  1.00  0.00    -0.205 F 
ATOM     61  C   UNL A   1      43.049  25.048  25.325  1.00  0.00     0.022 A 
BRANCH  59  62
ATOM     62  S   UNL A   1      42.049  22.659  26.227  1.00  0.00     0.127 S 
ATOM     63  O   UNL A   1      42.723  22.346  24.968  1.00  0.00    -0.237 OA
ATOM     64  O   UNL A   1      42.722  22.147  27.422  1.00  0.00    -0.237 OA
ATOM     65  O   UNL A   1      40.604  22.484  26.232  1.00  0.00    -0.744 OA
ENDBRANCH  59  62
ENDBRANCH  41  55
BRANCH  42  66
ATOM     66  C   UNL A   1      39.183  32.086  35.293  1.00  0.00     0.023 A 
ATOM     67  C   UNL A   1      38.349  31.504  36.265  1.00  0.00     0.012 A 
ATOM     68  C   UNL A   1      39.622  33.413  35.471  1.00  0.00     0.148 A 
ATOM     69  C   UNL A   1      37.951  32.232  37.389  1.00  0.00     0.002 A 
ATOM     70  C   UNL A   1      39.272  34.111  36.622  1.00  0.00     0.091 A 
ATOM     71  F   UNL A   1      40.390  33.966  34.522  1.00  0.00    -0.205 F 
ATOM     72  C   UNL A   1      38.427  33.528  37.575  1.00  0.00     0.022 A 
BRANCH  70  73
ATOM     73  S   UNL A   1      39.980  35.720  36.994  1.00  0.00     0.127 S 
ATOM     74  O   UNL A   1      39.326  36.052  38.256  1.00  0.00    -0.237 OA
ATOM     75  O   UNL A   1      41.408  35.418  37.102  1.00  0.00    -0.237 OA
ATOM     76  O   UNL A   1      39.637  36.557  35.850  1.00  0.00    -0.744 OA
ENDBRANCH  70  73
ENDBRANCH  42  66
BRANCH  54  77
ATOM     77  C   UNL A   1      44.604  27.828  34.196  1.00  0.00     0.023 A 
ATOM     78  C   UNL A   1      45.766  28.619  34.290  1.00  0.00     0.012 A 
ATOM     79  C   UNL A   1      44.490  26.665  34.979  1.00  0.00     0.148 A 
ATOM     80  C   UNL A   1      46.809  28.246  35.137  1.00  0.00     0.002 A 
ATOM     81  C   UNL A   1      45.518  26.318  35.849  1.00  0.00     0.091 A 
ATOM     82  F   UNL A   1      43.386  25.914  34.857  1.00  0.00    -0.205 F 
ATOM     83  C   UNL A   1      46.680  27.103  35.924  1.00  0.00     0.022 A 
BRANCH  81  84
ATOM     84  S   UNL A   1      45.394  24.907  36.952  1.00  0.00     0.127 S 
ATOM     85  O   UNL A   1      44.225  25.257  37.756  1.00  0.00    -0.237 OA
ATOM     86  O   UNL A   1      45.182  23.795  36.024  1.00  0.00    -0.237 OA
ATOM     87  O   UNL A   1      46.662  24.855  37.667  1.00  0.00    -0.744 OA
ENDBRANCH  81  84
ENDBRANCH  54  77
ENDBRANCH  28  29
ENDBRANCH  21  23
ENDBRANCH  20  21
ENDBRANCH  19  20
ENDBRANCH   1  19
TORSDOF 20
ENDMDL
MODEL 3
REMARK VINA RESULT:     -10.2      1.358      2.717
REMARK SMILES CCCCC[NH2+][C@](C)(C(=O)OCCOC(=O)c1ccc(-c2c3nc(c(-c4cccc(S(=O)(=O)[O-])c4F)c4ccc([nH]4)c(-c4cccc(S(=O)(=O)[O-])c4F)c4nc(c(-c5cccc(S(=O)(=O)[O-])c5F)c5ccc2[nH]5)C=C4)C=C3)cc1)C(F)(F)F
REMARK SMILES IDX 12 1 11 2 9 3 10 4 7 5 8 6 6 7 5 10 4 11 3 12 2 13 1 14
REMARK SMILES IDX 80 15 81 16 82 17 83 18 13 19 14 20 15 21 16 22 17 23 18 24
REMARK SMILES IDX 79 25 19 26 78 27 20 28 21 29 22 30 72 31 23 32 77 33 71 34
REMARK SMILES IDX 73 35 24 36 76 37 70 38 69 39 25 41 57 42 37 43 56 44 38 45
REMARK SMILES IDX 41 46 55 47 74 48 39 49 40 50 54 52 75 53 42 54 26 55 27 56
REMARK SMILES IDX 35 57 28 58 30 59 36 60 29 61 31 62 32 63 33 64 34 65 58 66
REMARK SMILES IDX 59 67 67 68 60 69 62 70 68 71 61 72 63 73 64 74 65 75 66 76
REMARK SMILES IDX 43 77 44 78 52 79 45 80 47 81 53 82 46 83 48 84 49 85 50 86
REMARK SMILES IDX 51 87
REMARK H PARENT 6 8 6 9 73 40 41 51
REMARK Flexibility Score: inf
ROOT
ATOM      1  C   UNL A   1      35.213  20.356  25.026  1.00  0.00     0.274 C 
ENDROOT
BRANCH   1   2
ATOM      2  O   UNL A   1      34.765  21.618  24.494  1.00  0.00    -0.457 OA
BRANCH   2   3
ATOM      3  C   UNL A   1      33.420  21.772  24.308  1.00  0.00     0.377 C 
ATOM      4  O   UNL A   1      32.713  20.945  23.747  1.00  0.00    -0.244 OA
BRANCH   3   5
ATOM      5  C   UNL A   1      32.944  23.174  24.730  1.00  0.00     0.287 C 
ATOM      6  C   UNL A   1      34.146  24.083  25.059  1.00  0.00     0.103 C 
BRANCH   5   7
ATOM      7  N   UNL A   1      32.095  23.655  23.577  1.00  0.00    -0.325 N 
ATOM      8  H   UNL A   1      32.600  23.459  22.713  1.00  0.00     0.347 HD
ATOM      9  H   UNL A   1      31.208  23.159  23.660  1.00  0.00     0.347 HD
BRANCH   7  10
ATOM     10  C   UNL A   1      31.761  25.067  23.587  1.00  0.00     0.261 C 
BRANCH  10  11
ATOM     11  C   UNL A   1      30.245  25.283  23.642  1.00  0.00     0.061 C 
BRANCH  11  12
ATOM     12  C   UNL A   1      29.804  26.630  24.234  1.00  0.00     0.006 C 
BRANCH  12  13
ATOM     13  C   UNL A   1      29.454  27.719  23.215  1.00  0.00    -0.003 C 
ATOM     14  C   UNL A   1      30.094  29.067  23.509  1.00  0.00     0.004 C 
ENDBRANCH  12  13
ENDBRANCH  11  12
ENDBRANCH  10  11
ENDBRANCH   7  10
ENDBRANCH   5   7
BRANCH   5  15
ATOM     15  C   UNL A   1      32.149  22.979  26.044  1.00  0.00     0.455 C 
ATOM     16  F   UNL A   1      30.871  22.614  25.819  1.00  0.00    -0.164 F 
ATOM     17  F   UNL A   1      32.708  21.985  26.784  1.00  0.00    -0.164 F 
ATOM     18  F   UNL A   1      32.148  24.078  26.829  1.00  0.00    -0.164 F 
ENDBRANCH   5  15
ENDBRANCH   3   5
ENDBRANCH   2   3
ENDBRANCH   1   2
BRANCH   1  19
ATOM     19  C   UNL A   1      36.712  20.182  24.810  1.00  0.00     0.275 C 
BRANCH  19  20
ATOM     20  O   UNL A   1      37.418  21.256  25.452  1.00  0.00    -0.458 OA
BRANCH  20  21
ATOM     21  C   UNL A   1      38.671  20.971  25.865  1.00  0.00     0.338 C 
ATOM     22  O   UNL A   1      39.278  19.916  25.730  1.00  0.00    -0.246 OA
BRANCH  21  23
ATOM     23  C   UNL A   1      39.265  22.167  26.473  1.00  0.00     0.060 A 
ATOM     24  C   UNL A   1      38.762  23.417  26.125  1.00  0.00     0.016 A 
ATOM     25  C   UNL A   1      40.396  22.061  27.279  1.00  0.00     0.016 A 
ATOM     26  C   UNL A   1      39.447  24.571  26.489  1.00  0.00     0.010 A 
ATOM     27  C   UNL A   1      41.020  23.227  27.734  1.00  0.00     0.010 A 
ATOM     28  C   UNL A   1      40.579  24.494  27.309  1.00  0.00    -0.014 A 
BRANCH  28  29
ATOM     29  C   UNL A   1      41.317  25.728  27.692  1.00  0.00     0.031 A 
ATOM     30  C   UNL A   1      40.637  26.784  28.523  1.00  0.00     0.074 A 
ATOM     31  C   UNL A   1      42.593  25.909  27.294  1.00  0.00     0.049 A 
ATOM     32  N   UNL A   1      41.032  28.001  28.795  1.00  0.00    -0.248 NA
ATOM     33  C   UNL A   1      39.334  26.432  29.113  1.00  0.00     0.031 C 
ATOM     34  C   UNL A   1      43.380  24.955  26.510  1.00  0.00     0.029 A 
ATOM     35  N   UNL A   1      43.452  26.962  27.491  1.00  0.00    -0.354 N 
ATOM     36  C   UNL A   1      39.994  28.585  29.509  1.00  0.00     0.074 A 
ATOM     37  C   UNL A   1      38.958  27.584  29.650  1.00  0.00     0.031 C 
ATOM     38  C   UNL A   1      44.610  25.452  26.314  1.00  0.00     0.029 A 
ATOM     39  C   UNL A   1      44.676  26.792  26.887  1.00  0.00     0.049 A 
ATOM     40  H   UNL A   1      43.214  27.762  28.013  1.00  0.00     0.167 HD
ATOM     41  C   UNL A   1      39.914  29.841  30.010  1.00  0.00     0.034 A 
ATOM     42  C   UNL A   1      45.723  27.632  26.771  1.00  0.00     0.034 A 
ATOM     43  C   UNL A   1      40.983  30.801  29.952  1.00  0.00     0.049 A 
ATOM     44  C   UNL A   1      45.623  29.007  27.367  1.00  0.00     0.074 A 
ATOM     45  C   UNL A   1      41.011  32.090  30.454  1.00  0.00     0.029 A 
ATOM     46  N   UNL A   1      42.224  30.568  29.378  1.00  0.00    -0.354 N 
ATOM     47  N   UNL A   1      44.640  29.539  28.053  1.00  0.00    -0.248 NA
ATOM     48  C   UNL A   1      46.776  29.899  27.178  1.00  0.00     0.031 C 
ATOM     49  C   UNL A   1      42.273  32.635  30.191  1.00  0.00     0.029 A 
ATOM     50  C   UNL A   1      43.028  31.685  29.523  1.00  0.00     0.049 A 
ATOM     51  H   UNL A   1      42.493  29.732  28.933  1.00  0.00     0.167 HD
ATOM     52  C   UNL A   1      45.056  30.822  28.384  1.00  0.00     0.074 A 
ATOM     53  C   UNL A   1      46.397  30.976  27.853  1.00  0.00     0.031 C 
ATOM     54  C   UNL A   1      44.379  31.797  29.037  1.00  0.00     0.034 A 
BRANCH  41  55
ATOM     55  C   UNL A   1      38.637  30.241  30.696  1.00  0.00     0.023 A 
ATOM     56  C   UNL A   1      38.439  29.912  32.051  1.00  0.00     0.012 A 
ATOM     57  C   UNL A   1      37.657  30.991  30.015  1.00  0.00     0.148 A 
ATOM     58  C   UNL A   1      37.276  30.302  32.713  1.00  0.00     0.002 A 
ATOM     59  C   UNL A   1      36.515  31.407  30.692  1.00  0.00     0.091 A 
ATOM     60  F   UNL A   1      37.849  31.270  28.719  1.00  0.00    -0.205 F 
ATOM     61  C   UNL A   1      36.320  31.058  32.038  1.00  0.00     0.022 A 
BRANCH  59  62
ATOM     62  S   UNL A   1      35.266  32.440  29.917  1.00  0.00     0.127 S 
ATOM     63  O   UNL A   1      36.057  33.596  29.496  1.00  0.00    -0.237 OA
ATOM     64  O   UNL A   1      34.794  31.594  28.820  1.00  0.00    -0.237 OA
ATOM     65  O   UNL A   1      34.270  32.698  30.948  1.00  0.00    -0.744 OA
ENDBRANCH  59  62
ENDBRANCH  41  55
BRANCH  42  66
ATOM     66  C   UNL A   1      46.962  27.177  26.077  1.00  0.00     0.023 A 
ATOM     67  C   UNL A   1      47.144  27.491  24.717  1.00  0.00     0.012 A 
ATOM     68  C   UNL A   1      47.984  26.495  26.766  1.00  0.00     0.148 A 
ATOM     69  C   UNL A   1      48.316  27.124  24.053  1.00  0.00     0.002 A 
ATOM     70  C   UNL A   1      49.173  26.186  26.115  1.00  0.00     0.091 A 
ATOM     71  F   UNL A   1      47.784  26.174  28.052  1.00  0.00    -0.205 F 
ATOM     72  C   UNL A   1      49.336  26.488  24.756  1.00  0.00     0.022 A 
BRANCH  70  73
ATOM     73  S   UNL A   1      50.582  25.513  27.004  1.00  0.00     0.127 S 
ATOM     74  O   UNL A   1      50.899  26.596  27.931  1.00  0.00    -0.237 OA
ATOM     75  O   UNL A   1      50.017  24.315  27.628  1.00  0.00    -0.237 OA
ATOM     76  O   UNL A   1      51.577  25.231  25.977  1.00  0.00    -0.744 OA
ENDBRANCH  70  73
ENDBRANCH  42  66
BRANCH  54  77
ATOM     77  C   UNL A   1      45.077  33.116  29.223  1.00  0.00     0.023 A 
ATOM     78  C   UNL A   1      45.842  33.330  30.387  1.00  0.00     0.012 A 
ATOM     79  C   UNL A   1      45.037  34.108  28.227  1.00  0.00     0.148 A 
ATOM     80  C   UNL A   1      46.540  34.523  30.565  1.00  0.00     0.002 A 
ATOM     81  C   UNL A   1      45.765  35.281  28.394  1.00  0.00     0.091 A 
ATOM     82  F   UNL A   1      44.283  33.894  27.138  1.00  0.00    -0.205 F 
ATOM     83  C   UNL A   1      46.511  35.492  29.565  1.00  0.00     0.022 A 
BRANCH  81  84
ATOM     84  S   UNL A   1      45.841  36.541  27.118  1.00  0.00     0.127 S 
ATOM     85  O   UNL A   1      44.447  36.970  27.037  1.00  0.00    -0.237 OA
ATOM     86  O   UNL A   1      46.749  37.530  27.700  1.00  0.00    -0.237 OA
ATOM     87  O   UNL A   1      46.367  35.870  25.936  1.00  0.00    -0.744 OA
ENDBRANCH  81  84
ENDBRANCH  54  77
ENDBRANCH  28  29
ENDBRANCH  21  23
ENDBRANCH  20  21
ENDBRANCH  19  20
ENDBRANCH   1  19
TORSDOF 20
ENDMDL
