MODEL 1
REMARK VINA RESULT:     -10.5      0.000      0.000
REMARK SMILES O=C(OCCOC(=O)[C@H](F)Sc1cc2ccccc2[nH]1)c1ccc(-c2c3nc(c(-c4cccc(S(=O)(=O)[O-])c4F)c4ccc([nH]4)c(-c4cccc(S(=O)(=O)[O-])c4F)c4nc(c(-c5cccc(S(=O)(=O)[O-])c5F)c5ccc2[nH]5)C=C4)C=C3)cc1
REMARK SMILES IDX 4 1 3 2 2 3 1 4 21 5 22 6 83 7 23 8 82 9 24 10 25 11 26 12
REMARK SMILES IDX 76 13 27 14 81 15 75 16 77 17 28 18 80 19 74 20 73 21 29 23
REMARK SMILES IDX 61 24 41 25 60 26 42 27 45 28 59 29 78 30 43 31 44 32 58 34
REMARK SMILES IDX 79 35 46 36 30 37 31 38 39 39 32 40 34 41 40 42 33 43 35 44
REMARK SMILES IDX 36 45 37 46 38 47 62 48 63 49 71 50 64 51 66 52 72 53 65 54
REMARK SMILES IDX 67 55 68 56 69 57 70 58 47 59 48 60 56 61 49 62 51 63 57 64
REMARK SMILES IDX 50 65 52 66 53 67 54 68 55 69 5 70 6 71 7 72 8 73 9 74 10 75
REMARK SMILES IDX 11 76 12 77 13 78 20 79 14 80 19 81 15 83 18 84 16 85 17 86
REMARK H PARENT 77 22 45 33 20 82
REMARK Flexibility Score: inf
ROOT
ATOM      1  C   UNL A   1      33.259  33.626  28.025  1.00  0.00     0.275 C 
ENDROOT
BRANCH   1   2
ATOM      2  O   UNL A   1      34.414  32.792  28.226  1.00  0.00    -0.458 OA
BRANCH   2   3
ATOM      3  C   UNL A   1      34.620  31.480  27.955  1.00  0.00     0.338 C 
ATOM      4  O   UNL A   1      33.724  30.867  27.374  1.00  0.00    -0.246 OA
BRANCH   3   5
ATOM      5  C   UNL A   1      35.811  30.691  28.413  1.00  0.00     0.060 A 
ATOM      6  C   UNL A   1      35.869  29.869  29.540  1.00  0.00     0.016 A 
ATOM      7  C   UNL A   1      36.974  30.800  27.623  1.00  0.00     0.016 A 
ATOM      8  C   UNL A   1      37.026  29.153  29.857  1.00  0.00     0.010 A 
ATOM      9  C   UNL A   1      38.137  30.085  27.931  1.00  0.00     0.010 A 
ATOM     10  C   UNL A   1      38.171  29.272  29.068  1.00  0.00    -0.014 A 
BRANCH  10  11
ATOM     11  C   UNL A   1      39.440  28.700  29.566  1.00  0.00     0.031 A 
ATOM     12  C   UNL A   1      40.039  29.301  30.802  1.00  0.00     0.074 A 
ATOM     13  C   UNL A   1      40.002  27.630  28.976  1.00  0.00     0.049 A 
ATOM     14  N   UNL A   1      41.045  28.877  31.517  1.00  0.00    -0.248 NA
ATOM     15  C   UNL A   1      39.399  30.522  31.323  1.00  0.00     0.031 C 
ATOM     16  C   UNL A   1      39.472  26.942  27.804  1.00  0.00     0.029 A 
ATOM     17  N   UNL A   1      41.147  26.939  29.274  1.00  0.00    -0.354 N 
ATOM     18  C   UNL A   1      41.152  29.768  32.575  1.00  0.00     0.074 A 
ATOM     19  C   UNL A   1      40.135  30.778  32.393  1.00  0.00     0.031 C 
ATOM     20  C   UNL A   1      40.313  25.958  27.444  1.00  0.00     0.029 A 
ATOM     21  C   UNL A   1      41.433  25.934  28.378  1.00  0.00     0.049 A 
ATOM     22  H   UNL A   1      41.712  27.142  30.053  1.00  0.00     0.167 HD
ATOM     23  C   UNL A   1      42.008  29.731  33.621  1.00  0.00     0.034 A 
ATOM     24  C   UNL A   1      42.473  25.081  28.331  1.00  0.00     0.034 A 
ATOM     25  C   UNL A   1      43.034  28.738  33.768  1.00  0.00     0.049 A 
ATOM     26  C   UNL A   1      43.463  25.110  29.464  1.00  0.00     0.074 A 
ATOM     27  C   UNL A   1      43.953  28.592  34.788  1.00  0.00     0.029 A 
ATOM     28  N   UNL A   1      43.295  27.739  32.840  1.00  0.00    -0.354 N 
ATOM     29  N   UNL A   1      43.467  25.871  30.534  1.00  0.00    -0.248 NA
ATOM     30  C   UNL A   1      44.548  24.122  29.425  1.00  0.00     0.031 C 
ATOM     31  C   UNL A   1      44.797  27.526  34.457  1.00  0.00     0.029 A 
ATOM     32  C   UNL A   1      44.377  26.983  33.252  1.00  0.00     0.049 A 
ATOM     33  H   UNL A   1      42.786  27.592  32.011  1.00  0.00     0.167 HD
ATOM     34  C   UNL A   1      44.511  25.413  31.325  1.00  0.00     0.074 A 
ATOM     35  C   UNL A   1      45.120  24.310  30.607  1.00  0.00     0.031 C 
ATOM     36  C   UNL A   1      44.927  25.858  32.538  1.00  0.00     0.034 A 
BRANCH  23  37
ATOM     37  C   UNL A   1      41.856  30.806  34.661  1.00  0.00     0.023 A 
ATOM     38  C   UNL A   1      41.060  30.572  35.802  1.00  0.00     0.012 A 
ATOM     39  C   UNL A   1      42.473  32.058  34.491  1.00  0.00     0.148 A 
ATOM     40  C   UNL A   1      40.845  31.584  36.737  1.00  0.00     0.002 A 
ATOM     41  C   UNL A   1      42.287  33.049  35.448  1.00  0.00     0.091 A 
ATOM     42  F   UNL A   1      43.198  32.270  33.385  1.00  0.00    -0.205 F 
ATOM     43  C   UNL A   1      41.463  32.820  36.562  1.00  0.00     0.022 A 
BRANCH  41  44
ATOM     44  S   UNL A   1      43.086  34.653  35.342  1.00  0.00     0.127 S 
ATOM     45  O   UNL A   1      42.363  35.269  34.231  1.00  0.00    -0.237 OA
ATOM     46  O   UNL A   1      42.793  35.228  36.655  1.00  0.00    -0.237 OA
ATOM     47  O   UNL A   1      44.496  34.384  35.098  1.00  0.00    -0.744 OA
ENDBRANCH  41  44
ENDBRANCH  23  37
BRANCH  24  48
ATOM     48  C   UNL A   1      42.572  24.073  27.238  1.00  0.00     0.023 A 
ATOM     49  C   UNL A   1      43.293  24.383  26.068  1.00  0.00     0.012 A 
ATOM     50  C   UNL A   1      41.975  22.801  27.357  1.00  0.00     0.148 A 
ATOM     51  C   UNL A   1      43.393  23.461  25.026  1.00  0.00     0.002 A 
ATOM     52  C   UNL A   1      42.112  21.872  26.332  1.00  0.00     0.091 A 
ATOM     53  F   UNL A   1      41.289  22.526  28.476  1.00  0.00    -0.205 F 
ATOM     54  C   UNL A   1      42.809  22.204  25.160  1.00  0.00     0.022 A 
BRANCH  52  55
ATOM     55  S   UNL A   1      41.474  20.196  26.446  1.00  0.00     0.127 S 
ATOM     56  O   UNL A   1      42.059  19.574  25.261  1.00  0.00    -0.237 OA
ATOM     57  O   UNL A   1      42.039  19.748  27.720  1.00  0.00    -0.237 OA
ATOM     58  O   UNL A   1      40.024  20.325  26.439  1.00  0.00    -0.744 OA
ENDBRANCH  52  55
ENDBRANCH  24  48
BRANCH  36  59
ATOM     59  C   UNL A   1      46.056  25.115  33.197  1.00  0.00     0.023 A 
ATOM     60  C   UNL A   1      47.378  25.582  33.078  1.00  0.00     0.012 A 
ATOM     61  C   UNL A   1      45.784  23.995  34.008  1.00  0.00     0.148 A 
ATOM     62  C   UNL A   1      48.420  24.925  33.730  1.00  0.00     0.002 A 
ATOM     63  C   UNL A   1      46.818  23.380  34.700  1.00  0.00     0.091 A 
ATOM     64  F   UNL A   1      44.521  23.553  34.088  1.00  0.00    -0.205 F 
ATOM     65  C   UNL A   1      48.139  23.834  34.551  1.00  0.00     0.022 A 
BRANCH  63  66
ATOM     66  S   UNL A   1      46.526  22.045  35.864  1.00  0.00     0.127 S 
ATOM     67  O   UNL A   1      46.437  20.889  34.975  1.00  0.00    -0.237 OA
ATOM     68  O   UNL A   1      47.731  22.086  36.694  1.00  0.00    -0.237 OA
ATOM     69  O   UNL A   1      45.299  22.393  36.569  1.00  0.00    -0.744 OA
ENDBRANCH  63  66
ENDBRANCH  36  59
ENDBRANCH  10  11
ENDBRANCH   3   5
ENDBRANCH   2   3
ENDBRANCH   1   2
BRANCH   1  70
ATOM     70  C   UNL A   1      33.284  34.941  28.808  1.00  0.00     0.274 C 
BRANCH  70  71
ATOM     71  O   UNL A   1      33.072  34.737  30.211  1.00  0.00    -0.459 OA
BRANCH  71  72
ATOM     72  C   UNL A   1      33.037  35.864  30.990  1.00  0.00     0.351 C 
ATOM     73  O   UNL A   1      32.508  36.915  30.636  1.00  0.00    -0.248 OA
BRANCH  72  74
ATOM     74  C   UNL A   1      33.605  35.622  32.388  1.00  0.00     0.339 C 
ATOM     75  F   UNL A   1      34.649  36.457  32.675  1.00  0.00    -0.222 F 
BRANCH  74  76
ATOM     76  S   UNL A   1      34.112  33.903  32.663  1.00  0.00    -0.059 SA
BRANCH  76  77
ATOM     77  C   UNL A   1      35.743  33.917  32.115  1.00  0.00     0.077 A 
ATOM     78  C   UNL A   1      36.922  34.146  32.774  1.00  0.00     0.043 A 
ATOM     79  N   UNL A   1      36.021  33.652  30.803  1.00  0.00    -0.350 N 
ATOM     80  C   UNL A   1      37.958  34.111  31.807  1.00  0.00     0.001 A 
ATOM     81  C   UNL A   1      37.370  33.820  30.574  1.00  0.00     0.046 A 
ATOM     82  H   UNL A   1      35.359  33.382  30.126  1.00  0.00     0.167 HD
ATOM     83  C   UNL A   1      39.348  34.301  31.877  1.00  0.00     0.010 A 
ATOM     84  C   UNL A   1      38.114  33.718  29.394  1.00  0.00     0.027 A 
ATOM     85  C   UNL A   1      40.105  34.207  30.707  1.00  0.00     0.001 A 
ATOM     86  C   UNL A   1      39.496  33.922  29.486  1.00  0.00     0.002 A 
ENDBRANCH  76  77
ENDBRANCH  74  76
ENDBRANCH  72  74
ENDBRANCH  71  72
ENDBRANCH  70  71
ENDBRANCH   1  70
TORSDOF 16
ENDMDL
MODEL 2
REMARK VINA RESULT:     -10.1      5.794     12.042
REMARK SMILES O=C(OCCOC(=O)[C@H](F)Sc1cc2ccccc2[nH]1)c1ccc(-c2c3nc(c(-c4cccc(S(=O)(=O)[O-])c4F)c4ccc([nH]4)c(-c4cccc(S(=O)(=O)[O-])c4F)c4nc(c(-c5cccc(S(=O)(=O)[O-])c5F)c5ccc2[nH]5)C=C4)C=C3)cc1
REMARK SMILES IDX 4 1 3 2 2 3 1 4 21 5 22 6 83 7 23 8 82 9 24 10 25 11 26 12
REMARK SMILES IDX 76 13 27 14 81 15 75 16 77 17 28 18 80 19 74 20 73 21 29 23
REMARK SMILES IDX 61 24 41 25 60 26 42 27 45 28 59 29 78 30 43 31 44 32 58 34
REMARK SMILES IDX 79 35 46 36 30 37 31 38 39 39 32 40 34 41 40 42 33 43 35 44
REMARK SMILES IDX 36 45 37 46 38 47 62 48 63 49 71 50 64 51 66 52 72 53 65 54
REMARK SMILES IDX 67 55 68 56 69 57 70 58 47 59 48 60 56 61 49 62 51 63 57 64
REMARK SMILES IDX 50 65 52 66 53 67 54 68 55 69 5 70 6 71 7 72 8 73 9 74 10 75
REMARK SMILES IDX 11 76 12 77 13 78 20 79 14 80 19 81 15 83 18 84 16 85 17 86
REMARK H PARENT 77 22 45 33 20 82
REMARK Flexibility Score: inf
ROOT
ATOM      1  C   UNL A   1      37.441  21.282  24.495  1.00  0.00     0.275 C 
ENDROOT
BRANCH   1   2
ATOM      2  O   UNL A   1      38.065  21.210  25.791  1.00  0.00    -0.458 OA
BRANCH   2   3
ATOM      3  C   UNL A   1      39.314  21.543  26.194  1.00  0.00     0.338 C 
ATOM      4  O   UNL A   1      40.172  20.660  26.196  1.00  0.00    -0.246 OA
BRANCH   3   5
ATOM      5  C   UNL A   1      39.702  22.881  26.751  1.00  0.00     0.060 A 
ATOM      6  C   UNL A   1      39.062  24.096  26.496  1.00  0.00     0.016 A 
ATOM      7  C   UNL A   1      40.822  22.900  27.610  1.00  0.00     0.016 A 
ATOM      8  C   UNL A   1      39.492  25.282  27.096  1.00  0.00     0.010 A 
ATOM      9  C   UNL A   1      41.257  24.083  28.216  1.00  0.00     0.010 A 
ATOM     10  C   UNL A   1      40.602  25.286  27.942  1.00  0.00    -0.014 A 
BRANCH  10  11
ATOM     11  C   UNL A   1      41.173  26.585  28.358  1.00  0.00     0.031 A 
ATOM     12  C   UNL A   1      42.626  26.831  28.080  1.00  0.00     0.074 A 
ATOM     13  C   UNL A   1      40.402  27.544  28.901  1.00  0.00     0.049 A 
ATOM     14  N   UNL A   1      43.309  27.935  28.201  1.00  0.00    -0.248 NA
ATOM     15  C   UNL A   1      43.404  25.690  27.565  1.00  0.00     0.031 C 
ATOM     16  C   UNL A   1      38.971  27.424  29.163  1.00  0.00     0.029 A 
ATOM     17  N   UNL A   1      40.712  28.805  29.339  1.00  0.00    -0.354 N 
ATOM     18  C   UNL A   1      44.591  27.629  27.767  1.00  0.00     0.074 A 
ATOM     19  C   UNL A   1      44.604  26.228  27.414  1.00  0.00     0.031 C 
ATOM     20  C   UNL A   1      38.532  28.541  29.766  1.00  0.00     0.029 A 
ATOM     21  C   UNL A   1      39.650  29.467  29.910  1.00  0.00     0.049 A 
ATOM     22  H   UNL A   1      41.609  29.200  29.253  1.00  0.00     0.167 HD
ATOM     23  C   UNL A   1      45.657  28.453  27.648  1.00  0.00     0.034 A 
ATOM     24  C   UNL A   1      39.587  30.689  30.471  1.00  0.00     0.034 A 
ATOM     25  C   UNL A   1      45.635  29.835  28.034  1.00  0.00     0.049 A 
ATOM     26  C   UNL A   1      40.810  31.563  30.402  1.00  0.00     0.074 A 
ATOM     27  C   UNL A   1      46.648  30.771  27.952  1.00  0.00     0.029 A 
ATOM     28  N   UNL A   1      44.543  30.469  28.612  1.00  0.00    -0.354 N 
ATOM     29  N   UNL A   1      41.976  31.303  29.858  1.00  0.00    -0.248 NA
ATOM     30  C   UNL A   1      40.692  32.917  30.957  1.00  0.00     0.031 C 
ATOM     31  C   UNL A   1      46.179  31.962  28.518  1.00  0.00     0.029 A 
ATOM     32  C   UNL A   1      44.863  31.780  28.913  1.00  0.00     0.049 A 
ATOM     33  H   UNL A   1      43.671  30.047  28.784  1.00  0.00     0.167 HD
ATOM     34  C   UNL A   1      42.708  32.479  29.946  1.00  0.00     0.074 A 
ATOM     35  C   UNL A   1      41.853  33.451  30.600  1.00  0.00     0.031 C 
ATOM     36  C   UNL A   1      43.970  32.737  29.519  1.00  0.00     0.034 A 
BRANCH  23  37
ATOM     37  C   UNL A   1      46.918  27.855  27.089  1.00  0.00     0.023 A 
ATOM     38  C   UNL A   1      47.914  27.371  27.963  1.00  0.00     0.012 A 
ATOM     39  C   UNL A   1      47.130  27.801  25.699  1.00  0.00     0.148 A 
ATOM     40  C   UNL A   1      49.122  26.885  27.463  1.00  0.00     0.002 A 
ATOM     41  C   UNL A   1      48.319  27.277  25.207  1.00  0.00     0.091 A 
ATOM     42  F   UNL A   1      46.184  28.295  24.888  1.00  0.00    -0.205 F 
ATOM     43  C   UNL A   1      49.321  26.833  26.086  1.00  0.00     0.022 A 
BRANCH  41  44
ATOM     44  S   UNL A   1      48.647  27.115  23.450  1.00  0.00     0.127 S 
ATOM     45  O   UNL A   1      50.107  27.148  23.419  1.00  0.00    -0.237 OA
ATOM     46  O   UNL A   1      48.058  25.810  23.148  1.00  0.00    -0.237 OA
ATOM     47  O   UNL A   1      47.981  28.243  22.812  1.00  0.00    -0.744 OA
ENDBRANCH  41  44
ENDBRANCH  23  37
BRANCH  24  48
ATOM     48  C   UNL A   1      38.305  31.189  31.045  1.00  0.00     0.023 A 
ATOM     49  C   UNL A   1      38.065  31.062  32.426  1.00  0.00     0.012 A 
ATOM     50  C   UNL A   1      37.332  31.810  30.235  1.00  0.00     0.148 A 
ATOM     51  C   UNL A   1      36.870  31.513  32.988  1.00  0.00     0.002 A 
ATOM     52  C   UNL A   1      36.160  32.293  30.807  1.00  0.00     0.091 A 
ATOM     53  F   UNL A   1      37.576  31.919  28.921  1.00  0.00    -0.205 F 
ATOM     54  C   UNL A   1      35.922  32.135  32.180  1.00  0.00     0.022 A 
BRANCH  52  55
ATOM     55  S   UNL A   1      34.917  33.190  29.868  1.00  0.00     0.127 S 
ATOM     56  O   UNL A   1      33.994  33.607  30.920  1.00  0.00    -0.237 OA
ATOM     57  O   UNL A   1      35.709  34.269  29.279  1.00  0.00    -0.237 OA
ATOM     58  O   UNL A   1      34.385  32.234  28.907  1.00  0.00    -0.744 OA
ENDBRANCH  52  55
ENDBRANCH  24  48
BRANCH  36  59
ATOM     59  C   UNL A   1      44.485  34.140  29.689  1.00  0.00     0.023 A 
ATOM     60  C   UNL A   1      45.112  34.525  30.888  1.00  0.00     0.012 A 
ATOM     61  C   UNL A   1      44.417  35.050  28.615  1.00  0.00     0.148 A 
ATOM     62  C   UNL A   1      45.636  35.809  31.029  1.00  0.00     0.002 A 
ATOM     63  C   UNL A   1      44.991  36.307  28.743  1.00  0.00     0.091 A 
ATOM     64  F   UNL A   1      43.794  34.670  27.490  1.00  0.00    -0.205 F 
ATOM     65  C   UNL A   1      45.589  36.694  29.954  1.00  0.00     0.022 A 
BRANCH  63  66
ATOM     66  S   UNL A   1      45.073  37.462  27.371  1.00  0.00     0.127 S 
ATOM     67  O   UNL A   1      45.876  36.718  26.403  1.00  0.00    -0.237 OA
ATOM     68  O   UNL A   1      43.664  37.614  27.007  1.00  0.00    -0.237 OA
ATOM     69  O   UNL A   1      45.689  38.670  27.903  1.00  0.00    -0.744 OA
ENDBRANCH  63  66
ENDBRANCH  36  59
ENDBRANCH  10  11
ENDBRANCH   3   5
ENDBRANCH   2   3
ENDBRANCH   1   2
BRANCH   1  70
ATOM     70  C   UNL A   1      36.944  22.676  24.109  1.00  0.00     0.274 C 
BRANCH  70  71
ATOM     71  O   UNL A   1      35.849  23.104  24.929  1.00  0.00    -0.459 OA
BRANCH  71  72
ATOM     72  C   UNL A   1      34.796  23.695  24.278  1.00  0.00     0.351 C 
ATOM     73  O   UNL A   1      34.782  23.904  23.068  1.00  0.00    -0.248 OA
BRANCH  72  74
ATOM     74  C   UNL A   1      33.602  23.932  25.201  1.00  0.00     0.339 C 
ATOM     75  F   UNL A   1      33.680  25.131  25.852  1.00  0.00    -0.222 F 
BRANCH  74  76
ATOM     76  S   UNL A   1      33.359  22.601  26.408  1.00  0.00    -0.059 SA
BRANCH  76  77
ATOM     77  C   UNL A   1      33.319  21.206  25.401  1.00  0.00     0.077 A 
ATOM     78  C   UNL A   1      32.427  20.801  24.443  1.00  0.00     0.043 A 
ATOM     79  N   UNL A   1      34.319  20.279  25.486  1.00  0.00    -0.350 N 
ATOM     80  C   UNL A   1      32.849  19.527  23.988  1.00  0.00     0.001 A 
ATOM     81  C   UNL A   1      34.026  19.208  24.669  1.00  0.00     0.046 A 
ATOM     82  H   UNL A   1      35.125  20.362  26.046  1.00  0.00     0.167 HD
ATOM     83  C   UNL A   1      32.329  18.617  23.052  1.00  0.00     0.010 A 
ATOM     84  C   UNL A   1      34.709  18.005  24.461  1.00  0.00     0.027 A 
ATOM     85  C   UNL A   1      32.997  17.410  22.836  1.00  0.00     0.001 A 
ATOM     86  C   UNL A   1      34.167  17.110  23.532  1.00  0.00     0.002 A 
ENDBRANCH  76  77
ENDBRANCH  74  76
ENDBRANCH  72  74
ENDBRANCH  71  72
ENDBRANCH  70  71
ENDBRANCH   1  70
TORSDOF 16
ENDMDL
MODEL 3
REMARK VINA RESULT:     -10.0      1.607      1.980
REMARK SMILES O=C(OCCOC(=O)[C@H](F)Sc1cc2ccccc2[nH]1)c1ccc(-c2c3nc(c(-c4cccc(S(=O)(=O)[O-])c4F)c4ccc([nH]4)c(-c4cccc(S(=O)(=O)[O-])c4F)c4nc(c(-c5cccc(S(=O)(=O)[O-])c5F)c5ccc2[nH]5)C=C4)C=C3)cc1
REMARK SMILES IDX 4 1 3 2 2 3 1 4 21 5 22 6 83 7 23 8 82 9 24 10 25 11 26 12
REMARK SMILES IDX 76 13 27 14 81 15 75 16 77 17 28 18 80 19 74 20 73 21 29 23
REMARK SMILES IDX 61 24 41 25 60 26 42 27 45 28 59 29 78 30 43 31 44 32 58 34
REMARK SMILES IDX 79 35 46 36 30 37 31 38 39 39 32 40 34 41 40 42 33 43 35 44
REMARK SMILES IDX 36 45 37 46 38 47 62 48 63 49 71 50 64 51 66 52 72 53 65 54
REMARK SMILES IDX 67 55 68 56 69 57 70 58 47 59 48 60 56 61 49 62 51 63 57 64
REMARK SMILES IDX 50 65 52 66 53 67 54 68 55 69 5 70 6 71 7 72 8 73 9 74 10 75
REMARK SMILES IDX 11 76 12 77 13 78 20 79 14 80 19 81 15 83 18 84 16 85 17 86
REMARK H PARENT 77 22 45 33 20 82
REMARK Flexibility Score: inf
ROOT
ATOM      1  C   UNL A   1      33.411  33.279  28.120  1.00  0.00     0.275 C 
ENDROOT
BRANCH   1   2
ATOM      2  O   UNL A   1      34.473  32.403  27.699  1.00  0.00    -0.458 OA
BRANCH   2   3
ATOM      3  C   UNL A   1      34.621  31.063  27.830  1.00  0.00     0.338 C 
ATOM      4  O   UNL A   1      33.619  30.359  27.706  1.00  0.00    -0.246 OA
BRANCH   3   5
ATOM      5  C   UNL A   1      35.896  30.381  28.231  1.00  0.00     0.060 A 
ATOM      6  C   UNL A   1      36.110  29.662  29.408  1.00  0.00     0.016 A 
ATOM      7  C   UNL A   1      36.972  30.486  27.324  1.00  0.00     0.016 A 
ATOM      8  C   UNL A   1      37.334  29.039  29.666  1.00  0.00     0.010 A 
ATOM      9  C   UNL A   1      38.200  29.864  27.573  1.00  0.00     0.010 A 
ATOM     10  C   UNL A   1      38.391  29.153  28.762  1.00  0.00    -0.014 A 
BRANCH  10  11
ATOM     11  C   UNL A   1      39.733  28.695  29.178  1.00  0.00     0.031 A 
ATOM     12  C   UNL A   1      40.426  29.458  30.267  1.00  0.00     0.074 A 
ATOM     13  C   UNL A   1      40.288  27.589  28.651  1.00  0.00     0.049 A 
ATOM     14  N   UNL A   1      41.522  29.162  30.908  1.00  0.00    -0.248 NA
ATOM     15  C   UNL A   1      39.779  30.704  30.716  1.00  0.00     0.031 C 
ATOM     16  C   UNL A   1      39.675  26.748  27.627  1.00  0.00     0.029 A 
ATOM     17  N   UNL A   1      41.493  26.984  28.895  1.00  0.00    -0.354 N 
ATOM     18  C   UNL A   1      41.692  30.173  31.843  1.00  0.00     0.074 A 
ATOM     19  C   UNL A   1      40.608  31.112  31.664  1.00  0.00     0.031 C 
ATOM     20  C   UNL A   1      40.525  25.765  27.287  1.00  0.00     0.029 A 
ATOM     21  C   UNL A   1      41.736  25.895  28.089  1.00  0.00     0.049 A 
ATOM     22  H   UNL A   1      42.124  27.299  29.580  1.00  0.00     0.167 HD
ATOM     23  C   UNL A   1      42.653  30.291  32.787  1.00  0.00     0.034 A 
ATOM     24  C   UNL A   1      42.810  25.086  28.022  1.00  0.00     0.034 A 
ATOM     25  C   UNL A   1      43.740  29.365  32.928  1.00  0.00     0.049 A 
ATOM     26  C   UNL A   1      43.910  25.286  29.030  1.00  0.00     0.074 A 
ATOM     27  C   UNL A   1      44.768  29.376  33.851  1.00  0.00     0.029 A 
ATOM     28  N   UNL A   1      43.956  28.278  32.093  1.00  0.00    -0.354 N 
ATOM     29  N   UNL A   1      43.985  26.165  30.002  1.00  0.00    -0.248 NA
ATOM     30  C   UNL A   1      45.037  24.346  28.980  1.00  0.00     0.031 C 
ATOM     31  C   UNL A   1      45.628  28.314  33.549  1.00  0.00     0.029 A 
ATOM     32  C   UNL A   1      45.114  27.619  32.464  1.00  0.00     0.049 A 
ATOM     33  H   UNL A   1      43.372  28.015  31.346  1.00  0.00     0.167 HD
ATOM     34  C   UNL A   1      45.129  25.845  30.718  1.00  0.00     0.074 A 
ATOM     35  C   UNL A   1      45.718  24.692  30.065  1.00  0.00     0.031 C 
ATOM     36  C   UNL A   1      45.645  26.443  31.822  1.00  0.00     0.034 A 
BRANCH  23  37
ATOM     37  C   UNL A   1      42.553  31.472  33.712  1.00  0.00     0.023 A 
ATOM     38  C   UNL A   1      43.070  32.723  33.313  1.00  0.00     0.012 A 
ATOM     39  C   UNL A   1      41.977  31.335  34.988  1.00  0.00     0.148 A 
ATOM     40  C   UNL A   1      43.056  33.808  34.188  1.00  0.00     0.002 A 
ATOM     41  C   UNL A   1      41.930  32.433  35.839  1.00  0.00     0.091 A 
ATOM     42  F   UNL A   1      41.521  30.131  35.358  1.00  0.00    -0.205 F 
ATOM     43  C   UNL A   1      42.481  33.664  35.449  1.00  0.00     0.022 A 
BRANCH  41  44
ATOM     44  S   UNL A   1      41.160  32.363  37.459  1.00  0.00     0.127 S 
ATOM     45  O   UNL A   1      41.107  33.778  37.821  1.00  0.00    -0.237 OA
ATOM     46  O   UNL A   1      39.861  31.761  37.155  1.00  0.00    -0.237 OA
ATOM     47  O   UNL A   1      42.032  31.538  38.283  1.00  0.00    -0.744 OA
ENDBRANCH  41  44
ENDBRANCH  23  37
BRANCH  24  48
ATOM     48  C   UNL A   1      42.848  23.964  27.043  1.00  0.00     0.023 A 
ATOM     49  C   UNL A   1      43.582  24.106  25.849  1.00  0.00     0.012 A 
ATOM     50  C   UNL A   1      42.179  22.748  27.294  1.00  0.00     0.148 A 
ATOM     51  C   UNL A   1      43.626  23.074  24.911  1.00  0.00     0.002 A 
ATOM     52  C   UNL A   1      42.259  21.710  26.374  1.00  0.00     0.091 A 
ATOM     53  F   UNL A   1      41.481  22.634  28.433  1.00  0.00    -0.205 F 
ATOM     54  C   UNL A   1      42.971  21.874  25.176  1.00  0.00     0.022 A 
BRANCH  52  55
ATOM     55  S   UNL A   1      41.526  20.094  26.663  1.00  0.00     0.127 S 
ATOM     56  O   UNL A   1      41.876  19.385  25.435  1.00  0.00    -0.237 OA
ATOM     57  O   UNL A   1      42.245  19.651  27.858  1.00  0.00    -0.237 OA
ATOM     58  O   UNL A   1      40.105  20.338  26.866  1.00  0.00    -0.744 OA
ENDBRANCH  52  55
ENDBRANCH  24  48
BRANCH  36  59
ATOM     59  C   UNL A   1      46.875  25.828  32.430  1.00  0.00     0.023 A 
ATOM     60  C   UNL A   1      48.155  26.251  32.025  1.00  0.00     0.012 A 
ATOM     61  C   UNL A   1      46.751  24.886  33.471  1.00  0.00     0.148 A 
ATOM     62  C   UNL A   1      49.296  25.720  32.624  1.00  0.00     0.002 A 
ATOM     63  C   UNL A   1      47.890  24.404  34.102  1.00  0.00     0.091 A 
ATOM     64  F   UNL A   1      45.523  24.480  33.825  1.00  0.00    -0.205 F 
ATOM     65  C   UNL A   1      49.164  24.809  33.671  1.00  0.00     0.022 A 
BRANCH  63  66
ATOM     66  S   UNL A   1      47.803  23.319  35.529  1.00  0.00     0.127 S 
ATOM     67  O   UNL A   1      49.217  23.114  35.835  1.00  0.00    -0.237 OA
ATOM     68  O   UNL A   1      47.080  24.140  36.501  1.00  0.00    -0.237 OA
ATOM     69  O   UNL A   1      47.077  22.136  35.086  1.00  0.00    -0.744 OA
ENDBRANCH  63  66
ENDBRANCH  36  59
ENDBRANCH  10  11
ENDBRANCH   3   5
ENDBRANCH   2   3
ENDBRANCH   1   2
BRANCH   1  70
ATOM     70  C   UNL A   1      33.883  34.553  28.823  1.00  0.00     0.274 C 
BRANCH  70  71
ATOM     71  O   UNL A   1      33.590  34.536  30.225  1.00  0.00    -0.459 OA
BRANCH  71  72
ATOM     72  C   UNL A   1      32.944  35.636  30.726  1.00  0.00     0.351 C 
ATOM     73  O   UNL A   1      32.556  36.569  30.025  1.00  0.00    -0.248 OA
BRANCH  72  74
ATOM     74  C   UNL A   1      32.642  35.507  32.218  1.00  0.00     0.339 C 
ATOM     75  F   UNL A   1      31.461  36.102  32.562  1.00  0.00    -0.222 F 
BRANCH  74  76
ATOM     76  S   UNL A   1      33.972  36.147  33.271  1.00  0.00    -0.059 SA
BRANCH  76  77
ATOM     77  C   UNL A   1      34.951  34.751  33.502  1.00  0.00     0.077 A 
ATOM     78  C   UNL A   1      35.927  34.467  34.421  1.00  0.00     0.043 A 
ATOM     79  N   UNL A   1      34.795  33.669  32.682  1.00  0.00    -0.350 N 
ATOM     80  C   UNL A   1      36.457  33.194  34.091  1.00  0.00     0.001 A 
ATOM     81  C   UNL A   1      35.747  32.719  32.986  1.00  0.00     0.046 A 
ATOM     82  H   UNL A   1      34.110  33.582  31.981  1.00  0.00     0.167 HD
ATOM     83  C   UNL A   1      37.479  32.404  34.641  1.00  0.00     0.010 A 
ATOM     84  C   UNL A   1      36.022  31.483  32.393  1.00  0.00     0.027 A 
ATOM     85  C   UNL A   1      37.770  31.168  34.059  1.00  0.00     0.001 A 
ATOM     86  C   UNL A   1      37.053  30.717  32.952  1.00  0.00     0.002 A 
ENDBRANCH  76  77
ENDBRANCH  74  76
ENDBRANCH  72  74
ENDBRANCH  71  72
ENDBRANCH  70  71
ENDBRANCH   1  70
TORSDOF 16
ENDMDL
