MODEL 1
REMARK VINA RESULT:     -13.2      0.000      0.000
REMARK SMILES Cc1ccc(NC(=O)CN2C(=O)S/C(=C\c3cc(Cl)c(OCC(=O)OCCOC(=O)c4ccc(-c5c6nc(c(-c7cccc(S(=O)(=O)[O-])c7F)c7ccc([nH]7)c(-c7cccc(S(=O)(=O)[O-])c7F)c7nc(c(-c8cccc(S(=O)(=O)[O-])c8F)c8ccc5[nH]8)C=C7)C=C6)cc4)c(Cl)c3)C2=O)cc1
REMARK SMILES IDX 25 1 23 2 24 3 22 4 21 5 20 6 16 7 17 8 96 9 18 10 94 11
REMARK SMILES IDX 19 12 95 13 15 14 10 15 11 16 97 17 12 18 13 19 14 20 98 21
REMARK SMILES IDX 9 22 7 23 6 24 8 26 5 27 1 28 2 29 3 30 100 31 4 32 99 33
REMARK SMILES IDX 26 34 27 35 28 36 29 37 30 38 31 39 32 40 93 41 33 42 92 43
REMARK SMILES IDX 34 44 35 45 36 46 86 47 37 48 91 49 85 50 87 51 38 52 90 53
REMARK SMILES IDX 84 54 83 55 39 57 71 58 51 59 70 60 52 61 55 62 69 63 88 64
REMARK SMILES IDX 53 65 54 66 68 68 89 69 56 70 40 71 41 72 49 73 42 74 44 75
REMARK SMILES IDX 50 76 43 77 45 78 46 79 47 80 48 81 72 82 73 83 81 84 74 85
REMARK SMILES IDX 76 86 82 87 75 88 77 89 78 90 79 91 80 92 57 93 58 94 66 95
REMARK SMILES IDX 59 96 61 97 67 98 60 99 62 100 63 101 64 102 65 103
REMARK H PARENT 6 25 87 56 55 67
REMARK Flexibility Score: inf
ROOT
ATOM      1  O   UNL A   1      43.579  19.257  26.203  1.00  0.00    -0.460 OA
ENDROOT
BRANCH   1   2
ATOM      2  C   UNL A   1      42.212  18.821  26.020  1.00  0.00     0.344 C 
ATOM      3  O   UNL A   1      42.289  17.597  25.742  1.00  0.00    -0.248 OA
BRANCH   2   4
ATOM      4  C   UNL A   1      40.471  20.105  26.421  1.00  0.00     0.352 C 
BRANCH   4   5
ATOM      5  O   UNL A   1      39.967  21.606  26.141  1.00  0.00    -0.479 OA
BRANCH   5   6
ATOM      6  C   UNL A   1      38.686  22.000  25.798  1.00  0.00     0.157 A 
ATOM      7  C   UNL A   1      36.269  23.252  24.758  1.00  0.00    -0.021 A 
ATOM      8  C   UNL A   1      36.542  21.884  24.558  1.00  0.00     0.032 A 
ATOM      9  C   UNL A   1      37.157  23.886  25.632  1.00  0.00     0.032 A 
ATOM     10  C   UNL A   1      37.746  21.273  25.057  1.00  0.00     0.085 A 
ATOM     11  C   UNL A   1      38.252  23.247  26.238  1.00  0.00     0.085 A 
ATOM     12  Cl  UNL A   1      37.973  19.585  24.765  1.00  0.00    -0.080 Cl
ATOM     13  Cl  UNL A   1      39.008  24.089  27.546  1.00  0.00    -0.080 Cl
BRANCH   7  14
ATOM     14  C   UNL A   1      35.226  24.028  23.969  1.00  0.00     0.029 C 
ATOM     15  N   UNL A   1      31.956  25.522  24.624  1.00  0.00    -0.259 N 
ATOM     16  C   UNL A   1      32.093  24.827  25.789  1.00  0.00     0.294 C 
ATOM     17  C   UNL A   1      32.981  25.301  23.708  1.00  0.00     0.268 C 
ATOM     18  O   UNL A   1      31.690  25.134  26.897  1.00  0.00    -0.261 OA
ATOM     19  S   UNL A   1      32.991  23.383  25.457  1.00  0.00    -0.022 SA
ATOM     20  C   UNL A   1      33.908  24.207  24.242  1.00  0.00     0.083 C 
ATOM     21  O   UNL A   1      33.168  25.930  22.676  1.00  0.00    -0.268 OA
BRANCH  15  22
ATOM     22  C   UNL A   1      31.050  26.669  24.623  1.00  0.00     0.230 C 
BRANCH  22  23
ATOM     23  C   UNL A   1      31.709  27.957  25.186  1.00  0.00     0.244 C 
ATOM     24  N   UNL A   1      31.129  29.190  25.045  1.00  0.00    -0.325 N 
ATOM     25  H   UNL A   1      31.296  29.810  25.791  1.00  0.00     0.169 HD
ATOM     26  O   UNL A   1      32.778  27.896  25.802  1.00  0.00    -0.273 OA
BRANCH  24  27
ATOM     27  C   UNL A   1      30.339  29.715  24.014  1.00  0.00     0.041 A 
ATOM     28  C   UNL A   1      27.960  31.443  20.862  1.00  0.00     0.044 C 
ATOM     29  C   UNL A   1      28.811  30.884  21.960  1.00  0.00    -0.051 A 
ATOM     30  C   UNL A   1      29.466  29.667  21.759  1.00  0.00     0.005 A 
ATOM     31  C   UNL A   1      28.962  31.538  23.187  1.00  0.00     0.005 A 
ATOM     32  C   UNL A   1      30.233  29.097  22.772  1.00  0.00     0.026 A 
ATOM     33  C   UNL A   1      29.732  30.961  24.204  1.00  0.00     0.026 A 
ENDBRANCH  24  27
ENDBRANCH  22  23
ENDBRANCH  15  22
ENDBRANCH   7  14
ENDBRANCH   5   6
ENDBRANCH   4   5
ENDBRANCH   2   4
ENDBRANCH   1   2
BRANCH   1  34
ATOM     34  C   UNL A   1      44.419  19.211  25.046  1.00  0.00     0.274 C 
BRANCH  34  35
ATOM     35  C   UNL A   1      45.775  19.803  25.432  1.00  0.00     0.275 C 
BRANCH  35  36
ATOM     36  O   UNL A   1      45.865  21.255  25.489  1.00  0.00    -0.458 OA
BRANCH  36  37
ATOM     37  C   UNL A   1      45.088  22.205  24.902  1.00  0.00     0.338 C 
ATOM     38  O   UNL A   1      45.498  22.850  23.948  1.00  0.00    -0.246 OA
BRANCH  37  39
ATOM     39  C   UNL A   1      43.834  22.616  25.581  1.00  0.00     0.060 A 
ATOM     40  C   UNL A   1      42.980  23.982  24.726  1.00  0.00     0.016 A 
ATOM     41  C   UNL A   1      43.719  22.482  27.372  1.00  0.00     0.016 A 
ATOM     42  C   UNL A   1      42.253  25.321  25.691  1.00  0.00     0.010 A 
ATOM     43  C   UNL A   1      42.948  23.838  28.319  1.00  0.00     0.010 A 
ATOM     44  C   UNL A   1      42.357  25.303  27.467  1.00  0.00    -0.014 A 
BRANCH  44  45
ATOM     45  C   UNL A   1      42.723  26.563  28.187  1.00  0.00     0.031 A 
ATOM     46  C   UNL A   1      41.597  27.445  28.532  1.00  0.00     0.074 A 
ATOM     47  C   UNL A   1      43.975  26.849  28.674  1.00  0.00     0.049 A 
ATOM     48  N   UNL A   1      41.706  28.701  28.784  1.00  0.00    -0.248 NA
ATOM     49  C   UNL A   1      40.215  26.981  28.505  1.00  0.00     0.031 C 
ATOM     50  C   UNL A   1      44.280  27.751  29.794  1.00  0.00     0.029 A 
ATOM     51  N   UNL A   1      45.260  26.429  28.298  1.00  0.00    -0.354 N 
ATOM     52  C   UNL A   1      40.476  29.134  29.232  1.00  0.00     0.074 A 
ATOM     53  C   UNL A   1      39.562  28.092  28.852  1.00  0.00     0.031 C 
ATOM     54  C   UNL A   1      45.605  27.970  29.869  1.00  0.00     0.029 A 
ATOM     55  C   UNL A   1      46.216  27.374  28.700  1.00  0.00     0.049 A 
ATOM     56  H   UNL A   1      45.463  25.592  27.821  1.00  0.00     0.167 HD
ATOM     57  C   UNL A   1      40.421  30.233  30.033  1.00  0.00     0.034 A 
ATOM     58  C   UNL A   1      47.180  27.970  27.929  1.00  0.00     0.034 A 
ATOM     59  C   UNL A   1      41.771  30.809  30.176  1.00  0.00     0.049 A 
ATOM     60  C   UNL A   1      46.910  29.474  27.813  1.00  0.00     0.074 A 
ATOM     61  C   UNL A   1      42.735  30.700  31.164  1.00  0.00     0.029 A 
ATOM     62  N   UNL A   1      42.415  31.326  29.057  1.00  0.00    -0.354 N 
ATOM     63  N   UNL A   1      45.932  30.071  28.438  1.00  0.00    -0.248 NA
ATOM     64  C   UNL A   1      47.642  30.411  26.957  1.00  0.00     0.031 C 
ATOM     65  C   UNL A   1      43.980  31.100  30.607  1.00  0.00     0.029 A 
ATOM     66  C   UNL A   1      43.770  31.502  29.298  1.00  0.00     0.049 A 
ATOM     67  H   UNL A   1      41.968  31.540  28.206  1.00  0.00     0.167 HD
ATOM     68  C   UNL A   1      45.754  31.335  27.951  1.00  0.00     0.074 A 
ATOM     69  C   UNL A   1      46.908  31.532  27.089  1.00  0.00     0.031 C 
ATOM     70  C   UNL A   1      44.636  32.064  28.260  1.00  0.00     0.034 A 
BRANCH  57  71
ATOM     71  C   UNL A   1      39.252  30.651  30.925  1.00  0.00     0.023 A 
ATOM     72  C   UNL A   1      39.229  30.106  32.229  1.00  0.00     0.012 A 
ATOM     73  C   UNL A   1      38.151  31.483  30.597  1.00  0.00     0.148 A 
ATOM     74  C   UNL A   1      38.172  30.317  33.124  1.00  0.00     0.002 A 
ATOM     75  C   UNL A   1      37.090  31.694  31.487  1.00  0.00     0.091 A 
ATOM     76  F   UNL A   1      38.103  32.111  29.426  1.00  0.00    -0.205 F 
ATOM     77  C   UNL A   1      37.096  31.104  32.750  1.00  0.00     0.022 A 
BRANCH  75  78
ATOM     78  S   UNL A   1      35.651  32.706  31.076  1.00  0.00     0.127 S 
ATOM     79  O   UNL A   1      35.043  31.945  29.980  1.00  0.00    -0.237 OA
ATOM     80  O   UNL A   1      34.887  32.687  32.322  1.00  0.00    -0.237 OA
ATOM     81  O   UNL A   1      36.159  34.015  30.683  1.00  0.00    -0.744 OA
ENDBRANCH  75  78
ENDBRANCH  57  71
BRANCH  58  82
ATOM     82  C   UNL A   1      47.680  27.114  26.813  1.00  0.00     0.023 A 
ATOM     83  C   UNL A   1      47.227  27.414  25.507  1.00  0.00     0.012 A 
ATOM     84  C   UNL A   1      48.910  26.478  26.974  1.00  0.00     0.148 A 
ATOM     85  C   UNL A   1      48.117  27.352  24.432  1.00  0.00     0.002 A 
ATOM     86  C   UNL A   1      49.812  26.487  25.925  1.00  0.00     0.091 A 
ATOM     87  F   UNL A   1      49.250  25.988  28.172  1.00  0.00    -0.205 F 
ATOM     88  C   UNL A   1      49.437  26.959  24.659  1.00  0.00     0.022 A 
BRANCH  86  89
ATOM     89  S   UNL A   1      51.527  26.196  26.356  1.00  0.00     0.127 S 
ATOM     90  O   UNL A   1      52.190  26.152  25.055  1.00  0.00    -0.237 OA
ATOM     91  O   UNL A   1      51.866  27.366  27.161  1.00  0.00    -0.237 OA
ATOM     92  O   UNL A   1      51.467  24.924  27.064  1.00  0.00    -0.744 OA
ENDBRANCH  86  89
ENDBRANCH  58  82
BRANCH  70  93
ATOM     93  C   UNL A   1      44.253  33.395  27.640  1.00  0.00     0.023 A 
ATOM     94  C   UNL A   1      43.732  33.508  26.339  1.00  0.00     0.012 A 
ATOM     95  C   UNL A   1      44.312  34.593  28.404  1.00  0.00     0.148 A 
ATOM     96  C   UNL A   1      43.398  34.748  25.784  1.00  0.00     0.002 A 
ATOM     97  C   UNL A   1      43.839  35.797  27.899  1.00  0.00     0.091 A 
ATOM     98  F   UNL A   1      44.864  34.585  29.625  1.00  0.00    -0.205 F 
ATOM     99  C   UNL A   1      43.433  35.891  26.569  1.00  0.00     0.022 A 
BRANCH  97 100
ATOM    100  S   UNL A   1      43.594  37.229  28.957  1.00  0.00     0.127 S 
ATOM    101  O   UNL A   1      44.753  38.053  28.618  1.00  0.00    -0.237 OA
ATOM    102  O   UNL A   1      42.313  37.749  28.475  1.00  0.00    -0.237 OA
ATOM    103  O   UNL A   1      43.557  36.714  30.318  1.00  0.00    -0.744 OA
ENDBRANCH  97 100
ENDBRANCH  70  93
ENDBRANCH  44  45
ENDBRANCH  37  39
ENDBRANCH  36  37
ENDBRANCH  35  36
ENDBRANCH  34  35
ENDBRANCH   1  34
TORSDOF 20
ENDMDL
MODEL 2
REMARK VINA RESULT:     -12.8      1.671      2.322
REMARK SMILES Cc1ccc(NC(=O)CN2C(=O)S/C(=C\c3cc(Cl)c(OCC(=O)OCCOC(=O)c4ccc(-c5c6nc(c(-c7cccc(S(=O)(=O)[O-])c7F)c7ccc([nH]7)c(-c7cccc(S(=O)(=O)[O-])c7F)c7nc(c(-c8cccc(S(=O)(=O)[O-])c8F)c8ccc5[nH]8)C=C7)C=C6)cc4)c(Cl)c3)C2=O)cc1
REMARK SMILES IDX 25 1 23 2 24 3 22 4 21 5 20 6 16 7 17 8 96 9 18 10 94 11
REMARK SMILES IDX 19 12 95 13 15 14 10 15 11 16 97 17 12 18 13 19 14 20 98 21
REMARK SMILES IDX 9 22 7 23 6 24 8 26 5 27 1 28 2 29 3 30 100 31 4 32 99 33
REMARK SMILES IDX 26 34 27 35 28 36 29 37 30 38 31 39 32 40 93 41 33 42 92 43
REMARK SMILES IDX 34 44 35 45 36 46 86 47 37 48 91 49 85 50 87 51 38 52 90 53
REMARK SMILES IDX 84 54 83 55 39 57 71 58 51 59 70 60 52 61 55 62 69 63 88 64
REMARK SMILES IDX 53 65 54 66 68 68 89 69 56 70 40 71 41 72 49 73 42 74 44 75
REMARK SMILES IDX 50 76 43 77 45 78 46 79 47 80 48 81 72 82 73 83 81 84 74 85
REMARK SMILES IDX 76 86 82 87 75 88 77 89 78 90 79 91 80 92 57 93 58 94 66 95
REMARK SMILES IDX 59 96 61 97 67 98 60 99 62 100 63 101 64 102 65 103
REMARK H PARENT 6 25 87 56 55 67
REMARK Flexibility Score: inf
ROOT
ATOM      1  O   UNL A   1      43.402  19.652  26.363  1.00  0.00    -0.460 OA
ENDROOT
BRANCH   1   2
ATOM      2  C   UNL A   1      42.063  19.208  26.048  1.00  0.00     0.344 C 
ATOM      3  O   UNL A   1      42.178  17.993  25.748  1.00  0.00    -0.248 OA
BRANCH   2   4
ATOM      4  C   UNL A   1      40.278  20.465  26.322  1.00  0.00     0.352 C 
BRANCH   4   5
ATOM      5  O   UNL A   1      39.631  21.816  25.736  1.00  0.00    -0.479 OA
BRANCH   5   6
ATOM      6  C   UNL A   1      38.295  22.041  25.457  1.00  0.00     0.157 A 
ATOM      7  C   UNL A   1      35.693  22.917  24.478  1.00  0.00    -0.021 A 
ATOM      8  C   UNL A   1      36.090  21.567  24.425  1.00  0.00     0.032 A 
ATOM      9  C   UNL A   1      36.572  23.740  25.191  1.00  0.00     0.032 A 
ATOM     10  C   UNL A   1      37.383  21.140  24.892  1.00  0.00     0.085 A 
ATOM     11  C   UNL A   1      37.767  23.289  25.775  1.00  0.00     0.085 A 
ATOM     12  Cl  UNL A   1      37.761  19.456  24.791  1.00  0.00    -0.080 Cl
ATOM     13  Cl  UNL A   1      38.525  24.360  26.902  1.00  0.00    -0.080 Cl
BRANCH   7  14
ATOM     14  C   UNL A   1      34.522  23.485  23.691  1.00  0.00     0.029 C 
ATOM     15  N   UNL A   1      31.359  25.152  24.447  1.00  0.00    -0.259 N 
ATOM     16  C   UNL A   1      31.693  24.774  25.715  1.00  0.00     0.294 C 
ATOM     17  C   UNL A   1      32.234  24.686  23.469  1.00  0.00     0.268 C 
ATOM     18  O   UNL A   1      31.459  25.360  26.756  1.00  0.00    -0.261 OA
ATOM     19  S   UNL A   1      32.562  23.278  25.625  1.00  0.00    -0.022 SA
ATOM     20  C   UNL A   1      33.259  23.749  24.112  1.00  0.00     0.083 C 
ATOM     21  O   UNL A   1      32.243  25.028  22.295  1.00  0.00    -0.268 OA
BRANCH  15  22
ATOM     22  C   UNL A   1      30.437  26.275  24.296  1.00  0.00     0.230 C 
BRANCH  22  23
ATOM     23  C   UNL A   1      30.911  27.303  23.233  1.00  0.00     0.244 C 
ATOM     24  N   UNL A   1      32.099  27.975  23.351  1.00  0.00    -0.325 N 
ATOM     25  H   UNL A   1      32.542  28.179  22.495  1.00  0.00     0.169 HD
ATOM     26  O   UNL A   1      30.225  27.528  22.230  1.00  0.00    -0.273 OA
BRANCH  24  27
ATOM     27  C   UNL A   1      32.788  28.418  24.487  1.00  0.00     0.041 A 
ATOM     28  C   UNL A   1      34.797  29.810  28.038  1.00  0.00     0.044 C 
ATOM     29  C   UNL A   1      34.057  29.331  26.827  1.00  0.00    -0.051 A 
ATOM     30  C   UNL A   1      34.433  28.124  26.235  1.00  0.00     0.005 A 
ATOM     31  C   UNL A   1      33.006  30.062  26.263  1.00  0.00     0.005 A 
ATOM     32  C   UNL A   1      33.794  27.666  25.085  1.00  0.00     0.026 A 
ATOM     33  C   UNL A   1      32.368  29.601  25.105  1.00  0.00     0.026 A 
ENDBRANCH  24  27
ENDBRANCH  22  23
ENDBRANCH  15  22
ENDBRANCH   7  14
ENDBRANCH   5   6
ENDBRANCH   4   5
ENDBRANCH   2   4
ENDBRANCH   1   2
BRANCH   1  34
ATOM     34  C   UNL A   1      44.288  19.833  25.253  1.00  0.00     0.274 C 
BRANCH  34  35
ATOM     35  C   UNL A   1      45.280  20.936  25.623  1.00  0.00     0.275 C 
BRANCH  35  36
ATOM     36  O   UNL A   1      44.770  22.300  25.632  1.00  0.00    -0.458 OA
BRANCH  36  37
ATOM     37  C   UNL A   1      43.661  22.825  25.047  1.00  0.00     0.338 C 
ATOM     38  O   UNL A   1      43.639  23.070  23.850  1.00  0.00    -0.246 OA
BRANCH  37  39
ATOM     39  C   UNL A   1      42.565  23.320  25.916  1.00  0.00     0.060 A 
ATOM     40  C   UNL A   1      41.775  24.832  25.271  1.00  0.00     0.016 A 
ATOM     41  C   UNL A   1      42.671  23.066  27.695  1.00  0.00     0.016 A 
ATOM     42  C   UNL A   1      41.345  26.167  26.405  1.00  0.00     0.010 A 
ATOM     43  C   UNL A   1      42.198  24.423  28.818  1.00  0.00     0.010 A 
ATOM     44  C   UNL A   1      41.678  26.004  28.145  1.00  0.00    -0.014 A 
BRANCH  44  45
ATOM     45  C   UNL A   1      42.284  27.159  28.880  1.00  0.00     0.031 A 
ATOM     46  C   UNL A   1      41.325  28.074  29.521  1.00  0.00     0.074 A 
ATOM     47  C   UNL A   1      43.626  27.312  29.126  1.00  0.00     0.049 A 
ATOM     48  N   UNL A   1      41.587  29.288  29.852  1.00  0.00    -0.248 NA
ATOM     49  C   UNL A   1      39.931  27.706  29.735  1.00  0.00     0.031 C 
ATOM     50  C   UNL A   1      44.220  28.075  30.234  1.00  0.00     0.029 A 
ATOM     51  N   UNL A   1      44.773  26.849  28.462  1.00  0.00    -0.354 N 
ATOM     52  C   UNL A   1      40.510  29.754  30.575  1.00  0.00     0.074 A 
ATOM     53  C   UNL A   1      39.454  28.818  30.301  1.00  0.00     0.031 C 
ATOM     54  C   UNL A   1      45.547  28.198  30.056  1.00  0.00     0.029 A 
ATOM     55  C   UNL A   1      45.865  27.684  28.742  1.00  0.00     0.049 A 
ATOM     56  H   UNL A   1      44.807  26.052  27.885  1.00  0.00     0.167 HD
ATOM     57  C   UNL A   1      40.705  30.768  31.461  1.00  0.00     0.034 A 
ATOM     58  C   UNL A   1      46.706  28.290  27.844  1.00  0.00     0.034 A 
ATOM     59  C   UNL A   1      42.100  31.237  31.376  1.00  0.00     0.049 A 
ATOM     60  C   UNL A   1      46.546  29.812  27.915  1.00  0.00     0.074 A 
ATOM     61  C   UNL A   1      43.227  30.967  32.135  1.00  0.00     0.029 A 
ATOM     62  N   UNL A   1      42.554  31.821  30.198  1.00  0.00    -0.354 N 
ATOM     63  N   UNL A   1      45.764  30.406  28.773  1.00  0.00    -0.248 NA
ATOM     64  C   UNL A   1      47.173  30.781  27.010  1.00  0.00     0.031 C 
ATOM     65  C   UNL A   1      44.368  31.338  31.373  1.00  0.00     0.029 A 
ATOM     66  C   UNL A   1      43.941  31.882  30.172  1.00  0.00     0.049 A 
ATOM     67  H   UNL A   1      41.969  32.147  29.476  1.00  0.00     0.167 HD
ATOM     68  C   UNL A   1      45.601  31.721  28.442  1.00  0.00     0.074 A 
ATOM     69  C   UNL A   1      46.576  31.928  27.384  1.00  0.00     0.031 C 
ATOM     70  C   UNL A   1      44.631  32.488  29.033  1.00  0.00     0.034 A 
BRANCH  57  71
ATOM     71  C   UNL A   1      39.774  31.171  32.604  1.00  0.00     0.023 A 
ATOM     72  C   UNL A   1      39.475  30.169  33.556  1.00  0.00     0.012 A 
ATOM     73  C   UNL A   1      39.123  32.414  32.810  1.00  0.00     0.148 A 
ATOM     74  C   UNL A   1      38.559  30.358  34.599  1.00  0.00     0.002 A 
ATOM     75  C   UNL A   1      38.205  32.607  33.850  1.00  0.00     0.091 A 
ATOM     76  F   UNL A   1      39.384  33.453  32.023  1.00  0.00    -0.205 F 
ATOM     77  C   UNL A   1      37.916  31.575  34.742  1.00  0.00     0.022 A 
BRANCH  75  78
ATOM     78  S   UNL A   1      37.323  34.164  34.105  1.00  0.00     0.127 S 
ATOM     79  O   UNL A   1      36.598  34.317  32.840  1.00  0.00    -0.237 OA
ATOM     80  O   UNL A   1      36.474  33.859  35.256  1.00  0.00    -0.237 OA
ATOM     81  O   UNL A   1      38.337  35.185  34.338  1.00  0.00    -0.744 OA
ENDBRANCH  75  78
ENDBRANCH  57  71
BRANCH  58  82
ATOM     82  C   UNL A   1      46.904  27.519  26.581  1.00  0.00     0.023 A 
ATOM     83  C   UNL A   1      45.981  27.738  25.532  1.00  0.00     0.012 A 
ATOM     84  C   UNL A   1      48.192  27.086  26.271  1.00  0.00     0.148 A 
ATOM     85  C   UNL A   1      46.435  27.813  24.213  1.00  0.00     0.002 A 
ATOM     86  C   UNL A   1      48.656  27.234  24.977  1.00  0.00     0.091 A 
ATOM     87  F   UNL A   1      49.001  26.660  27.249  1.00  0.00    -0.205 F 
ATOM     88  C   UNL A   1      47.794  27.635  23.946  1.00  0.00     0.022 A 
BRANCH  86  89
ATOM     89  S   UNL A   1      50.436  27.220  24.768  1.00  0.00     0.127 S 
ATOM     90  O   UNL A   1      50.809  25.877  25.208  1.00  0.00    -0.237 OA
ATOM     91  O   UNL A   1      50.600  27.448  23.336  1.00  0.00    -0.237 OA
ATOM     92  O   UNL A   1      50.868  28.301  25.644  1.00  0.00    -0.744 OA
ENDBRANCH  86  89
ENDBRANCH  58  82
BRANCH  70  93
ATOM     93  C   UNL A   1      44.247  33.896  28.619  1.00  0.00     0.023 A 
ATOM     94  C   UNL A   1      43.401  34.167  27.530  1.00  0.00     0.012 A 
ATOM     95  C   UNL A   1      44.656  35.015  29.396  1.00  0.00     0.148 A 
ATOM     96  C   UNL A   1      43.071  35.476  27.159  1.00  0.00     0.002 A 
ATOM     97  C   UNL A   1      44.204  36.297  29.111  1.00  0.00     0.091 A 
ATOM     98  F   UNL A   1      45.523  34.853  30.405  1.00  0.00    -0.205 F 
ATOM     99  C   UNL A   1      43.457  36.540  27.960  1.00  0.00     0.022 A 
BRANCH  97 100
ATOM    100  S   UNL A   1      44.433  37.653  30.268  1.00  0.00     0.127 S 
ATOM    101  O   UNL A   1      43.657  38.719  29.638  1.00  0.00    -0.237 OA
ATOM    102  O   UNL A   1      43.845  37.111  31.494  1.00  0.00    -0.237 OA
ATOM    103  O   UNL A   1      45.871  37.872  30.341  1.00  0.00    -0.744 OA
ENDBRANCH  97 100
ENDBRANCH  70  93
ENDBRANCH  44  45
ENDBRANCH  37  39
ENDBRANCH  36  37
ENDBRANCH  35  36
ENDBRANCH  34  35
ENDBRANCH   1  34
TORSDOF 20
ENDMDL
MODEL 3
REMARK VINA RESULT:     -12.7      6.576     14.904
REMARK SMILES Cc1ccc(NC(=O)CN2C(=O)S/C(=C\c3cc(Cl)c(OCC(=O)OCCOC(=O)c4ccc(-c5c6nc(c(-c7cccc(S(=O)(=O)[O-])c7F)c7ccc([nH]7)c(-c7cccc(S(=O)(=O)[O-])c7F)c7nc(c(-c8cccc(S(=O)(=O)[O-])c8F)c8ccc5[nH]8)C=C7)C=C6)cc4)c(Cl)c3)C2=O)cc1
REMARK SMILES IDX 25 1 23 2 24 3 22 4 21 5 20 6 16 7 17 8 96 9 18 10 94 11
REMARK SMILES IDX 19 12 95 13 15 14 10 15 11 16 97 17 12 18 13 19 14 20 98 21
REMARK SMILES IDX 9 22 7 23 6 24 8 26 5 27 1 28 2 29 3 30 100 31 4 32 99 33
REMARK SMILES IDX 26 34 27 35 28 36 29 37 30 38 31 39 32 40 93 41 33 42 92 43
REMARK SMILES IDX 34 44 35 45 36 46 86 47 37 48 91 49 85 50 87 51 38 52 90 53
REMARK SMILES IDX 84 54 83 55 39 57 71 58 51 59 70 60 52 61 55 62 69 63 88 64
REMARK SMILES IDX 53 65 54 66 68 68 89 69 56 70 40 71 41 72 49 73 42 74 44 75
REMARK SMILES IDX 50 76 43 77 45 78 46 79 47 80 48 81 72 82 73 83 81 84 74 85
REMARK SMILES IDX 76 86 82 87 75 88 77 89 78 90 79 91 80 92 57 93 58 94 66 95
REMARK SMILES IDX 59 96 61 97 67 98 60 99 62 100 63 101 64 102 65 103
REMARK H PARENT 6 25 87 56 55 67
REMARK Flexibility Score: inf
ROOT
ATOM      1  O   UNL A   1      47.061  37.176  32.119  1.00  0.00    -0.460 OA
ENDROOT
BRANCH   1   2
ATOM      2  C   UNL A   1      47.116  36.915  30.698  1.00  0.00     0.344 C 
ATOM      3  O   UNL A   1      48.177  36.265  30.521  1.00  0.00    -0.248 OA
BRANCH   2   4
ATOM      4  C   UNL A   1      45.480  37.415  29.315  1.00  0.00     0.352 C 
BRANCH   4   5
ATOM      5  O   UNL A   1      43.873  37.356  29.247  1.00  0.00    -0.479 OA
BRANCH   5   6
ATOM      6  C   UNL A   1      43.051  38.108  28.428  1.00  0.00     0.157 A 
ATOM      7  C   UNL A   1      41.810  40.025  26.617  1.00  0.00    -0.021 A 
ATOM      8  C   UNL A   1      41.807  38.642  26.350  1.00  0.00     0.032 A 
ATOM      9  C   UNL A   1      42.293  40.357  27.887  1.00  0.00     0.032 A 
ATOM     10  C   UNL A   1      42.437  37.699  27.237  1.00  0.00     0.085 A 
ATOM     11  C   UNL A   1      42.773  39.416  28.814  1.00  0.00     0.085 A 
ATOM     12  Cl  UNL A   1      42.363  36.024  26.818  1.00  0.00    -0.080 Cl
ATOM     13  Cl  UNL A   1      42.988  39.974  30.436  1.00  0.00    -0.080 Cl
BRANCH   7  14
ATOM     14  C   UNL A   1      41.494  41.087  25.576  1.00  0.00     0.029 C 
ATOM     15  N   UNL A   1      43.357  43.054  23.123  1.00  0.00    -0.259 N 
ATOM     16  C   UNL A   1      44.417  42.521  23.797  1.00  0.00     0.294 C 
ATOM     17  C   UNL A   1      42.119  42.739  23.676  1.00  0.00     0.268 C 
ATOM     18  O   UNL A   1      45.506  42.206  23.352  1.00  0.00    -0.261 OA
ATOM     19  S   UNL A   1      43.960  42.322  25.457  1.00  0.00    -0.022 SA
ATOM     20  C   UNL A   1      42.329  41.983  24.990  1.00  0.00     0.083 C 
ATOM     21  O   UNL A   1      41.030  42.954  23.163  1.00  0.00    -0.268 OA
BRANCH  15  22
ATOM     22  C   UNL A   1      43.585  43.506  21.753  1.00  0.00     0.230 C 
BRANCH  22  23
ATOM     23  C   UNL A   1      43.129  42.467  20.693  1.00  0.00     0.244 C 
ATOM     24  N   UNL A   1      43.097  42.760  19.355  1.00  0.00    -0.325 N 
ATOM     25  H   UNL A   1      43.295  41.999  18.763  1.00  0.00     0.169 HD
ATOM     26  O   UNL A   1      42.798  41.327  21.036  1.00  0.00    -0.273 OA
BRANCH  24  27
ATOM     27  C   UNL A   1      42.831  43.964  18.691  1.00  0.00     0.041 A 
ATOM     28  C   UNL A   1      41.920  47.694  16.731  1.00  0.00     0.044 C 
ATOM     29  C   UNL A   1      42.207  46.411  17.448  1.00  0.00    -0.051 A 
ATOM     30  C   UNL A   1      43.534  46.054  17.697  1.00  0.00     0.005 A 
ATOM     31  C   UNL A   1      41.186  45.552  17.866  1.00  0.00     0.005 A 
ATOM     32  C   UNL A   1      43.840  44.849  18.325  1.00  0.00     0.026 A 
ATOM     33  C   UNL A   1      41.497  44.339  18.495  1.00  0.00     0.026 A 
ENDBRANCH  24  27
ENDBRANCH  22  23
ENDBRANCH  15  22
ENDBRANCH   7  14
ENDBRANCH   5   6
ENDBRANCH   4   5
ENDBRANCH   2   4
ENDBRANCH   1   2
BRANCH   1  34
ATOM     34  C   UNL A   1      46.370  36.208  32.915  1.00  0.00     0.274 C 
BRANCH  34  35
ATOM     35  C   UNL A   1      46.427  36.675  34.370  1.00  0.00     0.275 C 
BRANCH  35  36
ATOM     36  O   UNL A   1      45.153  36.842  35.056  1.00  0.00    -0.458 OA
BRANCH  36  37
ATOM     37  C   UNL A   1      44.172  35.937  35.316  1.00  0.00     0.338 C 
ATOM     38  O   UNL A   1      44.406  34.927  35.964  1.00  0.00    -0.246 OA
BRANCH  37  39
ATOM     39  C   UNL A   1      42.877  36.067  34.604  1.00  0.00     0.060 A 
ATOM     40  C   UNL A   1      41.441  35.727  35.675  1.00  0.00     0.016 A 
ATOM     41  C   UNL A   1      42.792  35.659  32.852  1.00  0.00     0.016 A 
ATOM     42  C   UNL A   1      40.060  34.758  35.035  1.00  0.00     0.010 A 
ATOM     43  C   UNL A   1      41.368  34.706  32.228  1.00  0.00     0.010 A 
ATOM     44  C   UNL A   1      40.095  34.147  33.364  1.00  0.00    -0.014 A 
BRANCH  44  45
ATOM     45  C   UNL A   1      39.678  32.735  33.097  1.00  0.00     0.031 A 
ATOM     46  C   UNL A   1      40.718  31.716  33.315  1.00  0.00     0.074 A 
ATOM     47  C   UNL A   1      38.390  32.336  32.839  1.00  0.00     0.049 A 
ATOM     48  N   UNL A   1      40.706  30.541  32.796  1.00  0.00    -0.248 NA
ATOM     49  C   UNL A   1      41.935  32.002  34.067  1.00  0.00     0.031 C 
ATOM     50  C   UNL A   1      37.834  30.998  33.089  1.00  0.00     0.029 A 
ATOM     51  N   UNL A   1      37.281  32.999  32.290  1.00  0.00    -0.354 N 
ATOM     52  C   UNL A   1      41.740  29.832  33.370  1.00  0.00     0.074 A 
ATOM     53  C   UNL A   1      42.571  30.831  33.985  1.00  0.00     0.031 C 
ATOM     54  C   UNL A   1      36.618  30.886  32.526  1.00  0.00     0.029 A 
ATOM     55  C   UNL A   1      36.391  32.071  31.728  1.00  0.00     0.049 A 
ATOM     56  H   UNL A   1      37.147  33.974  32.299  1.00  0.00     0.167 HD
ATOM     57  C   UNL A   1      41.660  28.474  33.411  1.00  0.00     0.034 A 
ATOM     58  C   UNL A   1      35.867  32.076  30.461  1.00  0.00     0.034 A 
ATOM     59  C   UNL A   1      40.447  28.029  32.700  1.00  0.00     0.049 A 
ATOM     60  C   UNL A   1      36.374  30.862  29.675  1.00  0.00     0.074 A 
ATOM     61  C   UNL A   1      39.186  27.661  33.140  1.00  0.00     0.029 A 
ATOM     62  N   UNL A   1      40.332  28.262  31.334  1.00  0.00    -0.354 N 
ATOM     63  N   UNL A   1      37.134  29.942  30.200  1.00  0.00    -0.248 NA
ATOM     64  C   UNL A   1      36.143  30.609  28.250  1.00  0.00     0.031 C 
ATOM     65  C   UNL A   1      38.298  27.736  32.033  1.00  0.00     0.029 A 
ATOM     66  C   UNL A   1      39.021  28.098  30.908  1.00  0.00     0.049 A 
ATOM     67  H   UNL A   1      41.082  28.511  30.746  1.00  0.00     0.167 HD
ATOM     68  C   UNL A   1      37.656  29.138  29.226  1.00  0.00     0.074 A 
ATOM     69  C   UNL A   1      36.932  29.541  28.031  1.00  0.00     0.031 C 
ATOM     70  C   UNL A   1      38.679  28.268  29.495  1.00  0.00     0.034 A 
BRANCH  57  71
ATOM     71  C   UNL A   1      42.475  27.541  34.306  1.00  0.00     0.023 A 
ATOM     72  C   UNL A   1      42.299  27.693  35.701  1.00  0.00     0.012 A 
ATOM     73  C   UNL A   1      43.431  26.566  33.920  1.00  0.00     0.148 A 
ATOM     74  C   UNL A   1      43.050  26.981  36.646  1.00  0.00     0.002 A 
ATOM     75  C   UNL A   1      44.185  25.854  34.861  1.00  0.00     0.091 A 
ATOM     76  F   UNL A   1      43.626  26.283  32.636  1.00  0.00    -0.205 F 
ATOM     77  C   UNL A   1      44.001  26.067  36.226  1.00  0.00     0.022 A 
BRANCH  75  78
ATOM     78  S   UNL A   1      45.445  24.645  34.396  1.00  0.00     0.127 S 
ATOM     79  O   UNL A   1      46.162  24.447  35.658  1.00  0.00    -0.237 OA
ATOM     80  O   UNL A   1      44.641  23.501  33.969  1.00  0.00    -0.237 OA
ATOM     81  O   UNL A   1      46.248  25.262  33.346  1.00  0.00    -0.744 OA
ENDBRANCH  75  78
ENDBRANCH  57  71
BRANCH  58  82
ATOM     82  C   UNL A   1      35.686  33.440  29.884  1.00  0.00     0.023 A 
ATOM     83  C   UNL A   1      35.655  33.553  28.474  1.00  0.00     0.012 A 
ATOM     84  C   UNL A   1      35.029  34.398  30.654  1.00  0.00     0.148 A 
ATOM     85  C   UNL A   1      34.743  34.419  27.866  1.00  0.00     0.002 A 
ATOM     86  C   UNL A   1      34.075  35.200  30.056  1.00  0.00     0.091 A 
ATOM     87  F   UNL A   1      35.233  34.437  31.976  1.00  0.00    -0.205 F 
ATOM     88  C   UNL A   1      33.896  35.190  28.666  1.00  0.00     0.022 A 
BRANCH  86  89
ATOM     89  S   UNL A   1      32.885  35.968  31.156  1.00  0.00     0.127 S 
ATOM     90  O   UNL A   1      31.822  36.391  30.247  1.00  0.00    -0.237 OA
ATOM     91  O   UNL A   1      32.512  34.875  32.048  1.00  0.00    -0.237 OA
ATOM     92  O   UNL A   1      33.656  37.050  31.753  1.00  0.00    -0.744 OA
ENDBRANCH  86  89
ENDBRANCH  58  82
BRANCH  70  93
ATOM     93  C   UNL A   1      39.447  27.464  28.462  1.00  0.00     0.023 A 
ATOM     94  C   UNL A   1      39.062  26.173  28.061  1.00  0.00     0.012 A 
ATOM     95  C   UNL A   1      40.549  28.039  27.772  1.00  0.00     0.148 A 
ATOM     96  C   UNL A   1      39.795  25.446  27.115  1.00  0.00     0.002 A 
ATOM     97  C   UNL A   1      41.179  27.371  26.731  1.00  0.00     0.091 A 
ATOM     98  F   UNL A   1      41.026  29.235  28.145  1.00  0.00    -0.205 F 
ATOM     99  C   UNL A   1      40.842  26.051  26.436  1.00  0.00     0.022 A 
BRANCH  97 100
ATOM    100  S   UNL A   1      42.336  28.208  25.639  1.00  0.00     0.127 S 
ATOM    101  O   UNL A   1      43.532  28.288  26.475  1.00  0.00    -0.237 OA
ATOM    102  O   UNL A   1      42.433  27.269  24.521  1.00  0.00    -0.237 OA
ATOM    103  O   UNL A   1      41.710  29.478  25.300  1.00  0.00    -0.744 OA
ENDBRANCH  97 100
ENDBRANCH  70  93
ENDBRANCH  44  45
ENDBRANCH  37  39
ENDBRANCH  36  37
ENDBRANCH  35  36
ENDBRANCH  34  35
ENDBRANCH   1  34
TORSDOF 20
ENDMDL
