MODEL 1
REMARK VINA RESULT:     -12.8      0.000      0.000
REMARK SMILES O=C(OCCOC(=O)[C@H]1[C@H]2CC[C@H](CC2)[C@@H]1C(=O)Nc1ccc(Cc2ccncc2)cc1)c1ccc(-c2c3nc(c(-c4cccc(S(=O)(=O)[O-])c4F)c4ccc([nH]4)c(-c4cccc(S(=O)(=O)[O-])c4F)c4nc(c(-c5cccc(S(=O)(=O)[O-])c5F)c5ccc2[nH]5)C=C4)C=C3)cc1
REMARK SMILES IDX 5 1 4 2 3 3 2 4 1 5 33 6 34 7 95 8 35 9 94 10 36 11 37 12
REMARK SMILES IDX 38 13 88 14 39 15 93 16 87 17 89 18 40 19 92 20 86 21 85 22
REMARK SMILES IDX 41 24 73 25 53 26 72 27 54 28 57 29 71 30 90 31 55 32 56 33
REMARK SMILES IDX 70 35 91 36 58 37 42 38 43 39 51 40 44 41 46 42 52 43 45 44
REMARK SMILES IDX 47 45 48 46 49 47 50 48 74 49 75 50 83 51 76 52 78 53 84 54
REMARK SMILES IDX 77 55 79 56 80 57 81 58 82 59 59 60 60 61 68 62 61 63 63 64
REMARK SMILES IDX 69 65 62 66 64 67 65 68 66 69 67 70 6 71 7 72 8 73 9 74
REMARK SMILES IDX 10 75 16 76 15 77 11 78 13 79 14 80 12 81 17 82 18 83 19 84
REMARK SMILES IDX 20 86 21 87 32 88 22 89 31 90 23 91 24 92 25 93 26 94 30 95
REMARK SMILES IDX 27 96 29 97 28 98
REMARK H PARENT 89 23 57 34 19 85
REMARK Flexibility Score: inf
ROOT
ATOM      1  C   UNL A   1      36.366  22.586  25.756  1.00  0.00     0.274 C 
ENDROOT
BRANCH   1   2
ATOM      2  C   UNL A   1      37.681  22.118  25.106  1.00  0.00     0.275 C 
BRANCH   2   3
ATOM      3  O   UNL A   1      38.709  21.682  25.997  1.00  0.00    -0.458 OA
BRANCH   3   4
ATOM      4  C   UNL A   1      39.661  22.419  26.606  1.00  0.00     0.338 C 
ATOM      5  O   UNL A   1      40.715  21.857  26.907  1.00  0.00    -0.246 OA
BRANCH   4   6
ATOM      6  C   UNL A   1      39.457  23.840  27.050  1.00  0.00     0.060 A 
ATOM      7  C   UNL A   1      39.033  24.314  28.302  1.00  0.00     0.016 A 
ATOM      8  C   UNL A   1      39.850  24.794  26.115  1.00  0.00     0.016 A 
ATOM      9  C   UNL A   1      39.196  25.662  28.683  1.00  0.00     0.010 A 
ATOM     10  C   UNL A   1      40.042  26.117  26.506  1.00  0.00     0.010 A 
ATOM     11  C   UNL A   1      39.795  26.572  27.821  1.00  0.00    -0.014 A 
BRANCH  11  12
ATOM     12  C   UNL A   1      40.274  27.940  28.242  1.00  0.00     0.031 A 
ATOM     13  C   UNL A   1      41.728  28.087  28.627  1.00  0.00     0.074 A 
ATOM     14  C   UNL A   1      39.443  28.990  28.491  1.00  0.00     0.049 A 
ATOM     15  N   UNL A   1      42.327  29.087  29.217  1.00  0.00    -0.248 NA
ATOM     16  C   UNL A   1      42.617  26.932  28.374  1.00  0.00     0.031 C 
ATOM     17  C   UNL A   1      37.991  29.048  28.274  1.00  0.00     0.029 A 
ATOM     18  N   UNL A   1      39.698  30.204  29.109  1.00  0.00    -0.354 N 
ATOM     19  C   UNL A   1      43.643  28.674  29.348  1.00  0.00     0.074 A 
ATOM     20  C   UNL A   1      43.681  27.258  29.085  1.00  0.00     0.031 C 
ATOM     21  C   UNL A   1      37.482  30.146  28.873  1.00  0.00     0.029 A 
ATOM     22  C   UNL A   1      38.564  30.910  29.474  1.00  0.00     0.049 A 
ATOM     23  H   UNL A   1      40.610  30.537  29.273  1.00  0.00     0.167 HD
ATOM     24  C   UNL A   1      44.760  29.431  29.405  1.00  0.00     0.034 A 
ATOM     25  C   UNL A   1      38.417  32.040  30.204  1.00  0.00     0.034 A 
ATOM     26  C   UNL A   1      44.741  30.852  29.526  1.00  0.00     0.049 A 
ATOM     27  C   UNL A   1      39.659  32.862  30.462  1.00  0.00     0.074 A 
ATOM     28  C   UNL A   1      45.784  31.748  29.423  1.00  0.00     0.029 A 
ATOM     29  N   UNL A   1      43.596  31.581  29.787  1.00  0.00    -0.354 N 
ATOM     30  N   UNL A   1      40.911  32.551  30.235  1.00  0.00    -0.248 NA
ATOM     31  C   UNL A   1      39.462  34.248  30.921  1.00  0.00     0.031 C 
ATOM     32  C   UNL A   1      45.270  33.028  29.654  1.00  0.00     0.029 A 
ATOM     33  C   UNL A   1      43.906  32.922  29.874  1.00  0.00     0.049 A 
ATOM     34  H   UNL A   1      42.694  31.201  29.894  1.00  0.00     0.167 HD
ATOM     35  C   UNL A   1      41.628  33.734  30.384  1.00  0.00     0.074 A 
ATOM     36  C   UNL A   1      40.679  34.754  30.772  1.00  0.00     0.031 C 
ATOM     37  C   UNL A   1      42.948  33.953  30.172  1.00  0.00     0.034 A 
BRANCH  24  38
ATOM     38  C   UNL A   1      46.048  28.719  29.106  1.00  0.00     0.023 A 
ATOM     39  C   UNL A   1      46.916  28.415  30.183  1.00  0.00     0.012 A 
ATOM     40  C   UNL A   1      46.429  28.403  27.796  1.00  0.00     0.148 A 
ATOM     41  C   UNL A   1      48.179  27.884  29.952  1.00  0.00     0.002 A 
ATOM     42  C   UNL A   1      47.671  27.821  27.578  1.00  0.00     0.091 A 
ATOM     43  F   UNL A   1      45.593  28.709  26.794  1.00  0.00    -0.205 F 
ATOM     44  C   UNL A   1      48.554  27.583  28.648  1.00  0.00     0.022 A 
BRANCH  42  45
ATOM     45  S   UNL A   1      48.241  27.337  25.949  1.00  0.00     0.127 S 
ATOM     46  O   UNL A   1      48.223  28.614  25.238  1.00  0.00    -0.237 OA
ATOM     47  O   UNL A   1      49.575  26.818  26.241  1.00  0.00    -0.237 OA
ATOM     48  O   UNL A   1      47.286  26.348  25.463  1.00  0.00    -0.744 OA
ENDBRANCH  42  45
ENDBRANCH  24  38
BRANCH  25  49
ATOM     49  C   UNL A   1      37.081  32.618  30.574  1.00  0.00     0.023 A 
ATOM     50  C   UNL A   1      36.566  32.359  31.862  1.00  0.00     0.012 A 
ATOM     51  C   UNL A   1      36.255  33.271  29.632  1.00  0.00     0.148 A 
ATOM     52  C   UNL A   1      35.245  32.678  32.187  1.00  0.00     0.002 A 
ATOM     53  C   UNL A   1      34.942  33.608  29.972  1.00  0.00     0.091 A 
ATOM     54  F   UNL A   1      36.749  33.504  28.408  1.00  0.00    -0.205 F 
ATOM     55  C   UNL A   1      34.433  33.296  31.243  1.00  0.00     0.022 A 
BRANCH  53  56
ATOM     56  S   UNL A   1      33.791  34.417  28.846  1.00  0.00     0.127 S 
ATOM     57  O   UNL A   1      34.617  35.479  28.282  1.00  0.00    -0.237 OA
ATOM     58  O   UNL A   1      33.467  33.335  27.918  1.00  0.00    -0.237 OA
ATOM     59  O   UNL A   1      32.678  34.869  29.678  1.00  0.00    -0.744 OA
ENDBRANCH  53  56
ENDBRANCH  25  49
BRANCH  37  60
ATOM     60  C   UNL A   1      43.462  35.362  30.242  1.00  0.00     0.023 A 
ATOM     61  C   UNL A   1      44.004  35.865  31.437  1.00  0.00     0.012 A 
ATOM     62  C   UNL A   1      43.515  36.144  29.069  1.00  0.00     0.148 A 
ATOM     63  C   UNL A   1      44.575  37.135  31.470  1.00  0.00     0.002 A 
ATOM     64  C   UNL A   1      44.145  37.379  29.094  1.00  0.00     0.091 A 
ATOM     65  F   UNL A   1      42.969  35.653  27.946  1.00  0.00    -0.205 F 
ATOM     66  C   UNL A   1      44.664  37.882  30.297  1.00  0.00     0.022 A 
BRANCH  64  67
ATOM     67  S   UNL A   1      44.423  38.341  27.604  1.00  0.00     0.127 S 
ATOM     68  O   UNL A   1      45.261  37.438  26.817  1.00  0.00    -0.237 OA
ATOM     69  O   UNL A   1      43.063  38.515  27.090  1.00  0.00    -0.237 OA
ATOM     70  O   UNL A   1      45.066  39.575  28.035  1.00  0.00    -0.744 OA
ENDBRANCH  64  67
ENDBRANCH  37  60
ENDBRANCH  11  12
ENDBRANCH   4   6
ENDBRANCH   3   4
ENDBRANCH   2   3
ENDBRANCH   1   2
BRANCH   1  71
ATOM     71  O   UNL A   1      36.112  24.014  25.772  1.00  0.00    -0.462 OA
BRANCH  71  72
ATOM     72  C   UNL A   1      35.028  24.373  25.034  1.00  0.00     0.310 C 
ATOM     73  O   UNL A   1      34.880  23.950  23.890  1.00  0.00    -0.252 OA
BRANCH  72  74
ATOM     74  C   UNL A   1      34.041  25.373  25.663  1.00  0.00     0.115 C 
ATOM     75  C   UNL A   1      34.232  26.883  25.420  1.00  0.00     0.004 C 
ATOM     76  C   UNL A   1      32.557  24.997  25.511  1.00  0.00     0.096 C 
ATOM     77  C   UNL A   1      33.589  27.258  24.096  1.00  0.00     0.005 C 
ATOM     78  C   UNL A   1      33.456  27.708  26.478  1.00  0.00     0.005 C 
ATOM     79  C   UNL A   1      31.689  26.291  25.381  1.00  0.00     0.002 C 
ATOM     80  C   UNL A   1      32.095  26.976  24.084  1.00  0.00     0.005 C 
ATOM     81  C   UNL A   1      31.972  27.304  26.494  1.00  0.00     0.005 C 
BRANCH  76  82
ATOM     82  C   UNL A   1      31.888  24.016  26.492  1.00  0.00     0.228 C 
ATOM     83  O   UNL A   1      30.976  24.444  27.213  1.00  0.00    -0.274 OA
ATOM     84  N   UNL A   1      32.244  22.707  26.694  1.00  0.00    -0.326 N 
ATOM     85  H   UNL A   1      32.179  22.359  27.612  1.00  0.00     0.169 HD
BRANCH  84  86
ATOM     86  C   UNL A   1      32.692  21.827  25.703  1.00  0.00     0.041 A 
ATOM     87  C   UNL A   1      33.488  20.747  26.079  1.00  0.00     0.026 A 
ATOM     88  C   UNL A   1      32.172  21.902  24.414  1.00  0.00     0.026 A 
ATOM     89  C   UNL A   1      33.552  19.629  25.247  1.00  0.00     0.006 A 
ATOM     90  C   UNL A   1      32.215  20.772  23.592  1.00  0.00     0.006 A 
ATOM     91  C   UNL A   1      32.820  19.596  24.052  1.00  0.00    -0.043 A 
BRANCH  91  92
ATOM     92  C   UNL A   1      32.637  18.292  23.306  1.00  0.00     0.071 C 
BRANCH  92  93
ATOM     93  C   UNL A   1      33.150  17.122  24.098  1.00  0.00    -0.041 A 
ATOM     94  C   UNL A   1      34.493  16.752  24.002  1.00  0.00     0.024 A 
ATOM     95  C   UNL A   1      32.296  16.354  24.888  1.00  0.00     0.024 A 
ATOM     96  C   UNL A   1      34.912  15.608  24.651  1.00  0.00     0.111 A 
ATOM     97  C   UNL A   1      32.815  15.231  25.511  1.00  0.00     0.111 A 
ATOM     98  N   UNL A   1      34.104  14.836  25.409  1.00  0.00    -0.265 NA
ENDBRANCH  92  93
ENDBRANCH  91  92
ENDBRANCH  84  86
ENDBRANCH  76  82
ENDBRANCH  72  74
ENDBRANCH  71  72
ENDBRANCH   1  71
TORSDOF 18
ENDMDL
MODEL 2
REMARK VINA RESULT:     -12.6      4.764      9.600
REMARK SMILES O=C(OCCOC(=O)[C@H]1[C@H]2CC[C@H](CC2)[C@@H]1C(=O)Nc1ccc(Cc2ccncc2)cc1)c1ccc(-c2c3nc(c(-c4cccc(S(=O)(=O)[O-])c4F)c4ccc([nH]4)c(-c4cccc(S(=O)(=O)[O-])c4F)c4nc(c(-c5cccc(S(=O)(=O)[O-])c5F)c5ccc2[nH]5)C=C4)C=C3)cc1
REMARK SMILES IDX 5 1 4 2 3 3 2 4 1 5 33 6 34 7 95 8 35 9 94 10 36 11 37 12
REMARK SMILES IDX 38 13 88 14 39 15 93 16 87 17 89 18 40 19 92 20 86 21 85 22
REMARK SMILES IDX 41 24 73 25 53 26 72 27 54 28 57 29 71 30 90 31 55 32 56 33
REMARK SMILES IDX 70 35 91 36 58 37 42 38 43 39 51 40 44 41 46 42 52 43 45 44
REMARK SMILES IDX 47 45 48 46 49 47 50 48 74 49 75 50 83 51 76 52 78 53 84 54
REMARK SMILES IDX 77 55 79 56 80 57 81 58 82 59 59 60 60 61 68 62 61 63 63 64
REMARK SMILES IDX 69 65 62 66 64 67 65 68 66 69 67 70 6 71 7 72 8 73 9 74
REMARK SMILES IDX 10 75 16 76 15 77 11 78 13 79 14 80 12 81 17 82 18 83 19 84
REMARK SMILES IDX 20 86 21 87 32 88 22 89 31 90 23 91 24 92 25 93 26 94 30 95
REMARK SMILES IDX 27 96 29 97 28 98
REMARK H PARENT 89 23 57 34 19 85
REMARK Flexibility Score: inf
ROOT
ATOM      1  C   UNL A   1      32.814  29.685  26.214  1.00  0.00     0.274 C 
ENDROOT
BRANCH   1   2
ATOM      2  C   UNL A   1      32.622  31.072  26.855  1.00  0.00     0.275 C 
BRANCH   2   3
ATOM      3  O   UNL A   1      33.478  31.385  27.956  1.00  0.00    -0.458 OA
BRANCH   3   4
ATOM      4  C   UNL A   1      34.797  31.670  27.940  1.00  0.00     0.338 C 
ATOM      5  O   UNL A   1      35.128  32.835  27.717  1.00  0.00    -0.246 OA
BRANCH   4   6
ATOM      6  C   UNL A   1      35.876  30.630  28.050  1.00  0.00     0.060 A 
ATOM      7  C   UNL A   1      36.936  30.371  27.167  1.00  0.00     0.016 A 
ATOM      8  C   UNL A   1      35.860  29.913  29.244  1.00  0.00     0.016 A 
ATOM      9  C   UNL A   1      38.050  29.594  27.547  1.00  0.00     0.010 A 
ATOM     10  C   UNL A   1      36.977  29.175  29.629  1.00  0.00     0.010 A 
ATOM     11  C   UNL A   1      38.135  29.059  28.826  1.00  0.00    -0.014 A 
BRANCH  11  12
ATOM     12  C   UNL A   1      39.396  28.475  29.413  1.00  0.00     0.031 A 
ATOM     13  C   UNL A   1      40.232  29.362  30.306  1.00  0.00     0.074 A 
ATOM     14  C   UNL A   1      39.930  27.282  29.027  1.00  0.00     0.049 A 
ATOM     15  N   UNL A   1      41.444  29.174  30.753  1.00  0.00    -0.248 NA
ATOM     16  C   UNL A   1      39.653  30.666  30.699  1.00  0.00     0.031 C 
ATOM     17  C   UNL A   1      39.340  26.298  28.109  1.00  0.00     0.029 A 
ATOM     18  N   UNL A   1      41.179  26.739  29.281  1.00  0.00    -0.354 N 
ATOM     19  C   UNL A   1      41.720  30.310  31.496  1.00  0.00     0.074 A 
ATOM     20  C   UNL A   1      40.713  31.290  31.180  1.00  0.00     0.031 C 
ATOM     21  C   UNL A   1      40.265  25.374  27.773  1.00  0.00     0.029 A 
ATOM     22  C   UNL A   1      41.503  25.653  28.484  1.00  0.00     0.049 A 
ATOM     23  H   UNL A   1      41.785  27.094  29.970  1.00  0.00     0.167 HD
ATOM     24  C   UNL A   1      42.557  30.444  32.548  1.00  0.00     0.034 A 
ATOM     25  C   UNL A   1      42.659  24.964  28.348  1.00  0.00     0.034 A 
ATOM     26  C   UNL A   1      43.467  29.427  32.962  1.00  0.00     0.049 A 
ATOM     27  C   UNL A   1      43.725  25.189  29.397  1.00  0.00     0.074 A 
ATOM     28  C   UNL A   1      44.242  29.364  34.102  1.00  0.00     0.029 A 
ATOM     29  N   UNL A   1      43.724  28.285  32.227  1.00  0.00    -0.354 N 
ATOM     30  N   UNL A   1      43.771  26.099  30.338  1.00  0.00    -0.248 NA
ATOM     31  C   UNL A   1      44.811  24.197  29.473  1.00  0.00     0.031 C 
ATOM     32  C   UNL A   1      44.996  28.188  34.040  1.00  0.00     0.029 A 
ATOM     33  C   UNL A   1      44.666  27.514  32.874  1.00  0.00     0.049 A 
ATOM     34  H   UNL A   1      43.297  28.055  31.370  1.00  0.00     0.167 HD
ATOM     35  C   UNL A   1      44.797  25.708  31.192  1.00  0.00     0.074 A 
ATOM     36  C   UNL A   1      45.380  24.510  30.629  1.00  0.00     0.031 C 
ATOM     37  C   UNL A   1      45.185  26.275  32.361  1.00  0.00     0.034 A 
BRANCH  24  38
ATOM     38  C   UNL A   1      42.328  31.648  33.416  1.00  0.00     0.023 A 
ATOM     39  C   UNL A   1      43.140  32.790  33.213  1.00  0.00     0.012 A 
ATOM     40  C   UNL A   1      41.379  31.644  34.446  1.00  0.00     0.148 A 
ATOM     41  C   UNL A   1      43.067  33.878  34.073  1.00  0.00     0.002 A 
ATOM     42  C   UNL A   1      41.274  32.758  35.269  1.00  0.00     0.091 A 
ATOM     43  F   UNL A   1      40.630  30.547  34.623  1.00  0.00    -0.205 F 
ATOM     44  C   UNL A   1      42.130  33.863  35.100  1.00  0.00     0.022 A 
BRANCH  42  45
ATOM     45  S   UNL A   1      40.067  32.878  36.588  1.00  0.00     0.127 S 
ATOM     46  O   UNL A   1      40.601  31.930  37.564  1.00  0.00    -0.237 OA
ATOM     47  O   UNL A   1      40.181  34.283  36.972  1.00  0.00    -0.237 OA
ATOM     48  O   UNL A   1      38.787  32.500  36.001  1.00  0.00    -0.744 OA
ENDBRANCH  42  45
ENDBRANCH  24  38
BRANCH  25  49
ATOM     49  C   UNL A   1      42.849  23.852  27.356  1.00  0.00     0.023 A 
ATOM     50  C   UNL A   1      43.457  24.148  26.117  1.00  0.00     0.012 A 
ATOM     51  C   UNL A   1      42.300  22.566  27.552  1.00  0.00     0.148 A 
ATOM     52  C   UNL A   1      43.460  23.217  25.076  1.00  0.00     0.002 A 
ATOM     53  C   UNL A   1      42.328  21.630  26.513  1.00  0.00     0.091 A 
ATOM     54  F   UNL A   1      41.716  22.296  28.728  1.00  0.00    -0.205 F 
ATOM     55  C   UNL A   1      42.892  21.962  25.271  1.00  0.00     0.022 A 
BRANCH  53  56
ATOM     56  S   UNL A   1      41.636  19.972  26.638  1.00  0.00     0.127 S 
ATOM     57  O   UNL A   1      42.390  19.414  27.757  1.00  0.00    -0.237 OA
ATOM     58  O   UNL A   1      40.231  20.252  26.928  1.00  0.00    -0.237 OA
ATOM     59  O   UNL A   1      41.884  19.342  25.344  1.00  0.00    -0.744 OA
ENDBRANCH  53  56
ENDBRANCH  25  49
BRANCH  37  60
ATOM     60  C   UNL A   1      46.218  25.571  33.191  1.00  0.00     0.023 A 
ATOM     61  C   UNL A   1      47.577  25.912  33.078  1.00  0.00     0.012 A 
ATOM     62  C   UNL A   1      45.811  24.652  34.180  1.00  0.00     0.148 A 
ATOM     63  C   UNL A   1      48.520  25.333  33.924  1.00  0.00     0.002 A 
ATOM     64  C   UNL A   1      46.745  24.130  35.061  1.00  0.00     0.091 A 
ATOM     65  F   UNL A   1      44.512  24.323  34.252  1.00  0.00    -0.205 F 
ATOM     66  C   UNL A   1      48.103  24.459  34.926  1.00  0.00     0.022 A 
BRANCH  64  67
ATOM     67  S   UNL A   1      46.275  23.110  36.462  1.00  0.00     0.127 S 
ATOM     68  O   UNL A   1      46.221  21.780  35.858  1.00  0.00    -0.237 OA
ATOM     69  O   UNL A   1      47.392  23.317  37.384  1.00  0.00    -0.237 OA
ATOM     70  O   UNL A   1      45.000  23.635  36.933  1.00  0.00    -0.744 OA
ENDBRANCH  64  67
ENDBRANCH  37  60
ENDBRANCH  11  12
ENDBRANCH   4   6
ENDBRANCH   3   4
ENDBRANCH   2   3
ENDBRANCH   1   2
BRANCH   1  71
ATOM     71  O   UNL A   1      31.616  28.906  25.963  1.00  0.00    -0.462 OA
BRANCH  71  72
ATOM     72  C   UNL A   1      31.248  28.896  24.655  1.00  0.00     0.310 C 
ATOM     73  O   UNL A   1      30.688  29.869  24.153  1.00  0.00    -0.252 OA
BRANCH  72  74
ATOM     74  C   UNL A   1      31.500  27.604  23.857  1.00  0.00     0.115 C 
ATOM     75  C   UNL A   1      32.702  27.530  22.894  1.00  0.00     0.004 C 
ATOM     76  C   UNL A   1      31.402  26.308  24.679  1.00  0.00     0.096 C 
ATOM     77  C   UNL A   1      33.945  27.150  23.680  1.00  0.00     0.005 C 
ATOM     78  C   UNL A   1      32.515  26.375  21.877  1.00  0.00     0.005 C 
ATOM     79  C   UNL A   1      32.405  25.246  24.124  1.00  0.00     0.002 C 
ATOM     80  C   UNL A   1      33.808  25.793  24.349  1.00  0.00     0.005 C 
ATOM     81  C   UNL A   1      32.274  25.045  22.611  1.00  0.00     0.005 C 
BRANCH  76  82
ATOM     82  C   UNL A   1      30.037  25.646  24.946  1.00  0.00     0.228 C 
ATOM     83  O   UNL A   1      29.058  26.046  24.300  1.00  0.00    -0.274 OA
ATOM     84  N   UNL A   1      29.777  24.681  25.886  1.00  0.00    -0.326 N 
ATOM     85  H   UNL A   1      28.906  24.718  26.342  1.00  0.00     0.169 HD
BRANCH  84  86
ATOM     86  C   UNL A   1      30.648  23.648  26.248  1.00  0.00     0.041 A 
ATOM     87  C   UNL A   1      30.653  22.480  25.488  1.00  0.00     0.026 A 
ATOM     88  C   UNL A   1      31.639  23.870  27.201  1.00  0.00     0.026 A 
ATOM     89  C   UNL A   1      31.782  21.661  25.509  1.00  0.00     0.006 A 
ATOM     90  C   UNL A   1      32.780  23.063  27.203  1.00  0.00     0.006 A 
ATOM     91  C   UNL A   1      32.897  22.015  26.281  1.00  0.00    -0.043 A 
BRANCH  91  92
ATOM     92  C   UNL A   1      34.221  21.313  26.075  1.00  0.00     0.071 C 
BRANCH  92  93
ATOM     93  C   UNL A   1      35.201  22.180  25.336  1.00  0.00    -0.041 A 
ATOM     94  C   UNL A   1      35.092  22.332  23.952  1.00  0.00     0.024 A 
ATOM     95  C   UNL A   1      36.263  22.796  25.998  1.00  0.00     0.024 A 
ATOM     96  C   UNL A   1      36.069  23.041  23.284  1.00  0.00     0.111 A 
ATOM     97  C   UNL A   1      37.185  23.498  25.240  1.00  0.00     0.111 A 
ATOM     98  N   UNL A   1      37.117  23.634  23.897  1.00  0.00    -0.265 NA
ENDBRANCH  92  93
ENDBRANCH  91  92
ENDBRANCH  84  86
ENDBRANCH  76  82
ENDBRANCH  72  74
ENDBRANCH  71  72
ENDBRANCH   1  71
TORSDOF 18
ENDMDL
MODEL 3
REMARK VINA RESULT:     -12.6      1.819      2.295
REMARK SMILES O=C(OCCOC(=O)[C@H]1[C@H]2CC[C@H](CC2)[C@@H]1C(=O)Nc1ccc(Cc2ccncc2)cc1)c1ccc(-c2c3nc(c(-c4cccc(S(=O)(=O)[O-])c4F)c4ccc([nH]4)c(-c4cccc(S(=O)(=O)[O-])c4F)c4nc(c(-c5cccc(S(=O)(=O)[O-])c5F)c5ccc2[nH]5)C=C4)C=C3)cc1
REMARK SMILES IDX 5 1 4 2 3 3 2 4 1 5 33 6 34 7 95 8 35 9 94 10 36 11 37 12
REMARK SMILES IDX 38 13 88 14 39 15 93 16 87 17 89 18 40 19 92 20 86 21 85 22
REMARK SMILES IDX 41 24 73 25 53 26 72 27 54 28 57 29 71 30 90 31 55 32 56 33
REMARK SMILES IDX 70 35 91 36 58 37 42 38 43 39 51 40 44 41 46 42 52 43 45 44
REMARK SMILES IDX 47 45 48 46 49 47 50 48 74 49 75 50 83 51 76 52 78 53 84 54
REMARK SMILES IDX 77 55 79 56 80 57 81 58 82 59 59 60 60 61 68 62 61 63 63 64
REMARK SMILES IDX 69 65 62 66 64 67 65 68 66 69 67 70 6 71 7 72 8 73 9 74
REMARK SMILES IDX 10 75 16 76 15 77 11 78 13 79 14 80 12 81 17 82 18 83 19 84
REMARK SMILES IDX 20 86 21 87 32 88 22 89 31 90 23 91 24 92 25 93 26 94 30 95
REMARK SMILES IDX 27 96 29 97 28 98
REMARK H PARENT 89 23 57 34 19 85
REMARK Flexibility Score: inf
ROOT
ATOM      1  C   UNL A   1      36.548  23.103  23.874  1.00  0.00     0.274 C 
ENDROOT
BRANCH   1   2
ATOM      2  C   UNL A   1      37.111  21.735  24.303  1.00  0.00     0.275 C 
BRANCH   2   3
ATOM      3  O   UNL A   1      37.631  21.652  25.630  1.00  0.00    -0.458 OA
BRANCH   3   4
ATOM      4  C   UNL A   1      38.907  21.802  26.044  1.00  0.00     0.338 C 
ATOM      5  O   UNL A   1      39.697  20.888  25.806  1.00  0.00    -0.246 OA
BRANCH   4   6
ATOM      6  C   UNL A   1      39.380  22.955  26.884  1.00  0.00     0.060 A 
ATOM      7  C   UNL A   1      40.574  23.075  27.612  1.00  0.00     0.016 A 
ATOM      8  C   UNL A   1      38.560  24.079  26.829  1.00  0.00     0.016 A 
ATOM      9  C   UNL A   1      41.037  24.321  28.085  1.00  0.00     0.010 A 
ATOM     10  C   UNL A   1      39.035  25.312  27.266  1.00  0.00     0.010 A 
ATOM     11  C   UNL A   1      40.318  25.483  27.834  1.00  0.00    -0.014 A 
BRANCH  11  12
ATOM     12  C   UNL A   1      40.868  26.873  28.036  1.00  0.00     0.031 A 
ATOM     13  C   UNL A   1      42.343  27.088  27.790  1.00  0.00     0.074 A 
ATOM     14  C   UNL A   1      40.169  27.887  28.619  1.00  0.00     0.049 A 
ATOM     15  N   UNL A   1      43.088  28.117  28.092  1.00  0.00    -0.248 NA
ATOM     16  C   UNL A   1      43.098  25.972  27.178  1.00  0.00     0.031 C 
ATOM     17  C   UNL A   1      38.756  27.879  29.021  1.00  0.00     0.029 A 
ATOM     18  N   UNL A   1      40.603  29.115  29.091  1.00  0.00    -0.354 N 
ATOM     19  C   UNL A   1      44.357  27.764  27.664  1.00  0.00     0.074 A 
ATOM     20  C   UNL A   1      44.345  26.350  27.392  1.00  0.00     0.031 C 
ATOM     21  C   UNL A   1      38.492  28.957  29.789  1.00  0.00     0.029 A 
ATOM     22  C   UNL A   1      39.691  29.772  29.900  1.00  0.00     0.049 A 
ATOM     23  H   UNL A   1      41.486  29.490  28.869  1.00  0.00     0.167 HD
ATOM     24  C   UNL A   1      45.365  28.571  27.264  1.00  0.00     0.034 A 
ATOM     25  C   UNL A   1      39.809  30.900  30.639  1.00  0.00     0.034 A 
ATOM     26  C   UNL A   1      45.336  29.990  27.400  1.00  0.00     0.049 A 
ATOM     27  C   UNL A   1      41.010  31.778  30.372  1.00  0.00     0.074 A 
ATOM     28  C   UNL A   1      46.204  30.931  26.887  1.00  0.00     0.029 A 
ATOM     29  N   UNL A   1      44.370  30.670  28.118  1.00  0.00    -0.354 N 
ATOM     30  N   UNL A   1      42.069  31.522  29.645  1.00  0.00    -0.248 NA
ATOM     31  C   UNL A   1      40.960  33.157  30.888  1.00  0.00     0.031 C 
ATOM     32  C   UNL A   1      45.776  32.189  27.324  1.00  0.00     0.029 A 
ATOM     33  C   UNL A   1      44.629  32.023  28.086  1.00  0.00     0.049 A 
ATOM     34  H   UNL A   1      43.610  30.251  28.583  1.00  0.00     0.167 HD
ATOM     35  C   UNL A   1      42.731  32.737  29.500  1.00  0.00     0.074 A 
ATOM     36  C   UNL A   1      41.984  33.716  30.257  1.00  0.00     0.031 C 
ATOM     37  C   UNL A   1      43.836  33.013  28.765  1.00  0.00     0.034 A 
BRANCH  24  38
ATOM     38  C   UNL A   1      46.444  27.915  26.452  1.00  0.00     0.023 A 
ATOM     39  C   UNL A   1      46.318  27.912  25.041  1.00  0.00     0.012 A 
ATOM     40  C   UNL A   1      47.528  27.263  27.054  1.00  0.00     0.148 A 
ATOM     41  C   UNL A   1      47.211  27.202  24.248  1.00  0.00     0.002 A 
ATOM     42  C   UNL A   1      48.447  26.601  26.250  1.00  0.00     0.091 A 
ATOM     43  F   UNL A   1      47.617  27.273  28.391  1.00  0.00    -0.205 F 
ATOM     44  C   UNL A   1      48.278  26.550  24.854  1.00  0.00     0.022 A 
BRANCH  42  45
ATOM     45  S   UNL A   1      49.892  25.773  26.912  1.00  0.00     0.127 S 
ATOM     46  O   UNL A   1      50.340  26.726  27.926  1.00  0.00    -0.237 OA
ATOM     47  O   UNL A   1      49.314  24.541  27.442  1.00  0.00    -0.237 OA
ATOM     48  O   UNL A   1      50.805  25.594  25.789  1.00  0.00    -0.744 OA
ENDBRANCH  42  45
ENDBRANCH  24  38
BRANCH  25  49
ATOM     49  C   UNL A   1      38.721  31.421  31.534  1.00  0.00     0.023 A 
ATOM     50  C   UNL A   1      38.808  31.170  32.921  1.00  0.00     0.012 A 
ATOM     51  C   UNL A   1      37.541  32.006  31.024  1.00  0.00     0.148 A 
ATOM     52  C   UNL A   1      37.729  31.431  33.769  1.00  0.00     0.002 A 
ATOM     53  C   UNL A   1      36.475  32.287  31.883  1.00  0.00     0.091 A 
ATOM     54  F   UNL A   1      37.463  32.232  29.705  1.00  0.00    -0.205 F 
ATOM     55  C   UNL A   1      36.563  31.984  33.251  1.00  0.00     0.022 A 
BRANCH  53  56
ATOM     56  S   UNL A   1      34.915  33.008  31.342  1.00  0.00     0.127 S 
ATOM     57  O   UNL A   1      35.257  34.422  31.233  1.00  0.00    -0.237 OA
ATOM     58  O   UNL A   1      34.697  32.331  30.065  1.00  0.00    -0.237 OA
ATOM     59  O   UNL A   1      33.946  32.680  32.386  1.00  0.00    -0.744 OA
ENDBRANCH  53  56
ENDBRANCH  25  49
BRANCH  37  60
ATOM     60  C   UNL A   1      44.271  34.444  28.634  1.00  0.00     0.023 A 
ATOM     61  C   UNL A   1      43.728  35.264  27.629  1.00  0.00     0.012 A 
ATOM     62  C   UNL A   1      45.132  35.003  29.600  1.00  0.00     0.148 A 
ATOM     63  C   UNL A   1      44.053  36.618  27.576  1.00  0.00     0.002 A 
ATOM     64  C   UNL A   1      45.398  36.363  29.581  1.00  0.00     0.091 A 
ATOM     65  F   UNL A   1      45.657  34.195  30.534  1.00  0.00    -0.205 F 
ATOM     66  C   UNL A   1      44.870  37.170  28.561  1.00  0.00     0.022 A 
BRANCH  64  67
ATOM     67  S   UNL A   1      46.324  37.177  30.886  1.00  0.00     0.127 S 
ATOM     68  O   UNL A   1      46.279  38.574  30.458  1.00  0.00    -0.237 OA
ATOM     69  O   UNL A   1      45.519  36.875  32.070  1.00  0.00    -0.237 OA
ATOM     70  O   UNL A   1      47.645  36.564  30.884  1.00  0.00    -0.744 OA
ENDBRANCH  64  67
ENDBRANCH  37  60
ENDBRANCH  11  12
ENDBRANCH   4   6
ENDBRANCH   3   4
ENDBRANCH   2   3
ENDBRANCH   1   2
BRANCH   1  71
ATOM     71  O   UNL A   1      35.706  23.796  24.830  1.00  0.00    -0.462 OA
BRANCH  71  72
ATOM     72  C   UNL A   1      34.681  24.473  24.249  1.00  0.00     0.310 C 
ATOM     73  O   UNL A   1      34.433  24.333  23.053  1.00  0.00    -0.252 OA
BRANCH  72  74
ATOM     74  C   UNL A   1      33.895  25.463  25.129  1.00  0.00     0.115 C 
ATOM     75  C   UNL A   1      34.041  26.977  24.884  1.00  0.00     0.004 C 
ATOM     76  C   UNL A   1      32.414  25.102  25.340  1.00  0.00     0.096 C 
ATOM     77  C   UNL A   1      33.094  27.394  23.771  1.00  0.00     0.005 C 
ATOM     78  C   UNL A   1      33.563  27.779  26.122  1.00  0.00     0.005 C 
ATOM     79  C   UNL A   1      31.560  26.406  25.464  1.00  0.00     0.002 C 
ATOM     80  C   UNL A   1      31.641  27.123  24.124  1.00  0.00     0.005 C 
ATOM     81  C   UNL A   1      32.124  27.385  26.496  1.00  0.00     0.005 C 
BRANCH  76  82
ATOM     82  C   UNL A   1      31.996  24.100  26.432  1.00  0.00     0.228 C 
ATOM     83  O   UNL A   1      31.179  24.473  27.286  1.00  0.00    -0.274 OA
ATOM     84  N   UNL A   1      32.488  22.829  26.594  1.00  0.00    -0.326 N 
ATOM     85  H   UNL A   1      32.601  22.503  27.515  1.00  0.00     0.169 HD
BRANCH  84  86
ATOM     86  C   UNL A   1      32.843  21.960  25.557  1.00  0.00     0.041 A 
ATOM     87  C   UNL A   1      33.775  20.957  25.815  1.00  0.00     0.026 A 
ATOM     88  C   UNL A   1      32.119  21.958  24.367  1.00  0.00     0.026 A 
ATOM     89  C   UNL A   1      33.797  19.825  25.000  1.00  0.00     0.006 A 
ATOM     90  C   UNL A   1      32.123  20.813  23.566  1.00  0.00     0.006 A 
ATOM     91  C   UNL A   1      32.888  19.700  23.940  1.00  0.00    -0.043 A 
BRANCH  91  92
ATOM     92  C   UNL A   1      32.697  18.366  23.253  1.00  0.00     0.071 C 
BRANCH  92  93
ATOM     93  C   UNL A   1      33.222  17.231  24.087  1.00  0.00    -0.041 A 
ATOM     94  C   UNL A   1      34.589  16.943  24.088  1.00  0.00     0.024 A 
ATOM     95  C   UNL A   1      32.362  16.414  24.819  1.00  0.00     0.024 A 
ATOM     96  C   UNL A   1      35.029  15.828  24.773  1.00  0.00     0.111 A 
ATOM     97  C   UNL A   1      32.903  15.327  25.484  1.00  0.00     0.111 A 
ATOM     98  N   UNL A   1      34.218  15.010  25.476  1.00  0.00    -0.265 NA
ENDBRANCH  92  93
ENDBRANCH  91  92
ENDBRANCH  84  86
ENDBRANCH  76  82
ENDBRANCH  72  74
ENDBRANCH  71  72
ENDBRANCH   1  71
TORSDOF 18
ENDMDL
