MODEL 1
REMARK VINA RESULT:     -12.2      0.000      0.000
REMARK SMILES CC(C)CCc1cc2c(cc1Cl)C=C(C(=O)OCCOC(=O)c1ccc(-c3c4nc(c(-c5cccc(S(=O)(=O)[O-])c5F)c5ccc([nH]5)c(-c5cccc(S(=O)(=O)[O-])c5F)c5nc(c(-c6cccc(S(=O)(=O)[O-])c6F)c6ccc3[nH]6)C=C5)C=C4)cc1)[C@@H](C(F)(F)F)O2
REMARK SMILES IDX 18 1 17 2 15 3 16 4 14 5 6 6 7 7 11 8 8 9 10 10 12 11 9 12
REMARK SMILES IDX 91 13 13 14 86 15 5 16 4 17 2 18 1 19 3 20 87 21 88 22 89 23
REMARK SMILES IDX 90 24 19 25 20 26 21 27 22 28 23 29 24 30 85 31 25 32 84 33
REMARK SMILES IDX 26 34 27 35 28 36 78 37 29 38 83 39 77 40 79 41 30 42 82 43
REMARK SMILES IDX 76 44 75 45 31 47 63 48 43 49 62 50 44 51 47 52 61 53 80 54
REMARK SMILES IDX 45 55 46 56 60 58 81 59 48 60 32 61 33 62 41 63 34 64 36 65
REMARK SMILES IDX 42 66 35 67 37 68 38 69 39 70 40 71 64 72 65 73 73 74 66 75
REMARK SMILES IDX 68 76 74 77 67 78 69 79 70 80 71 81 72 82 49 83 50 84 58 85
REMARK SMILES IDX 51 86 53 87 59 88 52 89 54 90 55 91 56 92 57 93
REMARK H PARENT 79 46 47 57
REMARK Flexibility Score: inf
ROOT
ATOM      1  C   UNL A   1      31.648  28.108  26.108  1.00  0.00     0.275 C 
ENDROOT
BRANCH   1   2
ATOM      2  O   UNL A   1      32.944  27.476  26.211  1.00  0.00    -0.459 OA
BRANCH   2   3
ATOM      3  C   UNL A   1      33.432  26.973  25.052  1.00  0.00     0.338 C 
ATOM      4  O   UNL A   1      33.920  27.621  24.138  1.00  0.00    -0.246 OA
BRANCH   3   5
ATOM      5  C   UNL A   1      33.371  25.496  25.037  1.00  0.00     0.087 C 
ATOM      6  C   UNL A   1      34.688  20.630  24.823  1.00  0.00    -0.026 A 
ATOM      7  C   UNL A   1      33.451  21.318  24.766  1.00  0.00     0.052 A 
ATOM      8  C   UNL A   1      35.856  21.375  25.043  1.00  0.00     0.045 A 
ATOM      9  C   UNL A   1      33.390  22.709  24.894  1.00  0.00     0.128 A 
ATOM     10  C   UNL A   1      35.788  22.756  25.204  1.00  0.00     0.032 A 
ATOM     11  Cl  UNL A   1      37.436  20.682  25.054  1.00  0.00    -0.084 Cl
ATOM     12  C   UNL A   1      34.565  23.419  25.093  1.00  0.00     0.019 A 
ATOM     13  O   UNL A   1      32.160  23.307  24.817  1.00  0.00    -0.475 OA
ATOM     14  C   UNL A   1      34.541  24.860  25.138  1.00  0.00     0.027 C 
ATOM     15  C   UNL A   1      32.085  24.770  24.760  1.00  0.00     0.316 C 
BRANCH   6  16
ATOM     16  C   UNL A   1      34.708  19.133  24.590  1.00  0.00     0.037 C 
BRANCH  16  17
ATOM     17  C   UNL A   1      33.396  18.378  24.858  1.00  0.00     0.008 C 
BRANCH  17  18
ATOM     18  C   UNL A   1      32.931  17.443  23.728  1.00  0.00    -0.017 C 
ATOM     19  C   UNL A   1      32.408  18.229  22.528  1.00  0.00     0.007 C 
ATOM     20  C   UNL A   1      34.090  16.537  23.300  1.00  0.00     0.007 C 
ENDBRANCH  17  18
ENDBRANCH  16  17
ENDBRANCH   6  16
BRANCH  15  21
ATOM     21  C   UNL A   1      31.538  25.175  23.380  1.00  0.00     0.430 C 
ATOM     22  F   UNL A   1      32.522  25.240  22.451  1.00  0.00    -0.167 F 
ATOM     23  F   UNL A   1      30.633  24.277  22.916  1.00  0.00    -0.167 F 
ATOM     24  F   UNL A   1      30.926  26.382  23.405  1.00  0.00    -0.167 F 
ENDBRANCH  15  21
ENDBRANCH   3   5
ENDBRANCH   2   3
ENDBRANCH   1   2
BRANCH   1  25
ATOM     25  C   UNL A   1      31.662  29.557  26.605  1.00  0.00     0.275 C 
BRANCH  25  26
ATOM     26  O   UNL A   1      32.879  30.230  26.234  1.00  0.00    -0.458 OA
BRANCH  26  27
ATOM     27  C   UNL A   1      33.216  31.280  27.020  1.00  0.00     0.338 C 
ATOM     28  O   UNL A   1      32.496  32.200  27.367  1.00  0.00    -0.246 OA
BRANCH  27  29
ATOM     29  C   UNL A   1      34.574  31.089  27.551  1.00  0.00     0.060 A 
ATOM     30  C   UNL A   1      35.426  32.141  27.849  1.00  0.00     0.016 A 
ATOM     31  C   UNL A   1      34.929  29.793  27.900  1.00  0.00     0.016 A 
ATOM     32  C   UNL A   1      36.651  31.864  28.477  1.00  0.00     0.010 A 
ATOM     33  C   UNL A   1      36.085  29.530  28.629  1.00  0.00     0.010 A 
ATOM     34  C   UNL A   1      36.990  30.557  28.899  1.00  0.00    -0.014 A 
BRANCH  34  35
ATOM     35  C   UNL A   1      38.268  30.282  29.625  1.00  0.00     0.031 A 
ATOM     36  C   UNL A   1      38.523  30.810  31.021  1.00  0.00     0.074 A 
ATOM     37  C   UNL A   1      39.234  29.565  29.012  1.00  0.00     0.049 A 
ATOM     38  N   UNL A   1      39.522  30.542  31.826  1.00  0.00    -0.248 NA
ATOM     39  C   UNL A   1      37.571  31.786  31.579  1.00  0.00     0.031 C 
ATOM     40  C   UNL A   1      39.208  29.133  27.612  1.00  0.00     0.029 A 
ATOM     41  N   UNL A   1      40.417  29.052  29.490  1.00  0.00    -0.354 N 
ATOM     42  C   UNL A   1      39.335  31.336  32.953  1.00  0.00     0.074 A 
ATOM     43  C   UNL A   1      38.162  32.141  32.711  1.00  0.00     0.031 C 
ATOM     44  C   UNL A   1      40.271  28.349  27.372  1.00  0.00     0.029 A 
ATOM     45  C   UNL A   1      41.065  28.237  28.591  1.00  0.00     0.049 A 
ATOM     46  H   UNL A   1      40.766  29.249  30.390  1.00  0.00     0.167 HD
ATOM     47  C   UNL A   1      40.033  31.354  34.112  1.00  0.00     0.034 A 
ATOM     48  C   UNL A   1      42.152  27.451  28.737  1.00  0.00     0.034 A 
ATOM     49  C   UNL A   1      41.130  30.475  34.400  1.00  0.00     0.049 A 
ATOM     50  C   UNL A   1      42.834  27.379  30.073  1.00  0.00     0.074 A 
ATOM     51  C   UNL A   1      41.803  30.306  35.596  1.00  0.00     0.029 A 
ATOM     52  N   UNL A   1      41.706  29.610  33.485  1.00  0.00    -0.354 N 
ATOM     53  N   UNL A   1      42.517  27.988  31.189  1.00  0.00    -0.248 NA
ATOM     54  C   UNL A   1      44.006  26.496  30.182  1.00  0.00     0.031 C 
ATOM     55  C   UNL A   1      42.788  29.334  35.405  1.00  0.00     0.029 A 
ATOM     56  C   UNL A   1      42.729  28.904  34.089  1.00  0.00     0.049 A 
ATOM     57  H   UNL A   1      41.428  29.512  32.546  1.00  0.00     0.167 HD
ATOM     58  C   UNL A   1      43.443  27.562  32.132  1.00  0.00     0.074 A 
ATOM     59  C   UNL A   1      44.319  26.621  31.467  1.00  0.00     0.031 C 
ATOM     60  C   UNL A   1      43.565  27.937  33.429  1.00  0.00     0.034 A 
BRANCH  47  61
ATOM     61  C   UNL A   1      39.558  32.262  35.217  1.00  0.00     0.023 A 
ATOM     62  C   UNL A   1      38.719  31.732  36.217  1.00  0.00     0.012 A 
ATOM     63  C   UNL A   1      40.014  33.590  35.325  1.00  0.00     0.148 A 
ATOM     64  C   UNL A   1      38.319  32.514  37.299  1.00  0.00     0.002 A 
ATOM     65  C   UNL A   1      39.637  34.356  36.424  1.00  0.00     0.091 A 
ATOM     66  F   UNL A   1      40.808  34.075  34.361  1.00  0.00    -0.205 F 
ATOM     67  C   UNL A   1      38.785  33.821  37.407  1.00  0.00     0.022 A 
BRANCH  65  68
ATOM     68  S   UNL A   1      40.222  36.032  36.699  1.00  0.00     0.127 S 
ATOM     69  O   UNL A   1      41.668  35.827  36.791  1.00  0.00    -0.237 OA
ATOM     70  O   UNL A   1      39.780  36.713  35.483  1.00  0.00    -0.237 OA
ATOM     71  O   UNL A   1      39.585  36.488  37.925  1.00  0.00    -0.744 OA
ENDBRANCH  65  68
ENDBRANCH  47  61
BRANCH  48  72
ATOM     72  C   UNL A   1      42.567  26.572  27.609  1.00  0.00     0.023 A 
ATOM     73  C   UNL A   1      43.550  27.033  26.710  1.00  0.00     0.012 A 
ATOM     74  C   UNL A   1      42.070  25.263  27.474  1.00  0.00     0.148 A 
ATOM     75  C   UNL A   1      44.028  26.205  25.694  1.00  0.00     0.002 A 
ATOM     76  C   UNL A   1      42.578  24.430  26.484  1.00  0.00     0.091 A 
ATOM     77  F   UNL A   1      41.135  24.849  28.342  1.00  0.00    -0.205 F 
ATOM     78  C   UNL A   1      43.550  24.902  25.588  1.00  0.00     0.022 A 
BRANCH  76  79
ATOM     79  S   UNL A   1      42.108  22.703  26.330  1.00  0.00     0.127 S 
ATOM     80  O   UNL A   1      42.647  22.135  27.565  1.00  0.00    -0.237 OA
ATOM     81  O   UNL A   1      40.649  22.794  26.281  1.00  0.00    -0.237 OA
ATOM     82  O   UNL A   1      42.729  22.231  25.100  1.00  0.00    -0.744 OA
ENDBRANCH  76  79
ENDBRANCH  48  72
BRANCH  60  83
ATOM     83  C   UNL A   1      44.691  27.362  34.239  1.00  0.00     0.023 A 
ATOM     84  C   UNL A   1      45.897  28.082  34.329  1.00  0.00     0.012 A 
ATOM     85  C   UNL A   1      44.490  26.225  35.046  1.00  0.00     0.148 A 
ATOM     86  C   UNL A   1      46.890  27.682  35.220  1.00  0.00     0.002 A 
ATOM     87  C   UNL A   1      45.473  25.852  35.955  1.00  0.00     0.091 A 
ATOM     88  F   UNL A   1      43.330  25.563  34.938  1.00  0.00    -0.205 F 
ATOM     89  C   UNL A   1      46.674  26.577  36.041  1.00  0.00     0.022 A 
BRANCH  87  90
ATOM     90  S   UNL A   1      45.259  24.496  37.114  1.00  0.00     0.127 S 
ATOM     91  O   UNL A   1      45.100  23.356  36.212  1.00  0.00    -0.237 OA
ATOM     92  O   UNL A   1      46.521  24.520  37.851  1.00  0.00    -0.237 OA
ATOM     93  O   UNL A   1      44.080  24.822  37.906  1.00  0.00    -0.744 OA
ENDBRANCH  87  90
ENDBRANCH  60  83
ENDBRANCH  34  35
ENDBRANCH  27  29
ENDBRANCH  26  27
ENDBRANCH  25  26
ENDBRANCH   1  25
TORSDOF 18
ENDMDL
MODEL 2
REMARK VINA RESULT:     -11.8      5.117     10.252
REMARK SMILES CC(C)CCc1cc2c(cc1Cl)C=C(C(=O)OCCOC(=O)c1ccc(-c3c4nc(c(-c5cccc(S(=O)(=O)[O-])c5F)c5ccc([nH]5)c(-c5cccc(S(=O)(=O)[O-])c5F)c5nc(c(-c6cccc(S(=O)(=O)[O-])c6F)c6ccc3[nH]6)C=C5)C=C4)cc1)[C@@H](C(F)(F)F)O2
REMARK SMILES IDX 18 1 17 2 15 3 16 4 14 5 6 6 7 7 11 8 8 9 10 10 12 11 9 12
REMARK SMILES IDX 91 13 13 14 86 15 5 16 4 17 2 18 1 19 3 20 87 21 88 22 89 23
REMARK SMILES IDX 90 24 19 25 20 26 21 27 22 28 23 29 24 30 85 31 25 32 84 33
REMARK SMILES IDX 26 34 27 35 28 36 78 37 29 38 83 39 77 40 79 41 30 42 82 43
REMARK SMILES IDX 76 44 75 45 31 47 63 48 43 49 62 50 44 51 47 52 61 53 80 54
REMARK SMILES IDX 45 55 46 56 60 58 81 59 48 60 32 61 33 62 41 63 34 64 36 65
REMARK SMILES IDX 42 66 35 67 37 68 38 69 39 70 40 71 64 72 65 73 73 74 66 75
REMARK SMILES IDX 68 76 74 77 67 78 69 79 70 80 71 81 72 82 49 83 50 84 58 85
REMARK SMILES IDX 51 86 53 87 59 88 52 89 54 90 55 91 56 92 57 93
REMARK H PARENT 79 46 47 57
REMARK Flexibility Score: inf
ROOT
ATOM      1  C   UNL A   1      36.219  20.466  25.063  1.00  0.00     0.275 C 
ENDROOT
BRANCH   1   2
ATOM      2  O   UNL A   1      35.312  21.284  24.290  1.00  0.00    -0.459 OA
BRANCH   2   3
ATOM      3  C   UNL A   1      33.996  21.055  24.517  1.00  0.00     0.338 C 
ATOM      4  O   UNL A   1      33.437  19.970  24.465  1.00  0.00    -0.246 OA
BRANCH   3   5
ATOM      5  C   UNL A   1      33.295  22.295  24.913  1.00  0.00     0.087 C 
ATOM      6  C   UNL A   1      31.844  27.120  25.199  1.00  0.00    -0.026 A 
ATOM      7  C   UNL A   1      31.602  25.971  25.991  1.00  0.00     0.052 A 
ATOM      8  C   UNL A   1      32.596  26.972  24.023  1.00  0.00     0.045 A 
ATOM      9  C   UNL A   1      32.120  24.722  25.634  1.00  0.00     0.128 A 
ATOM     10  C   UNL A   1      33.083  25.722  23.652  1.00  0.00     0.032 A 
ATOM     11  Cl  UNL A   1      33.038  28.295  23.008  1.00  0.00    -0.084 Cl
ATOM     12  C   UNL A   1      32.875  24.614  24.475  1.00  0.00     0.019 A 
ATOM     13  O   UNL A   1      31.854  23.659  26.454  1.00  0.00    -0.475 OA
ATOM     14  C   UNL A   1      33.496  23.358  24.130  1.00  0.00     0.027 C 
ATOM     15  C   UNL A   1      32.537  22.384  26.208  1.00  0.00     0.316 C 
BRANCH   6  16
ATOM     16  C   UNL A   1      31.335  28.463  25.678  1.00  0.00     0.037 C 
BRANCH  16  17
ATOM     17  C   UNL A   1      31.636  28.831  27.139  1.00  0.00     0.008 C 
BRANCH  17  18
ATOM     18  C   UNL A   1      32.671  29.951  27.338  1.00  0.00    -0.017 C 
ATOM     19  C   UNL A   1      34.028  29.573  26.749  1.00  0.00     0.007 C 
ATOM     20  C   UNL A   1      32.160  31.245  26.696  1.00  0.00     0.007 C 
ENDBRANCH  17  18
ENDBRANCH  16  17
ENDBRANCH   6  16
BRANCH  15  21
ATOM     21  C   UNL A   1      33.479  22.101  27.391  1.00  0.00     0.430 C 
ATOM     22  F   UNL A   1      32.932  22.486  28.569  1.00  0.00    -0.167 F 
ATOM     23  F   UNL A   1      33.750  20.777  27.509  1.00  0.00    -0.167 F 
ATOM     24  F   UNL A   1      34.664  22.742  27.267  1.00  0.00    -0.167 F 
ENDBRANCH  15  21
ENDBRANCH   3   5
ENDBRANCH   2   3
ENDBRANCH   1   2
BRANCH   1  25
ATOM     25  C   UNL A   1      37.688  20.780  24.763  1.00  0.00     0.275 C 
BRANCH  25  26
ATOM     26  O   UNL A   1      38.201  21.798  25.641  1.00  0.00    -0.458 OA
BRANCH  26  27
ATOM     27  C   UNL A   1      39.403  21.522  26.201  1.00  0.00     0.338 C 
ATOM     28  O   UNL A   1      40.048  20.494  26.087  1.00  0.00    -0.246 OA
BRANCH  27  29
ATOM     29  C   UNL A   1      39.929  22.723  26.868  1.00  0.00     0.060 A 
ATOM     30  C   UNL A   1      40.981  22.687  27.771  1.00  0.00     0.016 A 
ATOM     31  C   UNL A   1      39.429  23.944  26.437  1.00  0.00     0.016 A 
ATOM     32  C   UNL A   1      41.500  23.900  28.253  1.00  0.00     0.010 A 
ATOM     33  C   UNL A   1      40.020  25.144  26.819  1.00  0.00     0.010 A 
ATOM     34  C   UNL A   1      41.044  25.148  27.767  1.00  0.00    -0.014 A 
BRANCH  34  35
ATOM     35  C   UNL A   1      41.648  26.432  28.239  1.00  0.00     0.031 A 
ATOM     36  C   UNL A   1      43.067  26.824  27.885  1.00  0.00     0.074 A 
ATOM     37  C   UNL A   1      40.920  27.255  29.023  1.00  0.00     0.049 A 
ATOM     38  N   UNL A   1      43.679  27.962  28.107  1.00  0.00    -0.248 NA
ATOM     39  C   UNL A   1      43.927  25.817  27.239  1.00  0.00     0.031 C 
ATOM     40  C   UNL A   1      39.605  26.942  29.588  1.00  0.00     0.029 A 
ATOM     41  N   UNL A   1      41.169  28.533  29.465  1.00  0.00    -0.354 N 
ATOM     42  C   UNL A   1      44.988  27.790  27.665  1.00  0.00     0.074 A 
ATOM     43  C   UNL A   1      45.104  26.424  27.215  1.00  0.00     0.031 C 
ATOM     44  C   UNL A   1      39.126  28.024  30.220  1.00  0.00     0.029 A 
ATOM     45  C   UNL A   1      40.103  29.103  30.125  1.00  0.00     0.049 A 
ATOM     46  H   UNL A   1      42.026  28.996  29.322  1.00  0.00     0.167 HD
ATOM     47  C   UNL A   1      45.988  28.698  27.579  1.00  0.00     0.034 A 
ATOM     48  C   UNL A   1      39.912  30.362  30.567  1.00  0.00     0.034 A 
ATOM     49  C   UNL A   1      45.842  30.085  27.918  1.00  0.00     0.049 A 
ATOM     50  C   UNL A   1      40.981  31.393  30.341  1.00  0.00     0.074 A 
ATOM     51  C   UNL A   1      46.742  31.115  27.722  1.00  0.00     0.029 A 
ATOM     52  N   UNL A   1      44.720  30.635  28.513  1.00  0.00    -0.354 N 
ATOM     53  N   UNL A   1      42.136  31.257  29.736  1.00  0.00    -0.248 NA
ATOM     54  C   UNL A   1      40.716  32.755  30.830  1.00  0.00     0.031 C 
ATOM     55  C   UNL A   1      46.163  32.293  28.198  1.00  0.00     0.029 A 
ATOM     56  C   UNL A   1      44.904  31.993  28.694  1.00  0.00     0.049 A 
ATOM     57  H   UNL A   1      43.911  30.135  28.769  1.00  0.00     0.167 HD
ATOM     58  C   UNL A   1      42.733  32.511  29.768  1.00  0.00     0.074 A 
ATOM     59  C   UNL A   1      41.803  33.404  30.427  1.00  0.00     0.031 C 
ATOM     60  C   UNL A   1      43.954  32.879  29.310  1.00  0.00     0.034 A 
BRANCH  47  61
ATOM     61  C   UNL A   1      47.297  28.261  26.975  1.00  0.00     0.023 A 
ATOM     62  C   UNL A   1      48.376  27.966  27.834  1.00  0.00     0.012 A 
ATOM     63  C   UNL A   1      47.434  28.046  25.591  1.00  0.00     0.148 A 
ATOM     64  C   UNL A   1      49.580  27.485  27.324  1.00  0.00     0.002 A 
ATOM     65  C   UNL A   1      48.628  27.534  25.091  1.00  0.00     0.091 A 
ATOM     66  F   UNL A   1      46.397  28.336  24.793  1.00  0.00    -0.205 F 
ATOM     67  C   UNL A   1      49.702  27.261  25.956  1.00  0.00     0.022 A 
BRANCH  65  68
ATOM     68  S   UNL A   1      48.880  27.150  23.354  1.00  0.00     0.127 S 
ATOM     69  O   UNL A   1      50.326  26.930  23.308  1.00  0.00    -0.237 OA
ATOM     70  O   UNL A   1      48.074  25.942  23.189  1.00  0.00    -0.237 OA
ATOM     71  O   UNL A   1      48.410  28.310  22.611  1.00  0.00    -0.744 OA
ENDBRANCH  65  68
ENDBRANCH  47  61
BRANCH  48  72
ATOM     72  C   UNL A   1      38.593  30.733  31.150  1.00  0.00     0.023 A 
ATOM     73  C   UNL A   1      38.351  30.474  32.514  1.00  0.00     0.012 A 
ATOM     74  C   UNL A   1      37.621  31.417  30.396  1.00  0.00     0.148 A 
ATOM     75  C   UNL A   1      37.162  30.886  33.116  1.00  0.00     0.002 A 
ATOM     76  C   UNL A   1      36.455  31.858  31.010  1.00  0.00     0.091 A 
ATOM     77  F   UNL A   1      37.875  31.650  29.100  1.00  0.00    -0.205 F 
ATOM     78  C   UNL A   1      36.220  31.586  32.368  1.00  0.00     0.022 A 
BRANCH  76  79
ATOM     79  S   UNL A   1      35.229  32.861  30.163  1.00  0.00     0.127 S 
ATOM     80  O   UNL A   1      36.021  34.020  29.755  1.00  0.00    -0.237 OA
ATOM     81  O   UNL A   1      34.823  31.977  29.071  1.00  0.00    -0.237 OA
ATOM     82  O   UNL A   1      34.188  33.128  31.146  1.00  0.00    -0.744 OA
ENDBRANCH  76  79
ENDBRANCH  48  72
BRANCH  60  83
ATOM     83  C   UNL A   1      44.395  34.300  29.507  1.00  0.00     0.023 A 
ATOM     84  C   UNL A   1      45.000  34.658  30.727  1.00  0.00     0.012 A 
ATOM     85  C   UNL A   1      44.381  35.215  28.436  1.00  0.00     0.148 A 
ATOM     86  C   UNL A   1      45.595  35.910  30.876  1.00  0.00     0.002 A 
ATOM     87  C   UNL A   1      45.004  36.448  28.583  1.00  0.00     0.091 A 
ATOM     88  F   UNL A   1      43.799  34.843  27.287  1.00  0.00    -0.205 F 
ATOM     89  C   UNL A   1      45.608  36.797  29.803  1.00  0.00     0.022 A 
BRANCH  87  90
ATOM     90  S   UNL A   1      45.149  37.630  27.238  1.00  0.00     0.127 S 
ATOM     91  O   UNL A   1      45.957  36.885  26.273  1.00  0.00    -0.237 OA
ATOM     92  O   UNL A   1      43.754  37.823  26.846  1.00  0.00    -0.237 OA
ATOM     93  O   UNL A   1      45.797  38.807  27.801  1.00  0.00    -0.744 OA
ENDBRANCH  87  90
ENDBRANCH  60  83
ENDBRANCH  34  35
ENDBRANCH  27  29
ENDBRANCH  26  27
ENDBRANCH  25  26
ENDBRANCH   1  25
TORSDOF 18
ENDMDL
MODEL 3
REMARK VINA RESULT:     -11.2      4.837     10.041
REMARK SMILES CC(C)CCc1cc2c(cc1Cl)C=C(C(=O)OCCOC(=O)c1ccc(-c3c4nc(c(-c5cccc(S(=O)(=O)[O-])c5F)c5ccc([nH]5)c(-c5cccc(S(=O)(=O)[O-])c5F)c5nc(c(-c6cccc(S(=O)(=O)[O-])c6F)c6ccc3[nH]6)C=C5)C=C4)cc1)[C@@H](C(F)(F)F)O2
REMARK SMILES IDX 18 1 17 2 15 3 16 4 14 5 6 6 7 7 11 8 8 9 10 10 12 11 9 12
REMARK SMILES IDX 91 13 13 14 86 15 5 16 4 17 2 18 1 19 3 20 87 21 88 22 89 23
REMARK SMILES IDX 90 24 19 25 20 26 21 27 22 28 23 29 24 30 85 31 25 32 84 33
REMARK SMILES IDX 26 34 27 35 28 36 78 37 29 38 83 39 77 40 79 41 30 42 82 43
REMARK SMILES IDX 76 44 75 45 31 47 63 48 43 49 62 50 44 51 47 52 61 53 80 54
REMARK SMILES IDX 45 55 46 56 60 58 81 59 48 60 32 61 33 62 41 63 34 64 36 65
REMARK SMILES IDX 42 66 35 67 37 68 38 69 39 70 40 71 64 72 65 73 73 74 66 75
REMARK SMILES IDX 68 76 74 77 67 78 69 79 70 80 71 81 72 82 49 83 50 84 58 85
REMARK SMILES IDX 51 86 53 87 59 88 52 89 54 90 55 91 56 92 57 93
REMARK H PARENT 79 46 47 57
REMARK Flexibility Score: inf
ROOT
ATOM      1  C   UNL A   1      35.261  21.135  24.778  1.00  0.00     0.275 C 
ENDROOT
BRANCH   1   2
ATOM      2  O   UNL A   1      34.560  22.162  24.041  1.00  0.00    -0.459 OA
BRANCH   2   3
ATOM      3  C   UNL A   1      33.254  21.902  23.792  1.00  0.00     0.338 C 
ATOM      4  O   UNL A   1      32.751  20.793  23.691  1.00  0.00    -0.246 OA
BRANCH   3   5
ATOM      5  C   UNL A   1      32.460  23.147  23.719  1.00  0.00     0.087 C 
ATOM      6  C   UNL A   1      31.156  27.999  23.255  1.00  0.00    -0.026 A 
ATOM      7  C   UNL A   1      30.470  26.831  23.668  1.00  0.00     0.052 A 
ATOM      8  C   UNL A   1      32.478  27.871  22.802  1.00  0.00     0.045 A 
ATOM      9  C   UNL A   1      31.096  25.580  23.657  1.00  0.00     0.128 A 
ATOM     10  C   UNL A   1      33.088  26.620  22.761  1.00  0.00     0.032 A 
ATOM     11  Cl  UNL A   1      33.460  29.215  22.348  1.00  0.00    -0.084 Cl
ATOM     12  C   UNL A   1      32.410  25.491  23.221  1.00  0.00     0.019 A 
ATOM     13  O   UNL A   1      30.374  24.498  24.081  1.00  0.00    -0.475 OA
ATOM     14  C   UNL A   1      33.109  24.230  23.284  1.00  0.00     0.027 C 
ATOM     15  C   UNL A   1      31.059  23.213  24.258  1.00  0.00     0.316 C 
BRANCH   6  16
ATOM     16  C   UNL A   1      30.461  29.340  23.371  1.00  0.00     0.037 C 
BRANCH  16  17
ATOM     17  C   UNL A   1      29.827  29.898  22.088  1.00  0.00     0.008 C 
BRANCH  17  18
ATOM     18  C   UNL A   1      28.365  30.359  22.221  1.00  0.00    -0.017 C 
ATOM     19  C   UNL A   1      28.135  31.129  23.520  1.00  0.00     0.007 C 
ATOM     20  C   UNL A   1      27.988  31.231  21.019  1.00  0.00     0.007 C 
ENDBRANCH  17  18
ENDBRANCH  16  17
ENDBRANCH   6  16
BRANCH  15  21
ATOM     21  C   UNL A   1      31.053  22.861  25.755  1.00  0.00     0.430 C 
ATOM     22  F   UNL A   1      32.236  23.159  26.344  1.00  0.00    -0.167 F 
ATOM     23  F   UNL A   1      30.104  23.556  26.430  1.00  0.00    -0.167 F 
ATOM     24  F   UNL A   1      30.815  21.547  25.972  1.00  0.00    -0.167 F 
ENDBRANCH  15  21
ENDBRANCH   3   5
ENDBRANCH   2   3
ENDBRANCH   1   2
BRANCH   1  25
ATOM     25  C   UNL A   1      36.248  21.716  25.795  1.00  0.00     0.275 C 
BRANCH  25  26
ATOM     26  O   UNL A   1      37.505  22.052  25.179  1.00  0.00    -0.458 OA
BRANCH  26  27
ATOM     27  C   UNL A   1      38.603  21.621  25.843  1.00  0.00     0.338 C 
ATOM     28  O   UNL A   1      39.113  20.516  25.782  1.00  0.00    -0.246 OA
BRANCH  27  29
ATOM     29  C   UNL A   1      39.222  22.745  26.563  1.00  0.00     0.060 A 
ATOM     30  C   UNL A   1      40.281  22.588  27.444  1.00  0.00     0.016 A 
ATOM     31  C   UNL A   1      38.805  24.019  26.205  1.00  0.00     0.016 A 
ATOM     32  C   UNL A   1      40.892  23.734  27.979  1.00  0.00     0.010 A 
ATOM     33  C   UNL A   1      39.485  25.153  26.638  1.00  0.00     0.010 A 
ATOM     34  C   UNL A   1      40.520  25.035  27.566  1.00  0.00    -0.014 A 
BRANCH  34  35
ATOM     35  C   UNL A   1      41.220  26.246  28.094  1.00  0.00     0.031 A 
ATOM     36  C   UNL A   1      42.676  26.525  27.784  1.00  0.00     0.074 A 
ATOM     37  C   UNL A   1      40.546  27.105  28.888  1.00  0.00     0.049 A 
ATOM     38  N   UNL A   1      43.378  27.598  28.057  1.00  0.00    -0.248 NA
ATOM     39  C   UNL A   1      43.461  25.467  27.124  1.00  0.00     0.031 C 
ATOM     40  C   UNL A   1      39.195  26.889  29.414  1.00  0.00     0.029 A 
ATOM     41  N   UNL A   1      40.893  28.342  29.378  1.00  0.00    -0.354 N 
ATOM     42  C   UNL A   1      44.677  27.327  27.638  1.00  0.00     0.074 A 
ATOM     43  C   UNL A   1      44.687  25.971  27.146  1.00  0.00     0.031 C 
ATOM     44  C   UNL A   1      38.796  27.989  30.071  1.00  0.00     0.029 A 
ATOM     45  C   UNL A   1      39.864  28.981  30.033  1.00  0.00     0.049 A 
ATOM     46  H   UNL A   1      41.790  28.733  29.269  1.00  0.00     0.167 HD
ATOM     47  C   UNL A   1      45.753  28.147  27.604  1.00  0.00     0.034 A 
ATOM     48  C   UNL A   1      39.771  30.238  30.513  1.00  0.00     0.034 A 
ATOM     49  C   UNL A   1      45.718  29.530  27.986  1.00  0.00     0.049 A 
ATOM     50  C   UNL A   1      40.930  31.179  30.344  1.00  0.00     0.074 A 
ATOM     51  C   UNL A   1      46.709  30.484  27.843  1.00  0.00     0.029 A 
ATOM     52  N   UNL A   1      44.633  30.157  28.574  1.00  0.00    -0.354 N 
ATOM     53  N   UNL A   1      42.083  30.962  29.760  1.00  0.00    -0.248 NA
ATOM     54  C   UNL A   1      40.771  32.543  30.872  1.00  0.00     0.031 C 
ATOM     55  C   UNL A   1      46.221  31.693  28.345  1.00  0.00     0.029 A 
ATOM     56  C   UNL A   1      44.929  31.487  28.803  1.00  0.00     0.049 A 
ATOM     57  H   UNL A   1      43.779  29.721  28.795  1.00  0.00     0.167 HD
ATOM     58  C   UNL A   1      42.785  32.158  29.847  1.00  0.00     0.074 A 
ATOM     59  C   UNL A   1      41.919  33.107  30.515  1.00  0.00     0.031 C 
ATOM     60  C   UNL A   1      44.043  32.433  29.427  1.00  0.00     0.034 A 
BRANCH  47  61
ATOM     61  C   UNL A   1      47.035  27.618  27.015  1.00  0.00     0.023 A 
ATOM     62  C   UNL A   1      47.375  27.979  25.695  1.00  0.00     0.012 A 
ATOM     63  C   UNL A   1      47.940  26.861  27.782  1.00  0.00     0.148 A 
ATOM     64  C   UNL A   1      48.587  27.576  25.138  1.00  0.00     0.002 A 
ATOM     65  C   UNL A   1      49.163  26.489  27.230  1.00  0.00     0.091 A 
ATOM     66  F   UNL A   1      47.595  26.526  29.033  1.00  0.00    -0.205 F 
ATOM     67  C   UNL A   1      49.483  26.841  25.908  1.00  0.00     0.022 A 
BRANCH  65  68
ATOM     68  S   UNL A   1      50.420  25.591  28.147  1.00  0.00     0.127 S 
ATOM     69  O   UNL A   1      50.072  25.926  29.529  1.00  0.00    -0.237 OA
ATOM     70  O   UNL A   1      50.143  24.206  27.768  1.00  0.00    -0.237 OA
ATOM     71  O   UNL A   1      51.702  26.108  27.691  1.00  0.00    -0.744 OA
ENDBRANCH  65  68
ENDBRANCH  47  61
BRANCH  48  72
ATOM     72  C   UNL A   1      38.475  30.703  31.079  1.00  0.00     0.023 A 
ATOM     73  C   UNL A   1      38.247  30.571  32.463  1.00  0.00     0.012 A 
ATOM     74  C   UNL A   1      37.514  31.353  30.281  1.00  0.00     0.148 A 
ATOM     75  C   UNL A   1      37.082  31.075  33.042  1.00  0.00     0.002 A 
ATOM     76  C   UNL A   1      36.374  31.886  30.870  1.00  0.00     0.091 A 
ATOM     77  F   UNL A   1      37.755  31.464  28.966  1.00  0.00    -0.205 F 
ATOM     78  C   UNL A   1      36.152  31.740  32.249  1.00  0.00     0.022 A 
BRANCH  76  79
ATOM     79  S   UNL A   1      35.168  32.854  29.955  1.00  0.00     0.127 S 
ATOM     80  O   UNL A   1      34.680  31.879  28.981  1.00  0.00    -0.237 OA
ATOM     81  O   UNL A   1      34.212  33.207  31.004  1.00  0.00    -0.237 OA
ATOM     82  O   UNL A   1      35.905  33.981  29.399  1.00  0.00    -0.744 OA
ENDBRANCH  76  79
ENDBRANCH  48  72
BRANCH  60  83
ATOM     83  C   UNL A   1      44.600  33.804  29.681  1.00  0.00     0.023 A 
ATOM     84  C   UNL A   1      45.326  34.032  30.866  1.00  0.00     0.012 A 
ATOM     85  C   UNL A   1      44.566  34.793  28.679  1.00  0.00     0.148 A 
ATOM     86  C   UNL A   1      46.018  35.227  31.049  1.00  0.00     0.002 A 
ATOM     87  C   UNL A   1      45.286  35.968  28.855  1.00  0.00     0.091 A 
ATOM     88  F   UNL A   1      43.868  34.545  27.562  1.00  0.00    -0.205 F 
ATOM     89  C   UNL A   1      46.010  36.187  30.040  1.00  0.00     0.022 A 
BRANCH  87  90
ATOM     90  S   UNL A   1      45.407  37.233  27.584  1.00  0.00     0.127 S 
ATOM     91  O   UNL A   1      44.041  37.753  27.550  1.00  0.00    -0.237 OA
ATOM     92  O   UNL A   1      46.395  38.147  28.155  1.00  0.00    -0.237 OA
ATOM     93  O   UNL A   1      45.834  36.548  26.371  1.00  0.00    -0.744 OA
ENDBRANCH  87  90
ENDBRANCH  60  83
ENDBRANCH  34  35
ENDBRANCH  27  29
ENDBRANCH  26  27
ENDBRANCH  25  26
ENDBRANCH   1  25
TORSDOF 18
ENDMDL
