MODEL 1
REMARK VINA RESULT:     -13.9      0.000      0.000
REMARK SMILES Cc1ccc(-c2cnnc(-n3nc(C)c4c3NC(=O)C[C@@H]4c3ccc(C(=O)OCCOC(=O)c4ccc(-c5c6nc(c(-c7cccc(S(=O)(=O)[O-])c7F)c7ccc([nH]7)c(-c7cccc(S(=O)(=O)[O-])c7F)c7nc(c(-c8cccc(S(=O)(=O)[O-])c8F)c8ccc5[nH]8)C=C7)C=C6)cc4)cc3)n2)cc1
REMARK SMILES IDX 29 1 28 2 26 3 27 4 25 5 22 6 23 7 98 8 24 9 97 10 21 11
REMARK SMILES IDX 11 12 12 13 16 14 13 15 15 16 17 17 14 18 18 19 20 21 19 22
REMARK SMILES IDX 10 23 6 24 7 25 99 26 8 27 9 28 5 29 1 30 2 31 3 32 101 33
REMARK SMILES IDX 4 34 100 35 30 36 31 37 32 38 33 39 34 40 35 41 96 42 36 43
REMARK SMILES IDX 95 44 37 45 38 46 39 47 89 48 40 49 94 50 88 51 90 52 41 53
REMARK SMILES IDX 93 54 87 55 86 56 42 58 74 59 54 60 73 61 55 62 58 63 72 64
REMARK SMILES IDX 91 65 56 66 57 67 71 69 92 70 59 71 43 72 44 73 52 74 45 75
REMARK SMILES IDX 47 76 53 77 46 78 48 79 49 80 50 81 51 82 75 83 76 84 84 85
REMARK SMILES IDX 77 86 79 87 85 88 78 89 80 90 81 91 82 92 83 93 60 94 61 95
REMARK SMILES IDX 69 96 62 97 64 98 70 99 63 100 65 101 66 102 67 103 68 104
REMARK H PARENT 17 20 90 57 58 68
REMARK Flexibility Score: inf
ROOT
ATOM      1  C   UNL A   1      32.451  32.443  26.890  1.00  0.00     0.275 C 
ENDROOT
BRANCH   1   2
ATOM      2  O   UNL A   1      32.172  31.170  27.476  1.00  0.00    -0.458 OA
BRANCH   2   3
ATOM      3  C   UNL A   1      32.761  30.180  26.766  1.00  0.00     0.338 C 
ATOM      4  O   UNL A   1      33.946  30.097  26.475  1.00  0.00    -0.246 OA
BRANCH   3   5
ATOM      5  C   UNL A   1      31.791  29.259  26.176  1.00  0.00     0.060 A 
ATOM      6  C   UNL A   1      30.959  27.143  24.573  1.00  0.00    -0.040 A 
ATOM      7  C   UNL A   1      31.092  26.972  25.958  1.00  0.00     0.005 A 
ATOM      8  C   UNL A   1      31.045  28.448  24.053  1.00  0.00     0.005 A 
ATOM      9  C   UNL A   1      31.488  28.035  26.761  1.00  0.00     0.016 A 
ATOM     10  C   UNL A   1      31.504  29.492  24.839  1.00  0.00     0.016 A 
BRANCH   6  11
ATOM     11  C   UNL A   1      30.932  25.879  23.728  1.00  0.00     0.064 C 
ATOM     12  N   UNL A   1      33.165  23.325  25.004  1.00  0.00    -0.180 N 
ATOM     13  N   UNL A   1      32.272  23.276  26.025  1.00  0.00    -0.168 NA
ATOM     14  C   UNL A   1      32.932  24.430  24.210  1.00  0.00     0.143 A 
ATOM     15  C   UNL A   1      31.275  24.075  25.643  1.00  0.00     0.066 A 
ATOM     16  C   UNL A   1      31.639  24.813  24.484  1.00  0.00     0.026 A 
ATOM     17  N   UNL A   1      33.687  25.100  23.264  1.00  0.00    -0.310 N 
ATOM     18  C   UNL A   1      30.062  24.170  26.497  1.00  0.00     0.069 C 
ATOM     19  C   UNL A   1      33.053  26.092  22.440  1.00  0.00     0.226 C 
ATOM     20  H   UNL A   1      34.645  24.900  23.156  1.00  0.00     0.171 HD
ATOM     21  C   UNL A   1      31.551  26.052  22.343  1.00  0.00     0.113 C 
ATOM     22  O   UNL A   1      33.793  26.796  21.767  1.00  0.00    -0.275 OA
BRANCH  12  23
ATOM     23  C   UNL A   1      33.987  22.206  24.716  1.00  0.00     0.272 A 
ATOM     24  C   UNL A   1      34.480  19.993  24.888  1.00  0.00     0.095 A 
ATOM     25  C   UNL A   1      35.821  20.297  24.716  1.00  0.00     0.164 A 
ATOM     26  N   UNL A   1      33.521  20.953  24.929  1.00  0.00    -0.208 NA
ATOM     27  N   UNL A   1      36.223  21.548  24.476  1.00  0.00    -0.153 NA
ATOM     28  N   UNL A   1      35.282  22.507  24.436  1.00  0.00    -0.109 NA
BRANCH  24  29
ATOM     29  C   UNL A   1      34.038  18.599  24.911  1.00  0.00     0.002 A 
ATOM     30  C   UNL A   1      32.920  14.458  25.442  1.00  0.00     0.044 C 
ATOM     31  C   UNL A   1      33.311  15.891  25.240  1.00  0.00    -0.051 A 
ATOM     32  C   UNL A   1      32.376  16.907  25.464  1.00  0.00     0.004 A 
ATOM     33  C   UNL A   1      34.602  16.230  24.827  1.00  0.00     0.004 A 
ATOM     34  C   UNL A   1      32.736  18.247  25.300  1.00  0.00     0.011 A 
ATOM     35  C   UNL A   1      34.959  17.569  24.660  1.00  0.00     0.011 A 
ENDBRANCH  24  29
ENDBRANCH  12  23
ENDBRANCH   6  11
ENDBRANCH   3   5
ENDBRANCH   2   3
ENDBRANCH   1   2
BRANCH   1  36
ATOM     36  C   UNL A   1      33.387  33.304  27.734  1.00  0.00     0.275 C 
BRANCH  36  37
ATOM     37  O   UNL A   1      34.647  32.756  28.214  1.00  0.00    -0.458 OA
BRANCH  37  38
ATOM     38  C   UNL A   1      34.989  32.250  29.421  1.00  0.00     0.338 C 
ATOM     39  O   UNL A   1      34.333  32.495  30.426  1.00  0.00    -0.246 OA
BRANCH  38  40
ATOM     40  C   UNL A   1      36.178  31.391  29.510  1.00  0.00     0.060 A 
ATOM     41  C   UNL A   1      36.243  30.417  30.519  1.00  0.00     0.016 A 
ATOM     42  C   UNL A   1      37.199  31.520  28.576  1.00  0.00     0.016 A 
ATOM     43  C   UNL A   1      37.259  29.463  30.510  1.00  0.00     0.010 A 
ATOM     44  C   UNL A   1      38.175  30.551  28.528  1.00  0.00     0.010 A 
ATOM     45  C   UNL A   1      38.221  29.541  29.508  1.00  0.00    -0.014 A 
BRANCH  45  46
ATOM     46  C   UNL A   1      39.537  28.936  29.620  1.00  0.00     0.031 A 
ATOM     47  C   UNL A   1      39.845  27.535  29.289  1.00  0.00     0.074 A 
ATOM     48  C   UNL A   1      40.482  29.900  29.712  1.00  0.00     0.049 A 
ATOM     49  N   UNL A   1      41.031  27.045  29.389  1.00  0.00    -0.248 NA
ATOM     50  C   UNL A   1      38.864  26.556  28.835  1.00  0.00     0.031 C 
ATOM     51  C   UNL A   1      41.874  29.882  29.310  1.00  0.00     0.029 A 
ATOM     52  N   UNL A   1      40.337  31.139  30.357  1.00  0.00    -0.354 N 
ATOM     53  C   UNL A   1      41.041  25.818  28.755  1.00  0.00     0.074 A 
ATOM     54  C   UNL A   1      39.651  25.518  28.512  1.00  0.00     0.031 C 
ATOM     55  C   UNL A   1      42.505  30.885  29.952  1.00  0.00     0.029 A 
ATOM     56  C   UNL A   1      41.571  31.376  30.960  1.00  0.00     0.049 A 
ATOM     57  H   UNL A   1      39.538  31.714  30.380  1.00  0.00     0.167 HD
ATOM     58  C   UNL A   1      42.245  25.296  28.380  1.00  0.00     0.034 A 
ATOM     59  C   UNL A   1      41.729  31.260  32.317  1.00  0.00     0.034 A 
ATOM     60  C   UNL A   1      43.340  26.156  28.858  1.00  0.00     0.049 A 
ATOM     61  C   UNL A   1      42.798  30.246  32.693  1.00  0.00     0.074 A 
ATOM     62  C   UNL A   1      44.096  27.156  28.269  1.00  0.00     0.029 A 
ATOM     63  N   UNL A   1      43.569  26.248  30.219  1.00  0.00    -0.354 N 
ATOM     64  N   UNL A   1      43.308  29.372  31.871  1.00  0.00    -0.248 NA
ATOM     65  C   UNL A   1      43.324  30.101  34.045  1.00  0.00     0.031 C 
ATOM     66  C   UNL A   1      44.772  27.868  29.301  1.00  0.00     0.029 A 
ATOM     67  C   UNL A   1      44.443  27.285  30.511  1.00  0.00     0.049 A 
ATOM     68  H   UNL A   1      43.166  25.655  30.893  1.00  0.00     0.167 HD
ATOM     69  C   UNL A   1      44.169  28.543  32.533  1.00  0.00     0.074 A 
ATOM     70  C   UNL A   1      44.134  29.036  33.902  1.00  0.00     0.031 C 
ATOM     71  C   UNL A   1      44.811  27.508  31.903  1.00  0.00     0.034 A 
BRANCH  58  72
ATOM     72  C   UNL A   1      42.480  24.189  27.358  1.00  0.00     0.023 A 
ATOM     73  C   UNL A   1      43.116  24.568  26.149  1.00  0.00     0.012 A 
ATOM     74  C   UNL A   1      42.095  22.833  27.450  1.00  0.00     0.148 A 
ATOM     75  C   UNL A   1      43.271  23.701  25.063  1.00  0.00     0.002 A 
ATOM     76  C   UNL A   1      42.216  21.969  26.350  1.00  0.00     0.091 A 
ATOM     77  F   UNL A   1      41.657  22.348  28.616  1.00  0.00    -0.205 F 
ATOM     78  C   UNL A   1      42.795  22.407  25.152  1.00  0.00     0.022 A 
BRANCH  76  79
ATOM     79  S   UNL A   1      41.596  20.275  26.346  1.00  0.00     0.127 S 
ATOM     80  O   UNL A   1      40.154  20.480  26.193  1.00  0.00    -0.237 OA
ATOM     81  O   UNL A   1      42.253  19.700  25.175  1.00  0.00    -0.237 OA
ATOM     82  O   UNL A   1      41.987  19.696  27.625  1.00  0.00    -0.744 OA
ENDBRANCH  76  79
ENDBRANCH  58  72
BRANCH  59  83
ATOM     83  C   UNL A   1      40.483  31.504  33.131  1.00  0.00     0.023 A 
ATOM     84  C   UNL A   1      39.725  30.378  33.543  1.00  0.00     0.012 A 
ATOM     85  C   UNL A   1      40.224  32.740  33.758  1.00  0.00     0.148 A 
ATOM     86  C   UNL A   1      38.825  30.458  34.611  1.00  0.00     0.002 A 
ATOM     87  C   UNL A   1      39.321  32.813  34.824  1.00  0.00     0.091 A 
ATOM     88  F   UNL A   1      40.891  33.827  33.350  1.00  0.00    -0.205 F 
ATOM     89  C   UNL A   1      38.638  31.670  35.264  1.00  0.00     0.022 A 
BRANCH  87  90
ATOM     90  S   UNL A   1      39.122  34.322  35.786  1.00  0.00     0.127 S 
ATOM     91  O   UNL A   1      37.991  33.993  36.646  1.00  0.00    -0.237 OA
ATOM     92  O   UNL A   1      40.407  34.438  36.481  1.00  0.00    -0.237 OA
ATOM     93  O   UNL A   1      38.910  35.374  34.803  1.00  0.00    -0.744 OA
ENDBRANCH  87  90
ENDBRANCH  59  83
BRANCH  71  94
ATOM     94  C   UNL A   1      45.807  26.567  32.554  1.00  0.00     0.023 A 
ATOM     95  C   UNL A   1      47.192  26.696  32.350  1.00  0.00     0.012 A 
ATOM     96  C   UNL A   1      45.387  25.459  33.340  1.00  0.00     0.148 A 
ATOM     97  C   UNL A   1      48.116  25.878  33.011  1.00  0.00     0.002 A 
ATOM     98  C   UNL A   1      46.303  24.630  33.976  1.00  0.00     0.091 A 
ATOM     99  F   UNL A   1      44.088  25.162  33.445  1.00  0.00    -0.205 F 
ATOM    100  C   UNL A   1      47.671  24.859  33.842  1.00  0.00     0.022 A 
BRANCH  98 101
ATOM    101  S   UNL A   1      45.791  23.231  34.983  1.00  0.00     0.127 S 
ATOM    102  O   UNL A   1      45.251  22.325  33.969  1.00  0.00    -0.237 OA
ATOM    103  O   UNL A   1      47.060  22.804  35.570  1.00  0.00    -0.237 OA
ATOM    104  O   UNL A   1      44.823  23.747  35.939  1.00  0.00    -0.744 OA
ENDBRANCH  98 101
ENDBRANCH  71  94
ENDBRANCH  45  46
ENDBRANCH  38  40
ENDBRANCH  37  38
ENDBRANCH  36  37
ENDBRANCH   1  36
TORSDOF 17
ENDMDL
MODEL 2
REMARK VINA RESULT:     -12.9      3.536     10.320
REMARK SMILES Cc1ccc(-c2cnnc(-n3nc(C)c4c3NC(=O)C[C@@H]4c3ccc(C(=O)OCCOC(=O)c4ccc(-c5c6nc(c(-c7cccc(S(=O)(=O)[O-])c7F)c7ccc([nH]7)c(-c7cccc(S(=O)(=O)[O-])c7F)c7nc(c(-c8cccc(S(=O)(=O)[O-])c8F)c8ccc5[nH]8)C=C7)C=C6)cc4)cc3)n2)cc1
REMARK SMILES IDX 29 1 28 2 26 3 27 4 25 5 22 6 23 7 98 8 24 9 97 10 21 11
REMARK SMILES IDX 11 12 12 13 16 14 13 15 15 16 17 17 14 18 18 19 20 21 19 22
REMARK SMILES IDX 10 23 6 24 7 25 99 26 8 27 9 28 5 29 1 30 2 31 3 32 101 33
REMARK SMILES IDX 4 34 100 35 30 36 31 37 32 38 33 39 34 40 35 41 96 42 36 43
REMARK SMILES IDX 95 44 37 45 38 46 39 47 89 48 40 49 94 50 88 51 90 52 41 53
REMARK SMILES IDX 93 54 87 55 86 56 42 58 74 59 54 60 73 61 55 62 58 63 72 64
REMARK SMILES IDX 91 65 56 66 57 67 71 69 92 70 59 71 43 72 44 73 52 74 45 75
REMARK SMILES IDX 47 76 53 77 46 78 48 79 49 80 50 81 51 82 75 83 76 84 84 85
REMARK SMILES IDX 77 86 79 87 85 88 78 89 80 90 81 91 82 92 83 93 60 94 61 95
REMARK SMILES IDX 69 96 62 97 64 98 70 99 63 100 65 101 66 102 67 103 68 104
REMARK H PARENT 17 20 90 57 58 68
REMARK Flexibility Score: inf
ROOT
ATOM      1  C   UNL A   1      46.644  26.053  25.134  1.00  0.00     0.275 C 
ENDROOT
BRANCH   1   2
ATOM      2  O   UNL A   1      47.005  25.195  26.217  1.00  0.00    -0.458 OA
BRANCH   2   3
ATOM      3  C   UNL A   1      46.102  24.196  26.354  1.00  0.00     0.338 C 
ATOM      4  O   UNL A   1      46.271  23.017  26.077  1.00  0.00    -0.246 OA
BRANCH   3   5
ATOM      5  C   UNL A   1      44.769  24.687  26.700  1.00  0.00     0.060 A 
ATOM      6  C   UNL A   1      42.146  24.473  27.603  1.00  0.00    -0.040 A 
ATOM      7  C   UNL A   1      43.145  24.984  28.445  1.00  0.00     0.005 A 
ATOM      8  C   UNL A   1      42.456  24.280  26.244  1.00  0.00     0.005 A 
ATOM      9  C   UNL A   1      44.451  25.110  27.986  1.00  0.00     0.016 A 
ATOM     10  C   UNL A   1      43.769  24.341  25.804  1.00  0.00     0.016 A 
BRANCH   6  11
ATOM     11  C   UNL A   1      40.873  23.983  28.273  1.00  0.00     0.064 C 
ATOM     12  N   UNL A   1      38.621  22.373  25.934  1.00  0.00    -0.180 N 
ATOM     13  N   UNL A   1      39.584  21.417  25.906  1.00  0.00    -0.168 NA
ATOM     14  C   UNL A   1      39.083  23.508  26.569  1.00  0.00     0.143 A 
ATOM     15  C   UNL A   1      40.455  21.785  26.847  1.00  0.00     0.066 A 
ATOM     16  C   UNL A   1      40.166  23.097  27.312  1.00  0.00     0.026 A 
ATOM     17  N   UNL A   1      38.651  24.822  26.608  1.00  0.00    -0.310 N 
ATOM     18  C   UNL A   1      41.599  20.888  27.158  1.00  0.00     0.069 C 
ATOM     19  C   UNL A   1      39.235  25.719  27.566  1.00  0.00     0.226 C 
ATOM     20  H   UNL A   1      37.955  25.136  25.988  1.00  0.00     0.171 HD
ATOM     21  C   UNL A   1      39.951  25.107  28.740  1.00  0.00     0.113 C 
ATOM     22  O   UNL A   1      38.973  26.907  27.429  1.00  0.00    -0.275 OA
BRANCH  12  23
ATOM     23  C   UNL A   1      37.282  22.051  25.595  1.00  0.00     0.272 A 
ATOM     24  C   UNL A   1      35.040  22.373  25.790  1.00  0.00     0.095 A 
ATOM     25  C   UNL A   1      34.837  21.044  25.457  1.00  0.00     0.164 A 
ATOM     26  N   UNL A   1      36.282  22.909  25.904  1.00  0.00    -0.208 NA
ATOM     27  N   UNL A   1      35.859  20.248  25.129  1.00  0.00    -0.153 NA
ATOM     28  N   UNL A   1      37.094  20.776  25.161  1.00  0.00    -0.109 NA
BRANCH  24  29
ATOM     29  C   UNL A   1      33.901  23.283  25.912  1.00  0.00     0.002 A 
ATOM     30  C   UNL A   1      30.308  25.685  25.933  1.00  0.00     0.044 C 
ATOM     31  C   UNL A   1      31.564  24.867  25.928  1.00  0.00    -0.051 A 
ATOM     32  C   UNL A   1      31.761  23.885  26.905  1.00  0.00     0.004 A 
ATOM     33  C   UNL A   1      32.549  25.071  24.958  1.00  0.00     0.004 A 
ATOM     34  C   UNL A   1      32.918  23.102  26.897  1.00  0.00     0.011 A 
ATOM     35  C   UNL A   1      33.706  24.291  24.955  1.00  0.00     0.011 A 
ENDBRANCH  24  29
ENDBRANCH  12  23
ENDBRANCH   6  11
ENDBRANCH   3   5
ENDBRANCH   2   3
ENDBRANCH   1   2
BRANCH   1  36
ATOM     36  C   UNL A   1      46.568  27.525  25.529  1.00  0.00     0.275 C 
BRANCH  36  37
ATOM     37  O   UNL A   1      45.502  27.990  26.404  1.00  0.00    -0.458 OA
BRANCH  37  38
ATOM     38  C   UNL A   1      44.190  28.216  26.159  1.00  0.00     0.338 C 
ATOM     39  O   UNL A   1      43.684  27.935  25.079  1.00  0.00    -0.246 OA
BRANCH  38  40
ATOM     40  C   UNL A   1      43.371  28.814  27.223  1.00  0.00     0.060 A 
ATOM     41  C   UNL A   1      43.955  29.752  28.089  1.00  0.00     0.016 A 
ATOM     42  C   UNL A   1      42.027  28.479  27.334  1.00  0.00     0.016 A 
ATOM     43  C   UNL A   1      43.161  30.477  28.976  1.00  0.00     0.010 A 
ATOM     44  C   UNL A   1      41.228  29.228  28.168  1.00  0.00     0.010 A 
ATOM     45  C   UNL A   1      41.797  30.206  29.006  1.00  0.00    -0.014 A 
BRANCH  45  46
ATOM     46  C   UNL A   1      40.947  30.527  30.139  1.00  0.00     0.031 A 
ATOM     47  C   UNL A   1      40.030  31.677  30.198  1.00  0.00     0.074 A 
ATOM     48  C   UNL A   1      40.842  29.455  30.957  1.00  0.00     0.049 A 
ATOM     49  N   UNL A   1      39.282  31.916  31.218  1.00  0.00    -0.248 NA
ATOM     50  C   UNL A   1      39.875  32.668  29.138  1.00  0.00     0.031 C 
ATOM     51  C   UNL A   1      39.769  29.065  31.851  1.00  0.00     0.029 A 
ATOM     52  N   UNL A   1      41.851  28.513  31.216  1.00  0.00    -0.354 N 
ATOM     53  C   UNL A   1      38.360  32.878  30.857  1.00  0.00     0.074 A 
ATOM     54  C   UNL A   1      38.831  33.380  29.588  1.00  0.00     0.031 C 
ATOM     55  C   UNL A   1      40.267  28.179  32.736  1.00  0.00     0.029 A 
ATOM     56  C   UNL A   1      41.717  28.206  32.569  1.00  0.00     0.049 A 
ATOM     57  H   UNL A   1      42.509  28.148  30.581  1.00  0.00     0.167 HD
ATOM     58  C   UNL A   1      37.232  33.006  31.613  1.00  0.00     0.034 A 
ATOM     59  C   UNL A   1      42.617  28.671  33.492  1.00  0.00     0.034 A 
ATOM     60  C   UNL A   1      37.301  32.111  32.779  1.00  0.00     0.049 A 
ATOM     61  C   UNL A   1      41.957  29.502  34.581  1.00  0.00     0.074 A 
ATOM     62  C   UNL A   1      36.796  30.848  33.045  1.00  0.00     0.029 A 
ATOM     63  N   UNL A   1      38.240  32.367  33.763  1.00  0.00    -0.354 N 
ATOM     64  N   UNL A   1      40.745  29.976  34.513  1.00  0.00    -0.248 NA
ATOM     65  C   UNL A   1      42.642  29.916  35.799  1.00  0.00     0.031 C 
ATOM     66  C   UNL A   1      37.462  30.338  34.197  1.00  0.00     0.029 A 
ATOM     67  C   UNL A   1      38.351  31.299  34.640  1.00  0.00     0.049 A 
ATOM     68  H   UNL A   1      38.761  33.200  33.831  1.00  0.00     0.167 HD
ATOM     69  C   UNL A   1      40.481  30.762  35.600  1.00  0.00     0.074 A 
ATOM     70  C   UNL A   1      41.713  30.700  36.373  1.00  0.00     0.031 C 
ATOM     71  C   UNL A   1      39.284  31.413  35.753  1.00  0.00     0.034 A 
BRANCH  58  72
ATOM     72  C   UNL A   1      35.935  33.698  31.207  1.00  0.00     0.023 A 
ATOM     73  C   UNL A   1      35.435  33.399  29.915  1.00  0.00     0.012 A 
ATOM     74  C   UNL A   1      35.193  34.645  31.948  1.00  0.00     0.148 A 
ATOM     75  C   UNL A   1      34.342  34.059  29.347  1.00  0.00     0.002 A 
ATOM     76  C   UNL A   1      34.116  35.335  31.369  1.00  0.00     0.091 A 
ATOM     77  F   UNL A   1      35.484  34.851  33.237  1.00  0.00    -0.205 F 
ATOM     78  C   UNL A   1      33.697  35.049  30.064  1.00  0.00     0.022 A 
BRANCH  76  79
ATOM     79  S   UNL A   1      33.231  36.669  32.201  1.00  0.00     0.127 S 
ATOM     80  O   UNL A   1      33.018  37.620  31.108  1.00  0.00    -0.237 OA
ATOM     81  O   UNL A   1      32.017  36.001  32.667  1.00  0.00    -0.237 OA
ATOM     82  O   UNL A   1      34.116  37.152  33.253  1.00  0.00    -0.744 OA
ENDBRANCH  76  79
ENDBRANCH  58  72
BRANCH  59  83
ATOM     83  C   UNL A   1      44.003  28.937  32.959  1.00  0.00     0.023 A 
ATOM     84  C   UNL A   1      44.377  30.284  32.719  1.00  0.00     0.012 A 
ATOM     85  C   UNL A   1      45.024  27.965  32.996  1.00  0.00     0.148 A 
ATOM     86  C   UNL A   1      45.721  30.661  32.630  1.00  0.00     0.002 A 
ATOM     87  C   UNL A   1      46.365  28.349  32.903  1.00  0.00     0.091 A 
ATOM     88  F   UNL A   1      44.689  26.680  33.169  1.00  0.00    -0.205 F 
ATOM     89  C   UNL A   1      46.715  29.697  32.743  1.00  0.00     0.022 A 
BRANCH  87  90
ATOM     90  S   UNL A   1      47.701  27.169  33.159  1.00  0.00     0.127 S 
ATOM     91  O   UNL A   1      47.507  26.239  32.051  1.00  0.00    -0.237 OA
ATOM     92  O   UNL A   1      48.900  28.004  33.057  1.00  0.00    -0.237 OA
ATOM     93  O   UNL A   1      47.489  26.640  34.498  1.00  0.00    -0.744 OA
ENDBRANCH  87  90
ENDBRANCH  59  83
BRANCH  71  94
ATOM     94  C   UNL A   1      38.898  32.271  36.944  1.00  0.00     0.023 A 
ATOM     95  C   UNL A   1      39.544  33.489  37.220  1.00  0.00     0.012 A 
ATOM     96  C   UNL A   1      37.918  31.849  37.884  1.00  0.00     0.148 A 
ATOM     97  C   UNL A   1      39.137  34.318  38.272  1.00  0.00     0.002 A 
ATOM     98  C   UNL A   1      37.531  32.661  38.943  1.00  0.00     0.091 A 
ATOM     99  F   UNL A   1      37.378  30.631  37.791  1.00  0.00    -0.205 F 
ATOM    100  C   UNL A   1      38.115  33.914  39.120  1.00  0.00     0.022 A 
BRANCH  98 101
ATOM    101  S   UNL A   1      36.287  32.150  40.136  1.00  0.00     0.127 S 
ATOM    102  O   UNL A   1      36.883  30.927  40.674  1.00  0.00    -0.237 OA
ATOM    103  O   UNL A   1      36.275  33.282  41.061  1.00  0.00    -0.237 OA
ATOM    104  O   UNL A   1      35.052  31.967  39.386  1.00  0.00    -0.744 OA
ENDBRANCH  98 101
ENDBRANCH  71  94
ENDBRANCH  45  46
ENDBRANCH  38  40
ENDBRANCH  37  38
ENDBRANCH  36  37
ENDBRANCH   1  36
TORSDOF 17
ENDMDL
MODEL 3
REMARK VINA RESULT:     -12.8      3.763     10.076
REMARK SMILES Cc1ccc(-c2cnnc(-n3nc(C)c4c3NC(=O)C[C@@H]4c3ccc(C(=O)OCCOC(=O)c4ccc(-c5c6nc(c(-c7cccc(S(=O)(=O)[O-])c7F)c7ccc([nH]7)c(-c7cccc(S(=O)(=O)[O-])c7F)c7nc(c(-c8cccc(S(=O)(=O)[O-])c8F)c8ccc5[nH]8)C=C7)C=C6)cc4)cc3)n2)cc1
REMARK SMILES IDX 29 1 28 2 26 3 27 4 25 5 22 6 23 7 98 8 24 9 97 10 21 11
REMARK SMILES IDX 11 12 12 13 16 14 13 15 15 16 17 17 14 18 18 19 20 21 19 22
REMARK SMILES IDX 10 23 6 24 7 25 99 26 8 27 9 28 5 29 1 30 2 31 3 32 101 33
REMARK SMILES IDX 4 34 100 35 30 36 31 37 32 38 33 39 34 40 35 41 96 42 36 43
REMARK SMILES IDX 95 44 37 45 38 46 39 47 89 48 40 49 94 50 88 51 90 52 41 53
REMARK SMILES IDX 93 54 87 55 86 56 42 58 74 59 54 60 73 61 55 62 58 63 72 64
REMARK SMILES IDX 91 65 56 66 57 67 71 69 92 70 59 71 43 72 44 73 52 74 45 75
REMARK SMILES IDX 47 76 53 77 46 78 48 79 49 80 50 81 51 82 75 83 76 84 84 85
REMARK SMILES IDX 77 86 79 87 85 88 78 89 80 90 81 91 82 92 83 93 60 94 61 95
REMARK SMILES IDX 69 96 62 97 64 98 70 99 63 100 65 101 66 102 67 103 68 104
REMARK H PARENT 17 20 90 57 58 68
REMARK Flexibility Score: inf
ROOT
ATOM      1  C   UNL A   1      46.434  25.676  25.169  1.00  0.00     0.275 C 
ENDROOT
BRANCH   1   2
ATOM      2  O   UNL A   1      46.692  24.719  26.198  1.00  0.00    -0.458 OA
BRANCH   2   3
ATOM      3  C   UNL A   1      45.932  23.613  26.019  1.00  0.00     0.338 C 
ATOM      4  O   UNL A   1      46.323  22.508  25.672  1.00  0.00    -0.246 OA
BRANCH   3   5
ATOM      5  C   UNL A   1      44.500  23.897  26.095  1.00  0.00     0.060 A 
ATOM      6  C   UNL A   1      41.879  23.496  26.937  1.00  0.00    -0.040 A 
ATOM      7  C   UNL A   1      42.660  24.508  27.513  1.00  0.00     0.005 A 
ATOM      8  C   UNL A   1      42.373  22.844  25.792  1.00  0.00     0.005 A 
ATOM      9  C   UNL A   1      43.963  24.721  27.077  1.00  0.00     0.016 A 
ATOM     10  C   UNL A   1      43.692  23.009  25.400  1.00  0.00     0.016 A 
BRANCH   6  11
ATOM     11  C   UNL A   1      40.653  23.052  27.718  1.00  0.00     0.064 C 
ATOM     12  N   UNL A   1      38.039  21.771  25.559  1.00  0.00    -0.180 N 
ATOM     13  N   UNL A   1      38.915  20.753  25.362  1.00  0.00    -0.168 NA
ATOM     14  C   UNL A   1      38.655  22.823  26.204  1.00  0.00     0.143 A 
ATOM     15  C   UNL A   1      39.911  20.993  26.218  1.00  0.00     0.066 A 
ATOM     16  C   UNL A   1      39.777  22.287  26.792  1.00  0.00     0.026 A 
ATOM     17  N   UNL A   1      38.333  24.159  26.373  1.00  0.00    -0.310 N 
ATOM     18  C   UNL A   1      41.008  19.999  26.340  1.00  0.00     0.069 C 
ATOM     19  C   UNL A   1      39.087  24.944  27.311  1.00  0.00     0.226 C 
ATOM     20  H   UNL A   1      37.599  24.564  25.858  1.00  0.00     0.171 HD
ATOM     21  C   UNL A   1      39.878  24.203  28.355  1.00  0.00     0.113 C 
ATOM     22  O   UNL A   1      38.905  26.154  27.277  1.00  0.00    -0.275 OA
BRANCH  12  23
ATOM     23  C   UNL A   1      36.649  21.568  25.357  1.00  0.00     0.272 A 
ATOM     24  C   UNL A   1      34.885  20.256  24.781  1.00  0.00     0.095 A 
ATOM     25  C   UNL A   1      34.194  21.389  24.385  1.00  0.00     0.164 A 
ATOM     26  N   UNL A   1      36.158  20.312  25.250  1.00  0.00    -0.208 NA
ATOM     27  N   UNL A   1      34.714  22.609  24.543  1.00  0.00    -0.153 NA
ATOM     28  N   UNL A   1      35.945  22.696  25.075  1.00  0.00    -0.109 NA
BRANCH  24  29
ATOM     29  C   UNL A   1      34.210  18.959  24.822  1.00  0.00     0.002 A 
ATOM     30  C   UNL A   1      32.506  15.020  25.338  1.00  0.00     0.044 C 
ATOM     31  C   UNL A   1      33.096  16.384  25.142  1.00  0.00    -0.051 A 
ATOM     32  C   UNL A   1      32.447  17.507  25.667  1.00  0.00     0.004 A 
ATOM     33  C   UNL A   1      34.289  16.554  24.435  1.00  0.00     0.004 A 
ATOM     34  C   UNL A   1      32.999  18.781  25.508  1.00  0.00     0.011 A 
ATOM     35  C   UNL A   1      34.837  17.828  24.273  1.00  0.00     0.011 A 
ENDBRANCH  24  29
ENDBRANCH  12  23
ENDBRANCH   6  11
ENDBRANCH   3   5
ENDBRANCH   2   3
ENDBRANCH   1   2
BRANCH   1  36
ATOM     36  C   UNL A   1      46.383  27.113  25.681  1.00  0.00     0.275 C 
BRANCH  36  37
ATOM     37  O   UNL A   1      45.276  27.549  26.520  1.00  0.00    -0.458 OA
BRANCH  37  38
ATOM     38  C   UNL A   1      44.038  27.986  26.194  1.00  0.00     0.338 C 
ATOM     39  O   UNL A   1      43.596  27.867  25.058  1.00  0.00    -0.246 OA
BRANCH  38  40
ATOM     40  C   UNL A   1      43.219  28.616  27.240  1.00  0.00     0.060 A 
ATOM     41  C   UNL A   1      43.779  29.638  28.023  1.00  0.00     0.016 A 
ATOM     42  C   UNL A   1      41.897  28.226  27.415  1.00  0.00     0.016 A 
ATOM     43  C   UNL A   1      42.975  30.384  28.883  1.00  0.00     0.010 A 
ATOM     44  C   UNL A   1      41.085  28.992  28.221  1.00  0.00     0.010 A 
ATOM     45  C   UNL A   1      41.628  30.051  28.973  1.00  0.00    -0.014 A 
BRANCH  45  46
ATOM     46  C   UNL A   1      40.794  30.409  30.108  1.00  0.00     0.031 A 
ATOM     47  C   UNL A   1      39.884  31.565  30.146  1.00  0.00     0.074 A 
ATOM     48  C   UNL A   1      40.694  29.360  30.956  1.00  0.00     0.049 A 
ATOM     49  N   UNL A   1      39.151  31.837  31.168  1.00  0.00    -0.248 NA
ATOM     50  C   UNL A   1      39.721  32.527  29.061  1.00  0.00     0.031 C 
ATOM     51  C   UNL A   1      39.630  29.001  31.874  1.00  0.00     0.029 A 
ATOM     52  N   UNL A   1      41.701  28.419  31.229  1.00  0.00    -0.354 N 
ATOM     53  C   UNL A   1      38.230  32.794  30.792  1.00  0.00     0.074 A 
ATOM     54  C   UNL A   1      38.687  33.257  29.504  1.00  0.00     0.031 C 
ATOM     55  C   UNL A   1      40.134  28.138  32.777  1.00  0.00     0.029 A 
ATOM     56  C   UNL A   1      41.582  28.151  32.591  1.00  0.00     0.049 A 
ATOM     57  H   UNL A   1      42.349  28.034  30.596  1.00  0.00     0.167 HD
ATOM     58  C   UNL A   1      37.112  32.950  31.559  1.00  0.00     0.034 A 
ATOM     59  C   UNL A   1      42.497  28.636  33.489  1.00  0.00     0.034 A 
ATOM     60  C   UNL A   1      37.191  32.086  32.748  1.00  0.00     0.049 A 
ATOM     61  C   UNL A   1      41.855  29.501  34.563  1.00  0.00     0.074 A 
ATOM     62  C   UNL A   1      36.683  30.835  33.056  1.00  0.00     0.029 A 
ATOM     63  N   UNL A   1      38.144  32.364  33.713  1.00  0.00    -0.354 N 
ATOM     64  N   UNL A   1      40.645  29.981  34.498  1.00  0.00    -0.248 NA
ATOM     65  C   UNL A   1      42.558  29.944  35.761  1.00  0.00     0.031 C 
ATOM     66  C   UNL A   1      37.360  30.352  34.213  1.00  0.00     0.029 A 
ATOM     67  C   UNL A   1      38.261  31.321  34.618  1.00  0.00     0.049 A 
ATOM     68  H   UNL A   1      38.670  33.195  33.752  1.00  0.00     0.167 HD
ATOM     69  C   UNL A   1      40.399  30.797  35.566  1.00  0.00     0.074 A 
ATOM     70  C   UNL A   1      41.641  30.750  36.324  1.00  0.00     0.031 C 
ATOM     71  C   UNL A   1      39.208  31.460  35.715  1.00  0.00     0.034 A 
BRANCH  58  72
ATOM     72  C   UNL A   1      35.814  33.638  31.150  1.00  0.00     0.023 A 
ATOM     73  C   UNL A   1      35.264  33.261  29.900  1.00  0.00     0.012 A 
ATOM     74  C   UNL A   1      35.115  34.648  31.849  1.00  0.00     0.148 A 
ATOM     75  C   UNL A   1      34.163  33.902  29.325  1.00  0.00     0.002 A 
ATOM     76  C   UNL A   1      34.031  35.318  31.260  1.00  0.00     0.091 A 
ATOM     77  F   UNL A   1      35.455  34.936  33.110  1.00  0.00    -0.205 F 
ATOM     78  C   UNL A   1      33.561  34.952  29.993  1.00  0.00     0.022 A 
BRANCH  76  79
ATOM     79  S   UNL A   1      33.199  36.723  32.028  1.00  0.00     0.127 S 
ATOM     80  O   UNL A   1      34.237  37.238  32.924  1.00  0.00    -0.237 OA
ATOM     81  O   UNL A   1      32.908  37.583  30.883  1.00  0.00    -0.237 OA
ATOM     82  O   UNL A   1      32.031  36.181  32.711  1.00  0.00    -0.744 OA
ENDBRANCH  76  79
ENDBRANCH  58  72
BRANCH  59  83
ATOM     83  C   UNL A   1      43.877  28.879  32.932  1.00  0.00     0.023 A 
ATOM     84  C   UNL A   1      44.207  30.195  32.520  1.00  0.00     0.012 A 
ATOM     85  C   UNL A   1      44.930  27.956  33.099  1.00  0.00     0.148 A 
ATOM     86  C   UNL A   1      45.538  30.605  32.387  1.00  0.00     0.002 A 
ATOM     87  C   UNL A   1      46.258  28.372  32.963  1.00  0.00     0.091 A 
ATOM     88  F   UNL A   1      44.638  26.694  33.437  1.00  0.00    -0.205 F 
ATOM     89  C   UNL A   1      46.563  29.700  32.629  1.00  0.00     0.022 A 
BRANCH  87  90
ATOM     90  S   UNL A   1      47.631  27.283  33.375  1.00  0.00     0.127 S 
ATOM     91  O   UNL A   1      47.484  26.214  32.393  1.00  0.00    -0.237 OA
ATOM     92  O   UNL A   1      48.802  28.142  33.177  1.00  0.00    -0.237 OA
ATOM     93  O   UNL A   1      47.422  26.920  34.769  1.00  0.00    -0.744 OA
ENDBRANCH  87  90
ENDBRANCH  59  83
BRANCH  71  94
ATOM     94  C   UNL A   1      38.842  32.353  36.886  1.00  0.00     0.023 A 
ATOM     95  C   UNL A   1      39.484  33.584  37.109  1.00  0.00     0.012 A 
ATOM     96  C   UNL A   1      37.888  31.954  37.862  1.00  0.00     0.148 A 
ATOM     97  C   UNL A   1      39.094  34.443  38.143  1.00  0.00     0.002 A 
ATOM     98  C   UNL A   1      37.519  32.796  38.904  1.00  0.00     0.091 A 
ATOM     99  F   UNL A   1      37.356  30.729  37.822  1.00  0.00    -0.205 F 
ATOM    100  C   UNL A   1      38.096  34.059  39.027  1.00  0.00     0.022 A 
BRANCH  98 101
ATOM    101  S   UNL A   1      36.306  32.314  40.141  1.00  0.00     0.127 S 
ATOM    102  O   UNL A   1      36.593  33.264  41.215  1.00  0.00    -0.237 OA
ATOM    103  O   UNL A   1      35.047  32.551  39.435  1.00  0.00    -0.237 OA
ATOM    104  O   UNL A   1      36.573  30.918  40.453  1.00  0.00    -0.744 OA
ENDBRANCH  98 101
ENDBRANCH  71  94
ENDBRANCH  45  46
ENDBRANCH  38  40
ENDBRANCH  37  38
ENDBRANCH  36  37
ENDBRANCH   1  36
TORSDOF 17
ENDMDL
