MODEL 1
REMARK VINA RESULT:     -11.1      0.000      0.000
REMARK SMILES CCC(=O)Nc1cc(NC(=O)/C=C/C(=O)OCCOC(=O)c2ccc(-c3c4nc(c(-c5cccc(S(=O)(=O)[O-])c5F)c5ccc([nH]5)c(-c5cccc(S(=O)(=O)[O-])c5F)c5nc(c(-c6cccc(S(=O)(=O)[O-])c6F)c6ccc3[nH]6)C=C5)C=C4)cc2)ccc1C
REMARK SMILES IDX 17 1 16 2 14 3 15 4 13 5 12 6 10 7 9 8 11 10 8 11 6 12 7 13
REMARK SMILES IDX 87 14 86 15 88 16 85 17 5 18 3 19 4 20 2 22 1 23 18 24 19 25
REMARK SMILES IDX 20 26 21 27 22 28 23 29 84 30 24 31 83 32 25 33 26 34 27 35
REMARK SMILES IDX 77 36 28 37 82 38 76 39 78 40 29 41 81 42 75 43 74 44 30 46
REMARK SMILES IDX 62 47 42 48 61 49 43 50 46 51 60 52 79 53 44 54 45 55 59 57
REMARK SMILES IDX 80 58 47 59 31 60 32 61 40 62 33 63 35 64 41 65 34 66 36 67
REMARK SMILES IDX 37 68 38 69 39 70 63 71 64 72 72 73 65 74 67 75 73 76 66 77
REMARK SMILES IDX 68 78 69 79 70 80 71 81 48 82 49 83 57 84 50 85 52 86 58 87
REMARK SMILES IDX 51 88 53 89 54 90 55 91 56 92
REMARK H PARENT 9 9 5 21 78 45 46 56
REMARK Flexibility Score: inf
ROOT
ATOM      1  C   UNL A   1      34.222  33.536  29.176  1.00  0.00     0.275 C 
ENDROOT
BRANCH   1   2
ATOM      2  O   UNL A   1      34.380  34.898  28.732  1.00  0.00    -0.459 OA
BRANCH   2   3
ATOM      3  C   UNL A   1      33.276  35.636  29.050  1.00  0.00     0.331 C 
ATOM      4  O   UNL A   1      32.262  35.686  28.367  1.00  0.00    -0.247 OA
BRANCH   3   5
ATOM      5  C   UNL A   1      33.309  36.222  30.403  1.00  0.00     0.099 C 
ATOM      6  C   UNL A   1      32.448  35.963  31.394  1.00  0.00     0.079 C 
BRANCH   6   7
ATOM      7  C   UNL A   1      32.917  36.305  32.755  1.00  0.00     0.248 C 
ATOM      8  N   UNL A   1      34.011  35.761  33.352  1.00  0.00    -0.322 N 
ATOM      9  H   UNL A   1      34.194  36.184  34.223  1.00  0.00     0.170 HD
ATOM     10  O   UNL A   1      32.333  37.222  33.341  1.00  0.00    -0.270 OA
BRANCH   8  11
ATOM     11  C   UNL A   1      34.951  34.755  33.058  1.00  0.00     0.043 A 
ATOM     12  C   UNL A   1      37.194  33.886  32.558  1.00  0.00     0.046 A 
ATOM     13  C   UNL A   1      36.321  34.940  32.915  1.00  0.00     0.052 A 
ATOM     14  C   UNL A   1      36.702  32.579  32.573  1.00  0.00    -0.027 A 
ATOM     15  C   UNL A   1      35.319  32.385  32.677  1.00  0.00     0.008 A 
ATOM     16  C   UNL A   1      37.596  31.382  32.757  1.00  0.00     0.046 C 
ATOM     17  C   UNL A   1      34.453  33.464  32.872  1.00  0.00     0.026 A 
BRANCH  12  18
ATOM     18  N   UNL A   1      38.557  34.155  32.299  1.00  0.00    -0.326 N 
ATOM     19  C   UNL A   1      39.216  34.181  31.087  1.00  0.00     0.224 C 
ATOM     20  O   UNL A   1      40.451  34.101  31.073  1.00  0.00    -0.275 OA
ATOM     21  H   UNL A   1      39.110  34.349  33.090  1.00  0.00     0.169 HD
BRANCH  19  22
ATOM     22  C   UNL A   1      38.467  34.529  29.791  1.00  0.00     0.097 C 
ATOM     23  C   UNL A   1      37.860  33.527  28.847  1.00  0.00     0.014 C 
ENDBRANCH  19  22
ENDBRANCH  12  18
ENDBRANCH   8  11
ENDBRANCH   6   7
ENDBRANCH   3   5
ENDBRANCH   2   3
ENDBRANCH   1   2
BRANCH   1  24
ATOM     24  C   UNL A   1      34.061  32.502  28.048  1.00  0.00     0.275 C 
BRANCH  24  25
ATOM     25  O   UNL A   1      35.201  31.721  27.605  1.00  0.00    -0.458 OA
BRANCH  25  26
ATOM     26  C   UNL A   1      35.415  30.406  27.817  1.00  0.00     0.338 C 
ATOM     27  O   UNL A   1      34.533  29.561  27.682  1.00  0.00    -0.246 OA
BRANCH  26  28
ATOM     28  C   UNL A   1      36.782  30.002  28.144  1.00  0.00     0.060 A 
ATOM     29  C   UNL A   1      36.981  29.466  29.415  1.00  0.00     0.016 A 
ATOM     30  C   UNL A   1      37.803  30.012  27.214  1.00  0.00     0.016 A 
ATOM     31  C   UNL A   1      38.162  28.850  29.786  1.00  0.00     0.010 A 
ATOM     32  C   UNL A   1      38.968  29.357  27.555  1.00  0.00     0.010 A 
ATOM     33  C   UNL A   1      39.157  28.778  28.837  1.00  0.00    -0.014 A 
BRANCH  33  34
ATOM     34  C   UNL A   1      40.447  28.141  29.075  1.00  0.00     0.031 A 
ATOM     35  C   UNL A   1      40.702  26.697  28.840  1.00  0.00     0.074 A 
ATOM     36  C   UNL A   1      41.429  29.037  29.311  1.00  0.00     0.049 A 
ATOM     37  N   UNL A   1      41.836  26.134  29.073  1.00  0.00    -0.248 NA
ATOM     38  C   UNL A   1      39.713  25.741  28.347  1.00  0.00     0.031 C 
ATOM     39  C   UNL A   1      42.841  28.976  29.024  1.00  0.00     0.029 A 
ATOM     40  N   UNL A   1      41.285  30.258  29.979  1.00  0.00    -0.354 N 
ATOM     41  C   UNL A   1      41.823  24.879  28.488  1.00  0.00     0.074 A 
ATOM     42  C   UNL A   1      40.448  24.639  28.149  1.00  0.00     0.031 C 
ATOM     43  C   UNL A   1      43.461  29.966  29.697  1.00  0.00     0.029 A 
ATOM     44  C   UNL A   1      42.489  30.515  30.635  1.00  0.00     0.049 A 
ATOM     45  H   UNL A   1      40.483  30.830  29.984  1.00  0.00     0.167 HD
ATOM     46  C   UNL A   1      43.023  24.294  28.214  1.00  0.00     0.034 A 
ATOM     47  C   UNL A   1      42.628  30.557  32.002  1.00  0.00     0.034 A 
ATOM     48  C   UNL A   1      44.092  25.089  28.828  1.00  0.00     0.049 A 
ATOM     49  C   UNL A   1      43.637  29.536  32.465  1.00  0.00     0.074 A 
ATOM     50  C   UNL A   1      44.864  26.127  28.331  1.00  0.00     0.029 A 
ATOM     51  N   UNL A   1      44.223  25.114  30.210  1.00  0.00    -0.354 N 
ATOM     52  N   UNL A   1      43.972  28.497  31.759  1.00  0.00    -0.248 NA
ATOM     53  C   UNL A   1      44.283  29.570  33.768  1.00  0.00     0.031 C 
ATOM     54  C   UNL A   1      45.384  26.842  29.438  1.00  0.00     0.029 A 
ATOM     55  C   UNL A   1      44.963  26.219  30.602  1.00  0.00     0.049 A 
ATOM     56  H   UNL A   1      43.844  24.445  30.824  1.00  0.00     0.167 HD
ATOM     57  C   UNL A   1      44.801  27.700  32.483  1.00  0.00     0.074 A 
ATOM     58  C   UNL A   1      45.005  28.437  33.721  1.00  0.00     0.031 C 
ATOM     59  C   UNL A   1      45.207  26.485  32.014  1.00  0.00     0.034 A 
BRANCH  46  60
ATOM     60  C   UNL A   1      43.329  23.230  27.161  1.00  0.00     0.023 A 
ATOM     61  C   UNL A   1      44.091  23.678  26.050  1.00  0.00     0.012 A 
ATOM     62  C   UNL A   1      42.889  21.885  27.097  1.00  0.00     0.148 A 
ATOM     63  C   UNL A   1      44.337  22.899  24.918  1.00  0.00     0.002 A 
ATOM     64  C   UNL A   1      43.142  21.095  25.960  1.00  0.00     0.091 A 
ATOM     65  F   UNL A   1      42.235  21.348  28.129  1.00  0.00    -0.205 F 
ATOM     66  C   UNL A   1      43.850  21.608  24.866  1.00  0.00     0.022 A 
BRANCH  64  67
ATOM     67  S   UNL A   1      42.579  19.389  25.773  1.00  0.00     0.127 S 
ATOM     68  O   UNL A   1      43.303  18.958  24.575  1.00  0.00    -0.237 OA
ATOM     69  O   UNL A   1      43.046  18.768  27.012  1.00  0.00    -0.237 OA
ATOM     70  O   UNL A   1      41.132  19.445  25.622  1.00  0.00    -0.744 OA
ENDBRANCH  64  67
ENDBRANCH  46  60
BRANCH  47  71
ATOM     71  C   UNL A   1      41.356  30.785  32.784  1.00  0.00     0.023 A 
ATOM     72  C   UNL A   1      40.563  29.641  33.026  1.00  0.00     0.012 A 
ATOM     73  C   UNL A   1      41.382  31.815  33.741  1.00  0.00     0.148 A 
ATOM     74  C   UNL A   1      40.244  29.331  34.343  1.00  0.00     0.002 A 
ATOM     75  C   UNL A   1      41.047  31.512  35.044  1.00  0.00     0.091 A 
ATOM     76  F   UNL A   1      41.824  33.032  33.397  1.00  0.00    -0.205 F 
ATOM     77  C   UNL A   1      40.620  30.219  35.352  1.00  0.00     0.022 A 
BRANCH  75  78
ATOM     78  S   UNL A   1      41.250  32.736  36.337  1.00  0.00     0.127 S 
ATOM     79  O   UNL A   1      42.656  33.100  36.184  1.00  0.00    -0.237 OA
ATOM     80  O   UNL A   1      40.305  33.783  35.950  1.00  0.00    -0.237 OA
ATOM     81  O   UNL A   1      40.880  32.027  37.551  1.00  0.00    -0.744 OA
ENDBRANCH  75  78
ENDBRANCH  47  71
BRANCH  59  82
ATOM     82  C   UNL A   1      45.923  25.460  32.848  1.00  0.00     0.023 A 
ATOM     83  C   UNL A   1      47.305  25.541  33.098  1.00  0.00     0.012 A 
ATOM     84  C   UNL A   1      45.204  24.442  33.516  1.00  0.00     0.148 A 
ATOM     85  C   UNL A   1      47.969  24.584  33.866  1.00  0.00     0.002 A 
ATOM     86  C   UNL A   1      45.847  23.577  34.390  1.00  0.00     0.091 A 
ATOM     87  F   UNL A   1      43.890  24.287  33.295  1.00  0.00    -0.205 F 
ATOM     88  C   UNL A   1      47.236  23.609  34.526  1.00  0.00     0.022 A 
BRANCH  86  89
ATOM     89  S   UNL A   1      44.904  22.509  35.481  1.00  0.00     0.127 S 
ATOM     90  O   UNL A   1      43.631  23.221  35.576  1.00  0.00    -0.237 OA
ATOM     91  O   UNL A   1      44.847  21.258  34.721  1.00  0.00    -0.237 OA
ATOM     92  O   UNL A   1      45.689  22.426  36.705  1.00  0.00    -0.744 OA
ENDBRANCH  86  89
ENDBRANCH  59  82
ENDBRANCH  33  34
ENDBRANCH  26  28
ENDBRANCH  25  26
ENDBRANCH  24  25
ENDBRANCH   1  24
TORSDOF 18
ENDMDL
MODEL 2
REMARK VINA RESULT:     -10.9      3.993      7.096
REMARK SMILES CCC(=O)Nc1cc(NC(=O)/C=C/C(=O)OCCOC(=O)c2ccc(-c3c4nc(c(-c5cccc(S(=O)(=O)[O-])c5F)c5ccc([nH]5)c(-c5cccc(S(=O)(=O)[O-])c5F)c5nc(c(-c6cccc(S(=O)(=O)[O-])c6F)c6ccc3[nH]6)C=C5)C=C4)cc2)ccc1C
REMARK SMILES IDX 17 1 16 2 14 3 15 4 13 5 12 6 10 7 9 8 11 10 8 11 6 12 7 13
REMARK SMILES IDX 87 14 86 15 88 16 85 17 5 18 3 19 4 20 2 22 1 23 18 24 19 25
REMARK SMILES IDX 20 26 21 27 22 28 23 29 84 30 24 31 83 32 25 33 26 34 27 35
REMARK SMILES IDX 77 36 28 37 82 38 76 39 78 40 29 41 81 42 75 43 74 44 30 46
REMARK SMILES IDX 62 47 42 48 61 49 43 50 46 51 60 52 79 53 44 54 45 55 59 57
REMARK SMILES IDX 80 58 47 59 31 60 32 61 40 62 33 63 35 64 41 65 34 66 36 67
REMARK SMILES IDX 37 68 38 69 39 70 63 71 64 72 72 73 65 74 67 75 73 76 66 77
REMARK SMILES IDX 68 78 69 79 70 80 71 81 48 82 49 83 57 84 50 85 52 86 58 87
REMARK SMILES IDX 51 88 53 89 54 90 55 91 56 92
REMARK H PARENT 9 9 5 21 78 45 46 56
REMARK Flexibility Score: inf
ROOT
ATOM      1  C   UNL A   1      32.056  28.531  26.968  1.00  0.00     0.275 C 
ENDROOT
BRANCH   1   2
ATOM      2  O   UNL A   1      31.886  27.504  25.970  1.00  0.00    -0.459 OA
BRANCH   2   3
ATOM      3  C   UNL A   1      31.573  28.058  24.762  1.00  0.00     0.331 C 
ATOM      4  O   UNL A   1      31.107  29.179  24.620  1.00  0.00    -0.247 OA
BRANCH   3   5
ATOM      5  C   UNL A   1      32.034  27.274  23.600  1.00  0.00     0.099 C 
ATOM      6  C   UNL A   1      32.716  26.124  23.647  1.00  0.00     0.079 C 
BRANCH   6   7
ATOM      7  C   UNL A   1      32.682  25.310  22.412  1.00  0.00     0.248 C 
ATOM      8  N   UNL A   1      33.183  24.050  22.305  1.00  0.00    -0.322 N 
ATOM      9  H   UNL A   1      32.986  23.658  21.423  1.00  0.00     0.170 HD
ATOM     10  O   UNL A   1      32.065  25.772  21.447  1.00  0.00    -0.270 OA
BRANCH   8  11
ATOM     11  C   UNL A   1      33.906  23.157  23.119  1.00  0.00     0.043 A 
ATOM     12  C   UNL A   1      34.157  21.260  24.660  1.00  0.00     0.046 A 
ATOM     13  C   UNL A   1      33.373  22.077  23.812  1.00  0.00     0.052 A 
ATOM     14  C   UNL A   1      35.546  21.401  24.623  1.00  0.00    -0.027 A 
ATOM     15  C   UNL A   1      36.089  22.510  23.961  1.00  0.00     0.008 A 
ATOM     16  C   UNL A   1      36.483  20.292  25.020  1.00  0.00     0.046 C 
ATOM     17  C   UNL A   1      35.274  23.399  23.257  1.00  0.00     0.026 A 
BRANCH  12  18
ATOM     18  N   UNL A   1      33.542  20.256  25.439  1.00  0.00    -0.326 N 
ATOM     19  C   UNL A   1      32.986  19.062  25.025  1.00  0.00     0.224 C 
ATOM     20  O   UNL A   1      32.205  18.469  25.780  1.00  0.00    -0.275 OA
ATOM     21  H   UNL A   1      33.503  20.431  26.407  1.00  0.00     0.169 HD
BRANCH  19  22
ATOM     22  C   UNL A   1      33.491  18.357  23.756  1.00  0.00     0.097 C 
ATOM     23  C   UNL A   1      32.637  17.994  22.571  1.00  0.00     0.014 C 
ENDBRANCH  19  22
ENDBRANCH  12  18
ENDBRANCH   8  11
ENDBRANCH   6   7
ENDBRANCH   3   5
ENDBRANCH   2   3
ENDBRANCH   1   2
BRANCH   1  24
ATOM     24  C   UNL A   1      33.504  29.007  27.167  1.00  0.00     0.275 C 
BRANCH  24  25
ATOM     25  O   UNL A   1      33.788  30.416  27.371  1.00  0.00    -0.458 OA
BRANCH  25  26
ATOM     26  C   UNL A   1      34.753  30.944  28.152  1.00  0.00     0.338 C 
ATOM     27  O   UNL A   1      34.619  32.017  28.737  1.00  0.00    -0.246 OA
BRANCH  26  28
ATOM     28  C   UNL A   1      35.960  30.143  28.347  1.00  0.00     0.060 A 
ATOM     29  C   UNL A   1      36.840  30.079  27.267  1.00  0.00     0.016 A 
ATOM     30  C   UNL A   1      36.297  29.589  29.565  1.00  0.00     0.016 A 
ATOM     31  C   UNL A   1      38.110  29.541  27.373  1.00  0.00     0.010 A 
ATOM     32  C   UNL A   1      37.578  29.094  29.698  1.00  0.00     0.010 A 
ATOM     33  C   UNL A   1      38.488  29.063  28.609  1.00  0.00    -0.014 A 
BRANCH  33  34
ATOM     34  C   UNL A   1      39.800  28.488  28.878  1.00  0.00     0.031 A 
ATOM     35  C   UNL A   1      40.111  27.046  28.714  1.00  0.00     0.074 A 
ATOM     36  C   UNL A   1      40.747  29.432  29.071  1.00  0.00     0.049 A 
ATOM     37  N   UNL A   1      41.264  26.538  28.975  1.00  0.00    -0.248 NA
ATOM     38  C   UNL A   1      39.160  26.030  28.267  1.00  0.00     0.031 C 
ATOM     39  C   UNL A   1      42.161  29.411  28.788  1.00  0.00     0.029 A 
ATOM     40  N   UNL A   1      40.554  30.677  29.678  1.00  0.00    -0.354 N 
ATOM     41  C   UNL A   1      41.301  25.256  28.452  1.00  0.00     0.074 A 
ATOM     42  C   UNL A   1      39.937  24.948  28.124  1.00  0.00     0.031 C 
ATOM     43  C   UNL A   1      42.741  30.455  29.412  1.00  0.00     0.029 A 
ATOM     44  C   UNL A   1      41.746  31.012  30.321  1.00  0.00     0.049 A 
ATOM     45  H   UNL A   1      39.731  31.217  29.655  1.00  0.00     0.167 HD
ATOM     46  C   UNL A   1      42.522  24.705  28.207  1.00  0.00     0.034 A 
ATOM     47  C   UNL A   1      41.880  31.125  31.685  1.00  0.00     0.034 A 
ATOM     48  C   UNL A   1      43.559  25.570  28.782  1.00  0.00     0.049 A 
ATOM     49  C   UNL A   1      42.926  30.167  32.198  1.00  0.00     0.074 A 
ATOM     50  C   UNL A   1      44.292  26.610  28.235  1.00  0.00     0.029 A 
ATOM     51  N   UNL A   1      43.686  25.667  30.162  1.00  0.00    -0.354 N 
ATOM     52  N   UNL A   1      43.302  29.109  31.544  1.00  0.00    -0.248 NA
ATOM     53  C   UNL A   1      43.567  30.290  33.498  1.00  0.00     0.031 C 
ATOM     54  C   UNL A   1      44.781  27.398  29.307  1.00  0.00     0.029 A 
ATOM     55  C   UNL A   1      44.382  26.816  30.500  1.00  0.00     0.049 A 
ATOM     56  H   UNL A   1      43.331  25.014  30.808  1.00  0.00     0.167 HD
ATOM     57  C   UNL A   1      44.159  28.380  32.306  1.00  0.00     0.074 A 
ATOM     58  C   UNL A   1      44.332  29.184  33.507  1.00  0.00     0.031 C 
ATOM     59  C   UNL A   1      44.612  27.160  31.897  1.00  0.00     0.034 A 
BRANCH  46  60
ATOM     60  C   UNL A   1      42.871  23.604  27.208  1.00  0.00     0.023 A 
ATOM     61  C   UNL A   1      43.636  24.022  26.087  1.00  0.00     0.012 A 
ATOM     62  C   UNL A   1      42.468  22.246  27.199  1.00  0.00     0.148 A 
ATOM     63  C   UNL A   1      43.918  23.199  24.995  1.00  0.00     0.002 A 
ATOM     64  C   UNL A   1      42.758  21.412  26.103  1.00  0.00     0.091 A 
ATOM     65  F   UNL A   1      41.816  21.738  28.247  1.00  0.00    -0.205 F 
ATOM     66  C   UNL A   1      43.467  21.895  24.996  1.00  0.00     0.022 A 
BRANCH  64  67
ATOM     67  S   UNL A   1      42.244  19.685  25.986  1.00  0.00     0.127 S 
ATOM     68  O   UNL A   1      43.056  19.198  24.869  1.00  0.00    -0.237 OA
ATOM     69  O   UNL A   1      42.638  19.152  27.291  1.00  0.00    -0.237 OA
ATOM     70  O   UNL A   1      40.810  19.696  25.737  1.00  0.00    -0.744 OA
ENDBRANCH  64  67
ENDBRANCH  46  60
BRANCH  47  71
ATOM     71  C   UNL A   1      40.598  31.342  32.454  1.00  0.00     0.023 A 
ATOM     72  C   UNL A   1      40.120  30.235  33.189  1.00  0.00     0.012 A 
ATOM     73  C   UNL A   1      40.373  32.640  32.948  1.00  0.00     0.148 A 
ATOM     74  C   UNL A   1      39.901  30.397  34.552  1.00  0.00     0.002 A 
ATOM     75  C   UNL A   1      40.137  32.799  34.297  1.00  0.00     0.091 A 
ATOM     76  F   UNL A   1      40.493  33.693  32.129  1.00  0.00    -0.205 F 
ATOM     77  C   UNL A   1      40.050  31.667  35.109  1.00  0.00     0.022 A 
BRANCH  75  78
ATOM     78  S   UNL A   1      40.037  34.441  35.009  1.00  0.00     0.127 S 
ATOM     79  O   UNL A   1      41.382  34.953  34.766  1.00  0.00    -0.237 OA
ATOM     80  O   UNL A   1      38.989  35.080  34.214  1.00  0.00    -0.237 OA
ATOM     81  O   UNL A   1      39.663  34.200  36.393  1.00  0.00    -0.744 OA
ENDBRANCH  75  78
ENDBRANCH  47  71
BRANCH  59  82
ATOM     82  C   UNL A   1      45.364  26.205  32.781  1.00  0.00     0.023 A 
ATOM     83  C   UNL A   1      46.768  26.228  32.873  1.00  0.00     0.012 A 
ATOM     84  C   UNL A   1      44.675  25.328  33.649  1.00  0.00     0.148 A 
ATOM     85  C   UNL A   1      47.465  25.336  33.687  1.00  0.00     0.002 A 
ATOM     86  C   UNL A   1      45.368  24.540  34.558  1.00  0.00     0.091 A 
ATOM     87  F   UNL A   1      43.338  25.230  33.588  1.00  0.00    -0.205 F 
ATOM     88  C   UNL A   1      46.763  24.501  34.543  1.00  0.00     0.022 A 
BRANCH  86  89
ATOM     89  S   UNL A   1      44.499  23.682  35.873  1.00  0.00     0.127 S 
ATOM     90  O   UNL A   1      43.760  22.661  35.133  1.00  0.00    -0.237 OA
ATOM     91  O   UNL A   1      45.601  23.164  36.688  1.00  0.00    -0.237 OA
ATOM     92  O   UNL A   1      43.701  24.705  36.533  1.00  0.00    -0.744 OA
ENDBRANCH  86  89
ENDBRANCH  59  82
ENDBRANCH  33  34
ENDBRANCH  26  28
ENDBRANCH  25  26
ENDBRANCH  24  25
ENDBRANCH   1  24
TORSDOF 18
ENDMDL
MODEL 3
REMARK VINA RESULT:     -10.8      4.877     11.866
REMARK SMILES CCC(=O)Nc1cc(NC(=O)/C=C/C(=O)OCCOC(=O)c2ccc(-c3c4nc(c(-c5cccc(S(=O)(=O)[O-])c5F)c5ccc([nH]5)c(-c5cccc(S(=O)(=O)[O-])c5F)c5nc(c(-c6cccc(S(=O)(=O)[O-])c6F)c6ccc3[nH]6)C=C5)C=C4)cc2)ccc1C
REMARK SMILES IDX 17 1 16 2 14 3 15 4 13 5 12 6 10 7 9 8 11 10 8 11 6 12 7 13
REMARK SMILES IDX 87 14 86 15 88 16 85 17 5 18 3 19 4 20 2 22 1 23 18 24 19 25
REMARK SMILES IDX 20 26 21 27 22 28 23 29 84 30 24 31 83 32 25 33 26 34 27 35
REMARK SMILES IDX 77 36 28 37 82 38 76 39 78 40 29 41 81 42 75 43 74 44 30 46
REMARK SMILES IDX 62 47 42 48 61 49 43 50 46 51 60 52 79 53 44 54 45 55 59 57
REMARK SMILES IDX 80 58 47 59 31 60 32 61 40 62 33 63 35 64 41 65 34 66 36 67
REMARK SMILES IDX 37 68 38 69 39 70 63 71 64 72 72 73 65 74 67 75 73 76 66 77
REMARK SMILES IDX 68 78 69 79 70 80 71 81 48 82 49 83 57 84 50 85 52 86 58 87
REMARK SMILES IDX 51 88 53 89 54 90 55 91 56 92
REMARK H PARENT 9 9 5 21 78 45 46 56
REMARK Flexibility Score: inf
ROOT
ATOM      1  C   UNL A   1      42.682  18.818  26.527  1.00  0.00     0.275 C 
ENDROOT
BRANCH   1   2
ATOM      2  O   UNL A   1      41.713  19.699  27.129  1.00  0.00    -0.459 OA
BRANCH   2   3
ATOM      3  C   UNL A   1      40.658  19.898  26.287  1.00  0.00     0.331 C 
ATOM      4  O   UNL A   1      40.119  19.012  25.639  1.00  0.00    -0.247 OA
BRANCH   3   5
ATOM      5  C   UNL A   1      40.068  21.248  26.365  1.00  0.00     0.099 C 
ATOM      6  C   UNL A   1      38.960  21.660  25.737  1.00  0.00     0.079 C 
BRANCH   6   7
ATOM      7  C   UNL A   1      38.323  22.873  26.295  1.00  0.00     0.248 C 
ATOM      8  N   UNL A   1      36.995  23.156  26.207  1.00  0.00    -0.322 N 
ATOM      9  H   UNL A   1      36.766  23.970  26.712  1.00  0.00     0.170 HD
ATOM     10  O   UNL A   1      39.031  23.623  26.973  1.00  0.00    -0.270 OA
BRANCH   8  11
ATOM     11  C   UNL A   1      35.862  22.596  25.587  1.00  0.00     0.043 A 
ATOM     12  C   UNL A   1      33.984  21.023  25.392  1.00  0.00     0.046 A 
ATOM     13  C   UNL A   1      35.074  21.575  26.105  1.00  0.00     0.052 A 
ATOM     14  C   UNL A   1      33.546  21.674  24.237  1.00  0.00    -0.027 A 
ATOM     15  C   UNL A   1      34.354  22.677  23.686  1.00  0.00     0.008 A 
ATOM     16  C   UNL A   1      32.139  21.541  23.718  1.00  0.00     0.046 C 
ATOM     17  C   UNL A   1      35.519  23.099  24.331  1.00  0.00     0.026 A 
BRANCH  12  18
ATOM     18  N   UNL A   1      33.297  19.902  25.909  1.00  0.00    -0.326 N 
ATOM     19  C   UNL A   1      33.168  18.642  25.361  1.00  0.00     0.224 C 
ATOM     20  O   UNL A   1      32.270  17.897  25.772  1.00  0.00    -0.275 OA
ATOM     21  H   UNL A   1      32.851  20.038  26.775  1.00  0.00     0.169 HD
BRANCH  19  22
ATOM     22  C   UNL A   1      34.246  18.078  24.423  1.00  0.00     0.097 C 
ATOM     23  C   UNL A   1      33.984  17.171  23.250  1.00  0.00     0.014 C 
ENDBRANCH  19  22
ENDBRANCH  12  18
ENDBRANCH   8  11
ENDBRANCH   6   7
ENDBRANCH   3   5
ENDBRANCH   2   3
ENDBRANCH   1   2
BRANCH   1  24
ATOM     24  C   UNL A   1      43.511  19.445  25.393  1.00  0.00     0.275 C 
BRANCH  24  25
ATOM     25  O   UNL A   1      44.266  20.663  25.628  1.00  0.00    -0.458 OA
BRANCH  25  26
ATOM     26  C   UNL A   1      44.203  21.806  24.916  1.00  0.00     0.338 C 
ATOM     27  O   UNL A   1      44.479  21.857  23.719  1.00  0.00    -0.246 OA
BRANCH  26  28
ATOM     28  C   UNL A   1      43.711  22.994  25.611  1.00  0.00     0.060 A 
ATOM     29  C   UNL A   1      43.338  22.820  26.943  1.00  0.00     0.016 A 
ATOM     30  C   UNL A   1      43.736  24.252  25.044  1.00  0.00     0.016 A 
ATOM     31  C   UNL A   1      43.058  23.884  27.782  1.00  0.00     0.010 A 
ATOM     32  C   UNL A   1      43.508  25.324  25.882  1.00  0.00     0.010 A 
ATOM     33  C   UNL A   1      43.165  25.149  27.249  1.00  0.00    -0.014 A 
BRANCH  33  34
ATOM     34  C   UNL A   1      42.921  26.365  28.015  1.00  0.00     0.031 A 
ATOM     35  C   UNL A   1      41.900  27.376  27.643  1.00  0.00     0.074 A 
ATOM     36  C   UNL A   1      43.558  26.360  29.207  1.00  0.00     0.049 A 
ATOM     37  N   UNL A   1      41.704  28.459  28.310  1.00  0.00    -0.248 NA
ATOM     38  C   UNL A   1      41.019  27.288  26.481  1.00  0.00     0.031 C 
ATOM     39  C   UNL A   1      43.197  26.968  30.464  1.00  0.00     0.029 A 
ATOM     40  N   UNL A   1      44.804  25.781  29.470  1.00  0.00    -0.354 N 
ATOM     41  C   UNL A   1      40.517  29.025  27.875  1.00  0.00     0.074 A 
ATOM     42  C   UNL A   1      40.190  28.324  26.666  1.00  0.00     0.031 C 
ATOM     43  C   UNL A   1      44.269  26.939  31.280  1.00  0.00     0.029 A 
ATOM     44  C   UNL A   1      45.413  26.546  30.465  1.00  0.00     0.049 A 
ATOM     45  H   UNL A   1      45.180  24.981  29.036  1.00  0.00     0.167 HD
ATOM     46  C   UNL A   1      39.886  29.897  28.711  1.00  0.00     0.034 A 
ATOM     47  C   UNL A   1      46.555  27.287  30.275  1.00  0.00     0.034 A 
ATOM     48  C   UNL A   1      40.772  30.200  29.841  1.00  0.00     0.049 A 
ATOM     49  C   UNL A   1      46.299  28.744  30.574  1.00  0.00     0.074 A 
ATOM     50  C   UNL A   1      40.896  29.614  31.090  1.00  0.00     0.029 A 
ATOM     51  N   UNL A   1      41.918  30.956  29.633  1.00  0.00    -0.354 N 
ATOM     52  N   UNL A   1      45.112  29.273  30.564  1.00  0.00    -0.248 NA
ATOM     53  C   UNL A   1      47.353  29.714  30.832  1.00  0.00     0.031 C 
ATOM     54  C   UNL A   1      42.179  29.947  31.593  1.00  0.00     0.029 A 
ATOM     55  C   UNL A   1      42.815  30.764  30.672  1.00  0.00     0.049 A 
ATOM     56  H   UNL A   1      42.072  31.544  28.859  1.00  0.00     0.167 HD
ATOM     57  C   UNL A   1      45.209  30.617  30.746  1.00  0.00     0.074 A 
ATOM     58  C   UNL A   1      46.631  30.841  30.956  1.00  0.00     0.031 C 
ATOM     59  C   UNL A   1      44.113  31.425  30.662  1.00  0.00     0.034 A 
BRANCH  46  60
ATOM     60  C   UNL A   1      38.401  30.252  28.749  1.00  0.00     0.023 A 
ATOM     61  C   UNL A   1      37.513  29.176  28.480  1.00  0.00     0.012 A 
ATOM     62  C   UNL A   1      37.790  31.517  28.930  1.00  0.00     0.148 A 
ATOM     63  C   UNL A   1      36.136  29.335  28.317  1.00  0.00     0.002 A 
ATOM     64  C   UNL A   1      36.400  31.678  28.773  1.00  0.00     0.091 A 
ATOM     65  F   UNL A   1      38.533  32.573  29.266  1.00  0.00    -0.205 F 
ATOM     66  C   UNL A   1      35.578  30.590  28.450  1.00  0.00     0.022 A 
BRANCH  64  67
ATOM     67  S   UNL A   1      35.544  33.259  28.939  1.00  0.00     0.127 S 
ATOM     68  O   UNL A   1      35.455  33.707  27.548  1.00  0.00    -0.237 OA
ATOM     69  O   UNL A   1      34.263  32.862  29.524  1.00  0.00    -0.237 OA
ATOM     70  O   UNL A   1      36.376  34.092  29.795  1.00  0.00    -0.744 OA
ENDBRANCH  64  67
ENDBRANCH  46  60
BRANCH  47  71
ATOM     71  C   UNL A   1      47.409  26.887  29.095  1.00  0.00     0.023 A 
ATOM     72  C   UNL A   1      47.782  25.526  29.033  1.00  0.00     0.012 A 
ATOM     73  C   UNL A   1      47.199  27.595  27.898  1.00  0.00     0.148 A 
ATOM     74  C   UNL A   1      47.459  24.809  27.886  1.00  0.00     0.002 A 
ATOM     75  C   UNL A   1      46.898  26.883  26.756  1.00  0.00     0.091 A 
ATOM     76  F   UNL A   1      47.194  28.934  27.910  1.00  0.00    -0.205 F 
ATOM     77  C   UNL A   1      46.889  25.488  26.808  1.00  0.00     0.022 A 
BRANCH  75  78
ATOM     78  S   UNL A   1      46.432  27.741  25.253  1.00  0.00     0.127 S 
ATOM     79  O   UNL A   1      45.122  28.278  25.611  1.00  0.00    -0.237 OA
ATOM     80  O   UNL A   1      47.484  28.748  25.110  1.00  0.00    -0.237 OA
ATOM     81  O   UNL A   1      46.465  26.705  24.234  1.00  0.00    -0.744 OA
ENDBRANCH  75  78
ENDBRANCH  47  71
BRANCH  59  82
ATOM     82  C   UNL A   1      44.180  32.926  30.618  1.00  0.00     0.023 A 
ATOM     83  C   UNL A   1      44.249  33.701  31.791  1.00  0.00     0.012 A 
ATOM     84  C   UNL A   1      44.301  33.608  29.385  1.00  0.00     0.148 A 
ATOM     85  C   UNL A   1      44.302  35.094  31.747  1.00  0.00     0.002 A 
ATOM     86  C   UNL A   1      44.494  34.981  29.352  1.00  0.00     0.091 A 
ATOM     87  F   UNL A   1      44.208  32.934  28.229  1.00  0.00    -0.205 F 
ATOM     88  C   UNL A   1      44.441  35.735  30.525  1.00  0.00     0.022 A 
BRANCH  86  89
ATOM     89  S   UNL A   1      44.975  35.801  27.828  1.00  0.00     0.127 S 
ATOM     90  O   UNL A   1      46.370  35.390  27.690  1.00  0.00    -0.237 OA
ATOM     91  O   UNL A   1      44.064  35.201  26.851  1.00  0.00    -0.237 OA
ATOM     92  O   UNL A   1      44.741  37.218  28.068  1.00  0.00    -0.744 OA
ENDBRANCH  86  89
ENDBRANCH  59  82
ENDBRANCH  33  34
ENDBRANCH  26  28
ENDBRANCH  25  26
ENDBRANCH  24  25
ENDBRANCH   1  24
TORSDOF 18
ENDMDL
