MODEL 1
REMARK VINA RESULT:     -11.3      0.000      0.000
REMARK SMILES CCc1cccc(C)c1Nc1ccccc1CC(=O)OCCOC(=O)c1ccc(-c2c3nc(c(-c4cccc(S(=O)(=O)[O-])c4F)c4ccc([nH]4)c(-c4cccc(S(=O)(=O)[O-])c4F)c4nc(c(-c5cccc(S(=O)(=O)[O-])c5F)c5ccc2[nH]5)C=C4)C=C3)cc1
REMARK SMILES IDX 21 1 20 2 18 3 19 4 17 5 16 6 11 7 12 8 13 9 15 10 14 11
REMARK SMILES IDX 10 12 9 14 3 15 4 16 5 17 7 18 6 19 8 20 2 21 1 22 22 23
REMARK SMILES IDX 23 24 24 25 25 26 26 27 27 28 88 29 28 30 87 31 29 32 30 33
REMARK SMILES IDX 31 34 81 35 32 36 86 37 80 38 82 39 33 40 85 41 79 42 78 43
REMARK SMILES IDX 34 45 66 46 46 47 65 48 47 49 50 50 64 51 83 52 48 53 49 54
REMARK SMILES IDX 63 56 84 57 51 58 35 59 36 60 44 61 37 62 39 63 45 64 38 65
REMARK SMILES IDX 40 66 41 67 42 68 43 69 67 70 68 71 76 72 69 73 71 74 77 75
REMARK SMILES IDX 70 76 72 77 73 78 74 79 75 80 52 81 53 82 61 83 54 84 56 85
REMARK SMILES IDX 62 86 55 87 57 88 58 89 59 90 60 91
REMARK H PARENT 10 13 82 44 50 55
REMARK Flexibility Score: inf
ROOT
ATOM      1  C   UNL A   1      33.342  27.955  25.529  1.00  0.00     0.274 C 
ENDROOT
BRANCH   1   2
ATOM      2  O   UNL A   1      34.268  27.209  24.696  1.00  0.00    -0.462 OA
BRANCH   2   3
ATOM      3  C   UNL A   1      33.978  25.941  24.364  1.00  0.00     0.310 C 
ATOM      4  O   UNL A   1      33.743  25.623  23.214  1.00  0.00    -0.252 OA
BRANCH   3   5
ATOM      5  C   UNL A   1      33.805  24.975  25.480  1.00  0.00     0.160 C 
BRANCH   5   6
ATOM      6  C   UNL A   1      34.772  23.797  25.535  1.00  0.00    -0.013 A 
ATOM      7  C   UNL A   1      34.518  22.403  25.383  1.00  0.00     0.042 A 
ATOM      8  C   UNL A   1      35.615  21.523  25.410  1.00  0.00     0.026 A 
ATOM      9  C   UNL A   1      36.924  21.971  25.579  1.00  0.00     0.002 A 
ATOM     10  C   UNL A   1      36.105  24.214  25.783  1.00  0.00     0.006 A 
ATOM     11  C   UNL A   1      37.169  23.318  25.789  1.00  0.00     0.000 A 
BRANCH   7  12
ATOM     12  N   UNL A   1      33.260  21.743  25.310  1.00  0.00    -0.355 N 
ATOM     13  H   UNL A   1      32.700  21.879  26.109  1.00  0.00     0.167 HD
BRANCH  12  14
ATOM     14  C   UNL A   1      32.640  20.918  24.313  1.00  0.00     0.045 A 
ATOM     15  C   UNL A   1      32.173  21.507  23.093  1.00  0.00    -0.024 A 
ATOM     16  C   UNL A   1      31.933  20.661  21.980  1.00  0.00     0.006 A 
ATOM     17  C   UNL A   1      32.068  19.286  22.057  1.00  0.00     0.001 A 
ATOM     18  C   UNL A   1      32.632  19.494  24.419  1.00  0.00    -0.027 A 
ATOM     19  C   UNL A   1      32.396  18.708  23.272  1.00  0.00     0.005 A 
ATOM     20  C   UNL A   1      33.040  18.730  25.650  1.00  0.00     0.046 C 
BRANCH  15  21
ATOM     21  C   UNL A   1      31.915  22.969  22.747  1.00  0.00     0.034 C 
ATOM     22  C   UNL A   1      30.810  23.796  23.370  1.00  0.00     0.009 C 
ENDBRANCH  15  21
ENDBRANCH  12  14
ENDBRANCH   7  12
ENDBRANCH   5   6
ENDBRANCH   3   5
ENDBRANCH   2   3
ENDBRANCH   1   2
BRANCH   1  23
ATOM     23  C   UNL A   1      33.535  28.478  27.026  1.00  0.00     0.275 C 
BRANCH  23  24
ATOM     24  O   UNL A   1      34.564  29.356  27.678  1.00  0.00    -0.458 OA
BRANCH  24  25
ATOM     25  C   UNL A   1      34.732  30.669  28.066  1.00  0.00     0.338 C 
ATOM     26  O   UNL A   1      33.874  31.522  27.883  1.00  0.00    -0.246 OA
BRANCH  25  27
ATOM     27  C   UNL A   1      36.002  31.025  28.702  1.00  0.00     0.060 A 
ATOM     28  C   UNL A   1      36.866  32.098  28.442  1.00  0.00     0.016 A 
ATOM     29  C   UNL A   1      36.291  30.192  29.740  1.00  0.00     0.016 A 
ATOM     30  C   UNL A   1      38.075  32.130  29.149  1.00  0.00     0.010 A 
ATOM     31  C   UNL A   1      37.091  30.621  30.737  1.00  0.00     0.010 A 
ATOM     32  C   UNL A   1      38.196  31.265  30.232  1.00  0.00    -0.014 A 
BRANCH  32  33
ATOM     33  C   UNL A   1      39.328  30.393  30.580  1.00  0.00     0.031 A 
ATOM     34  C   UNL A   1      39.500  29.225  29.719  1.00  0.00     0.074 A 
ATOM     35  C   UNL A   1      40.361  31.149  31.070  1.00  0.00     0.049 A 
ATOM     36  N   UNL A   1      39.935  28.089  30.133  1.00  0.00    -0.248 NA
ATOM     37  C   UNL A   1      39.105  29.235  28.301  1.00  0.00     0.031 C 
ATOM     38  C   UNL A   1      41.770  31.242  30.689  1.00  0.00     0.029 A 
ATOM     39  N   UNL A   1      40.207  32.274  31.877  1.00  0.00    -0.354 N 
ATOM     40  C   UNL A   1      40.270  27.419  28.977  1.00  0.00     0.074 A 
ATOM     41  C   UNL A   1      39.487  28.018  27.916  1.00  0.00     0.031 C 
ATOM     42  C   UNL A   1      42.373  32.195  31.442  1.00  0.00     0.029 A 
ATOM     43  C   UNL A   1      41.405  32.710  32.408  1.00  0.00     0.049 A 
ATOM     44  H   UNL A   1      39.341  32.709  32.051  1.00  0.00     0.167 HD
ATOM     45  C   UNL A   1      41.526  26.910  28.838  1.00  0.00     0.034 A 
ATOM     46  C   UNL A   1      41.515  32.795  33.765  1.00  0.00     0.034 A 
ATOM     47  C   UNL A   1      42.437  27.478  29.860  1.00  0.00     0.049 A 
ATOM     48  C   UNL A   1      42.115  31.472  34.231  1.00  0.00     0.074 A 
ATOM     49  C   UNL A   1      43.492  28.374  29.790  1.00  0.00     0.029 A 
ATOM     50  N   UNL A   1      42.126  27.376  31.211  1.00  0.00    -0.354 N 
ATOM     51  N   UNL A   1      42.625  30.569  33.435  1.00  0.00    -0.248 NA
ATOM     52  C   UNL A   1      42.130  31.044  35.624  1.00  0.00     0.031 C 
ATOM     53  C   UNL A   1      43.805  28.805  31.114  1.00  0.00     0.029 A 
ATOM     54  C   UNL A   1      42.938  28.184  31.997  1.00  0.00     0.049 A 
ATOM     55  H   UNL A   1      41.413  26.799  31.570  1.00  0.00     0.167 HD
ATOM     56  C   UNL A   1      42.703  29.378  34.103  1.00  0.00     0.074 A 
ATOM     57  C   UNL A   1      42.541  29.771  35.496  1.00  0.00     0.031 C 
ATOM     58  C   UNL A   1      42.779  28.170  33.456  1.00  0.00     0.034 A 
BRANCH  45  59
ATOM     59  C   UNL A   1      42.008  26.195  27.588  1.00  0.00     0.023 A 
ATOM     60  C   UNL A   1      42.505  26.997  26.542  1.00  0.00     0.012 A 
ATOM     61  C   UNL A   1      42.102  24.790  27.401  1.00  0.00     0.148 A 
ATOM     62  C   UNL A   1      43.001  26.457  25.353  1.00  0.00     0.002 A 
ATOM     63  C   UNL A   1      42.541  24.250  26.188  1.00  0.00     0.091 A 
ATOM     64  F   UNL A   1      41.841  23.960  28.420  1.00  0.00    -0.205 F 
ATOM     65  C   UNL A   1      42.998  25.085  25.165  1.00  0.00     0.022 A 
BRANCH  63  66
ATOM     66  S   UNL A   1      42.508  22.482  25.836  1.00  0.00     0.127 S 
ATOM     67  O   UNL A   1      43.318  21.934  26.927  1.00  0.00    -0.237 OA
ATOM     68  O   UNL A   1      41.084  22.168  25.922  1.00  0.00    -0.237 OA
ATOM     69  O   UNL A   1      43.115  22.324  24.520  1.00  0.00    -0.744 OA
ENDBRANCH  63  66
ENDBRANCH  45  59
BRANCH  46  70
ATOM     70  C   UNL A   1      40.271  33.438  34.361  1.00  0.00     0.023 A 
ATOM     71  C   UNL A   1      39.057  32.710  34.259  1.00  0.00     0.012 A 
ATOM     72  C   UNL A   1      40.375  34.402  35.384  1.00  0.00     0.148 A 
ATOM     73  C   UNL A   1      38.057  32.832  35.233  1.00  0.00     0.002 A 
ATOM     74  C   UNL A   1      39.396  34.478  36.378  1.00  0.00     0.091 A 
ATOM     75  F   UNL A   1      41.492  35.131  35.477  1.00  0.00    -0.205 F 
ATOM     76  C   UNL A   1      38.249  33.679  36.321  1.00  0.00     0.022 A 
BRANCH  74  77
ATOM     77  S   UNL A   1      39.745  35.425  37.869  1.00  0.00     0.127 S 
ATOM     78  O   UNL A   1      41.065  34.945  38.277  1.00  0.00    -0.237 OA
ATOM     79  O   UNL A   1      39.738  36.805  37.401  1.00  0.00    -0.237 OA
ATOM     80  O   UNL A   1      38.648  35.027  38.744  1.00  0.00    -0.744 OA
ENDBRANCH  74  77
ENDBRANCH  46  70
BRANCH  58  81
ATOM     81  C   UNL A   1      42.699  26.826  34.160  1.00  0.00     0.023 A 
ATOM     82  C   UNL A   1      41.559  26.405  34.868  1.00  0.00     0.012 A 
ATOM     83  C   UNL A   1      43.759  25.887  34.055  1.00  0.00     0.148 A 
ATOM     84  C   UNL A   1      41.524  25.189  35.556  1.00  0.00     0.002 A 
ATOM     85  C   UNL A   1      43.654  24.618  34.608  1.00  0.00     0.091 A 
ATOM     86  F   UNL A   1      44.904  26.229  33.447  1.00  0.00    -0.205 F 
ATOM     87  C   UNL A   1      42.566  24.286  35.413  1.00  0.00     0.022 A 
BRANCH  85  88
ATOM     88  S   UNL A   1      44.830  23.325  34.195  1.00  0.00     0.127 S 
ATOM     89  O   UNL A   1      44.832  23.374  32.735  1.00  0.00    -0.237 OA
ATOM     90  O   UNL A   1      46.060  23.810  34.824  1.00  0.00    -0.237 OA
ATOM     91  O   UNL A   1      44.293  22.112  34.796  1.00  0.00    -0.744 OA
ENDBRANCH  85  88
ENDBRANCH  58  81
ENDBRANCH  32  33
ENDBRANCH  25  27
ENDBRANCH  24  25
ENDBRANCH  23  24
ENDBRANCH   1  23
TORSDOF 18
ENDMDL
MODEL 2
REMARK VINA RESULT:     -11.3      5.720     14.254
REMARK SMILES CCc1cccc(C)c1Nc1ccccc1CC(=O)OCCOC(=O)c1ccc(-c2c3nc(c(-c4cccc(S(=O)(=O)[O-])c4F)c4ccc([nH]4)c(-c4cccc(S(=O)(=O)[O-])c4F)c4nc(c(-c5cccc(S(=O)(=O)[O-])c5F)c5ccc2[nH]5)C=C4)C=C3)cc1
REMARK SMILES IDX 21 1 20 2 18 3 19 4 17 5 16 6 11 7 12 8 13 9 15 10 14 11
REMARK SMILES IDX 10 12 9 14 3 15 4 16 5 17 7 18 6 19 8 20 2 21 1 22 22 23
REMARK SMILES IDX 23 24 24 25 25 26 26 27 27 28 88 29 28 30 87 31 29 32 30 33
REMARK SMILES IDX 31 34 81 35 32 36 86 37 80 38 82 39 33 40 85 41 79 42 78 43
REMARK SMILES IDX 34 45 66 46 46 47 65 48 47 49 50 50 64 51 83 52 48 53 49 54
REMARK SMILES IDX 63 56 84 57 51 58 35 59 36 60 44 61 37 62 39 63 45 64 38 65
REMARK SMILES IDX 40 66 41 67 42 68 43 69 67 70 68 71 76 72 69 73 71 74 77 75
REMARK SMILES IDX 70 76 72 77 73 78 74 79 75 80 52 81 53 82 61 83 54 84 56 85
REMARK SMILES IDX 62 86 55 87 57 88 58 89 59 90 60 91
REMARK H PARENT 10 13 82 44 50 55
REMARK Flexibility Score: inf
ROOT
ATOM      1  C   UNL A   1      50.513  22.601  33.708  1.00  0.00     0.274 C 
ENDROOT
BRANCH   1   2
ATOM      2  O   UNL A   1      50.187  21.280  33.201  1.00  0.00    -0.462 OA
BRANCH   2   3
ATOM      3  C   UNL A   1      49.568  20.401  34.006  1.00  0.00     0.310 C 
ATOM      4  O   UNL A   1      50.195  19.642  34.720  1.00  0.00    -0.252 OA
BRANCH   3   5
ATOM      5  C   UNL A   1      48.092  20.291  33.874  1.00  0.00     0.160 C 
BRANCH   5   6
ATOM      6  C   UNL A   1      47.247  20.908  34.984  1.00  0.00    -0.013 A 
ATOM      7  C   UNL A   1      47.219  20.613  36.378  1.00  0.00     0.042 A 
ATOM      8  C   UNL A   1      46.384  21.389  37.202  1.00  0.00     0.026 A 
ATOM      9  C   UNL A   1      45.597  22.424  36.700  1.00  0.00     0.002 A 
ATOM     10  C   UNL A   1      46.377  21.915  34.492  1.00  0.00     0.006 A 
ATOM     11  C   UNL A   1      45.575  22.674  35.338  1.00  0.00     0.000 A 
BRANCH   7  12
ATOM     12  N   UNL A   1      47.856  19.540  37.061  1.00  0.00    -0.355 N 
ATOM     13  H   UNL A   1      47.970  18.735  36.505  1.00  0.00     0.167 HD
BRANCH  12  14
ATOM     14  C   UNL A   1      48.363  19.388  38.395  1.00  0.00     0.045 A 
ATOM     15  C   UNL A   1      47.655  18.573  39.336  1.00  0.00    -0.024 A 
ATOM     16  C   UNL A   1      48.343  18.116  40.489  1.00  0.00     0.006 A 
ATOM     17  C   UNL A   1      49.647  18.489  40.766  1.00  0.00     0.001 A 
ATOM     18  C   UNL A   1      49.651  19.882  38.766  1.00  0.00    -0.027 A 
ATOM     19  C   UNL A   1      50.286  19.380  39.921  1.00  0.00     0.005 A 
ATOM     20  C   UNL A   1      50.493  20.791  37.911  1.00  0.00     0.046 C 
BRANCH  15  21
ATOM     21  C   UNL A   1      46.227  18.043  39.295  1.00  0.00     0.034 C 
ATOM     22  C   UNL A   1      45.816  16.695  39.850  1.00  0.00     0.009 C 
ENDBRANCH  15  21
ENDBRANCH  12  14
ENDBRANCH   7  12
ENDBRANCH   5   6
ENDBRANCH   3   5
ENDBRANCH   2   3
ENDBRANCH   1   2
BRANCH   1  23
ATOM     23  C   UNL A   1      50.486  24.004  32.945  1.00  0.00     0.275 C 
BRANCH  23  24
ATOM     24  O   UNL A   1      49.516  24.626  31.982  1.00  0.00    -0.458 OA
BRANCH  24  25
ATOM     25  C   UNL A   1      49.401  25.744  31.181  1.00  0.00     0.338 C 
ATOM     26  O   UNL A   1      50.067  26.754  31.365  1.00  0.00    -0.246 OA
BRANCH  25  27
ATOM     27  C   UNL A   1      48.424  25.692  30.091  1.00  0.00     0.060 A 
ATOM     28  C   UNL A   1      48.626  25.548  28.711  1.00  0.00     0.016 A 
ATOM     29  C   UNL A   1      47.147  25.720  30.564  1.00  0.00     0.016 A 
ATOM     30  C   UNL A   1      47.495  25.635  27.889  1.00  0.00     0.010 A 
ATOM     31  C   UNL A   1      46.151  25.188  29.828  1.00  0.00     0.010 A 
ATOM     32  C   UNL A   1      46.254  25.579  28.514  1.00  0.00    -0.014 A 
BRANCH  32  33
ATOM     33  C   UNL A   1      45.081  26.437  28.288  1.00  0.00     0.031 A 
ATOM     34  C   UNL A   1      45.235  27.825  28.716  1.00  0.00     0.074 A 
ATOM     35  C   UNL A   1      44.439  26.050  27.141  1.00  0.00     0.049 A 
ATOM     36  N   UNL A   1      44.277  28.538  29.191  1.00  0.00    -0.248 NA
ATOM     37  C   UNL A   1      46.540  28.504  28.711  1.00  0.00     0.031 C 
ATOM     38  C   UNL A   1      44.035  26.794  25.948  1.00  0.00     0.029 A 
ATOM     39  N   UNL A   1      44.301  24.730  26.716  1.00  0.00    -0.354 N 
ATOM     40  C   UNL A   1      44.754  29.828  29.122  1.00  0.00     0.074 A 
ATOM     41  C   UNL A   1      46.200  29.728  29.111  1.00  0.00     0.031 C 
ATOM     42  C   UNL A   1      43.485  25.937  25.054  1.00  0.00     0.029 A 
ATOM     43  C   UNL A   1      43.426  24.607  25.654  1.00  0.00     0.049 A 
ATOM     44  H   UNL A   1      44.774  23.971  27.126  1.00  0.00     0.167 HD
ATOM     45  C   UNL A   1      44.026  30.779  28.473  1.00  0.00     0.034 A 
ATOM     46  C   UNL A   1      42.349  23.781  25.800  1.00  0.00     0.034 A 
ATOM     47  C   UNL A   1      42.967  30.152  27.646  1.00  0.00     0.049 A 
ATOM     48  C   UNL A   1      41.199  24.659  26.281  1.00  0.00     0.074 A 
ATOM     49  C   UNL A   1      42.797  30.013  26.277  1.00  0.00     0.029 A 
ATOM     50  N   UNL A   1      42.045  29.286  28.224  1.00  0.00    -0.354 N 
ATOM     51  N   UNL A   1      41.222  25.966  26.303  1.00  0.00    -0.248 NA
ATOM     52  C   UNL A   1      39.957  24.127  26.829  1.00  0.00     0.031 C 
ATOM     53  C   UNL A   1      41.767  29.053  26.047  1.00  0.00     0.029 A 
ATOM     54  C   UNL A   1      41.308  28.594  27.271  1.00  0.00     0.049 A 
ATOM     55  H   UNL A   1      41.929  29.174  29.196  1.00  0.00     0.167 HD
ATOM     56  C   UNL A   1      40.234  26.417  27.132  1.00  0.00     0.074 A 
ATOM     57  C   UNL A   1      39.382  25.248  27.296  1.00  0.00     0.031 C 
ATOM     58  C   UNL A   1      40.256  27.666  27.702  1.00  0.00     0.034 A 
BRANCH  45  59
ATOM     59  C   UNL A   1      44.483  32.216  28.303  1.00  0.00     0.023 A 
ATOM     60  C   UNL A   1      44.292  33.083  29.396  1.00  0.00     0.012 A 
ATOM     61  C   UNL A   1      45.178  32.756  27.188  1.00  0.00     0.148 A 
ATOM     62  C   UNL A   1      44.694  34.421  29.372  1.00  0.00     0.002 A 
ATOM     63  C   UNL A   1      45.525  34.110  27.138  1.00  0.00     0.091 A 
ATOM     64  F   UNL A   1      45.577  31.950  26.194  1.00  0.00    -0.205 F 
ATOM     65  C   UNL A   1      45.289  34.942  28.235  1.00  0.00     0.022 A 
BRANCH  63  66
ATOM     66  S   UNL A   1      46.243  34.882  25.675  1.00  0.00     0.127 S 
ATOM     67  O   UNL A   1      47.546  34.219  25.583  1.00  0.00    -0.237 OA
ATOM     68  O   UNL A   1      45.299  34.510  24.625  1.00  0.00    -0.237 OA
ATOM     69  O   UNL A   1      46.330  36.306  25.976  1.00  0.00    -0.744 OA
ENDBRANCH  63  66
ENDBRANCH  45  59
BRANCH  46  70
ATOM     70  C   UNL A   1      42.767  22.471  26.451  1.00  0.00     0.023 A 
ATOM     71  C   UNL A   1      41.847  21.876  27.352  1.00  0.00     0.012 A 
ATOM     72  C   UNL A   1      43.725  21.634  25.843  1.00  0.00     0.148 A 
ATOM     73  C   UNL A   1      41.789  20.485  27.513  1.00  0.00     0.002 A 
ATOM     74  C   UNL A   1      43.625  20.247  25.968  1.00  0.00     0.091 A 
ATOM     75  F   UNL A   1      44.631  22.176  25.021  1.00  0.00    -0.205 F 
ATOM     76  C   UNL A   1      42.645  19.667  26.782  1.00  0.00     0.022 A 
BRANCH  74  77
ATOM     77  S   UNL A   1      44.602  19.203  24.874  1.00  0.00     0.127 S 
ATOM     78  O   UNL A   1      44.206  19.646  23.538  1.00  0.00    -0.237 OA
ATOM     79  O   UNL A   1      45.976  19.540  25.225  1.00  0.00    -0.237 OA
ATOM     80  O   UNL A   1      44.144  17.867  25.241  1.00  0.00    -0.744 OA
ENDBRANCH  74  77
ENDBRANCH  46  70
BRANCH  58  81
ATOM     81  C   UNL A   1      39.266  28.136  28.754  1.00  0.00     0.023 A 
ATOM     82  C   UNL A   1      39.236  27.610  30.058  1.00  0.00     0.012 A 
ATOM     83  C   UNL A   1      38.374  29.207  28.484  1.00  0.00     0.148 A 
ATOM     84  C   UNL A   1      38.282  28.014  30.996  1.00  0.00     0.002 A 
ATOM     85  C   UNL A   1      37.537  29.712  29.470  1.00  0.00     0.091 A 
ATOM     86  F   UNL A   1      38.298  29.727  27.251  1.00  0.00    -0.205 F 
ATOM     87  C   UNL A   1      37.441  29.078  30.708  1.00  0.00     0.022 A 
BRANCH  85  88
ATOM     88  S   UNL A   1      36.663  31.264  29.241  1.00  0.00     0.127 S 
ATOM     89  O   UNL A   1      37.761  32.195  28.995  1.00  0.00    -0.237 OA
ATOM     90  O   UNL A   1      35.828  30.982  28.071  1.00  0.00    -0.237 OA
ATOM     91  O   UNL A   1      35.912  31.467  30.472  1.00  0.00    -0.744 OA
ENDBRANCH  85  88
ENDBRANCH  58  81
ENDBRANCH  32  33
ENDBRANCH  25  27
ENDBRANCH  24  25
ENDBRANCH  23  24
ENDBRANCH   1  23
TORSDOF 18
ENDMDL
MODEL 3
REMARK VINA RESULT:     -11.2      5.529     13.488
REMARK SMILES CCc1cccc(C)c1Nc1ccccc1CC(=O)OCCOC(=O)c1ccc(-c2c3nc(c(-c4cccc(S(=O)(=O)[O-])c4F)c4ccc([nH]4)c(-c4cccc(S(=O)(=O)[O-])c4F)c4nc(c(-c5cccc(S(=O)(=O)[O-])c5F)c5ccc2[nH]5)C=C4)C=C3)cc1
REMARK SMILES IDX 21 1 20 2 18 3 19 4 17 5 16 6 11 7 12 8 13 9 15 10 14 11
REMARK SMILES IDX 10 12 9 14 3 15 4 16 5 17 7 18 6 19 8 20 2 21 1 22 22 23
REMARK SMILES IDX 23 24 24 25 25 26 26 27 27 28 88 29 28 30 87 31 29 32 30 33
REMARK SMILES IDX 31 34 81 35 32 36 86 37 80 38 82 39 33 40 85 41 79 42 78 43
REMARK SMILES IDX 34 45 66 46 46 47 65 48 47 49 50 50 64 51 83 52 48 53 49 54
REMARK SMILES IDX 63 56 84 57 51 58 35 59 36 60 44 61 37 62 39 63 45 64 38 65
REMARK SMILES IDX 40 66 41 67 42 68 43 69 67 70 68 71 76 72 69 73 71 74 77 75
REMARK SMILES IDX 70 76 72 77 73 78 74 79 75 80 52 81 53 82 61 83 54 84 56 85
REMARK SMILES IDX 62 86 55 87 57 88 58 89 59 90 60 91
REMARK H PARENT 10 13 82 44 50 55
REMARK Flexibility Score: inf
ROOT
ATOM      1  C   UNL A   1      50.460  22.679  33.628  1.00  0.00     0.274 C 
ENDROOT
BRANCH   1   2
ATOM      2  O   UNL A   1      50.187  21.335  33.151  1.00  0.00    -0.462 OA
BRANCH   2   3
ATOM      3  C   UNL A   1      49.714  20.417  34.009  1.00  0.00     0.310 C 
ATOM      4  O   UNL A   1      50.460  19.677  34.623  1.00  0.00    -0.252 OA
BRANCH   3   5
ATOM      5  C   UNL A   1      48.240  20.240  34.062  1.00  0.00     0.160 C 
BRANCH   5   6
ATOM      6  C   UNL A   1      47.494  20.954  35.184  1.00  0.00    -0.013 A 
ATOM      7  C   UNL A   1      46.824  22.212  35.176  1.00  0.00     0.042 A 
ATOM      8  C   UNL A   1      46.148  22.609  36.345  1.00  0.00     0.026 A 
ATOM      9  C   UNL A   1      46.116  21.818  37.491  1.00  0.00     0.002 A 
ATOM     10  C   UNL A   1      47.508  20.208  36.391  1.00  0.00     0.006 A 
ATOM     11  C   UNL A   1      46.817  20.624  37.523  1.00  0.00     0.000 A 
BRANCH   7  12
ATOM     12  N   UNL A   1      46.830  23.203  34.156  1.00  0.00    -0.355 N 
ATOM     13  H   UNL A   1      47.469  23.014  33.431  1.00  0.00     0.167 HD
BRANCH  12  14
ATOM     14  C   UNL A   1      46.099  24.423  33.968  1.00  0.00     0.045 A 
ATOM     15  C   UNL A   1      46.754  25.682  34.168  1.00  0.00    -0.024 A 
ATOM     16  C   UNL A   1      46.166  26.847  33.613  1.00  0.00     0.006 A 
ATOM     17  C   UNL A   1      44.952  26.816  32.949  1.00  0.00     0.001 A 
ATOM     18  C   UNL A   1      44.783  24.429  33.414  1.00  0.00    -0.027 A 
ATOM     19  C   UNL A   1      44.259  25.620  32.869  1.00  0.00     0.005 A 
ATOM     20  C   UNL A   1      43.946  23.197  33.194  1.00  0.00     0.046 C 
BRANCH  15  21
ATOM     21  C   UNL A   1      48.066  26.003  34.873  1.00  0.00     0.034 C 
ATOM     22  C   UNL A   1      49.031  27.072  34.403  1.00  0.00     0.009 C 
ENDBRANCH  15  21
ENDBRANCH  12  14
ENDBRANCH   7  12
ENDBRANCH   5   6
ENDBRANCH   3   5
ENDBRANCH   2   3
ENDBRANCH   1   2
BRANCH   1  23
ATOM     23  C   UNL A   1      50.484  24.050  32.808  1.00  0.00     0.275 C 
BRANCH  23  24
ATOM     24  O   UNL A   1      49.554  24.651  31.794  1.00  0.00    -0.458 OA
BRANCH  24  25
ATOM     25  C   UNL A   1      49.521  25.687  30.883  1.00  0.00     0.338 C 
ATOM     26  O   UNL A   1      50.302  26.628  30.930  1.00  0.00    -0.246 OA
BRANCH  25  27
ATOM     27  C   UNL A   1      48.488  25.637  29.846  1.00  0.00     0.060 A 
ATOM     28  C   UNL A   1      48.617  25.495  28.457  1.00  0.00     0.016 A 
ATOM     29  C   UNL A   1      47.237  25.663  30.386  1.00  0.00     0.016 A 
ATOM     30  C   UNL A   1      47.444  25.583  27.696  1.00  0.00     0.010 A 
ATOM     31  C   UNL A   1      46.204  25.132  29.702  1.00  0.00     0.010 A 
ATOM     32  C   UNL A   1      46.238  25.526  28.385  1.00  0.00    -0.014 A 
BRANCH  32  33
ATOM     33  C   UNL A   1      45.054  26.383  28.223  1.00  0.00     0.031 A 
ATOM     34  C   UNL A   1      45.226  27.768  28.656  1.00  0.00     0.074 A 
ATOM     35  C   UNL A   1      44.359  26.006  27.104  1.00  0.00     0.049 A 
ATOM     36  N   UNL A   1      44.290  28.475  29.183  1.00  0.00    -0.248 NA
ATOM     37  C   UNL A   1      46.529  28.449  28.596  1.00  0.00     0.031 C 
ATOM     38  C   UNL A   1      43.899  26.760  25.939  1.00  0.00     0.029 A 
ATOM     39  N   UNL A   1      44.203  24.690  26.673  1.00  0.00    -0.354 N 
ATOM     40  C   UNL A   1      44.762  29.766  29.104  1.00  0.00     0.074 A 
ATOM     41  C   UNL A   1      46.206  29.669  29.023  1.00  0.00     0.031 C 
ATOM     42  C   UNL A   1      43.308  25.912  25.063  1.00  0.00     0.029 A 
ATOM     43  C   UNL A   1      43.280  24.575  25.653  1.00  0.00     0.049 A 
ATOM     44  H   UNL A   1      44.696  23.928  27.053  1.00  0.00     0.167 HD
ATOM     45  C   UNL A   1      44.002  30.721  28.499  1.00  0.00     0.034 A 
ATOM     46  C   UNL A   1      42.212  23.746  25.841  1.00  0.00     0.034 A 
ATOM     47  C   UNL A   1      42.907  30.101  27.717  1.00  0.00     0.049 A 
ATOM     48  C   UNL A   1      41.084  24.617  26.384  1.00  0.00     0.074 A 
ATOM     49  C   UNL A   1      42.673  29.974  26.356  1.00  0.00     0.029 A 
ATOM     50  N   UNL A   1      42.015  29.227  28.329  1.00  0.00    -0.354 N 
ATOM     51  N   UNL A   1      41.106  25.924  26.417  1.00  0.00    -0.248 NA
ATOM     52  C   UNL A   1      39.871  24.078  26.985  1.00  0.00     0.031 C 
ATOM     53  C   UNL A   1      41.634  29.015  26.166  1.00  0.00     0.029 A 
ATOM     54  C   UNL A   1      41.234  28.544  27.405  1.00  0.00     0.049 A 
ATOM     55  H   UNL A   1      41.945  29.106  29.304  1.00  0.00     0.167 HD
ATOM     56  C   UNL A   1      40.158  26.366  27.297  1.00  0.00     0.074 A 
ATOM     57  C   UNL A   1      39.316  25.193  27.489  1.00  0.00     0.031 C 
ATOM     58  C   UNL A   1      40.205  27.609  27.876  1.00  0.00     0.034 A 
BRANCH  45  59
ATOM     59  C   UNL A   1      44.449  32.161  28.321  1.00  0.00     0.023 A 
ATOM     60  C   UNL A   1      44.190  33.049  29.383  1.00  0.00     0.012 A 
ATOM     61  C   UNL A   1      45.193  32.687  27.231  1.00  0.00     0.148 A 
ATOM     62  C   UNL A   1      44.576  34.391  29.351  1.00  0.00     0.002 A 
ATOM     63  C   UNL A   1      45.525  34.044  27.170  1.00  0.00     0.091 A 
ATOM     64  F   UNL A   1      45.655  31.866  26.277  1.00  0.00    -0.205 F 
ATOM     65  C   UNL A   1      45.222  34.896  28.234  1.00  0.00     0.022 A 
BRANCH  63  66
ATOM     66  S   UNL A   1      46.308  34.795  25.729  1.00  0.00     0.127 S 
ATOM     67  O   UNL A   1      45.418  34.380  24.642  1.00  0.00    -0.237 OA
ATOM     68  O   UNL A   1      46.252  36.221  26.045  1.00  0.00    -0.237 OA
ATOM     69  O   UNL A   1      47.642  34.214  25.649  1.00  0.00    -0.744 OA
ENDBRANCH  63  66
ENDBRANCH  45  59
BRANCH  46  70
ATOM     70  C   UNL A   1      42.662  22.431  26.460  1.00  0.00     0.023 A 
ATOM     71  C   UNL A   1      41.746  21.778  27.325  1.00  0.00     0.012 A 
ATOM     72  C   UNL A   1      43.658  21.646  25.844  1.00  0.00     0.148 A 
ATOM     73  C   UNL A   1      41.732  20.382  27.441  1.00  0.00     0.002 A 
ATOM     74  C   UNL A   1      43.602  20.252  25.925  1.00  0.00     0.091 A 
ATOM     75  F   UNL A   1      44.559  22.243  25.056  1.00  0.00    -0.205 F 
ATOM     76  C   UNL A   1      42.628  19.615  26.702  1.00  0.00     0.022 A 
BRANCH  74  77
ATOM     77  S   UNL A   1      44.633  19.276  24.817  1.00  0.00     0.127 S 
ATOM     78  O   UNL A   1      44.181  17.905  25.051  1.00  0.00    -0.237 OA
ATOM     79  O   UNL A   1      44.293  19.793  23.498  1.00  0.00    -0.237 OA
ATOM     80  O   UNL A   1      45.973  19.576  25.310  1.00  0.00    -0.744 OA
ENDBRANCH  74  77
ENDBRANCH  46  70
BRANCH  58  81
ATOM     81  C   UNL A   1      39.265  28.067  28.978  1.00  0.00     0.023 A 
ATOM     82  C   UNL A   1      39.368  27.609  30.304  1.00  0.00     0.012 A 
ATOM     83  C   UNL A   1      38.283  29.061  28.728  1.00  0.00     0.148 A 
ATOM     84  C   UNL A   1      38.460  27.999  31.293  1.00  0.00     0.002 A 
ATOM     85  C   UNL A   1      37.488  29.561  29.751  1.00  0.00     0.091 A 
ATOM     86  F   UNL A   1      38.080  29.510  27.481  1.00  0.00    -0.205 F 
ATOM     87  C   UNL A   1      37.529  28.988  31.021  1.00  0.00     0.022 A 
BRANCH  85  88
ATOM     88  S   UNL A   1      36.494  31.038  29.516  1.00  0.00     0.127 S 
ATOM     89  O   UNL A   1      36.007  31.292  30.870  1.00  0.00    -0.237 OA
ATOM     90  O   UNL A   1      37.480  32.005  29.031  1.00  0.00    -0.237 OA
ATOM     91  O   UNL A   1      35.487  30.670  28.530  1.00  0.00    -0.744 OA
ENDBRANCH  85  88
ENDBRANCH  58  81
ENDBRANCH  32  33
ENDBRANCH  25  27
ENDBRANCH  24  25
ENDBRANCH  23  24
ENDBRANCH   1  23
TORSDOF 18
ENDMDL
