MODEL 1
REMARK VINA RESULT:     -11.4      0.000      0.000
REMARK SMILES O=C(CCc1cccnc1)Nc1ccsc1C(=O)OCCOC(=O)c1ccc(-c2c3nc(c(-c4cccc(S(=O)(=O)[O-])c4F)c4ccc([nH]4)c(-c4cccc(S(=O)(=O)[O-])c4F)c4nc(c(-c5cccc(S(=O)(=O)[O-])c5F)c5ccc2[nH]5)C=C4)C=C3)cc1
REMARK SMILES IDX 20 1 19 2 17 3 18 4 16 5 12 6 13 7 14 8 15 9 11 10 1 11 2 12
REMARK SMILES IDX 3 14 4 15 5 16 6 17 10 18 7 19 9 20 8 21 21 22 22 23 23 24
REMARK SMILES IDX 24 25 25 26 26 27 87 28 27 29 86 30 28 31 29 32 30 33 80 34
REMARK SMILES IDX 31 35 85 36 79 37 81 38 32 39 84 40 78 41 77 42 33 44 65 45
REMARK SMILES IDX 45 46 64 47 46 48 49 49 63 50 82 51 47 52 48 53 62 55 83 56
REMARK SMILES IDX 50 57 34 58 35 59 43 60 36 61 38 62 44 63 37 64 39 65 40 66
REMARK SMILES IDX 41 67 42 68 66 69 67 70 75 71 68 72 70 73 76 74 69 75 71 76
REMARK SMILES IDX 72 77 73 78 74 79 51 80 52 81 60 82 53 83 55 84 61 85 54 86
REMARK SMILES IDX 56 87 57 88 58 89 59 90
REMARK H PARENT 11 13 81 43 49 54
REMARK Flexibility Score: inf
ROOT
ATOM      1  C   UNL A   1      31.359  27.865  26.428  1.00  0.00     0.275 C 
ENDROOT
BRANCH   1   2
ATOM      2  O   UNL A   1      32.445  26.910  26.390  1.00  0.00    -0.458 OA
BRANCH   2   3
ATOM      3  C   UNL A   1      32.100  25.606  26.135  1.00  0.00     0.350 C 
ATOM      4  O   UNL A   1      31.344  24.952  26.839  1.00  0.00    -0.245 OA
BRANCH   3   5
ATOM      5  C   UNL A   1      32.728  25.138  24.903  1.00  0.00     0.136 A 
ATOM      6  C   UNL A   1      32.303  25.171  23.581  1.00  0.00     0.066 A 
ATOM      7  C   UNL A   1      33.220  24.487  22.720  1.00  0.00     0.039 A 
ATOM      8  C   UNL A   1      34.332  24.024  23.383  1.00  0.00     0.068 A 
ATOM      9  S   UNL A   1      34.327  24.497  25.016  1.00  0.00    -0.135 S 
BRANCH   6  10
ATOM     10  N   UNL A   1      31.162  25.869  23.192  1.00  0.00    -0.325 N 
ATOM     11  O   UNL A   1      32.106  27.818  22.361  1.00  0.00    -0.275 OA
ATOM     12  C   UNL A   1      31.142  27.188  22.796  1.00  0.00     0.224 C 
ATOM     13  H   UNL A   1      30.307  25.383  23.199  1.00  0.00     0.169 HD
BRANCH  12  14
ATOM     14  C   UNL A   1      29.855  27.946  23.112  1.00  0.00     0.105 C 
BRANCH  14  15
ATOM     15  C   UNL A   1      29.950  29.392  23.593  1.00  0.00     0.047 C 
BRANCH  15  16
ATOM     16  C   UNL A   1      29.213  30.467  22.829  1.00  0.00    -0.029 A 
ATOM     17  C   UNL A   1      28.961  30.453  21.454  1.00  0.00     0.007 A 
ATOM     18  C   UNL A   1      28.778  31.593  23.530  1.00  0.00     0.114 A 
ATOM     19  C   UNL A   1      28.380  31.560  20.838  1.00  0.00     0.020 A 
ATOM     20  N   UNL A   1      28.190  32.671  22.964  1.00  0.00    -0.264 NA
ATOM     21  C   UNL A   1      28.020  32.639  21.626  1.00  0.00     0.111 A 
ENDBRANCH  15  16
ENDBRANCH  14  15
ENDBRANCH  12  14
ENDBRANCH   6  10
ENDBRANCH   3   5
ENDBRANCH   2   3
ENDBRANCH   1   2
BRANCH   1  22
ATOM     22  C   UNL A   1      31.761  29.174  27.107  1.00  0.00     0.275 C 
BRANCH  22  23
ATOM     23  O   UNL A   1      32.796  29.839  26.371  1.00  0.00    -0.458 OA
BRANCH  23  24
ATOM     24  C   UNL A   1      33.164  31.039  26.873  1.00  0.00     0.338 C 
ATOM     25  O   UNL A   1      32.507  32.065  26.906  1.00  0.00    -0.246 OA
BRANCH  24  26
ATOM     26  C   UNL A   1      34.439  30.863  27.573  1.00  0.00     0.060 A 
ATOM     27  C   UNL A   1      34.755  29.574  27.995  1.00  0.00     0.016 A 
ATOM     28  C   UNL A   1      35.293  31.930  27.833  1.00  0.00     0.016 A 
ATOM     29  C   UNL A   1      35.924  29.331  28.699  1.00  0.00     0.010 A 
ATOM     30  C   UNL A   1      36.484  31.684  28.518  1.00  0.00     0.010 A 
ATOM     31  C   UNL A   1      36.802  30.385  28.959  1.00  0.00    -0.014 A 
BRANCH  31  32
ATOM     32  C   UNL A   1      38.055  30.129  29.702  1.00  0.00     0.031 A 
ATOM     33  C   UNL A   1      39.084  29.206  29.123  1.00  0.00     0.074 A 
ATOM     34  C   UNL A   1      38.240  30.706  30.905  1.00  0.00     0.049 A 
ATOM     35  N   UNL A   1      40.160  28.720  29.678  1.00  0.00    -0.248 NA
ATOM     36  C   UNL A   1      38.866  28.764  27.735  1.00  0.00     0.031 C 
ATOM     37  C   UNL A   1      37.313  31.645  31.541  1.00  0.00     0.029 A 
ATOM     38  N   UNL A   1      39.253  30.566  31.819  1.00  0.00    -0.354 N 
ATOM     39  C   UNL A   1      40.719  27.867  28.735  1.00  0.00     0.074 A 
ATOM     40  C   UNL A   1      39.867  27.911  27.565  1.00  0.00     0.031 C 
ATOM     41  C   UNL A   1      37.788  31.978  32.751  1.00  0.00     0.029 A 
ATOM     42  C   UNL A   1      39.012  31.227  33.000  1.00  0.00     0.049 A 
ATOM     43  H   UNL A   1      40.070  30.044  31.646  1.00  0.00     0.167 HD
ATOM     44  C   UNL A   1      41.842  27.120  28.841  1.00  0.00     0.034 A 
ATOM     45  C   UNL A   1      39.673  31.185  34.172  1.00  0.00     0.034 A 
ATOM     46  C   UNL A   1      42.691  27.122  30.002  1.00  0.00     0.049 A 
ATOM     47  C   UNL A   1      40.895  30.315  34.276  1.00  0.00     0.074 A 
ATOM     48  C   UNL A   1      43.882  26.446  30.197  1.00  0.00     0.029 A 
ATOM     49  N   UNL A   1      42.433  27.825  31.169  1.00  0.00    -0.354 N 
ATOM     50  N   UNL A   1      41.462  29.577  33.352  1.00  0.00    -0.248 NA
ATOM     51  C   UNL A   1      41.574  30.277  35.578  1.00  0.00     0.031 C 
ATOM     52  C   UNL A   1      44.326  26.715  31.495  1.00  0.00     0.029 A 
ATOM     53  C   UNL A   1      43.428  27.581  32.099  1.00  0.00     0.049 A 
ATOM     54  H   UNL A   1      41.656  28.413  31.314  1.00  0.00     0.167 HD
ATOM     55  C   UNL A   1      42.573  28.999  33.952  1.00  0.00     0.074 A 
ATOM     56  C   UNL A   1      42.615  29.497  35.313  1.00  0.00     0.031 C 
ATOM     57  C   UNL A   1      43.466  28.121  33.435  1.00  0.00     0.034 A 
BRANCH  44  58
ATOM     58  C   UNL A   1      42.216  26.242  27.677  1.00  0.00     0.023 A 
ATOM     59  C   UNL A   1      43.013  26.757  26.634  1.00  0.00     0.012 A 
ATOM     60  C   UNL A   1      41.817  24.892  27.641  1.00  0.00     0.148 A 
ATOM     61  C   UNL A   1      43.382  25.948  25.560  1.00  0.00     0.002 A 
ATOM     62  C   UNL A   1      42.225  24.080  26.588  1.00  0.00     0.091 A 
ATOM     63  F   UNL A   1      41.040  24.427  28.630  1.00  0.00    -0.205 F 
ATOM     64  C   UNL A   1      42.998  24.609  25.542  1.00  0.00     0.022 A 
BRANCH  62  65
ATOM     65  S   UNL A   1      41.843  22.327  26.509  1.00  0.00     0.127 S 
ATOM     66  O   UNL A   1      42.300  21.866  27.819  1.00  0.00    -0.237 OA
ATOM     67  O   UNL A   1      40.390  22.337  26.339  1.00  0.00    -0.237 OA
ATOM     68  O   UNL A   1      42.585  21.803  25.371  1.00  0.00    -0.744 OA
ENDBRANCH  62  65
ENDBRANCH  44  58
BRANCH  45  69
ATOM     69  C   UNL A   1      39.181  31.979  35.333  1.00  0.00     0.023 A 
ATOM     70  C   UNL A   1      38.266  31.401  36.233  1.00  0.00     0.012 A 
ATOM     71  C   UNL A   1      39.646  33.288  35.576  1.00  0.00     0.148 A 
ATOM     72  C   UNL A   1      37.809  32.116  37.341  1.00  0.00     0.002 A 
ATOM     73  C   UNL A   1      39.233  33.973  36.712  1.00  0.00     0.091 A 
ATOM     74  F   UNL A   1      40.502  33.830  34.697  1.00  0.00    -0.205 F 
ATOM     75  C   UNL A   1      38.302  33.395  37.588  1.00  0.00     0.022 A 
BRANCH  73  76
ATOM     76  S   UNL A   1      39.920  35.567  37.179  1.00  0.00     0.127 S 
ATOM     77  O   UNL A   1      39.188  35.858  38.410  1.00  0.00    -0.237 OA
ATOM     78  O   UNL A   1      41.335  35.243  37.366  1.00  0.00    -0.237 OA
ATOM     79  O   UNL A   1      39.651  36.455  36.057  1.00  0.00    -0.744 OA
ENDBRANCH  73  76
ENDBRANCH  45  69
BRANCH  57  80
ATOM     80  C   UNL A   1      44.572  27.645  34.339  1.00  0.00     0.023 A 
ATOM     81  C   UNL A   1      45.774  28.375  34.408  1.00  0.00     0.012 A 
ATOM     82  C   UNL A   1      44.386  26.530  35.178  1.00  0.00     0.148 A 
ATOM     83  C   UNL A   1      46.786  27.987  35.285  1.00  0.00     0.002 A 
ATOM     84  C   UNL A   1      45.377  26.180  36.085  1.00  0.00     0.091 A 
ATOM     85  F   UNL A   1      43.238  25.843  35.083  1.00  0.00    -0.205 F 
ATOM     86  C   UNL A   1      46.584  26.900  36.131  1.00  0.00     0.022 A 
BRANCH  84  87
ATOM     87  S   UNL A   1      45.172  24.855  37.280  1.00  0.00     0.127 S 
ATOM     88  O   UNL A   1      46.328  25.058  38.151  1.00  0.00    -0.237 OA
ATOM     89  O   UNL A   1      43.884  25.187  37.888  1.00  0.00    -0.237 OA
ATOM     90  O   UNL A   1      45.183  23.616  36.516  1.00  0.00    -0.744 OA
ENDBRANCH  84  87
ENDBRANCH  57  80
ENDBRANCH  31  32
ENDBRANCH  24  26
ENDBRANCH  23  24
ENDBRANCH  22  23
ENDBRANCH   1  22
TORSDOF 18
ENDMDL
MODEL 2
REMARK VINA RESULT:     -11.3      5.687     10.655
REMARK SMILES O=C(CCc1cccnc1)Nc1ccsc1C(=O)OCCOC(=O)c1ccc(-c2c3nc(c(-c4cccc(S(=O)(=O)[O-])c4F)c4ccc([nH]4)c(-c4cccc(S(=O)(=O)[O-])c4F)c4nc(c(-c5cccc(S(=O)(=O)[O-])c5F)c5ccc2[nH]5)C=C4)C=C3)cc1
REMARK SMILES IDX 20 1 19 2 17 3 18 4 16 5 12 6 13 7 14 8 15 9 11 10 1 11 2 12
REMARK SMILES IDX 3 14 4 15 5 16 6 17 10 18 7 19 9 20 8 21 21 22 22 23 23 24
REMARK SMILES IDX 24 25 25 26 26 27 87 28 27 29 86 30 28 31 29 32 30 33 80 34
REMARK SMILES IDX 31 35 85 36 79 37 81 38 32 39 84 40 78 41 77 42 33 44 65 45
REMARK SMILES IDX 45 46 64 47 46 48 49 49 63 50 82 51 47 52 48 53 62 55 83 56
REMARK SMILES IDX 50 57 34 58 35 59 43 60 36 61 38 62 44 63 37 64 39 65 40 66
REMARK SMILES IDX 41 67 42 68 66 69 67 70 75 71 68 72 70 73 76 74 69 75 71 76
REMARK SMILES IDX 72 77 73 78 74 79 51 80 52 81 60 82 53 83 55 84 61 85 54 86
REMARK SMILES IDX 56 87 57 88 58 89 59 90
REMARK H PARENT 11 13 81 43 49 54
REMARK Flexibility Score: inf
ROOT
ATOM      1  C   UNL A   1      36.223  23.132  24.020  1.00  0.00     0.275 C 
ENDROOT
BRANCH   1   2
ATOM      2  O   UNL A   1      35.034  23.325  24.820  1.00  0.00    -0.458 OA
BRANCH   2   3
ATOM      3  C   UNL A   1      34.490  24.585  24.806  1.00  0.00     0.350 C 
ATOM      4  O   UNL A   1      34.660  25.409  25.694  1.00  0.00    -0.245 OA
BRANCH   3   5
ATOM      5  C   UNL A   1      33.724  24.803  23.583  1.00  0.00     0.136 A 
ATOM      6  C   UNL A   1      32.997  23.931  22.782  1.00  0.00     0.066 A 
ATOM      7  C   UNL A   1      32.499  24.588  21.612  1.00  0.00     0.039 A 
ATOM      8  C   UNL A   1      32.788  25.932  21.589  1.00  0.00     0.068 A 
ATOM      9  S   UNL A   1      33.570  26.426  23.016  1.00  0.00    -0.135 S 
BRANCH   6  10
ATOM     10  N   UNL A   1      32.751  22.614  23.163  1.00  0.00    -0.325 N 
ATOM     11  O   UNL A   1      31.019  22.916  24.676  1.00  0.00    -0.275 OA
ATOM     12  C   UNL A   1      31.927  22.235  24.200  1.00  0.00     0.224 C 
ATOM     13  H   UNL A   1      33.197  21.901  22.654  1.00  0.00     0.169 HD
BRANCH  12  14
ATOM     14  C   UNL A   1      32.322  20.944  24.912  1.00  0.00     0.105 C 
BRANCH  14  15
ATOM     15  C   UNL A   1      33.527  20.159  24.399  1.00  0.00     0.047 C 
BRANCH  15  16
ATOM     16  C   UNL A   1      33.631  18.686  24.721  1.00  0.00    -0.029 A 
ATOM     17  C   UNL A   1      34.694  17.853  24.360  1.00  0.00     0.007 A 
ATOM     18  C   UNL A   1      32.569  18.083  25.397  1.00  0.00     0.114 A 
ATOM     19  C   UNL A   1      34.623  16.483  24.603  1.00  0.00     0.020 A 
ATOM     20  N   UNL A   1      32.483  16.761  25.669  1.00  0.00    -0.264 NA
ATOM     21  C   UNL A   1      33.505  15.986  25.250  1.00  0.00     0.111 A 
ENDBRANCH  15  16
ENDBRANCH  14  15
ENDBRANCH  12  14
ENDBRANCH   6  10
ENDBRANCH   3   5
ENDBRANCH   2   3
ENDBRANCH   1   2
BRANCH   1  22
ATOM     22  C   UNL A   1      36.948  21.830  24.362  1.00  0.00     0.275 C 
BRANCH  22  23
ATOM     23  O   UNL A   1      37.312  21.792  25.748  1.00  0.00    -0.458 OA
BRANCH  23  24
ATOM     24  C   UNL A   1      38.576  21.379  25.989  1.00  0.00     0.338 C 
ATOM     25  O   UNL A   1      39.081  20.312  25.684  1.00  0.00    -0.246 OA
BRANCH  24  26
ATOM     26  C   UNL A   1      39.331  22.519  26.515  1.00  0.00     0.060 A 
ATOM     27  C   UNL A   1      38.932  23.787  26.099  1.00  0.00     0.016 A 
ATOM     28  C   UNL A   1      40.415  22.355  27.371  1.00  0.00     0.016 A 
ATOM     29  C   UNL A   1      39.620  24.914  26.518  1.00  0.00     0.010 A 
ATOM     30  C   UNL A   1      41.094  23.491  27.817  1.00  0.00     0.010 A 
ATOM     31  C   UNL A   1      40.703  24.775  27.389  1.00  0.00    -0.014 A 
BRANCH  31  32
ATOM     32  C   UNL A   1      41.434  25.976  27.848  1.00  0.00     0.031 A 
ATOM     33  C   UNL A   1      40.715  27.022  28.643  1.00  0.00     0.074 A 
ATOM     34  C   UNL A   1      42.731  26.125  27.516  1.00  0.00     0.049 A 
ATOM     35  N   UNL A   1      41.118  28.213  28.993  1.00  0.00    -0.248 NA
ATOM     36  C   UNL A   1      39.354  26.687  29.096  1.00  0.00     0.031 C 
ATOM     37  C   UNL A   1      43.530  25.149  26.773  1.00  0.00     0.029 A 
ATOM     38  N   UNL A   1      43.596  27.167  27.736  1.00  0.00    -0.354 N 
ATOM     39  C   UNL A   1      40.044  28.795  29.654  1.00  0.00     0.074 A 
ATOM     40  C   UNL A   1      38.974  27.821  29.667  1.00  0.00     0.031 C 
ATOM     41  C   UNL A   1      44.761  25.647  26.577  1.00  0.00     0.029 A 
ATOM     42  C   UNL A   1      44.814  26.999  27.121  1.00  0.00     0.049 A 
ATOM     43  H   UNL A   1      43.367  27.955  28.280  1.00  0.00     0.167 HD
ATOM     44  C   UNL A   1      39.967  30.030  30.201  1.00  0.00     0.034 A 
ATOM     45  C   UNL A   1      45.837  27.860  26.963  1.00  0.00     0.034 A 
ATOM     46  C   UNL A   1      41.059  30.967  30.208  1.00  0.00     0.049 A 
ATOM     47  C   UNL A   1      45.709  29.241  27.545  1.00  0.00     0.074 A 
ATOM     48  C   UNL A   1      41.109  32.225  30.781  1.00  0.00     0.029 A 
ATOM     49  N   UNL A   1      42.287  30.753  29.601  1.00  0.00    -0.354 N 
ATOM     50  N   UNL A   1      44.722  29.752  28.242  1.00  0.00    -0.248 NA
ATOM     51  C   UNL A   1      46.835  30.159  27.330  1.00  0.00     0.031 C 
ATOM     52  C   UNL A   1      42.358  32.784  30.492  1.00  0.00     0.029 A 
ATOM     53  C   UNL A   1      43.096  31.863  29.763  1.00  0.00     0.049 A 
ATOM     54  H   UNL A   1      42.546  29.930  29.126  1.00  0.00     0.167 HD
ATOM     55  C   UNL A   1      45.112  31.046  28.562  1.00  0.00     0.074 A 
ATOM     56  C   UNL A   1      46.440  31.229  28.009  1.00  0.00     0.031 C 
ATOM     57  C   UNL A   1      44.429  32.005  29.235  1.00  0.00     0.034 A 
BRANCH  44  58
ATOM     58  C   UNL A   1      38.665  30.439  30.836  1.00  0.00     0.023 A 
ATOM     59  C   UNL A   1      38.432  30.172  32.201  1.00  0.00     0.012 A 
ATOM     60  C   UNL A   1      37.691  31.130  30.090  1.00  0.00     0.148 A 
ATOM     61  C   UNL A   1      37.237  30.563  32.805  1.00  0.00     0.002 A 
ATOM     62  C   UNL A   1      36.520  31.554  30.710  1.00  0.00     0.091 A 
ATOM     63  F   UNL A   1      37.920  31.353  28.788  1.00  0.00    -0.205 F 
ATOM     64  C   UNL A   1      36.287  31.261  32.064  1.00  0.00     0.022 A 
BRANCH  62  65
ATOM     65  S   UNL A   1      35.268  32.523  29.862  1.00  0.00     0.127 S 
ATOM     66  O   UNL A   1      34.307  32.768  30.936  1.00  0.00    -0.237 OA
ATOM     67  O   UNL A   1      36.025  33.701  29.440  1.00  0.00    -0.237 OA
ATOM     68  O   UNL A   1      34.784  31.688  28.771  1.00  0.00    -0.744 OA
ENDBRANCH  62  65
ENDBRANCH  44  58
BRANCH  45  69
ATOM     69  C   UNL A   1      47.054  27.441  26.212  1.00  0.00     0.023 A 
ATOM     70  C   UNL A   1      48.014  26.629  26.845  1.00  0.00     0.012 A 
ATOM     71  C   UNL A   1      47.245  27.805  24.864  1.00  0.00     0.148 A 
ATOM     72  C   UNL A   1      49.151  26.204  26.155  1.00  0.00     0.002 A 
ATOM     73  C   UNL A   1      48.349  27.330  24.165  1.00  0.00     0.091 A 
ATOM     74  F   UNL A   1      46.330  28.596  24.284  1.00  0.00    -0.205 F 
ATOM     75  C   UNL A   1      49.311  26.542  24.814  1.00  0.00     0.022 A 
BRANCH  73  76
ATOM     76  S   UNL A   1      48.563  27.603  22.402  1.00  0.00     0.127 S 
ATOM     77  O   UNL A   1      48.661  26.234  21.898  1.00  0.00    -0.237 OA
ATOM     78  O   UNL A   1      47.327  28.302  22.051  1.00  0.00    -0.237 OA
ATOM     79  O   UNL A   1      49.767  28.412  22.273  1.00  0.00    -0.744 OA
ENDBRANCH  73  76
ENDBRANCH  45  69
BRANCH  57  80
ATOM     80  C   UNL A   1      45.106  33.337  29.419  1.00  0.00     0.023 A 
ATOM     81  C   UNL A   1      45.972  33.531  30.512  1.00  0.00     0.012 A 
ATOM     82  C   UNL A   1      44.951  34.360  28.464  1.00  0.00     0.148 A 
ATOM     83  C   UNL A   1      46.657  34.735  30.665  1.00  0.00     0.002 A 
ATOM     84  C   UNL A   1      45.675  35.538  28.596  1.00  0.00     0.091 A 
ATOM     85  F   UNL A   1      44.109  34.157  27.440  1.00  0.00    -0.205 F 
ATOM     86  C   UNL A   1      46.519  35.732  29.703  1.00  0.00     0.022 A 
BRANCH  84  87
ATOM     87  S   UNL A   1      45.637  36.841  27.361  1.00  0.00     0.127 S 
ATOM     88  O   UNL A   1      46.181  36.156  26.189  1.00  0.00    -0.237 OA
ATOM     89  O   UNL A   1      44.208  37.146  27.280  1.00  0.00    -0.237 OA
ATOM     90  O   UNL A   1      46.461  37.920  27.885  1.00  0.00    -0.744 OA
ENDBRANCH  84  87
ENDBRANCH  57  80
ENDBRANCH  31  32
ENDBRANCH  24  26
ENDBRANCH  23  24
ENDBRANCH  22  23
ENDBRANCH   1  22
TORSDOF 18
ENDMDL
MODEL 3
REMARK VINA RESULT:     -11.2      1.634      2.112
REMARK SMILES O=C(CCc1cccnc1)Nc1ccsc1C(=O)OCCOC(=O)c1ccc(-c2c3nc(c(-c4cccc(S(=O)(=O)[O-])c4F)c4ccc([nH]4)c(-c4cccc(S(=O)(=O)[O-])c4F)c4nc(c(-c5cccc(S(=O)(=O)[O-])c5F)c5ccc2[nH]5)C=C4)C=C3)cc1
REMARK SMILES IDX 20 1 19 2 17 3 18 4 16 5 12 6 13 7 14 8 15 9 11 10 1 11 2 12
REMARK SMILES IDX 3 14 4 15 5 16 6 17 10 18 7 19 9 20 8 21 21 22 22 23 23 24
REMARK SMILES IDX 24 25 25 26 26 27 87 28 27 29 86 30 28 31 29 32 30 33 80 34
REMARK SMILES IDX 31 35 85 36 79 37 81 38 32 39 84 40 78 41 77 42 33 44 65 45
REMARK SMILES IDX 45 46 64 47 46 48 49 49 63 50 82 51 47 52 48 53 62 55 83 56
REMARK SMILES IDX 50 57 34 58 35 59 43 60 36 61 38 62 44 63 37 64 39 65 40 66
REMARK SMILES IDX 41 67 42 68 66 69 67 70 75 71 68 72 70 73 76 74 69 75 71 76
REMARK SMILES IDX 72 77 73 78 74 79 51 80 52 81 60 82 53 83 55 84 61 85 54 86
REMARK SMILES IDX 56 87 57 88 58 89 59 90
REMARK H PARENT 11 13 81 43 49 54
REMARK Flexibility Score: inf
ROOT
ATOM      1  C   UNL A   1      32.632  28.235  26.683  1.00  0.00     0.275 C 
ENDROOT
BRANCH   1   2
ATOM      2  O   UNL A   1      33.785  27.718  25.979  1.00  0.00    -0.458 OA
BRANCH   2   3
ATOM      3  C   UNL A   1      33.530  26.839  24.957  1.00  0.00     0.350 C 
ATOM      4  O   UNL A   1      33.523  27.154  23.775  1.00  0.00    -0.245 OA
BRANCH   3   5
ATOM      5  C   UNL A   1      33.307  25.494  25.476  1.00  0.00     0.136 A 
ATOM      6  C   UNL A   1      32.140  24.807  25.790  1.00  0.00     0.066 A 
ATOM      7  C   UNL A   1      32.426  23.533  26.376  1.00  0.00     0.039 A 
ATOM      8  C   UNL A   1      33.772  23.255  26.424  1.00  0.00     0.068 A 
ATOM      9  S   UNL A   1      34.687  24.476  25.675  1.00  0.00    -0.135 S 
BRANCH   6  10
ATOM     10  N   UNL A   1      30.881  25.314  25.476  1.00  0.00    -0.325 N 
ATOM     11  O   UNL A   1      30.516  24.321  23.412  1.00  0.00    -0.275 OA
ATOM     12  C   UNL A   1      30.264  25.185  24.252  1.00  0.00     0.224 C 
ATOM     13  H   UNL A   1      30.397  25.799  26.181  1.00  0.00     0.169 HD
BRANCH  12  14
ATOM     14  C   UNL A   1      29.332  26.331  23.865  1.00  0.00     0.105 C 
BRANCH  14  15
ATOM     15  C   UNL A   1      29.910  27.531  23.121  1.00  0.00     0.047 C 
BRANCH  15  16
ATOM     16  C   UNL A   1      29.194  28.860  23.206  1.00  0.00    -0.029 A 
ATOM     17  C   UNL A   1      29.801  30.088  23.481  1.00  0.00     0.007 A 
ATOM     18  C   UNL A   1      27.808  28.872  23.041  1.00  0.00     0.114 A 
ATOM     19  C   UNL A   1      29.020  31.230  23.658  1.00  0.00     0.020 A 
ATOM     20  N   UNL A   1      27.028  29.967  23.182  1.00  0.00    -0.264 NA
ATOM     21  C   UNL A   1      27.649  31.120  23.506  1.00  0.00     0.111 A 
ENDBRANCH  15  16
ENDBRANCH  14  15
ENDBRANCH  12  14
ENDBRANCH   6  10
ENDBRANCH   3   5
ENDBRANCH   2   3
ENDBRANCH   1   2
BRANCH   1  22
ATOM     22  C   UNL A   1      32.327  29.687  26.312  1.00  0.00     0.275 C 
BRANCH  22  23
ATOM     23  O   UNL A   1      33.532  30.456  26.214  1.00  0.00    -0.458 OA
BRANCH  23  24
ATOM     24  C   UNL A   1      33.719  31.342  27.218  1.00  0.00     0.338 C 
ATOM     25  O   UNL A   1      32.955  32.214  27.593  1.00  0.00    -0.246 OA
BRANCH  24  26
ATOM     26  C   UNL A   1      34.936  30.957  27.938  1.00  0.00     0.060 A 
ATOM     27  C   UNL A   1      35.956  31.903  28.005  1.00  0.00     0.016 A 
ATOM     28  C   UNL A   1      35.089  29.698  28.509  1.00  0.00     0.016 A 
ATOM     29  C   UNL A   1      37.155  31.601  28.632  1.00  0.00     0.010 A 
ATOM     30  C   UNL A   1      36.284  29.401  29.166  1.00  0.00     0.010 A 
ATOM     31  C   UNL A   1      37.325  30.348  29.225  1.00  0.00    -0.014 A 
BRANCH  31  32
ATOM     32  C   UNL A   1      38.599  30.025  29.904  1.00  0.00     0.031 A 
ATOM     33  C   UNL A   1      39.547  29.052  29.273  1.00  0.00     0.074 A 
ATOM     34  C   UNL A   1      38.873  30.589  31.096  1.00  0.00     0.049 A 
ATOM     35  N   UNL A   1      40.624  28.509  29.774  1.00  0.00    -0.248 NA
ATOM     36  C   UNL A   1      39.238  28.625  27.899  1.00  0.00     0.031 C 
ATOM     37  C   UNL A   1      38.029  31.574  31.778  1.00  0.00     0.029 A 
ATOM     38  N   UNL A   1      39.922  30.395  31.957  1.00  0.00    -0.354 N 
ATOM     39  C   UNL A   1      41.089  27.631  28.804  1.00  0.00     0.074 A 
ATOM     40  C   UNL A   1      40.183  27.722  27.678  1.00  0.00     0.031 C 
ATOM     41  C   UNL A   1      38.582  31.878  32.962  1.00  0.00     0.029 A 
ATOM     42  C   UNL A   1      39.776  31.065  33.149  1.00  0.00     0.049 A 
ATOM     43  H   UNL A   1      40.702  29.832  31.743  1.00  0.00     0.167 HD
ATOM     44  C   UNL A   1      42.176  26.826  28.853  1.00  0.00     0.034 A 
ATOM     45  C   UNL A   1      40.493  30.985  34.286  1.00  0.00     0.034 A 
ATOM     46  C   UNL A   1      43.082  26.782  29.970  1.00  0.00     0.049 A 
ATOM     47  C   UNL A   1      41.672  30.053  34.329  1.00  0.00     0.074 A 
ATOM     48  C   UNL A   1      44.244  26.044  30.104  1.00  0.00     0.029 A 
ATOM     49  N   UNL A   1      42.920  27.495  31.148  1.00  0.00    -0.354 N 
ATOM     50  N   UNL A   1      42.152  29.290  33.377  1.00  0.00    -0.248 NA
ATOM     51  C   UNL A   1      42.413  29.977  35.594  1.00  0.00     0.031 C 
ATOM     52  C   UNL A   1      44.767  26.287  31.379  1.00  0.00     0.029 A 
ATOM     53  C   UNL A   1      43.946  27.198  32.027  1.00  0.00     0.049 A 
ATOM     54  H   UNL A   1      42.182  28.121  31.332  1.00  0.00     0.167 HD
ATOM     55  C   UNL A   1      43.260  28.653  33.920  1.00  0.00     0.074 A 
ATOM     56  C   UNL A   1      43.398  29.145  35.277  1.00  0.00     0.031 C 
ATOM     57  C   UNL A   1      44.080  27.731  33.359  1.00  0.00     0.034 A 
BRANCH  44  58
ATOM     58  C   UNL A   1      42.445  25.933  27.672  1.00  0.00     0.023 A 
ATOM     59  C   UNL A   1      43.220  26.405  26.594  1.00  0.00     0.012 A 
ATOM     60  C   UNL A   1      41.968  24.608  27.653  1.00  0.00     0.148 A 
ATOM     61  C   UNL A   1      43.493  25.581  25.502  1.00  0.00     0.002 A 
ATOM     62  C   UNL A   1      42.279  23.778  26.581  1.00  0.00     0.091 A 
ATOM     63  F   UNL A   1      41.212  24.185  28.676  1.00  0.00    -0.205 F 
ATOM     64  C   UNL A   1      43.032  24.267  25.501  1.00  0.00     0.022 A 
BRANCH  62  65
ATOM     65  S   UNL A   1      41.794  22.050  26.518  1.00  0.00     0.127 S 
ATOM     66  O   UNL A   1      40.354  22.156  26.292  1.00  0.00    -0.237 OA
ATOM     67  O   UNL A   1      42.558  21.559  25.370  1.00  0.00    -0.237 OA
ATOM     68  O   UNL A   1      42.183  21.476  27.798  1.00  0.00    -0.744 OA
ENDBRANCH  62  65
ENDBRANCH  44  58
BRANCH  45  69
ATOM     69  C   UNL A   1      40.102  31.801  35.471  1.00  0.00     0.023 A 
ATOM     70  C   UNL A   1      40.701  33.059  35.675  1.00  0.00     0.012 A 
ATOM     71  C   UNL A   1      39.111  31.359  36.371  1.00  0.00     0.148 A 
ATOM     72  C   UNL A   1      40.334  33.852  36.764  1.00  0.00     0.002 A 
ATOM     73  C   UNL A   1      38.708  32.179  37.418  1.00  0.00     0.091 A 
ATOM     74  F   UNL A   1      38.566  30.150  36.171  1.00  0.00    -0.205 F 
ATOM     75  C   UNL A   1      39.330  33.419  37.626  1.00  0.00     0.022 A 
BRANCH  73  76
ATOM     76  S   UNL A   1      37.330  31.761  38.494  1.00  0.00     0.127 S 
ATOM     77  O   UNL A   1      37.072  30.372  38.122  1.00  0.00    -0.237 OA
ATOM     78  O   UNL A   1      37.916  31.945  39.821  1.00  0.00    -0.237 OA
ATOM     79  O   UNL A   1      36.274  32.710  38.167  1.00  0.00    -0.744 OA
ENDBRANCH  73  76
ENDBRANCH  45  69
BRANCH  57  80
ATOM     80  C   UNL A   1      45.204  27.197  34.205  1.00  0.00     0.023 A 
ATOM     81  C   UNL A   1      46.438  27.875  34.231  1.00  0.00     0.012 A 
ATOM     82  C   UNL A   1      45.008  26.078  35.038  1.00  0.00     0.148 A 
ATOM     83  C   UNL A   1      47.470  27.433  35.056  1.00  0.00     0.002 A 
ATOM     84  C   UNL A   1      46.024  25.673  35.894  1.00  0.00     0.091 A 
ATOM     85  F   UNL A   1      43.829  25.440  34.985  1.00  0.00    -0.205 F 
ATOM     86  C   UNL A   1      47.260  26.342  35.895  1.00  0.00     0.022 A 
BRANCH  84  87
ATOM     87  S   UNL A   1      45.816  24.340  37.080  1.00  0.00     0.127 S 
ATOM     88  O   UNL A   1      45.368  23.245  36.221  1.00  0.00    -0.237 OA
ATOM     89  O   UNL A   1      47.171  24.186  37.609  1.00  0.00    -0.237 OA
ATOM     90  O   UNL A   1      44.834  24.809  38.048  1.00  0.00    -0.744 OA
ENDBRANCH  84  87
ENDBRANCH  57  80
ENDBRANCH  31  32
ENDBRANCH  24  26
ENDBRANCH  23  24
ENDBRANCH  22  23
ENDBRANCH   1  22
TORSDOF 18
ENDMDL
