MODEL 1
REMARK VINA RESULT:     -12.5      0.000      0.000
REMARK SMILES CC1=C[C@H](C)[C@@H](C(=O)OCCOC(=O)c2ccc(-c3c4nc(c(-c5cccc(S(=O)(=O)[O-])c5F)c5ccc([nH]5)c(-c5cccc(S(=O)(=O)[O-])c5F)c5nc(c(-c6cccc(S(=O)(=O)[O-])c6F)c6ccc3[nH]6)C=C5)C=C4)cc2)[C@H](C(=O)Nc2cccnc2)C1
REMARK SMILES IDX 11 1 10 2 9 3 7 4 8 5 6 6 1 7 2 8 3 9 88 10 4 11 78 12 5 13
REMARK SMILES IDX 79 14 80 15 81 16 82 18 83 19 87 20 84 21 86 22 85 23 12 24
REMARK SMILES IDX 13 25 14 26 15 27 16 28 77 29 17 30 76 31 18 32 19 33 20 34
REMARK SMILES IDX 70 35 21 36 75 37 69 38 71 39 22 40 74 41 68 42 67 43 23 45
REMARK SMILES IDX 55 46 35 47 54 48 36 49 39 50 53 51 72 52 37 53 38 54 52 56
REMARK SMILES IDX 73 57 40 58 24 59 25 60 33 61 26 62 28 63 34 64 27 65 29 66
REMARK SMILES IDX 30 67 31 68 32 69 56 70 57 71 65 72 58 73 60 74 66 75 59 76
REMARK SMILES IDX 61 77 62 78 63 79 64 80 41 81 42 82 50 83 43 84 45 85 51 86
REMARK SMILES IDX 44 87 46 88 47 89 48 90 49 91
REMARK H PARENT 81 17 71 44 39 55
REMARK Flexibility Score: inf
ROOT
ATOM      1  C   UNL A   1      36.540  20.534  25.193  1.00  0.00     0.275 C 
ENDROOT
BRANCH   1   2
ATOM      2  C   UNL A   1      35.305  21.238  24.624  1.00  0.00     0.274 C 
BRANCH   2   3
ATOM      3  O   UNL A   1      34.131  20.402  24.597  1.00  0.00    -0.462 OA
BRANCH   3   4
ATOM      4  C   UNL A   1      32.979  20.997  25.010  1.00  0.00     0.310 C 
ATOM      5  O   UNL A   1      31.914  20.412  25.170  1.00  0.00    -0.252 OA
BRANCH   4   6
ATOM      6  C   UNL A   1      33.084  22.517  25.082  1.00  0.00     0.118 C 
ATOM      7  C   UNL A   1      29.833  25.467  25.871  1.00  0.00     0.039 C 
ATOM      8  C   UNL A   1      30.913  24.447  25.654  1.00  0.00    -0.076 C 
ATOM      9  C   UNL A   1      31.668  23.988  26.663  1.00  0.00    -0.024 C 
ATOM     10  C   UNL A   1      31.041  23.926  24.251  1.00  0.00     0.044 C 
ATOM     11  C   UNL A   1      32.636  22.850  26.529  1.00  0.00     0.023 C 
ATOM     12  C   UNL A   1      32.363  23.230  23.915  1.00  0.00     0.097 C 
ATOM     13  C   UNL A   1      33.851  22.979  27.467  1.00  0.00     0.013 C 
BRANCH  12  14
ATOM     14  C   UNL A   1      33.265  24.065  22.972  1.00  0.00     0.228 C 
ATOM     15  O   UNL A   1      33.900  23.495  22.078  1.00  0.00    -0.274 OA
ATOM     16  N   UNL A   1      33.308  25.427  22.960  1.00  0.00    -0.324 N 
ATOM     17  H   UNL A   1      33.471  25.822  22.073  1.00  0.00     0.169 HD
BRANCH  16  18
ATOM     18  C   UNL A   1      33.160  26.361  23.988  1.00  0.00     0.059 A 
ATOM     19  C   UNL A   1      33.963  26.338  25.114  1.00  0.00     0.029 A 
ATOM     20  C   UNL A   1      32.289  27.436  23.851  1.00  0.00     0.137 A 
ATOM     21  C   UNL A   1      33.797  27.294  26.113  1.00  0.00     0.022 A 
ATOM     22  N   UNL A   1      32.093  28.383  24.802  1.00  0.00    -0.263 NA
ATOM     23  C   UNL A   1      32.844  28.277  25.920  1.00  0.00     0.111 A 
ENDBRANCH  16  18
ENDBRANCH  12  14
ENDBRANCH   4   6
ENDBRANCH   3   4
ENDBRANCH   2   3
ENDBRANCH   1   2
BRANCH   1  24
ATOM     24  O   UNL A   1      37.747  21.279  24.969  1.00  0.00    -0.458 OA
BRANCH  24  25
ATOM     25  C   UNL A   1      38.795  20.894  25.738  1.00  0.00     0.338 C 
ATOM     26  O   UNL A   1      39.256  19.769  25.826  1.00  0.00    -0.246 OA
BRANCH  25  27
ATOM     27  C   UNL A   1      39.422  22.077  26.354  1.00  0.00     0.060 A 
ATOM     28  C   UNL A   1      38.912  23.332  26.020  1.00  0.00     0.016 A 
ATOM     29  C   UNL A   1      40.543  21.968  27.173  1.00  0.00     0.016 A 
ATOM     30  C   UNL A   1      39.522  24.492  26.479  1.00  0.00     0.010 A 
ATOM     31  C   UNL A   1      41.160  23.136  27.638  1.00  0.00     0.010 A 
ATOM     32  C   UNL A   1      40.662  24.402  27.279  1.00  0.00    -0.014 A 
BRANCH  32  33
ATOM     33  C   UNL A   1      41.378  25.638  27.670  1.00  0.00     0.031 A 
ATOM     34  C   UNL A   1      40.654  26.687  28.463  1.00  0.00     0.074 A 
ATOM     35  C   UNL A   1      42.665  25.816  27.314  1.00  0.00     0.049 A 
ATOM     36  N   UNL A   1      41.041  27.893  28.784  1.00  0.00    -0.248 NA
ATOM     37  C   UNL A   1      39.311  26.333  28.955  1.00  0.00     0.031 C 
ATOM     38  C   UNL A   1      43.478  24.849  26.578  1.00  0.00     0.029 A 
ATOM     39  N   UNL A   1      43.502  26.887  27.501  1.00  0.00    -0.354 N 
ATOM     40  C   UNL A   1      39.970  28.466  29.458  1.00  0.00     0.074 A 
ATOM     41  C   UNL A   1      38.923  27.469  29.519  1.00  0.00     0.031 C 
ATOM     42  C   UNL A   1      44.688  25.383  26.345  1.00  0.00     0.029 A 
ATOM     43  C   UNL A   1      44.718  26.743  26.876  1.00  0.00     0.049 A 
ATOM     44  H   UNL A   1      43.257  27.679  28.032  1.00  0.00     0.167 HD
ATOM     45  C   UNL A   1      39.875  29.710  29.981  1.00  0.00     0.034 A 
ATOM     46  C   UNL A   1      45.724  27.625  26.713  1.00  0.00     0.034 A 
ATOM     47  C   UNL A   1      40.943  30.671  29.968  1.00  0.00     0.049 A 
ATOM     48  C   UNL A   1      45.589  29.002  27.309  1.00  0.00     0.074 A 
ATOM     49  C   UNL A   1      40.962  31.943  30.514  1.00  0.00     0.029 A 
ATOM     50  N   UNL A   1      42.183  30.468  29.382  1.00  0.00    -0.354 N 
ATOM     51  N   UNL A   1      44.603  29.504  28.012  1.00  0.00    -0.248 NA
ATOM     52  C   UNL A   1      46.714  29.928  27.110  1.00  0.00     0.031 C 
ATOM     53  C   UNL A   1      42.211  32.514  30.247  1.00  0.00     0.029 A 
ATOM     54  C   UNL A   1      42.974  31.591  29.549  1.00  0.00     0.049 A 
ATOM     55  H   UNL A   1      42.460  29.646  28.917  1.00  0.00     0.167 HD
ATOM     56  C   UNL A   1      44.999  30.790  28.362  1.00  0.00     0.074 A 
ATOM     57  C   UNL A   1      46.326  30.981  27.816  1.00  0.00     0.031 C 
ATOM     58  C   UNL A   1      44.318  31.736  29.054  1.00  0.00     0.034 A 
BRANCH  45  59
ATOM     59  C   UNL A   1      38.576  30.106  30.630  1.00  0.00     0.023 A 
ATOM     60  C   UNL A   1      38.337  29.776  31.978  1.00  0.00     0.012 A 
ATOM     61  C   UNL A   1      37.628  30.874  29.925  1.00  0.00     0.148 A 
ATOM     62  C   UNL A   1      37.165  30.188  32.610  1.00  0.00     0.002 A 
ATOM     63  C   UNL A   1      36.481  31.314  30.572  1.00  0.00     0.091 A 
ATOM     64  F   UNL A   1      37.867  31.158  28.636  1.00  0.00    -0.205 F 
ATOM     65  C   UNL A   1      36.244  30.966  31.912  1.00  0.00     0.022 A 
BRANCH  63  66
ATOM     66  S   UNL A   1      35.270  32.382  29.784  1.00  0.00     0.127 S 
ATOM     67  O   UNL A   1      34.747  31.511  28.731  1.00  0.00    -0.237 OA
ATOM     68  O   UNL A   1      34.335  32.647  30.877  1.00  0.00    -0.237 OA
ATOM     69  O   UNL A   1      36.005  33.550  29.317  1.00  0.00    -0.744 OA
ENDBRANCH  63  66
ENDBRANCH  45  59
BRANCH  46  70
ATOM     70  C   UNL A   1      46.948  27.233  25.958  1.00  0.00     0.023 A 
ATOM     71  C   UNL A   1      47.938  26.459  26.592  1.00  0.00     0.012 A 
ATOM     72  C   UNL A   1      47.131  27.610  24.613  1.00  0.00     0.148 A 
ATOM     73  C   UNL A   1      49.100  26.092  25.912  1.00  0.00     0.002 A 
ATOM     74  C   UNL A   1      48.264  27.192  23.923  1.00  0.00     0.091 A 
ATOM     75  F   UNL A   1      46.194  28.371  24.029  1.00  0.00    -0.205 F 
ATOM     76  C   UNL A   1      49.258  26.448  24.575  1.00  0.00     0.022 A 
BRANCH  74  77
ATOM     77  S   UNL A   1      48.468  27.495  22.164  1.00  0.00     0.127 S 
ATOM     78  O   UNL A   1      47.218  28.170  21.827  1.00  0.00    -0.237 OA
ATOM     79  O   UNL A   1      49.656  28.350  22.134  1.00  0.00    -0.237 OA
ATOM     80  O   UNL A   1      48.668  26.180  21.569  1.00  0.00    -0.744 OA
ENDBRANCH  74  77
ENDBRANCH  46  70
BRANCH  58  81
ATOM     81  C   UNL A   1      45.005  33.054  29.294  1.00  0.00     0.023 A 
ATOM     82  C   UNL A   1      45.797  33.227  30.445  1.00  0.00     0.012 A 
ATOM     83  C   UNL A   1      44.931  34.089  28.340  1.00  0.00     0.148 A 
ATOM     84  C   UNL A   1      46.484  34.421  30.658  1.00  0.00     0.002 A 
ATOM     85  C   UNL A   1      45.654  35.259  28.537  1.00  0.00     0.091 A 
ATOM     86  F   UNL A   1      44.156  33.911  27.260  1.00  0.00    -0.205 F 
ATOM     87  C   UNL A   1      46.423  35.430  29.700  1.00  0.00     0.022 A 
BRANCH  85  88
ATOM     88  S   UNL A   1      45.706  36.571  27.311  1.00  0.00     0.127 S 
ATOM     89  O   UNL A   1      44.305  36.979  27.251  1.00  0.00    -0.237 OA
ATOM     90  O   UNL A   1      46.601  37.547  27.935  1.00  0.00    -0.237 OA
ATOM     91  O   UNL A   1      46.236  35.961  26.098  1.00  0.00    -0.744 OA
ENDBRANCH  85  88
ENDBRANCH  58  81
ENDBRANCH  32  33
ENDBRANCH  25  27
ENDBRANCH  24  25
ENDBRANCH   1  24
TORSDOF 16
ENDMDL
MODEL 2
REMARK VINA RESULT:     -12.4      1.548      1.956
REMARK SMILES CC1=C[C@H](C)[C@@H](C(=O)OCCOC(=O)c2ccc(-c3c4nc(c(-c5cccc(S(=O)(=O)[O-])c5F)c5ccc([nH]5)c(-c5cccc(S(=O)(=O)[O-])c5F)c5nc(c(-c6cccc(S(=O)(=O)[O-])c6F)c6ccc3[nH]6)C=C5)C=C4)cc2)[C@H](C(=O)Nc2cccnc2)C1
REMARK SMILES IDX 11 1 10 2 9 3 7 4 8 5 6 6 1 7 2 8 3 9 88 10 4 11 78 12 5 13
REMARK SMILES IDX 79 14 80 15 81 16 82 18 83 19 87 20 84 21 86 22 85 23 12 24
REMARK SMILES IDX 13 25 14 26 15 27 16 28 77 29 17 30 76 31 18 32 19 33 20 34
REMARK SMILES IDX 70 35 21 36 75 37 69 38 71 39 22 40 74 41 68 42 67 43 23 45
REMARK SMILES IDX 55 46 35 47 54 48 36 49 39 50 53 51 72 52 37 53 38 54 52 56
REMARK SMILES IDX 73 57 40 58 24 59 25 60 33 61 26 62 28 63 34 64 27 65 29 66
REMARK SMILES IDX 30 67 31 68 32 69 56 70 57 71 65 72 58 73 60 74 66 75 59 76
REMARK SMILES IDX 61 77 62 78 63 79 64 80 41 81 42 82 50 83 43 84 45 85 51 86
REMARK SMILES IDX 44 87 46 88 47 89 48 90 49 91
REMARK H PARENT 81 17 71 44 39 55
REMARK Flexibility Score: inf
ROOT
ATOM      1  C   UNL A   1      36.051  21.118  25.636  1.00  0.00     0.275 C 
ENDROOT
BRANCH   1   2
ATOM      2  C   UNL A   1      34.918  21.123  24.605  1.00  0.00     0.274 C 
BRANCH   2   3
ATOM      3  O   UNL A   1      34.195  22.368  24.554  1.00  0.00    -0.462 OA
BRANCH   3   4
ATOM      4  C   UNL A   1      34.536  23.201  23.533  1.00  0.00     0.310 C 
ATOM      5  O   UNL A   1      35.390  22.953  22.690  1.00  0.00    -0.252 OA
BRANCH   4   6
ATOM      6  C   UNL A   1      33.878  24.574  23.636  1.00  0.00     0.118 C 
ATOM      7  C   UNL A   1      29.832  25.576  25.220  1.00  0.00     0.039 C 
ATOM      8  C   UNL A   1      31.205  25.212  24.736  1.00  0.00    -0.076 C 
ATOM      9  C   UNL A   1      32.277  25.267  25.540  1.00  0.00    -0.024 C 
ATOM     10  C   UNL A   1      31.285  24.717  23.321  1.00  0.00     0.044 C 
ATOM     11  C   UNL A   1      33.633  24.751  25.157  1.00  0.00     0.023 C 
ATOM     12  C   UNL A   1      32.676  24.744  22.680  1.00  0.00     0.097 C 
ATOM     13  C   UNL A   1      34.784  25.537  25.814  1.00  0.00     0.013 C 
BRANCH  12  14
ATOM     14  C   UNL A   1      32.823  25.841  21.596  1.00  0.00     0.228 C 
ATOM     15  O   UNL A   1      33.254  25.536  20.479  1.00  0.00    -0.274 OA
ATOM     16  N   UNL A   1      32.374  27.120  21.735  1.00  0.00    -0.324 N 
ATOM     17  H   UNL A   1      32.058  27.533  20.899  1.00  0.00     0.169 HD
BRANCH  16  18
ATOM     18  C   UNL A   1      32.284  27.947  22.857  1.00  0.00     0.059 A 
ATOM     19  C   UNL A   1      33.398  28.288  23.602  1.00  0.00     0.029 A 
ATOM     20  C   UNL A   1      31.086  28.571  23.184  1.00  0.00     0.137 A 
ATOM     21  C   UNL A   1      33.273  29.127  24.706  1.00  0.00     0.022 A 
ATOM     22  N   UNL A   1      30.920  29.387  24.255  1.00  0.00    -0.263 NA
ATOM     23  C   UNL A   1      32.020  29.632  25.000  1.00  0.00     0.111 A 
ENDBRANCH  16  18
ENDBRANCH  12  14
ENDBRANCH   4   6
ENDBRANCH   3   4
ENDBRANCH   2   3
ENDBRANCH   1   2
BRANCH   1  24
ATOM     24  O   UNL A   1      37.261  21.697  25.123  1.00  0.00    -0.458 OA
BRANCH  24  25
ATOM     25  C   UNL A   1      38.390  21.285  25.751  1.00  0.00     0.338 C 
ATOM     26  O   UNL A   1      38.872  20.166  25.718  1.00  0.00    -0.246 OA
BRANCH  25  27
ATOM     27  C   UNL A   1      39.063  22.438  26.372  1.00  0.00     0.060 A 
ATOM     28  C   UNL A   1      38.610  23.715  26.037  1.00  0.00     0.016 A 
ATOM     29  C   UNL A   1      40.174  22.280  27.197  1.00  0.00     0.016 A 
ATOM     30  C   UNL A   1      39.266  24.847  26.502  1.00  0.00     0.010 A 
ATOM     31  C   UNL A   1      40.838  23.420  27.668  1.00  0.00     0.010 A 
ATOM     32  C   UNL A   1      40.397  24.707  27.308  1.00  0.00    -0.014 A 
BRANCH  32  33
ATOM     33  C   UNL A   1      41.163  25.911  27.704  1.00  0.00     0.031 A 
ATOM     34  C   UNL A   1      40.488  26.977  28.517  1.00  0.00     0.074 A 
ATOM     35  C   UNL A   1      42.452  26.044  27.336  1.00  0.00     0.049 A 
ATOM     36  N   UNL A   1      40.924  28.163  28.847  1.00  0.00    -0.248 NA
ATOM     37  C   UNL A   1      39.138  26.668  29.020  1.00  0.00     0.031 C 
ATOM     38  C   UNL A   1      43.220  25.056  26.580  1.00  0.00     0.029 A 
ATOM     39  N   UNL A   1      43.331  27.080  27.526  1.00  0.00    -0.354 N 
ATOM     40  C   UNL A   1      39.882  28.769  29.539  1.00  0.00     0.074 A 
ATOM     41  C   UNL A   1      38.799  27.812  29.600  1.00  0.00     0.031 C 
ATOM     42  C   UNL A   1      44.447  25.546  26.341  1.00  0.00     0.029 A 
ATOM     43  C   UNL A   1      44.535  26.897  26.886  1.00  0.00     0.049 A 
ATOM     44  H   UNL A   1      43.122  27.875  28.069  1.00  0.00     0.167 HD
ATOM     45  C   UNL A   1      39.840  30.009  30.077  1.00  0.00     0.034 A 
ATOM     46  C   UNL A   1      45.572  27.743  26.722  1.00  0.00     0.034 A 
ATOM     47  C   UNL A   1      40.944  30.930  30.063  1.00  0.00     0.049 A 
ATOM     48  C   UNL A   1      45.495  29.117  27.335  1.00  0.00     0.074 A 
ATOM     49  C   UNL A   1      41.017  32.193  30.622  1.00  0.00     0.029 A 
ATOM     50  N   UNL A   1      42.169  30.687  29.461  1.00  0.00    -0.354 N 
ATOM     51  N   UNL A   1      44.536  29.648  28.054  1.00  0.00    -0.248 NA
ATOM     52  C   UNL A   1      46.652  30.002  27.134  1.00  0.00     0.031 C 
ATOM     53  C   UNL A   1      42.283  32.720  30.348  1.00  0.00     0.029 A 
ATOM     54  C   UNL A   1      43.003  31.777  29.632  1.00  0.00     0.049 A 
ATOM     55  H   UNL A   1      42.409  29.861  28.984  1.00  0.00     0.167 HD
ATOM     56  C   UNL A   1      44.984  30.913  28.414  1.00  0.00     0.074 A 
ATOM     57  C   UNL A   1      46.312  31.061  27.856  1.00  0.00     0.031 C 
ATOM     58  C   UNL A   1      44.347  31.877  29.123  1.00  0.00     0.034 A 
BRANCH  45  59
ATOM     59  C   UNL A   1      38.564  30.447  30.744  1.00  0.00     0.023 A 
ATOM     60  C   UNL A   1      38.379  30.217  32.121  1.00  0.00     0.012 A 
ATOM     61  C   UNL A   1      37.584  31.155  30.021  1.00  0.00     0.148 A 
ATOM     62  C   UNL A   1      37.229  30.671  32.766  1.00  0.00     0.002 A 
ATOM     63  C   UNL A   1      36.459  31.637  30.678  1.00  0.00     0.091 A 
ATOM     64  F   UNL A   1      37.771  31.342  28.706  1.00  0.00    -0.205 F 
ATOM     65  C   UNL A   1      36.276  31.389  32.048  1.00  0.00     0.022 A 
BRANCH  63  66
ATOM     66  S   UNL A   1      35.210  32.637  29.859  1.00  0.00     0.127 S 
ATOM     67  O   UNL A   1      34.283  32.909  30.957  1.00  0.00    -0.237 OA
ATOM     68  O   UNL A   1      35.986  33.794  29.414  1.00  0.00    -0.237 OA
ATOM     69  O   UNL A   1      34.675  31.813  28.783  1.00  0.00    -0.744 OA
ENDBRANCH  63  66
ENDBRANCH  45  59
BRANCH  46  70
ATOM     70  C   UNL A   1      46.771  27.314  25.949  1.00  0.00     0.023 A 
ATOM     71  C   UNL A   1      46.824  27.548  24.561  1.00  0.00     0.012 A 
ATOM     72  C   UNL A   1      47.864  26.689  26.580  1.00  0.00     0.148 A 
ATOM     73  C   UNL A   1      47.930  27.141  23.813  1.00  0.00     0.002 A 
ATOM     74  C   UNL A   1      48.987  26.339  25.838  1.00  0.00     0.091 A 
ATOM     75  F   UNL A   1      47.789  26.447  27.897  1.00  0.00    -0.205 F 
ATOM     76  C   UNL A   1      49.015  26.548  24.451  1.00  0.00     0.022 A 
BRANCH  74  77
ATOM     77  S   UNL A   1      50.476  25.699  26.615  1.00  0.00     0.127 S 
ATOM     78  O   UNL A   1      51.380  25.574  25.475  1.00  0.00    -0.237 OA
ATOM     79  O   UNL A   1      50.816  26.768  27.556  1.00  0.00    -0.237 OA
ATOM     80  O   UNL A   1      50.070  24.454  27.252  1.00  0.00    -0.744 OA
ENDBRANCH  74  77
ENDBRANCH  46  70
BRANCH  58  81
ATOM     81  C   UNL A   1      45.086  33.165  29.370  1.00  0.00     0.023 A 
ATOM     82  C   UNL A   1      45.915  33.286  30.502  1.00  0.00     0.012 A 
ATOM     83  C   UNL A   1      45.021  34.222  28.441  1.00  0.00     0.148 A 
ATOM     84  C   UNL A   1      46.649  34.451  30.720  1.00  0.00     0.002 A 
ATOM     85  C   UNL A   1      45.791  35.362  28.640  1.00  0.00     0.091 A 
ATOM     86  F   UNL A   1      44.211  34.094  27.380  1.00  0.00    -0.205 F 
ATOM     87  C   UNL A   1      46.597  35.482  29.784  1.00  0.00     0.022 A 
BRANCH  85  88
ATOM     88  S   UNL A   1      45.855  36.697  27.440  1.00  0.00     0.127 S 
ATOM     89  O   UNL A   1      46.100  35.970  26.197  1.00  0.00    -0.237 OA
ATOM     90  O   UNL A   1      44.517  37.282  27.550  1.00  0.00    -0.237 OA
ATOM     91  O   UNL A   1      46.932  37.575  27.879  1.00  0.00    -0.744 OA
ENDBRANCH  85  88
ENDBRANCH  58  81
ENDBRANCH  32  33
ENDBRANCH  25  27
ENDBRANCH  24  25
ENDBRANCH   1  24
TORSDOF 16
ENDMDL
MODEL 3
REMARK VINA RESULT:     -12.4      0.869      1.724
REMARK SMILES CC1=C[C@H](C)[C@@H](C(=O)OCCOC(=O)c2ccc(-c3c4nc(c(-c5cccc(S(=O)(=O)[O-])c5F)c5ccc([nH]5)c(-c5cccc(S(=O)(=O)[O-])c5F)c5nc(c(-c6cccc(S(=O)(=O)[O-])c6F)c6ccc3[nH]6)C=C5)C=C4)cc2)[C@H](C(=O)Nc2cccnc2)C1
REMARK SMILES IDX 11 1 10 2 9 3 7 4 8 5 6 6 1 7 2 8 3 9 88 10 4 11 78 12 5 13
REMARK SMILES IDX 79 14 80 15 81 16 82 18 83 19 87 20 84 21 86 22 85 23 12 24
REMARK SMILES IDX 13 25 14 26 15 27 16 28 77 29 17 30 76 31 18 32 19 33 20 34
REMARK SMILES IDX 70 35 21 36 75 37 69 38 71 39 22 40 74 41 68 42 67 43 23 45
REMARK SMILES IDX 55 46 35 47 54 48 36 49 39 50 53 51 72 52 37 53 38 54 52 56
REMARK SMILES IDX 73 57 40 58 24 59 25 60 33 61 26 62 28 63 34 64 27 65 29 66
REMARK SMILES IDX 30 67 31 68 32 69 56 70 57 71 65 72 58 73 60 74 66 75 59 76
REMARK SMILES IDX 61 77 62 78 63 79 64 80 41 81 42 82 50 83 43 84 45 85 51 86
REMARK SMILES IDX 44 87 46 88 47 89 48 90 49 91
REMARK H PARENT 81 17 71 44 39 55
REMARK Flexibility Score: inf
ROOT
ATOM      1  C   UNL A   1      36.448  20.494  25.031  1.00  0.00     0.275 C 
ENDROOT
BRANCH   1   2
ATOM      2  C   UNL A   1      35.003  20.691  25.501  1.00  0.00     0.274 C 
BRANCH   2   3
ATOM      3  O   UNL A   1      34.042  20.648  24.429  1.00  0.00    -0.462 OA
BRANCH   3   4
ATOM      4  C   UNL A   1      32.740  20.786  24.804  1.00  0.00     0.310 C 
ATOM      5  O   UNL A   1      31.994  19.853  25.077  1.00  0.00    -0.252 OA
BRANCH   4   6
ATOM      6  C   UNL A   1      32.230  22.218  24.674  1.00  0.00     0.118 C 
ATOM      7  C   UNL A   1      34.373  26.004  25.652  1.00  0.00     0.039 C 
ATOM      8  C   UNL A   1      33.696  24.715  25.289  1.00  0.00    -0.076 C 
ATOM      9  C   UNL A   1      33.720  24.229  24.039  1.00  0.00    -0.024 C 
ATOM     10  C   UNL A   1      33.055  23.975  26.429  1.00  0.00     0.044 C 
ATOM     11  C   UNL A   1      33.210  22.868  23.664  1.00  0.00     0.023 C 
ATOM     12  C   UNL A   1      32.023  22.912  26.039  1.00  0.00     0.097 C 
ATOM     13  C   UNL A   1      32.646  22.811  22.232  1.00  0.00     0.013 C 
BRANCH  12  14
ATOM     14  C   UNL A   1      30.568  23.330  26.373  1.00  0.00     0.228 C 
ATOM     15  O   UNL A   1      29.802  22.504  26.880  1.00  0.00    -0.274 OA
ATOM     16  N   UNL A   1      30.096  24.604  26.276  1.00  0.00    -0.324 N 
ATOM     17  H   UNL A   1      29.413  24.837  26.947  1.00  0.00     0.169 HD
BRANCH  16  18
ATOM     18  C   UNL A   1      30.411  25.639  25.393  1.00  0.00     0.059 A 
ATOM     19  C   UNL A   1      30.231  25.511  24.027  1.00  0.00     0.029 A 
ATOM     20  C   UNL A   1      30.790  26.889  25.868  1.00  0.00     0.137 A 
ATOM     21  C   UNL A   1      30.543  26.568  23.177  1.00  0.00     0.022 A 
ATOM     22  N   UNL A   1      31.110  27.941  25.074  1.00  0.00    -0.263 NA
ATOM     23  C   UNL A   1      30.993  27.747  23.743  1.00  0.00     0.111 A 
ENDBRANCH  16  18
ENDBRANCH  12  14
ENDBRANCH   4   6
ENDBRANCH   3   4
ENDBRANCH   2   3
ENDBRANCH   1   2
BRANCH   1  24
ATOM     24  O   UNL A   1      37.297  21.593  25.394  1.00  0.00    -0.458 OA
BRANCH  24  25
ATOM     25  C   UNL A   1      38.534  21.232  25.816  1.00  0.00     0.338 C 
ATOM     26  O   UNL A   1      39.084  20.162  25.621  1.00  0.00    -0.246 OA
BRANCH  25  27
ATOM     27  C   UNL A   1      39.208  22.389  26.429  1.00  0.00     0.060 A 
ATOM     28  C   UNL A   1      38.749  23.664  26.094  1.00  0.00     0.016 A 
ATOM     29  C   UNL A   1      40.326  22.236  27.247  1.00  0.00     0.016 A 
ATOM     30  C   UNL A   1      39.406  24.798  26.550  1.00  0.00     0.010 A 
ATOM     31  C   UNL A   1      40.990  23.379  27.709  1.00  0.00     0.010 A 
ATOM     32  C   UNL A   1      40.543  24.664  27.349  1.00  0.00    -0.014 A 
BRANCH  32  33
ATOM     33  C   UNL A   1      41.309  25.871  27.736  1.00  0.00     0.031 A 
ATOM     34  C   UNL A   1      40.633  26.943  28.541  1.00  0.00     0.074 A 
ATOM     35  C   UNL A   1      42.598  26.002  27.366  1.00  0.00     0.049 A 
ATOM     36  N   UNL A   1      41.069  28.131  28.862  1.00  0.00    -0.248 NA
ATOM     37  C   UNL A   1      39.284  26.637  29.047  1.00  0.00     0.031 C 
ATOM     38  C   UNL A   1      43.366  25.009  26.617  1.00  0.00     0.029 A 
ATOM     39  N   UNL A   1      43.476  27.040  27.548  1.00  0.00    -0.354 N 
ATOM     40  C   UNL A   1      40.028  28.741  29.550  1.00  0.00     0.074 A 
ATOM     41  C   UNL A   1      38.945  27.784  29.620  1.00  0.00     0.031 C 
ATOM     42  C   UNL A   1      44.593  25.498  26.373  1.00  0.00     0.029 A 
ATOM     43  C   UNL A   1      44.679  26.853  26.909  1.00  0.00     0.049 A 
ATOM     44  H   UNL A   1      43.267  27.838  28.085  1.00  0.00     0.167 HD
ATOM     45  C   UNL A   1      39.985  29.986  30.080  1.00  0.00     0.034 A 
ATOM     46  C   UNL A   1      45.716  27.698  26.738  1.00  0.00     0.034 A 
ATOM     47  C   UNL A   1      41.089  30.907  30.059  1.00  0.00     0.049 A 
ATOM     48  C   UNL A   1      45.639  29.076  27.341  1.00  0.00     0.074 A 
ATOM     49  C   UNL A   1      41.161  32.174  30.609  1.00  0.00     0.029 A 
ATOM     50  N   UNL A   1      42.313  30.660  29.458  1.00  0.00    -0.354 N 
ATOM     51  N   UNL A   1      44.680  29.612  28.057  1.00  0.00    -0.248 NA
ATOM     52  C   UNL A   1      46.796  29.960  27.133  1.00  0.00     0.031 C 
ATOM     53  C   UNL A   1      42.427  32.699  30.330  1.00  0.00     0.029 A 
ATOM     54  C   UNL A   1      43.147  31.751  29.620  1.00  0.00     0.049 A 
ATOM     55  H   UNL A   1      42.554  29.830  28.987  1.00  0.00     0.167 HD
ATOM     56  C   UNL A   1      45.128  30.880  28.408  1.00  0.00     0.074 A 
ATOM     57  C   UNL A   1      46.455  31.024  27.848  1.00  0.00     0.031 C 
ATOM     58  C   UNL A   1      44.491  31.848  29.110  1.00  0.00     0.034 A 
BRANCH  45  59
ATOM     59  C   UNL A   1      38.710  30.427  30.745  1.00  0.00     0.023 A 
ATOM     60  C   UNL A   1      38.543  30.246  32.131  1.00  0.00     0.012 A 
ATOM     61  C   UNL A   1      37.710  31.092  30.007  1.00  0.00     0.148 A 
ATOM     62  C   UNL A   1      37.392  30.705  32.771  1.00  0.00     0.002 A 
ATOM     63  C   UNL A   1      36.584  31.580  30.657  1.00  0.00     0.091 A 
ATOM     64  F   UNL A   1      37.880  31.234  28.684  1.00  0.00    -0.205 F 
ATOM     65  C   UNL A   1      36.420  31.381  32.038  1.00  0.00     0.022 A 
BRANCH  63  66
ATOM     66  S   UNL A   1      35.311  32.529  29.817  1.00  0.00     0.127 S 
ATOM     67  O   UNL A   1      34.851  31.577  28.807  1.00  0.00    -0.237 OA
ATOM     68  O   UNL A   1      34.356  32.786  30.894  1.00  0.00    -0.237 OA
ATOM     69  O   UNL A   1      35.972  33.718  29.295  1.00  0.00    -0.744 OA
ENDBRANCH  63  66
ENDBRANCH  45  59
BRANCH  46  70
ATOM     70  C   UNL A   1      46.915  27.264  25.968  1.00  0.00     0.023 A 
ATOM     71  C   UNL A   1      47.867  26.424  26.578  1.00  0.00     0.012 A 
ATOM     72  C   UNL A   1      47.113  27.665  24.632  1.00  0.00     0.148 A 
ATOM     73  C   UNL A   1      49.007  26.017  25.883  1.00  0.00     0.002 A 
ATOM     74  C   UNL A   1      48.221  27.208  23.926  1.00  0.00     0.091 A 
ATOM     75  F   UNL A   1      46.214  28.487  24.072  1.00  0.00    -0.205 F 
ATOM     76  C   UNL A   1      49.178  26.397  24.555  1.00  0.00     0.022 A 
BRANCH  74  77
ATOM     77  S   UNL A   1      48.435  27.544  22.174  1.00  0.00     0.127 S 
ATOM     78  O   UNL A   1      47.166  28.180  21.833  1.00  0.00    -0.237 OA
ATOM     79  O   UNL A   1      49.593  28.441  22.172  1.00  0.00    -0.237 OA
ATOM     80  O   UNL A   1      48.687  26.247  21.563  1.00  0.00    -0.744 OA
ENDBRANCH  74  77
ENDBRANCH  46  70
BRANCH  58  81
ATOM     81  C   UNL A   1      45.229  33.139  29.348  1.00  0.00     0.023 A 
ATOM     82  C   UNL A   1      46.056  33.270  30.480  1.00  0.00     0.012 A 
ATOM     83  C   UNL A   1      45.167  34.187  28.409  1.00  0.00     0.148 A 
ATOM     84  C   UNL A   1      46.789  34.437  30.689  1.00  0.00     0.002 A 
ATOM     85  C   UNL A   1      45.936  35.329  28.600  1.00  0.00     0.091 A 
ATOM     86  F   UNL A   1      44.359  34.050  27.347  1.00  0.00    -0.205 F 
ATOM     87  C   UNL A   1      46.739  35.459  29.744  1.00  0.00     0.022 A 
BRANCH  85  88
ATOM     88  S   UNL A   1      46.002  36.653  27.388  1.00  0.00     0.127 S 
ATOM     89  O   UNL A   1      46.969  37.565  27.994  1.00  0.00    -0.237 OA
ATOM     90  O   UNL A   1      46.484  35.960  26.192  1.00  0.00    -0.237 OA
ATOM     91  O   UNL A   1      44.641  37.162  27.279  1.00  0.00    -0.744 OA
ENDBRANCH  85  88
ENDBRANCH  58  81
ENDBRANCH  32  33
ENDBRANCH  25  27
ENDBRANCH  24  25
ENDBRANCH   1  24
TORSDOF 16
ENDMDL
