MODEL 1
REMARK VINA RESULT:     -12.6      0.000      0.000
REMARK SMILES CCCc1cc2c(cc1Cl)C=C(C(=O)OCCOC(=O)c1ccc(-c3c4nc(c(-c5cccc(S(=O)(=O)[O-])c5F)c5ccc([nH]5)c(-c5cccc(S(=O)(=O)[O-])c5F)c5nc(c(-c6cccc(S(=O)(=O)[O-])c6F)c6ccc3[nH]6)C=C5)C=C4)cc1)[C@H](C(F)(F)F)O2
REMARK SMILES IDX 17 1 16 2 15 3 13 4 14 5 12 6 4 7 5 8 9 9 6 10 8 11 10 12
REMARK SMILES IDX 7 13 89 14 11 15 84 16 3 17 2 18 1 19 85 20 86 21 87 22
REMARK SMILES IDX 88 23 18 24 19 25 20 26 21 27 22 28 83 29 23 30 82 31 24 32
REMARK SMILES IDX 25 33 26 34 76 35 27 36 81 37 75 38 77 39 28 40 80 41 74 42
REMARK SMILES IDX 73 43 29 45 61 46 41 47 60 48 42 49 45 50 59 51 78 52 43 53
REMARK SMILES IDX 44 54 58 56 79 57 46 58 30 59 31 60 39 61 32 62 34 63 40 64
REMARK SMILES IDX 33 65 35 66 36 67 37 68 38 69 62 70 63 71 71 72 64 73 66 74
REMARK SMILES IDX 72 75 65 76 67 77 68 78 69 79 70 80 47 81 48 82 56 83 49 84
REMARK SMILES IDX 51 85 57 86 50 87 52 88 53 89 54 90 55 91
REMARK H PARENT 77 44 45 55
REMARK Flexibility Score: inf
ROOT
ATOM      1  C   UNL A   1      31.690  30.510  25.752  1.00  0.00     0.275 C 
ENDROOT
BRANCH   1   2
ATOM      2  C   UNL A   1      31.812  29.306  24.815  1.00  0.00     0.275 C 
BRANCH   2   3
ATOM      3  O   UNL A   1      33.128  28.715  24.901  1.00  0.00    -0.459 OA
BRANCH   3   4
ATOM      4  C   UNL A   1      33.655  28.265  23.743  1.00  0.00     0.338 C 
ATOM      5  O   UNL A   1      34.170  28.957  22.881  1.00  0.00    -0.246 OA
BRANCH   4   6
ATOM      6  C   UNL A   1      33.608  26.788  23.676  1.00  0.00     0.087 C 
ATOM      7  C   UNL A   1      34.072  21.903  24.792  1.00  0.00    -0.026 A 
ATOM      8  C   UNL A   1      34.093  22.642  23.588  1.00  0.00     0.052 A 
ATOM      9  C   UNL A   1      33.899  22.592  26.004  1.00  0.00     0.045 A 
ATOM     10  C   UNL A   1      33.963  24.029  23.600  1.00  0.00     0.128 A 
ATOM     11  C   UNL A   1      33.788  23.982  26.015  1.00  0.00     0.032 A 
ATOM     12  Cl  UNL A   1      33.864  21.784  27.530  1.00  0.00    -0.084 Cl
ATOM     13  C   UNL A   1      33.845  24.696  24.816  1.00  0.00     0.019 A 
ATOM     14  O   UNL A   1      34.028  24.698  22.402  1.00  0.00    -0.475 OA
ATOM     15  C   UNL A   1      33.858  26.142  24.823  1.00  0.00     0.027 C 
ATOM     16  C   UNL A   1      33.440  26.047  22.374  1.00  0.00     0.316 C 
BRANCH   7  17
ATOM     17  C   UNL A   1      34.252  20.402  24.739  1.00  0.00     0.037 C 
BRANCH  17  18
ATOM     18  C   UNL A   1      32.955  19.612  24.540  1.00  0.00     0.001 C 
ATOM     19  C   UNL A   1      32.900  18.331  25.358  1.00  0.00     0.004 C 
ENDBRANCH  17  18
ENDBRANCH   7  17
BRANCH  16  20
ATOM     20  C   UNL A   1      32.016  25.951  21.797  1.00  0.00     0.430 C 
ATOM     21  F   UNL A   1      31.984  25.565  20.504  1.00  0.00    -0.167 F 
ATOM     22  F   UNL A   1      31.307  25.011  22.481  1.00  0.00    -0.167 F 
ATOM     23  F   UNL A   1      31.334  27.112  21.897  1.00  0.00    -0.167 F 
ENDBRANCH  16  20
ENDBRANCH   4   6
ENDBRANCH   3   4
ENDBRANCH   2   3
ENDBRANCH   1   2
BRANCH   1  24
ATOM     24  O   UNL A   1      32.594  30.375  26.867  1.00  0.00    -0.458 OA
BRANCH  24  25
ATOM     25  C   UNL A   1      33.245  31.501  27.237  1.00  0.00     0.338 C 
ATOM     26  O   UNL A   1      32.807  32.639  27.255  1.00  0.00    -0.246 OA
BRANCH  25  27
ATOM     27  C   UNL A   1      34.578  31.142  27.743  1.00  0.00     0.060 A 
ATOM     28  C   UNL A   1      35.547  32.100  28.019  1.00  0.00     0.016 A 
ATOM     29  C   UNL A   1      34.808  29.808  28.060  1.00  0.00     0.016 A 
ATOM     30  C   UNL A   1      36.759  31.696  28.598  1.00  0.00     0.010 A 
ATOM     31  C   UNL A   1      35.967  29.421  28.725  1.00  0.00     0.010 A 
ATOM     32  C   UNL A   1      36.974  30.355  28.985  1.00  0.00    -0.014 A 
BRANCH  32  33
ATOM     33  C   UNL A   1      38.219  29.930  29.687  1.00  0.00     0.031 A 
ATOM     34  C   UNL A   1      38.539  30.415  31.083  1.00  0.00     0.074 A 
ATOM     35  C   UNL A   1      39.117  29.163  29.037  1.00  0.00     0.049 A 
ATOM     36  N   UNL A   1      39.579  30.139  31.830  1.00  0.00    -0.248 NA
ATOM     37  C   UNL A   1      37.599  31.361  31.709  1.00  0.00     0.031 C 
ATOM     38  C   UNL A   1      39.009  28.736  27.640  1.00  0.00     0.029 A 
ATOM     39  N   UNL A   1      40.300  28.607  29.461  1.00  0.00    -0.354 N 
ATOM     40  C   UNL A   1      39.445  30.911  32.979  1.00  0.00     0.074 A 
ATOM     41  C   UNL A   1      38.240  31.693  32.821  1.00  0.00     0.031 C 
ATOM     42  C   UNL A   1      40.047  27.940  27.342  1.00  0.00     0.029 A 
ATOM     43  C   UNL A   1      40.908  27.816  28.515  1.00  0.00     0.049 A 
ATOM     44  H   UNL A   1      40.676  28.760  30.358  1.00  0.00     0.167 HD
ATOM     45  C   UNL A   1      40.225  30.937  34.085  1.00  0.00     0.034 A 
ATOM     46  C   UNL A   1      42.015  27.052  28.584  1.00  0.00     0.034 A 
ATOM     47  C   UNL A   1      41.364  30.085  34.290  1.00  0.00     0.049 A 
ATOM     48  C   UNL A   1      42.783  26.979  29.872  1.00  0.00     0.074 A 
ATOM     49  C   UNL A   1      42.138  29.946  35.429  1.00  0.00     0.029 A 
ATOM     50  N   UNL A   1      41.878  29.212  33.346  1.00  0.00    -0.354 N 
ATOM     51  N   UNL A   1      42.549  27.602  31.002  1.00  0.00    -0.248 NA
ATOM     52  C   UNL A   1      43.944  26.077  29.912  1.00  0.00     0.031 C 
ATOM     53  C   UNL A   1      43.117  28.979  35.175  1.00  0.00     0.029 A 
ATOM     54  C   UNL A   1      42.950  28.519  33.879  1.00  0.00     0.049 A 
ATOM     55  H   UNL A   1      41.531  29.102  32.430  1.00  0.00     0.167 HD
ATOM     56  C   UNL A   1      43.519  27.157  31.891  1.00  0.00     0.074 A 
ATOM     57  C   UNL A   1      44.335  26.197  31.175  1.00  0.00     0.031 C 
ATOM     58  C   UNL A   1      43.721  27.526  33.177  1.00  0.00     0.034 A 
BRANCH  45  59
ATOM     59  C   UNL A   1      39.818  31.843  35.218  1.00  0.00     0.023 A 
ATOM     60  C   UNL A   1      40.235  33.189  35.198  1.00  0.00     0.012 A 
ATOM     61  C   UNL A   1      38.961  31.398  36.245  1.00  0.00     0.148 A 
ATOM     62  C   UNL A   1      39.827  34.075  36.194  1.00  0.00     0.002 A 
ATOM     63  C   UNL A   1      38.531  32.296  37.216  1.00  0.00     0.091 A 
ATOM     64  F   UNL A   1      38.584  30.113  36.250  1.00  0.00    -0.205 F 
ATOM     65  C   UNL A   1      38.969  33.631  37.196  1.00  0.00     0.022 A 
BRANCH  63  66
ATOM     66  S   UNL A   1      37.374  31.849  38.517  1.00  0.00     0.127 S 
ATOM     67  O   UNL A   1      38.166  32.112  39.718  1.00  0.00    -0.237 OA
ATOM     68  O   UNL A   1      36.278  32.791  38.292  1.00  0.00    -0.237 OA
ATOM     69  O   UNL A   1      37.034  30.452  38.291  1.00  0.00    -0.744 OA
ENDBRANCH  63  66
ENDBRANCH  45  59
BRANCH  46  70
ATOM     70  C   UNL A   1      42.369  26.192  27.422  1.00  0.00     0.023 A 
ATOM     71  C   UNL A   1      43.225  26.710  26.432  1.00  0.00     0.012 A 
ATOM     72  C   UNL A   1      41.958  24.847  27.348  1.00  0.00     0.148 A 
ATOM     73  C   UNL A   1      43.667  25.905  25.382  1.00  0.00     0.002 A 
ATOM     74  C   UNL A   1      42.433  24.039  26.321  1.00  0.00     0.091 A 
ATOM     75  F   UNL A   1      41.147  24.379  28.306  1.00  0.00    -0.205 F 
ATOM     76  C   UNL A   1      43.280  24.568  25.334  1.00  0.00     0.022 A 
BRANCH  74  77
ATOM     77  S   UNL A   1      42.087  22.279  26.227  1.00  0.00     0.127 S 
ATOM     78  O   UNL A   1      42.833  21.892  25.031  1.00  0.00    -0.237 OA
ATOM     79  O   UNL A   1      42.650  21.797  27.488  1.00  0.00    -0.237 OA
ATOM     80  O   UNL A   1      40.639  22.164  26.122  1.00  0.00    -0.744 OA
ENDBRANCH  74  77
ENDBRANCH  46  70
BRANCH  58  81
ATOM     81  C   UNL A   1      44.861  26.895  33.927  1.00  0.00     0.023 A 
ATOM     82  C   UNL A   1      46.112  27.539  33.941  1.00  0.00     0.012 A 
ATOM     83  C   UNL A   1      44.655  25.751  34.721  1.00  0.00     0.148 A 
ATOM     84  C   UNL A   1      47.148  27.048  34.734  1.00  0.00     0.002 A 
ATOM     85  C   UNL A   1      45.682  25.285  35.532  1.00  0.00     0.091 A 
ATOM     86  F   UNL A   1      43.456  25.152  34.680  1.00  0.00    -0.205 F 
ATOM     87  C   UNL A   1      46.931  25.931  35.538  1.00  0.00     0.022 A 
BRANCH  85  88
ATOM     88  S   UNL A   1      45.474  23.902  36.659  1.00  0.00     0.127 S 
ATOM     89  O   UNL A   1      44.751  24.526  37.767  1.00  0.00    -0.237 OA
ATOM     90  O   UNL A   1      44.680  22.967  35.861  1.00  0.00    -0.237 OA
ATOM     91  O   UNL A   1      46.816  23.437  36.980  1.00  0.00    -0.744 OA
ENDBRANCH  85  88
ENDBRANCH  58  81
ENDBRANCH  32  33
ENDBRANCH  25  27
ENDBRANCH  24  25
ENDBRANCH   1  24
TORSDOF 17
ENDMDL
MODEL 2
REMARK VINA RESULT:     -12.5      5.289     10.316
REMARK SMILES CCCc1cc2c(cc1Cl)C=C(C(=O)OCCOC(=O)c1ccc(-c3c4nc(c(-c5cccc(S(=O)(=O)[O-])c5F)c5ccc([nH]5)c(-c5cccc(S(=O)(=O)[O-])c5F)c5nc(c(-c6cccc(S(=O)(=O)[O-])c6F)c6ccc3[nH]6)C=C5)C=C4)cc1)[C@H](C(F)(F)F)O2
REMARK SMILES IDX 17 1 16 2 15 3 13 4 14 5 12 6 4 7 5 8 9 9 6 10 8 11 10 12
REMARK SMILES IDX 7 13 89 14 11 15 84 16 3 17 2 18 1 19 85 20 86 21 87 22
REMARK SMILES IDX 88 23 18 24 19 25 20 26 21 27 22 28 83 29 23 30 82 31 24 32
REMARK SMILES IDX 25 33 26 34 76 35 27 36 81 37 75 38 77 39 28 40 80 41 74 42
REMARK SMILES IDX 73 43 29 45 61 46 41 47 60 48 42 49 45 50 59 51 78 52 43 53
REMARK SMILES IDX 44 54 58 56 79 57 46 58 30 59 31 60 39 61 32 62 34 63 40 64
REMARK SMILES IDX 33 65 35 66 36 67 37 68 38 69 62 70 63 71 71 72 64 73 66 74
REMARK SMILES IDX 72 75 65 76 67 77 68 78 69 79 70 80 47 81 48 82 56 83 49 84
REMARK SMILES IDX 51 85 57 86 50 87 52 88 53 89 54 90 55 91
REMARK H PARENT 77 44 45 55
REMARK Flexibility Score: inf
ROOT
ATOM      1  C   UNL A   1      36.694  20.417  24.933  1.00  0.00     0.275 C 
ENDROOT
BRANCH   1   2
ATOM      2  C   UNL A   1      35.248  20.673  25.366  1.00  0.00     0.275 C 
BRANCH   2   3
ATOM      3  O   UNL A   1      35.027  22.076  25.625  1.00  0.00    -0.459 OA
BRANCH   3   4
ATOM      4  C   UNL A   1      34.190  22.370  26.643  1.00  0.00     0.338 C 
ATOM      5  O   UNL A   1      34.161  21.803  27.723  1.00  0.00    -0.246 OA
BRANCH   4   6
ATOM      6  C   UNL A   1      33.348  23.541  26.317  1.00  0.00     0.087 C 
ATOM      7  C   UNL A   1      31.812  28.132  24.943  1.00  0.00    -0.026 A 
ATOM      8  C   UNL A   1      31.309  27.152  25.828  1.00  0.00     0.052 A 
ATOM      9  C   UNL A   1      33.006  27.868  24.252  1.00  0.00     0.045 A 
ATOM     10  C   UNL A   1      31.991  25.953  26.027  1.00  0.00     0.128 A 
ATOM     11  C   UNL A   1      33.697  26.676  24.467  1.00  0.00     0.032 A 
ATOM     12  Cl  UNL A   1      33.707  29.001  23.153  1.00  0.00    -0.084 Cl
ATOM     13  C   UNL A   1      33.199  25.735  25.371  1.00  0.00     0.019 A 
ATOM     14  O   UNL A   1      31.475  25.054  26.928  1.00  0.00    -0.475 OA
ATOM     15  C   UNL A   1      33.968  24.554  25.698  1.00  0.00     0.027 C 
ATOM     16  C   UNL A   1      31.919  23.658  26.784  1.00  0.00     0.316 C 
BRANCH   7  17
ATOM     17  C   UNL A   1      31.060  29.434  24.782  1.00  0.00     0.037 C 
BRANCH  17  18
ATOM     18  C   UNL A   1      30.213  29.527  23.510  1.00  0.00     0.001 C 
ATOM     19  C   UNL A   1      29.454  28.247  23.197  1.00  0.00     0.004 C 
ENDBRANCH  17  18
ENDBRANCH   7  17
BRANCH  16  20
ATOM     20  C   UNL A   1      30.853  22.882  25.990  1.00  0.00     0.430 C 
ATOM     21  F   UNL A   1      31.219  21.617  25.693  1.00  0.00    -0.167 F 
ATOM     22  F   UNL A   1      29.717  22.774  26.733  1.00  0.00    -0.167 F 
ATOM     23  F   UNL A   1      30.515  23.493  24.835  1.00  0.00    -0.167 F 
ENDBRANCH  16  20
ENDBRANCH   4   6
ENDBRANCH   3   4
ENDBRANCH   2   3
ENDBRANCH   1   2
BRANCH   1  24
ATOM     24  O   UNL A   1      37.539  21.518  25.320  1.00  0.00    -0.458 OA
BRANCH  24  25
ATOM     25  C   UNL A   1      38.725  21.184  25.875  1.00  0.00     0.338 C 
ATOM     26  O   UNL A   1      39.290  20.103  25.825  1.00  0.00    -0.246 OA
BRANCH  25  27
ATOM     27  C   UNL A   1      39.328  22.379  26.483  1.00  0.00     0.060 A 
ATOM     28  C   UNL A   1      40.467  22.311  27.276  1.00  0.00     0.016 A 
ATOM     29  C   UNL A   1      38.792  23.615  26.138  1.00  0.00     0.016 A 
ATOM     30  C   UNL A   1      41.048  23.502  27.736  1.00  0.00     0.010 A 
ATOM     31  C   UNL A   1      39.423  24.797  26.511  1.00  0.00     0.010 A 
ATOM     32  C   UNL A   1      40.550  24.762  27.337  1.00  0.00    -0.014 A 
BRANCH  32  33
ATOM     33  C   UNL A   1      41.215  26.034  27.742  1.00  0.00     0.031 A 
ATOM     34  C   UNL A   1      42.628  26.356  27.310  1.00  0.00     0.074 A 
ATOM     35  C   UNL A   1      40.576  26.878  28.577  1.00  0.00     0.049 A 
ATOM     36  N   UNL A   1      43.347  27.417  27.578  1.00  0.00    -0.248 NA
ATOM     37  C   UNL A   1      43.342  25.346  26.510  1.00  0.00     0.031 C 
ATOM     38  C   UNL A   1      39.268  26.633  29.188  1.00  0.00     0.029 A 
ATOM     39  N   UNL A   1      40.939  28.112  29.060  1.00  0.00    -0.354 N 
ATOM     40  C   UNL A   1      44.603  27.180  27.030  1.00  0.00     0.074 A 
ATOM     41  C   UNL A   1      44.562  25.861  26.440  1.00  0.00     0.031 C 
ATOM     42  C   UNL A   1      38.913  27.704  29.913  1.00  0.00     0.029 A 
ATOM     43  C   UNL A   1      39.975  28.704  29.841  1.00  0.00     0.049 A 
ATOM     44  H   UNL A   1      41.807  28.533  28.864  1.00  0.00     0.167 HD
ATOM     45  C   UNL A   1      45.680  27.999  26.980  1.00  0.00     0.034 A 
ATOM     46  C   UNL A   1      39.930  29.922  30.414  1.00  0.00     0.034 A 
ATOM     47  C   UNL A   1      45.691  29.350  27.471  1.00  0.00     0.049 A 
ATOM     48  C   UNL A   1      41.075  30.873  30.219  1.00  0.00     0.074 A 
ATOM     49  C   UNL A   1      46.690  30.300  27.349  1.00  0.00     0.029 A 
ATOM     50  N   UNL A   1      44.647  29.949  28.156  1.00  0.00    -0.354 N 
ATOM     51  N   UNL A   1      42.194  30.684  29.563  1.00  0.00    -0.248 NA
ATOM     52  C   UNL A   1      40.943  32.214  30.808  1.00  0.00     0.031 C 
ATOM     53  C   UNL A   1      46.245  31.480  27.953  1.00  0.00     0.029 A 
ATOM     54  C   UNL A   1      44.971  31.262  28.451  1.00  0.00     0.049 A 
ATOM     55  H   UNL A   1      43.801  29.507  28.397  1.00  0.00     0.167 HD
ATOM     56  C   UNL A   1      42.892  31.882  29.645  1.00  0.00     0.074 A 
ATOM     57  C   UNL A   1      42.062  32.800  30.400  1.00  0.00     0.031 C 
ATOM     58  C   UNL A   1      44.116  32.184  29.153  1.00  0.00     0.034 A 
BRANCH  45  59
ATOM     59  C   UNL A   1      46.916  27.502  26.274  1.00  0.00     0.023 A 
ATOM     60  C   UNL A   1      47.804  26.658  26.970  1.00  0.00     0.012 A 
ATOM     61  C   UNL A   1      47.153  27.791  24.915  1.00  0.00     0.148 A 
ATOM     62  C   UNL A   1      48.925  26.127  26.333  1.00  0.00     0.002 A 
ATOM     63  C   UNL A   1      48.255  27.229  24.278  1.00  0.00     0.091 A 
ATOM     64  F   UNL A   1      46.301  28.603  24.276  1.00  0.00    -0.205 F 
ATOM     65  C   UNL A   1      49.144  26.405  24.987  1.00  0.00     0.022 A 
BRANCH  63  66
ATOM     66  S   UNL A   1      48.599  27.469  22.530  1.00  0.00     0.127 S 
ATOM     67  O   UNL A   1      47.454  28.276  22.112  1.00  0.00    -0.237 OA
ATOM     68  O   UNL A   1      49.872  28.189  22.564  1.00  0.00    -0.237 OA
ATOM     69  O   UNL A   1      48.667  26.137  21.947  1.00  0.00    -0.744 OA
ENDBRANCH  63  66
ENDBRANCH  45  59
BRANCH  46  70
ATOM     70  C   UNL A   1      38.683  30.344  31.109  1.00  0.00     0.023 A 
ATOM     71  C   UNL A   1      38.584  30.149  32.500  1.00  0.00     0.012 A 
ATOM     72  C   UNL A   1      37.656  31.028  30.431  1.00  0.00     0.148 A 
ATOM     73  C   UNL A   1      37.480  30.624  33.207  1.00  0.00     0.002 A 
ATOM     74  C   UNL A   1      36.577  31.534  31.148  1.00  0.00     0.091 A 
ATOM     75  F   UNL A   1      37.778  31.205  29.108  1.00  0.00    -0.205 F 
ATOM     76  C   UNL A   1      36.484  31.325  32.534  1.00  0.00     0.022 A 
BRANCH  74  77
ATOM     77  S   UNL A   1      35.297  32.546  30.398  1.00  0.00     0.127 S 
ATOM     78  O   UNL A   1      36.038  33.758  30.055  1.00  0.00    -0.237 OA
ATOM     79  O   UNL A   1      34.899  31.723  29.255  1.00  0.00    -0.237 OA
ATOM     80  O   UNL A   1      34.271  32.710  31.417  1.00  0.00    -0.744 OA
ENDBRANCH  74  77
ENDBRANCH  46  70
BRANCH  58  81
ATOM     81  C   UNL A   1      44.657  33.566  29.391  1.00  0.00     0.023 A 
ATOM     82  C   UNL A   1      45.337  33.839  30.592  1.00  0.00     0.012 A 
ATOM     83  C   UNL A   1      44.612  34.541  28.377  1.00  0.00     0.148 A 
ATOM     84  C   UNL A   1      45.963  35.070  30.784  1.00  0.00     0.002 A 
ATOM     85  C   UNL A   1      45.263  35.754  28.561  1.00  0.00     0.091 A 
ATOM     86  F   UNL A   1      43.948  34.257  27.247  1.00  0.00    -0.205 F 
ATOM     87  C   UNL A   1      45.937  36.022  29.766  1.00  0.00     0.022 A 
BRANCH  85  88
ATOM     88  S   UNL A   1      45.352  37.011  27.281  1.00  0.00     0.127 S 
ATOM     89  O   UNL A   1      43.937  37.281  27.030  1.00  0.00    -0.237 OA
ATOM     90  O   UNL A   1      46.069  38.093  27.956  1.00  0.00    -0.237 OA
ATOM     91  O   UNL A   1      46.074  36.406  26.170  1.00  0.00    -0.744 OA
ENDBRANCH  85  88
ENDBRANCH  58  81
ENDBRANCH  32  33
ENDBRANCH  25  27
ENDBRANCH  24  25
ENDBRANCH   1  24
TORSDOF 17
ENDMDL
MODEL 3
REMARK VINA RESULT:     -12.1      1.195      1.552
REMARK SMILES CCCc1cc2c(cc1Cl)C=C(C(=O)OCCOC(=O)c1ccc(-c3c4nc(c(-c5cccc(S(=O)(=O)[O-])c5F)c5ccc([nH]5)c(-c5cccc(S(=O)(=O)[O-])c5F)c5nc(c(-c6cccc(S(=O)(=O)[O-])c6F)c6ccc3[nH]6)C=C5)C=C4)cc1)[C@H](C(F)(F)F)O2
REMARK SMILES IDX 17 1 16 2 15 3 13 4 14 5 12 6 4 7 5 8 9 9 6 10 8 11 10 12
REMARK SMILES IDX 7 13 89 14 11 15 84 16 3 17 2 18 1 19 85 20 86 21 87 22
REMARK SMILES IDX 88 23 18 24 19 25 20 26 21 27 22 28 83 29 23 30 82 31 24 32
REMARK SMILES IDX 25 33 26 34 76 35 27 36 81 37 75 38 77 39 28 40 80 41 74 42
REMARK SMILES IDX 73 43 29 45 61 46 41 47 60 48 42 49 45 50 59 51 78 52 43 53
REMARK SMILES IDX 44 54 58 56 79 57 46 58 30 59 31 60 39 61 32 62 34 63 40 64
REMARK SMILES IDX 33 65 35 66 36 67 37 68 38 69 62 70 63 71 71 72 64 73 66 74
REMARK SMILES IDX 72 75 65 76 67 77 68 78 69 79 70 80 47 81 48 82 56 83 49 84
REMARK SMILES IDX 51 85 57 86 50 87 52 88 53 89 54 90 55 91
REMARK H PARENT 77 44 45 55
REMARK Flexibility Score: inf
ROOT
ATOM      1  C   UNL A   1      31.861  29.834  25.814  1.00  0.00     0.275 C 
ENDROOT
BRANCH   1   2
ATOM      2  C   UNL A   1      32.957  29.252  24.918  1.00  0.00     0.275 C 
BRANCH   2   3
ATOM      3  O   UNL A   1      33.086  27.827  25.117  1.00  0.00    -0.459 OA
BRANCH   3   4
ATOM      4  C   UNL A   1      33.136  27.071  24.000  1.00  0.00     0.338 C 
ATOM      5  O   UNL A   1      33.439  27.469  22.888  1.00  0.00    -0.246 OA
BRANCH   4   6
ATOM      6  C   UNL A   1      32.851  25.652  24.305  1.00  0.00     0.087 C 
ATOM      7  C   UNL A   1      33.226  20.652  24.725  1.00  0.00    -0.026 A 
ATOM      8  C   UNL A   1      32.145  21.545  24.555  1.00  0.00     0.052 A 
ATOM      9  C   UNL A   1      34.529  21.174  24.794  1.00  0.00     0.045 A 
ATOM     10  C   UNL A   1      32.364  22.916  24.439  1.00  0.00     0.128 A 
ATOM     11  C   UNL A   1      34.747  22.545  24.659  1.00  0.00     0.032 A 
ATOM     12  Cl  UNL A   1      35.918  20.168  24.995  1.00  0.00    -0.084 Cl
ATOM     13  C   UNL A   1      33.666  23.407  24.458  1.00  0.00     0.019 A 
ATOM     14  O   UNL A   1      31.278  23.732  24.238  1.00  0.00    -0.475 OA
ATOM     15  C   UNL A   1      33.888  24.811  24.191  1.00  0.00     0.027 C 
ATOM     16  C   UNL A   1      31.456  25.153  24.579  1.00  0.00     0.316 C 
BRANCH   7  17
ATOM     17  C   UNL A   1      32.950  19.167  24.811  1.00  0.00     0.037 C 
BRANCH  17  18
ATOM     18  C   UNL A   1      33.112  18.412  23.489  1.00  0.00     0.001 C 
ATOM     19  C   UNL A   1      33.434  16.937  23.675  1.00  0.00     0.004 C 
ENDBRANCH  17  18
ENDBRANCH   7  17
BRANCH  16  20
ATOM     20  C   UNL A   1      30.885  25.396  25.988  1.00  0.00     0.430 C 
ATOM     21  F   UNL A   1      29.980  24.470  26.369  1.00  0.00    -0.167 F 
ATOM     22  F   UNL A   1      31.889  25.332  26.906  1.00  0.00    -0.167 F 
ATOM     23  F   UNL A   1      30.309  26.610  26.115  1.00  0.00    -0.167 F 
ENDBRANCH  16  20
ENDBRANCH   4   6
ENDBRANCH   3   4
ENDBRANCH   2   3
ENDBRANCH   1   2
BRANCH   1  24
ATOM     24  O   UNL A   1      32.389  30.146  27.118  1.00  0.00    -0.458 OA
BRANCH  24  25
ATOM     25  C   UNL A   1      33.099  31.293  27.207  1.00  0.00     0.338 C 
ATOM     26  O   UNL A   1      32.704  32.428  26.997  1.00  0.00    -0.246 OA
BRANCH  25  27
ATOM     27  C   UNL A   1      34.443  30.990  27.721  1.00  0.00     0.060 A 
ATOM     28  C   UNL A   1      35.362  31.988  28.023  1.00  0.00     0.016 A 
ATOM     29  C   UNL A   1      34.734  29.663  28.016  1.00  0.00     0.016 A 
ATOM     30  C   UNL A   1      36.586  31.632  28.608  1.00  0.00     0.010 A 
ATOM     31  C   UNL A   1      35.904  29.320  28.686  1.00  0.00     0.010 A 
ATOM     32  C   UNL A   1      36.862  30.296  28.972  1.00  0.00    -0.014 A 
BRANCH  32  33
ATOM     33  C   UNL A   1      38.119  29.919  29.680  1.00  0.00     0.031 A 
ATOM     34  C   UNL A   1      38.416  30.417  31.077  1.00  0.00     0.074 A 
ATOM     35  C   UNL A   1      39.049  29.185  29.034  1.00  0.00     0.049 A 
ATOM     36  N   UNL A   1      39.463  30.181  31.828  1.00  0.00    -0.248 NA
ATOM     37  C   UNL A   1      37.438  31.327  31.698  1.00  0.00     0.031 C 
ATOM     38  C   UNL A   1      38.962  28.754  27.637  1.00  0.00     0.029 A 
ATOM     39  N   UNL A   1      40.250  28.675  29.463  1.00  0.00    -0.354 N 
ATOM     40  C   UNL A   1      39.296  30.948  32.975  1.00  0.00     0.074 A 
ATOM     41  C   UNL A   1      38.062  31.683  32.813  1.00  0.00     0.031 C 
ATOM     42  C   UNL A   1      40.030  27.997  27.343  1.00  0.00     0.029 A 
ATOM     43  C   UNL A   1      40.890  27.907  28.520  1.00  0.00     0.049 A 
ATOM     44  H   UNL A   1      40.617  28.842  30.361  1.00  0.00     0.167 HD
ATOM     45  C   UNL A   1      40.070  31.004  34.085  1.00  0.00     0.034 A 
ATOM     46  C   UNL A   1      42.026  27.185  28.594  1.00  0.00     0.034 A 
ATOM     47  C   UNL A   1      41.239  30.195  34.295  1.00  0.00     0.049 A 
ATOM     48  C   UNL A   1      42.791  27.141  29.885  1.00  0.00     0.074 A 
ATOM     49  C   UNL A   1      42.014  30.086  35.436  1.00  0.00     0.029 A 
ATOM     50  N   UNL A   1      41.789  29.341  33.353  1.00  0.00    -0.354 N 
ATOM     51  N   UNL A   1      42.529  27.756  31.013  1.00  0.00    -0.248 NA
ATOM     52  C   UNL A   1      43.984  26.284  29.930  1.00  0.00     0.031 C 
ATOM     53  C   UNL A   1      43.029  29.156  35.187  1.00  0.00     0.029 A 
ATOM     54  C   UNL A   1      42.884  28.689  33.891  1.00  0.00     0.049 A 
ATOM     55  H   UNL A   1      41.450  29.217  32.437  1.00  0.00     0.167 HD
ATOM     56  C   UNL A   1      43.511  27.348  31.906  1.00  0.00     0.074 A 
ATOM     57  C   UNL A   1      44.366  26.419  31.194  1.00  0.00     0.031 C 
ATOM     58  C   UNL A   1      43.695  27.725  33.193  1.00  0.00     0.034 A 
BRANCH  45  59
ATOM     59  C   UNL A   1      39.624  31.895  35.216  1.00  0.00     0.023 A 
ATOM     60  C   UNL A   1      39.932  33.269  35.161  1.00  0.00     0.012 A 
ATOM     61  C   UNL A   1      38.836  31.402  36.274  1.00  0.00     0.148 A 
ATOM     62  C   UNL A   1      39.483  34.137  36.156  1.00  0.00     0.002 A 
ATOM     63  C   UNL A   1      38.363  32.280  37.244  1.00  0.00     0.091 A 
ATOM     64  F   UNL A   1      38.563  30.090  36.311  1.00  0.00    -0.205 F 
ATOM     65  C   UNL A   1      38.693  33.645  37.190  1.00  0.00     0.022 A 
BRANCH  63  66
ATOM     66  S   UNL A   1      37.285  31.765  38.586  1.00  0.00     0.127 S 
ATOM     67  O   UNL A   1      38.143  31.976  39.751  1.00  0.00    -0.237 OA
ATOM     68  O   UNL A   1      36.175  32.711  38.468  1.00  0.00    -0.237 OA
ATOM     69  O   UNL A   1      36.936  30.379  38.314  1.00  0.00    -0.744 OA
ENDBRANCH  63  66
ENDBRANCH  45  59
BRANCH  46  70
ATOM     70  C   UNL A   1      42.415  26.337  27.434  1.00  0.00     0.023 A 
ATOM     71  C   UNL A   1      43.264  26.883  26.452  1.00  0.00     0.012 A 
ATOM     72  C   UNL A   1      42.047  24.981  27.355  1.00  0.00     0.148 A 
ATOM     73  C   UNL A   1      43.739  26.094  25.405  1.00  0.00     0.002 A 
ATOM     74  C   UNL A   1      42.556  24.189  26.331  1.00  0.00     0.091 A 
ATOM     75  F   UNL A   1      41.243  24.486  28.305  1.00  0.00    -0.205 F 
ATOM     76  C   UNL A   1      43.394  24.745  25.351  1.00  0.00     0.022 A 
BRANCH  74  77
ATOM     77  S   UNL A   1      42.265  22.419  26.232  1.00  0.00     0.127 S 
ATOM     78  O   UNL A   1      42.843  21.951  27.490  1.00  0.00    -0.237 OA
ATOM     79  O   UNL A   1      40.805  22.362  26.165  1.00  0.00    -0.237 OA
ATOM     80  O   UNL A   1      42.948  21.971  25.027  1.00  0.00    -0.744 OA
ENDBRANCH  74  77
ENDBRANCH  46  70
BRANCH  58  81
ATOM     81  C   UNL A   1      44.854  27.139  33.947  1.00  0.00     0.023 A 
ATOM     82  C   UNL A   1      46.088  27.816  33.946  1.00  0.00     0.012 A 
ATOM     83  C   UNL A   1      44.683  26.002  34.761  1.00  0.00     0.148 A 
ATOM     84  C   UNL A   1      47.140  27.367  34.742  1.00  0.00     0.002 A 
ATOM     85  C   UNL A   1      45.726  25.578  35.575  1.00  0.00     0.091 A 
ATOM     86  F   UNL A   1      43.501  25.370  34.734  1.00  0.00    -0.205 F 
ATOM     87  C   UNL A   1      46.957  26.257  35.564  1.00  0.00     0.022 A 
BRANCH  85  88
ATOM     88  S   UNL A   1      45.561  24.208  36.725  1.00  0.00     0.127 S 
ATOM     89  O   UNL A   1      46.914  24.114  37.273  1.00  0.00    -0.237 OA
ATOM     90  O   UNL A   1      44.556  24.708  37.662  1.00  0.00    -0.237 OA
ATOM     91  O   UNL A   1      45.133  23.064  35.932  1.00  0.00    -0.744 OA
ENDBRANCH  85  88
ENDBRANCH  58  81
ENDBRANCH  32  33
ENDBRANCH  25  27
ENDBRANCH  24  25
ENDBRANCH   1  24
TORSDOF 17
ENDMDL
