MODEL 1
REMARK VINA RESULT:     -11.8      0.000      0.000
REMARK SMILES Cc1nc(CC(=O)N2Cc3nc[nH]c3C[C@H]2C(=O)OCCOC(=O)c2ccc(-c3c4nc(c(-c5cccc(S(=O)(=O)[O-])c5F)c5ccc([nH]5)c(-c5cccc(S(=O)(=O)[O-])c5F)c5nc(c(-c6cccc(S(=O)(=O)[O-])c6F)c6ccc3[nH]6)C=C5)C=C4)cc2)cs1
REMARK SMILES IDX 20 1 19 2 17 3 18 4 16 5 8 6 9 7 10 8 15 9 11 10 14 11 12 12
REMARK SMILES IDX 13 13 6 15 7 16 5 17 4 18 1 19 2 20 3 21 89 22 88 23 21 24
REMARK SMILES IDX 22 25 23 26 24 27 25 28 26 29 87 30 27 31 86 32 28 33 29 34
REMARK SMILES IDX 30 35 80 36 31 37 85 38 79 39 81 40 32 41 84 42 78 43 77 44
REMARK SMILES IDX 33 46 65 47 45 48 64 49 46 50 49 51 63 52 82 53 47 54 48 55
REMARK SMILES IDX 62 57 83 58 50 59 34 60 35 61 43 62 36 63 38 64 44 65 37 66
REMARK SMILES IDX 39 67 40 68 41 69 42 70 66 71 67 72 75 73 68 74 70 75 76 76
REMARK SMILES IDX 69 77 71 78 72 79 73 80 74 81 51 82 52 83 60 84 53 85 55 86
REMARK SMILES IDX 61 87 54 88 56 89 57 90 58 91 59 92
REMARK H PARENT 13 14 81 45 49 56
REMARK Flexibility Score: inf
ROOT
ATOM      1  C   UNL A   1      32.778  29.997  26.178  1.00  0.00     0.274 C 
ENDROOT
BRANCH   1   2
ATOM      2  O   UNL A   1      33.450  29.183  25.200  1.00  0.00    -0.461 OA
BRANCH   2   3
ATOM      3  C   UNL A   1      32.915  27.965  24.930  1.00  0.00     0.329 C 
ATOM      4  O   UNL A   1      32.348  27.267  25.768  1.00  0.00    -0.250 OA
BRANCH   3   5
ATOM      5  C   UNL A   1      33.259  27.434  23.518  1.00  0.00     0.201 C 
ATOM      6  N   UNL A   1      32.521  26.295  22.861  1.00  0.00    -0.322 N 
ATOM      7  C   UNL A   1      31.053  26.434  22.740  1.00  0.00     0.178 C 
ATOM      8  C   UNL A   1      30.732  27.848  22.375  1.00  0.00     0.081 A 
ATOM      9  C   UNL A   1      33.124  28.685  22.591  1.00  0.00     0.093 C 
ATOM     10  N   UNL A   1      29.469  28.357  22.230  1.00  0.00    -0.240 NA
ATOM     11  C   UNL A   1      31.669  28.861  22.315  1.00  0.00     0.042 A 
ATOM     12  C   UNL A   1      29.639  29.654  22.095  1.00  0.00     0.197 A 
ATOM     13  N   UNL A   1      30.963  30.008  22.132  1.00  0.00    -0.348 N 
ATOM     14  H   UNL A   1      31.331  30.917  22.042  1.00  0.00     0.167 HD
BRANCH   6  15
ATOM     15  C   UNL A   1      33.132  25.363  22.023  1.00  0.00     0.229 C 
ATOM     16  O   UNL A   1      33.350  25.619  20.832  1.00  0.00    -0.274 OA
BRANCH  15  17
ATOM     17  C   UNL A   1      33.400  23.948  22.510  1.00  0.00     0.157 C 
BRANCH  17  18
ATOM     18  C   UNL A   1      33.635  23.777  23.968  1.00  0.00     0.061 A 
ATOM     19  C   UNL A   1      31.951  23.228  27.170  1.00  0.00     0.079 C 
ATOM     20  C   UNL A   1      32.897  23.439  26.039  1.00  0.00     0.090 A 
ATOM     21  N   UNL A   1      32.531  23.559  24.783  1.00  0.00    -0.246 NA
ATOM     22  S   UNL A   1      34.585  23.578  26.322  1.00  0.00    -0.127 S 
ATOM     23  C   UNL A   1      34.842  23.794  24.639  1.00  0.00     0.091 A 
ENDBRANCH  17  18
ENDBRANCH  15  17
ENDBRANCH   6  15
ENDBRANCH   3   5
ENDBRANCH   2   3
ENDBRANCH   1   2
BRANCH   1  24
ATOM     24  C   UNL A   1      33.545  29.969  27.493  1.00  0.00     0.275 C 
BRANCH  24  25
ATOM     25  O   UNL A   1      34.930  30.252  27.286  1.00  0.00    -0.458 OA
BRANCH  25  26
ATOM     26  C   UNL A   1      35.413  31.227  28.085  1.00  0.00     0.338 C 
ATOM     27  O   UNL A   1      35.144  32.417  28.055  1.00  0.00    -0.246 OA
BRANCH  26  28
ATOM     28  C   UNL A   1      36.484  30.717  28.926  1.00  0.00     0.060 A 
ATOM     29  C   UNL A   1      37.506  31.617  29.241  1.00  0.00     0.016 A 
ATOM     30  C   UNL A   1      36.630  29.339  29.074  1.00  0.00     0.016 A 
ATOM     31  C   UNL A   1      38.761  31.132  29.510  1.00  0.00     0.010 A 
ATOM     32  C   UNL A   1      37.879  28.852  29.373  1.00  0.00     0.010 A 
ATOM     33  C   UNL A   1      38.945  29.753  29.498  1.00  0.00    -0.014 A 
BRANCH  33  34
ATOM     34  C   UNL A   1      40.288  29.247  29.700  1.00  0.00     0.031 A 
ATOM     35  C   UNL A   1      40.668  29.071  31.126  1.00  0.00     0.074 A 
ATOM     36  C   UNL A   1      40.997  28.796  28.649  1.00  0.00     0.049 A 
ATOM     37  N   UNL A   1      41.774  29.396  31.710  1.00  0.00    -0.248 NA
ATOM     38  C   UNL A   1      39.633  28.552  32.041  1.00  0.00     0.031 C 
ATOM     39  C   UNL A   1      40.542  28.709  27.254  1.00  0.00     0.029 A 
ATOM     40  N   UNL A   1      42.177  28.115  28.638  1.00  0.00    -0.354 N 
ATOM     41  C   UNL A   1      41.652  28.923  33.014  1.00  0.00     0.074 A 
ATOM     42  C   UNL A   1      40.273  28.567  33.207  1.00  0.00     0.031 C 
ATOM     43  C   UNL A   1      41.267  27.765  26.621  1.00  0.00     0.029 A 
ATOM     44  C   UNL A   1      42.285  27.274  27.533  1.00  0.00     0.049 A 
ATOM     45  H   UNL A   1      42.872  28.206  29.329  1.00  0.00     0.167 HD
ATOM     46  C   UNL A   1      42.734  28.623  33.775  1.00  0.00     0.034 A 
ATOM     47  C   UNL A   1      43.055  26.166  27.432  1.00  0.00     0.034 A 
ATOM     48  C   UNL A   1      43.927  29.270  33.308  1.00  0.00     0.049 A 
ATOM     49  C   UNL A   1      44.075  26.222  28.502  1.00  0.00     0.074 A 
ATOM     50  C   UNL A   1      44.304  30.582  33.105  1.00  0.00     0.029 A 
ATOM     51  N   UNL A   1      44.851  28.499  32.649  1.00  0.00    -0.354 N 
ATOM     52  N   UNL A   1      45.051  27.086  28.535  1.00  0.00    -0.248 NA
ATOM     53  C   UNL A   1      43.793  25.554  29.764  1.00  0.00     0.031 C 
ATOM     54  C   UNL A   1      45.168  30.548  31.974  1.00  0.00     0.029 A 
ATOM     55  C   UNL A   1      45.281  29.218  31.566  1.00  0.00     0.049 A 
ATOM     56  H   UNL A   1      45.151  27.598  32.907  1.00  0.00     0.167 HD
ATOM     57  C   UNL A   1      45.204  27.390  29.882  1.00  0.00     0.074 A 
ATOM     58  C   UNL A   1      44.508  26.321  30.592  1.00  0.00     0.031 C 
ATOM     59  C   UNL A   1      45.614  28.630  30.285  1.00  0.00     0.034 A 
BRANCH  46  60
ATOM     60  C   UNL A   1      42.772  27.470  34.744  1.00  0.00     0.023 A 
ATOM     61  C   UNL A   1      41.685  26.571  34.736  1.00  0.00     0.012 A 
ATOM     62  C   UNL A   1      43.676  27.379  35.829  1.00  0.00     0.148 A 
ATOM     63  C   UNL A   1      41.488  25.655  35.775  1.00  0.00     0.002 A 
ATOM     64  C   UNL A   1      43.525  26.408  36.810  1.00  0.00     0.091 A 
ATOM     65  F   UNL A   1      44.617  28.315  36.003  1.00  0.00    -0.205 F 
ATOM     66  C   UNL A   1      42.416  25.563  36.806  1.00  0.00     0.022 A 
BRANCH  64  67
ATOM     67  S   UNL A   1      44.750  26.222  38.111  1.00  0.00     0.127 S 
ATOM     68  O   UNL A   1      44.471  27.384  38.948  1.00  0.00    -0.237 OA
ATOM     69  O   UNL A   1      44.383  24.932  38.697  1.00  0.00    -0.237 OA
ATOM     70  O   UNL A   1      46.032  26.211  37.416  1.00  0.00    -0.744 OA
ENDBRANCH  64  67
ENDBRANCH  46  60
BRANCH  47  71
ATOM     71  C   UNL A   1      42.818  24.950  26.618  1.00  0.00     0.023 A 
ATOM     72  C   UNL A   1      43.684  24.654  25.550  1.00  0.00     0.012 A 
ATOM     73  C   UNL A   1      41.875  23.969  27.001  1.00  0.00     0.148 A 
ATOM     74  C   UNL A   1      43.615  23.423  24.888  1.00  0.00     0.002 A 
ATOM     75  C   UNL A   1      41.788  22.759  26.320  1.00  0.00     0.091 A 
ATOM     76  F   UNL A   1      41.121  24.178  28.091  1.00  0.00    -0.205 F 
ATOM     77  C   UNL A   1      42.666  22.477  25.268  1.00  0.00     0.022 A 
BRANCH  75  78
ATOM     78  S   UNL A   1      40.563  21.516  26.755  1.00  0.00     0.127 S 
ATOM     79  O   UNL A   1      40.773  21.364  28.195  1.00  0.00    -0.237 OA
ATOM     80  O   UNL A   1      39.314  22.176  26.385  1.00  0.00    -0.237 OA
ATOM     81  O   UNL A   1      40.915  20.334  25.978  1.00  0.00    -0.744 OA
ENDBRANCH  75  78
ENDBRANCH  47  71
BRANCH  59  82
ATOM     82  C   UNL A   1      46.143  29.584  29.240  1.00  0.00     0.023 A 
ATOM     83  C   UNL A   1      47.479  29.521  28.791  1.00  0.00     0.012 A 
ATOM     84  C   UNL A   1      45.241  30.417  28.555  1.00  0.00     0.148 A 
ATOM     85  C   UNL A   1      47.914  30.288  27.710  1.00  0.00     0.002 A 
ATOM     86  C   UNL A   1      45.666  31.141  27.445  1.00  0.00     0.091 A 
ATOM     87  F   UNL A   1      43.968  30.464  28.978  1.00  0.00    -0.205 F 
ATOM     88  C   UNL A   1      47.004  31.088  27.027  1.00  0.00     0.022 A 
BRANCH  86  89
ATOM     89  S   UNL A   1      44.506  32.073  26.439  1.00  0.00     0.127 S 
ATOM     90  O   UNL A   1      44.101  33.143  27.347  1.00  0.00    -0.237 OA
ATOM     91  O   UNL A   1      45.334  32.507  25.313  1.00  0.00    -0.237 OA
ATOM     92  O   UNL A   1      43.460  31.126  26.070  1.00  0.00    -0.744 OA
ENDBRANCH  86  89
ENDBRANCH  59  82
ENDBRANCH  33  34
ENDBRANCH  26  28
ENDBRANCH  25  26
ENDBRANCH  24  25
ENDBRANCH   1  24
TORSDOF 17
ENDMDL
MODEL 2
REMARK VINA RESULT:     -11.8      1.729      2.319
REMARK SMILES Cc1nc(CC(=O)N2Cc3nc[nH]c3C[C@H]2C(=O)OCCOC(=O)c2ccc(-c3c4nc(c(-c5cccc(S(=O)(=O)[O-])c5F)c5ccc([nH]5)c(-c5cccc(S(=O)(=O)[O-])c5F)c5nc(c(-c6cccc(S(=O)(=O)[O-])c6F)c6ccc3[nH]6)C=C5)C=C4)cc2)cs1
REMARK SMILES IDX 20 1 19 2 17 3 18 4 16 5 8 6 9 7 10 8 15 9 11 10 14 11 12 12
REMARK SMILES IDX 13 13 6 15 7 16 5 17 4 18 1 19 2 20 3 21 89 22 88 23 21 24
REMARK SMILES IDX 22 25 23 26 24 27 25 28 26 29 87 30 27 31 86 32 28 33 29 34
REMARK SMILES IDX 30 35 80 36 31 37 85 38 79 39 81 40 32 41 84 42 78 43 77 44
REMARK SMILES IDX 33 46 65 47 45 48 64 49 46 50 49 51 63 52 82 53 47 54 48 55
REMARK SMILES IDX 62 57 83 58 50 59 34 60 35 61 43 62 36 63 38 64 44 65 37 66
REMARK SMILES IDX 39 67 40 68 41 69 42 70 66 71 67 72 75 73 68 74 70 75 76 76
REMARK SMILES IDX 69 77 71 78 72 79 73 80 74 81 51 82 52 83 60 84 53 85 55 86
REMARK SMILES IDX 61 87 54 88 56 89 57 90 58 91 59 92
REMARK H PARENT 13 14 81 45 49 56
REMARK Flexibility Score: inf
ROOT
ATOM      1  C   UNL A   1      32.431  29.263  27.047  1.00  0.00     0.274 C 
ENDROOT
BRANCH   1   2
ATOM      2  O   UNL A   1      32.892  27.915  26.848  1.00  0.00    -0.461 OA
BRANCH   2   3
ATOM      3  C   UNL A   1      31.950  26.949  26.702  1.00  0.00     0.329 C 
ATOM      4  O   UNL A   1      30.750  27.130  26.903  1.00  0.00    -0.250 OA
BRANCH   3   5
ATOM      5  C   UNL A   1      32.536  25.539  26.457  1.00  0.00     0.201 C 
ATOM      6  N   UNL A   1      31.702  24.361  26.021  1.00  0.00    -0.322 N 
ATOM      7  C   UNL A   1      30.902  24.531  24.788  1.00  0.00     0.178 C 
ATOM      8  C   UNL A   1      31.716  25.289  23.787  1.00  0.00     0.081 A 
ATOM      9  C   UNL A   1      33.643  25.763  25.377  1.00  0.00     0.093 C 
ATOM     10  N   UNL A   1      31.279  25.676  22.549  1.00  0.00    -0.240 NA
ATOM     11  C   UNL A   1      32.949  25.847  24.061  1.00  0.00     0.042 A 
ATOM     12  C   UNL A   1      32.226  26.463  22.086  1.00  0.00     0.197 A 
ATOM     13  N   UNL A   1      33.268  26.591  22.968  1.00  0.00    -0.348 N 
ATOM     14  H   UNL A   1      34.089  27.118  22.835  1.00  0.00     0.167 HD
BRANCH   6  15
ATOM     15  C   UNL A   1      31.944  23.052  26.434  1.00  0.00     0.229 C 
ATOM     16  O   UNL A   1      31.959  22.751  27.634  1.00  0.00    -0.274 OA
BRANCH  15  17
ATOM     17  C   UNL A   1      32.357  21.990  25.428  1.00  0.00     0.157 C 
BRANCH  17  18
ATOM     18  C   UNL A   1      33.816  21.832  25.186  1.00  0.00     0.061 A 
ATOM     19  C   UNL A   1      36.576  22.932  23.049  1.00  0.00     0.079 C 
ATOM     20  C   UNL A   1      35.675  22.321  24.066  1.00  0.00     0.090 A 
ATOM     21  N   UNL A   1      34.390  22.576  24.162  1.00  0.00    -0.246 NA
ATOM     22  S   UNL A   1      36.277  21.177  25.197  1.00  0.00    -0.127 S 
ATOM     23  C   UNL A   1      34.707  21.030  25.873  1.00  0.00     0.091 A 
ENDBRANCH  17  18
ENDBRANCH  15  17
ENDBRANCH   6  15
ENDBRANCH   3   5
ENDBRANCH   2   3
ENDBRANCH   1   2
BRANCH   1  24
ATOM     24  C   UNL A   1      33.585  30.240  26.868  1.00  0.00     0.275 C 
BRANCH  24  25
ATOM     25  O   UNL A   1      34.698  29.873  27.686  1.00  0.00    -0.458 OA
BRANCH  25  26
ATOM     26  C   UNL A   1      35.477  30.916  28.047  1.00  0.00     0.338 C 
ATOM     27  O   UNL A   1      35.412  32.068  27.650  1.00  0.00    -0.246 OA
BRANCH  26  28
ATOM     28  C   UNL A   1      36.582  30.467  28.880  1.00  0.00     0.060 A 
ATOM     29  C   UNL A   1      37.550  31.425  29.194  1.00  0.00     0.016 A 
ATOM     30  C   UNL A   1      36.812  29.099  29.019  1.00  0.00     0.016 A 
ATOM     31  C   UNL A   1      38.833  31.016  29.454  1.00  0.00     0.010 A 
ATOM     32  C   UNL A   1      38.089  28.687  29.309  1.00  0.00     0.010 A 
ATOM     33  C   UNL A   1      39.099  29.650  29.432  1.00  0.00    -0.014 A 
BRANCH  33  34
ATOM     34  C   UNL A   1      40.472  29.226  29.625  1.00  0.00     0.031 A 
ATOM     35  C   UNL A   1      40.861  29.035  31.046  1.00  0.00     0.074 A 
ATOM     36  C   UNL A   1      41.210  28.850  28.563  1.00  0.00     0.049 A 
ATOM     37  N   UNL A   1      41.944  29.414  31.641  1.00  0.00    -0.248 NA
ATOM     38  C   UNL A   1      39.861  28.427  31.944  1.00  0.00     0.031 C 
ATOM     39  C   UNL A   1      40.762  28.772  27.165  1.00  0.00     0.029 A 
ATOM     40  N   UNL A   1      42.430  28.246  28.537  1.00  0.00    -0.354 N 
ATOM     41  C   UNL A   1      41.850  28.898  32.932  1.00  0.00     0.074 A 
ATOM     42  C   UNL A   1      40.497  28.450  33.111  1.00  0.00     0.031 C 
ATOM     43  C   UNL A   1      41.546  27.894  26.509  1.00  0.00     0.029 A 
ATOM     44  C   UNL A   1      42.592  27.444  27.409  1.00  0.00     0.049 A 
ATOM     45  H   UNL A   1      43.117  28.362  29.232  1.00  0.00     0.167 HD
ATOM     46  C   UNL A   1      42.949  28.647  33.687  1.00  0.00     0.034 A 
ATOM     47  C   UNL A   1      43.431  26.390  27.280  1.00  0.00     0.034 A 
ATOM     48  C   UNL A   1      44.099  29.381  33.241  1.00  0.00     0.049 A 
ATOM     49  C   UNL A   1      44.445  26.482  28.355  1.00  0.00     0.074 A 
ATOM     50  C   UNL A   1      44.392  30.719  33.075  1.00  0.00     0.029 A 
ATOM     51  N   UNL A   1      45.071  28.689  32.564  1.00  0.00    -0.354 N 
ATOM     52  N   UNL A   1      45.364  27.405  28.414  1.00  0.00    -0.248 NA
ATOM     53  C   UNL A   1      44.205  25.763  29.597  1.00  0.00     0.031 C 
ATOM     54  C   UNL A   1      45.257  30.772  31.946  1.00  0.00     0.029 A 
ATOM     55  C   UNL A   1      45.454  29.463  31.502  1.00  0.00     0.049 A 
ATOM     56  H   UNL A   1      45.427  27.801  32.798  1.00  0.00     0.167 HD
ATOM     57  C   UNL A   1      45.496  27.680  29.768  1.00  0.00     0.074 A 
ATOM     58  C   UNL A   1      44.869  26.550  30.447  1.00  0.00     0.031 C 
ATOM     59  C   UNL A   1      45.826  28.933  30.207  1.00  0.00     0.034 A 
BRANCH  46  60
ATOM     60  C   UNL A   1      43.059  27.473  34.625  1.00  0.00     0.023 A 
ATOM     61  C   UNL A   1      42.969  27.729  36.009  1.00  0.00     0.012 A 
ATOM     62  C   UNL A   1      43.509  26.189  34.235  1.00  0.00     0.148 A 
ATOM     63  C   UNL A   1      43.345  26.768  36.954  1.00  0.00     0.002 A 
ATOM     64  C   UNL A   1      43.796  25.211  35.177  1.00  0.00     0.091 A 
ATOM     65  F   UNL A   1      43.800  25.938  32.952  1.00  0.00    -0.205 F 
ATOM     66  C   UNL A   1      43.746  25.503  36.540  1.00  0.00     0.022 A 
BRANCH  64  67
ATOM     67  S   UNL A   1      44.243  23.548  34.665  1.00  0.00     0.127 S 
ATOM     68  O   UNL A   1      45.421  23.799  33.840  1.00  0.00    -0.237 OA
ATOM     69  O   UNL A   1      44.511  22.893  35.946  1.00  0.00    -0.237 OA
ATOM     70  O   UNL A   1      43.062  23.039  33.977  1.00  0.00    -0.744 OA
ENDBRANCH  64  67
ENDBRANCH  46  60
BRANCH  47  71
ATOM     71  C   UNL A   1      43.273  25.185  26.433  1.00  0.00     0.023 A 
ATOM     72  C   UNL A   1      44.110  25.010  25.316  1.00  0.00     0.012 A 
ATOM     73  C   UNL A   1      42.447  24.104  26.821  1.00  0.00     0.148 A 
ATOM     74  C   UNL A   1      44.128  23.800  24.613  1.00  0.00     0.002 A 
ATOM     75  C   UNL A   1      42.444  22.914  26.099  1.00  0.00     0.091 A 
ATOM     76  F   UNL A   1      41.731  24.203  27.950  1.00  0.00    -0.205 F 
ATOM     77  C   UNL A   1      43.294  22.754  24.999  1.00  0.00     0.022 A 
BRANCH  75  78
ATOM     78  S   UNL A   1      41.366  21.544  26.541  1.00  0.00     0.127 S 
ATOM     79  O   UNL A   1      40.037  22.099  26.278  1.00  0.00    -0.237 OA
ATOM     80  O   UNL A   1      41.792  20.507  25.607  1.00  0.00    -0.237 OA
ATOM     81  O   UNL A   1      41.629  21.282  27.951  1.00  0.00    -0.744 OA
ENDBRANCH  75  78
ENDBRANCH  47  71
BRANCH  59  82
ATOM     82  C   UNL A   1      46.294  29.947  29.190  1.00  0.00     0.023 A 
ATOM     83  C   UNL A   1      47.641  30.010  28.776  1.00  0.00     0.012 A 
ATOM     84  C   UNL A   1      45.339  30.707  28.492  1.00  0.00     0.148 A 
ATOM     85  C   UNL A   1      48.034  30.830  27.717  1.00  0.00     0.002 A 
ATOM     86  C   UNL A   1      45.726  31.484  27.404  1.00  0.00     0.091 A 
ATOM     87  F   UNL A   1      44.056  30.634  28.881  1.00  0.00    -0.205 F 
ATOM     88  C   UNL A   1      47.074  31.557  27.022  1.00  0.00     0.022 A 
BRANCH  86  89
ATOM     89  S   UNL A   1      44.513  32.325  26.380  1.00  0.00     0.127 S 
ATOM     90  O   UNL A   1      44.042  33.385  27.268  1.00  0.00    -0.237 OA
ATOM     91  O   UNL A   1      45.316  32.789  25.247  1.00  0.00    -0.237 OA
ATOM     92  O   UNL A   1      43.527  31.310  26.027  1.00  0.00    -0.744 OA
ENDBRANCH  86  89
ENDBRANCH  59  82
ENDBRANCH  33  34
ENDBRANCH  26  28
ENDBRANCH  25  26
ENDBRANCH  24  25
ENDBRANCH   1  24
TORSDOF 17
ENDMDL
MODEL 3
REMARK VINA RESULT:     -11.7      2.822      3.524
REMARK SMILES Cc1nc(CC(=O)N2Cc3nc[nH]c3C[C@H]2C(=O)OCCOC(=O)c2ccc(-c3c4nc(c(-c5cccc(S(=O)(=O)[O-])c5F)c5ccc([nH]5)c(-c5cccc(S(=O)(=O)[O-])c5F)c5nc(c(-c6cccc(S(=O)(=O)[O-])c6F)c6ccc3[nH]6)C=C5)C=C4)cc2)cs1
REMARK SMILES IDX 20 1 19 2 17 3 18 4 16 5 8 6 9 7 10 8 15 9 11 10 14 11 12 12
REMARK SMILES IDX 13 13 6 15 7 16 5 17 4 18 1 19 2 20 3 21 89 22 88 23 21 24
REMARK SMILES IDX 22 25 23 26 24 27 25 28 26 29 87 30 27 31 86 32 28 33 29 34
REMARK SMILES IDX 30 35 80 36 31 37 85 38 79 39 81 40 32 41 84 42 78 43 77 44
REMARK SMILES IDX 33 46 65 47 45 48 64 49 46 50 49 51 63 52 82 53 47 54 48 55
REMARK SMILES IDX 62 57 83 58 50 59 34 60 35 61 43 62 36 63 38 64 44 65 37 66
REMARK SMILES IDX 39 67 40 68 41 69 42 70 66 71 67 72 75 73 68 74 70 75 76 76
REMARK SMILES IDX 69 77 71 78 72 79 73 80 74 81 51 82 52 83 60 84 53 85 55 86
REMARK SMILES IDX 61 87 54 88 56 89 57 90 58 91 59 92
REMARK H PARENT 13 14 81 45 49 56
REMARK Flexibility Score: inf
ROOT
ATOM      1  C   UNL A   1      33.054  30.466  27.317  1.00  0.00     0.274 C 
ENDROOT
BRANCH   1   2
ATOM      2  O   UNL A   1      33.423  29.082  27.177  1.00  0.00    -0.461 OA
BRANCH   2   3
ATOM      3  C   UNL A   1      32.417  28.173  27.116  1.00  0.00     0.329 C 
ATOM      4  O   UNL A   1      31.435  28.189  27.857  1.00  0.00    -0.250 OA
BRANCH   3   5
ATOM      5  C   UNL A   1      32.706  26.987  26.166  1.00  0.00     0.201 C 
ATOM      6  N   UNL A   1      31.667  25.966  25.776  1.00  0.00    -0.322 N 
ATOM      7  C   UNL A   1      30.417  26.485  25.177  1.00  0.00     0.178 C 
ATOM      8  C   UNL A   1      30.757  27.606  24.247  1.00  0.00     0.081 A 
ATOM      9  C   UNL A   1      33.226  27.661  24.855  1.00  0.00     0.093 C 
ATOM     10  N   UNL A   1      29.846  28.359  23.555  1.00  0.00    -0.240 NA
ATOM     11  C   UNL A   1      32.025  28.136  24.110  1.00  0.00     0.042 A 
ATOM     12  C   UNL A   1      30.549  29.333  23.019  1.00  0.00     0.197 A 
ATOM     13  N   UNL A   1      31.883  29.234  23.322  1.00  0.00    -0.348 N 
ATOM     14  H   UNL A   1      32.599  29.841  23.024  1.00  0.00     0.167 HD
BRANCH   6  15
ATOM     15  C   UNL A   1      31.953  24.620  25.557  1.00  0.00     0.229 C 
ATOM     16  O   UNL A   1      31.245  23.927  24.816  1.00  0.00    -0.274 OA
BRANCH  15  17
ATOM     17  C   UNL A   1      33.048  23.926  26.351  1.00  0.00     0.157 C 
BRANCH  17  18
ATOM     18  C   UNL A   1      34.300  23.599  25.616  1.00  0.00     0.061 A 
ATOM     19  C   UNL A   1      37.947  23.555  25.904  1.00  0.00     0.079 C 
ATOM     20  C   UNL A   1      36.516  23.453  25.503  1.00  0.00     0.090 A 
ATOM     21  N   UNL A   1      35.507  23.771  26.282  1.00  0.00    -0.246 NA
ATOM     22  S   UNL A   1      36.082  22.926  23.928  1.00  0.00    -0.127 S 
ATOM     23  C   UNL A   1      34.424  23.121  24.327  1.00  0.00     0.091 A 
ENDBRANCH  17  18
ENDBRANCH  15  17
ENDBRANCH   6  15
ENDBRANCH   3   5
ENDBRANCH   2   3
ENDBRANCH   1   2
BRANCH   1  24
ATOM     24  C   UNL A   1      34.211  31.254  27.916  1.00  0.00     0.275 C 
BRANCH  24  25
ATOM     25  O   UNL A   1      35.468  30.696  27.528  1.00  0.00    -0.458 OA
BRANCH  25  26
ATOM     26  C   UNL A   1      36.376  30.651  28.526  1.00  0.00     0.338 C 
ATOM     27  O   UNL A   1      36.488  31.419  29.468  1.00  0.00    -0.246 OA
BRANCH  26  28
ATOM     28  C   UNL A   1      37.380  29.632  28.261  1.00  0.00     0.060 A 
ATOM     29  C   UNL A   1      37.526  28.638  29.233  1.00  0.00     0.016 A 
ATOM     30  C   UNL A   1      38.348  29.875  27.288  1.00  0.00     0.016 A 
ATOM     31  C   UNL A   1      38.741  28.015  29.370  1.00  0.00     0.010 A 
ATOM     32  C   UNL A   1      39.555  29.229  27.405  1.00  0.00     0.010 A 
ATOM     33  C   UNL A   1      39.762  28.376  28.497  1.00  0.00    -0.014 A 
BRANCH  33  34
ATOM     34  C   UNL A   1      41.067  27.776  28.698  1.00  0.00     0.031 A 
ATOM     35  C   UNL A   1      41.701  28.109  29.999  1.00  0.00     0.074 A 
ATOM     36  C   UNL A   1      41.511  26.842  27.836  1.00  0.00     0.049 A 
ATOM     37  N   UNL A   1      42.926  28.449  30.234  1.00  0.00    -0.248 NA
ATOM     38  C   UNL A   1      40.823  28.165  31.183  1.00  0.00     0.031 C 
ATOM     39  C   UNL A   1      40.784  26.295  26.682  1.00  0.00     0.029 A 
ATOM     40  N   UNL A   1      42.597  26.026  27.940  1.00  0.00    -0.354 N 
ATOM     41  C   UNL A   1      43.019  28.548  31.620  1.00  0.00     0.074 A 
ATOM     42  C   UNL A   1      41.677  28.527  32.136  1.00  0.00     0.031 C 
ATOM     43  C   UNL A   1      41.280  25.073  26.398  1.00  0.00     0.029 A 
ATOM     44  C   UNL A   1      42.408  24.816  27.277  1.00  0.00     0.049 A 
ATOM     45  H   UNL A   1      43.419  26.264  28.426  1.00  0.00     0.167 HD
ATOM     46  C   UNL A   1      44.196  28.395  32.275  1.00  0.00     0.034 A 
ATOM     47  C   UNL A   1      43.036  23.646  27.534  1.00  0.00     0.034 A 
ATOM     48  C   UNL A   1      45.329  28.603  31.419  1.00  0.00     0.049 A 
ATOM     49  C   UNL A   1      44.248  23.946  28.329  1.00  0.00     0.074 A 
ATOM     50  C   UNL A   1      45.779  29.651  30.642  1.00  0.00     0.029 A 
ATOM     51  N   UNL A   1      46.031  27.496  31.012  1.00  0.00    -0.354 N 
ATOM     52  N   UNL A   1      45.287  24.582  27.864  1.00  0.00    -0.248 NA
ATOM     53  C   UNL A   1      44.159  23.878  29.780  1.00  0.00     0.031 C 
ATOM     54  C   UNL A   1      46.397  29.039  29.515  1.00  0.00     0.029 A 
ATOM     55  C   UNL A   1      46.304  27.656  29.680  1.00  0.00     0.049 A 
ATOM     56  H   UNL A   1      46.290  26.730  31.574  1.00  0.00     0.167 HD
ATOM     57  C   UNL A   1      45.729  25.356  28.929  1.00  0.00     0.074 A 
ATOM     58  C   UNL A   1      45.090  24.777  30.107  1.00  0.00     0.031 C 
ATOM     59  C   UNL A   1      46.324  26.570  28.723  1.00  0.00     0.034 A 
BRANCH  46  60
ATOM     60  C   UNL A   1      44.317  27.721  33.617  1.00  0.00     0.023 A 
ATOM     61  C   UNL A   1      44.926  28.447  34.663  1.00  0.00     0.012 A 
ATOM     62  C   UNL A   1      44.112  26.337  33.828  1.00  0.00     0.148 A 
ATOM     63  C   UNL A   1      45.342  27.818  35.841  1.00  0.00     0.002 A 
ATOM     64  C   UNL A   1      44.446  25.736  35.034  1.00  0.00     0.091 A 
ATOM     65  F   UNL A   1      43.718  25.552  32.818  1.00  0.00    -0.205 F 
ATOM     66  C   UNL A   1      45.090  26.465  36.034  1.00  0.00     0.022 A 
BRANCH  64  67
ATOM     67  S   UNL A   1      44.063  24.007  35.335  1.00  0.00     0.127 S 
ATOM     68  O   UNL A   1      42.612  23.995  35.182  1.00  0.00    -0.237 OA
ATOM     69  O   UNL A   1      44.806  23.337  34.267  1.00  0.00    -0.237 OA
ATOM     70  O   UNL A   1      44.580  23.738  36.672  1.00  0.00    -0.744 OA
ENDBRANCH  64  67
ENDBRANCH  46  60
BRANCH  47  71
ATOM     71  C   UNL A   1      42.533  22.266  27.336  1.00  0.00     0.023 A 
ATOM     72  C   UNL A   1      41.221  21.946  27.728  1.00  0.00     0.012 A 
ATOM     73  C   UNL A   1      43.255  21.311  26.583  1.00  0.00     0.148 A 
ATOM     74  C   UNL A   1      40.645  20.719  27.379  1.00  0.00     0.002 A 
ATOM     75  C   UNL A   1      42.690  20.079  26.265  1.00  0.00     0.091 A 
ATOM     76  F   UNL A   1      44.460  21.639  26.096  1.00  0.00    -0.205 F 
ATOM     77  C   UNL A   1      41.378  19.784  26.653  1.00  0.00     0.022 A 
BRANCH  75  78
ATOM     78  S   UNL A   1      43.604  18.828  25.353  1.00  0.00     0.127 S 
ATOM     79  O   UNL A   1      42.705  17.676  25.421  1.00  0.00    -0.237 OA
ATOM     80  O   UNL A   1      43.719  19.437  24.031  1.00  0.00    -0.237 OA
ATOM     81  O   UNL A   1      44.853  18.648  26.084  1.00  0.00    -0.744 OA
ENDBRANCH  75  78
ENDBRANCH  47  71
BRANCH  59  82
ATOM     82  C   UNL A   1      46.723  26.941  27.314  1.00  0.00     0.023 A 
ATOM     83  C   UNL A   1      45.812  27.548  26.424  1.00  0.00     0.012 A 
ATOM     84  C   UNL A   1      48.077  26.866  26.944  1.00  0.00     0.148 A 
ATOM     85  C   UNL A   1      46.230  28.041  25.188  1.00  0.00     0.002 A 
ATOM     86  C   UNL A   1      48.500  27.405  25.733  1.00  0.00     0.091 A 
ATOM     87  F   UNL A   1      48.943  26.299  27.799  1.00  0.00    -0.205 F 
ATOM     88  C   UNL A   1      47.577  27.982  24.847  1.00  0.00     0.022 A 
BRANCH  86  89
ATOM     89  S   UNL A   1      50.243  27.491  25.307  1.00  0.00     0.127 S 
ATOM     90  O   UNL A   1      50.601  26.079  25.192  1.00  0.00    -0.237 OA
ATOM     91  O   UNL A   1      50.228  28.223  24.039  1.00  0.00    -0.237 OA
ATOM     92  O   UNL A   1      50.878  28.218  26.400  1.00  0.00    -0.744 OA
ENDBRANCH  86  89
ENDBRANCH  59  82
ENDBRANCH  33  34
ENDBRANCH  26  28
ENDBRANCH  25  26
ENDBRANCH  24  25
ENDBRANCH   1  24
TORSDOF 17
ENDMDL
