MODEL 1
REMARK VINA RESULT:     -11.6      0.000      0.000
REMARK SMILES O=C(Cn1cnc(-c2ccccc2)c1-c1ccccc1)OCCOC(=O)c1ccc(-c2c3nc(c(-c4cccc(S(=O)(=O)[O-])c4F)c4ccc([nH]4)c(-c4cccc(S(=O)(=O)[O-])c4F)c4nc(c(-c5cccc(S(=O)(=O)[O-])c5F)c5ccc2[nH]5)C=C4)C=C3)cc1
REMARK SMILES IDX 23 1 22 2 21 3 2 4 1 5 3 6 4 7 5 8 14 9 6 10 7 11 15 12
REMARK SMILES IDX 16 13 20 14 17 15 19 16 18 17 8 18 9 19 13 20 10 21 12 22
REMARK SMILES IDX 11 23 24 24 25 25 26 26 27 27 28 28 89 29 29 30 88 31 30 32
REMARK SMILES IDX 31 33 32 34 82 35 33 36 87 37 81 38 83 39 34 40 86 41 80 42
REMARK SMILES IDX 79 43 35 45 67 46 47 47 66 48 48 49 51 50 65 51 84 52 49 53
REMARK SMILES IDX 50 54 64 56 85 57 52 58 36 59 37 60 45 61 38 62 40 63 46 64
REMARK SMILES IDX 39 65 41 66 42 67 43 68 44 69 68 70 69 71 77 72 70 73 72 74
REMARK SMILES IDX 78 75 71 76 73 77 74 78 75 79 76 80 53 81 54 82 62 83 55 84
REMARK SMILES IDX 57 85 63 86 56 87 58 88 59 89 60 90 61 91
REMARK H PARENT 83 44 51 55
REMARK Flexibility Score: inf
ROOT
ATOM      1  C   UNL A   1      33.376  30.089  26.945  1.00  0.00     0.275 C 
ENDROOT
BRANCH   1   2
ATOM      2  C   UNL A   1      33.272  29.365  25.617  1.00  0.00     0.274 C 
BRANCH   2   3
ATOM      3  O   UNL A   1      32.256  28.336  25.649  1.00  0.00    -0.461 OA
BRANCH   3   4
ATOM      4  C   UNL A   1      32.420  27.001  25.496  1.00  0.00     0.326 C 
ATOM      5  O   UNL A   1      32.328  26.268  26.483  1.00  0.00    -0.250 OA
BRANCH   4   6
ATOM      6  C   UNL A   1      32.658  26.399  24.132  1.00  0.00     0.246 C 
BRANCH   6   7
ATOM      7  N   UNL A   1      32.148  25.057  23.936  1.00  0.00    -0.319 N 
ATOM      8  C   UNL A   1      30.842  24.737  23.684  1.00  0.00     0.201 A 
ATOM      9  C   UNL A   1      32.887  23.885  23.954  1.00  0.00     0.076 A 
ATOM     10  N   UNL A   1      30.681  23.450  23.514  1.00  0.00    -0.236 NA
ATOM     11  C   UNL A   1      31.921  22.907  23.739  1.00  0.00     0.096 A 
BRANCH   9  12
ATOM     12  C   UNL A   1      34.334  23.740  24.183  1.00  0.00     0.000 A 
ATOM     13  C   UNL A   1      35.157  23.244  23.157  1.00  0.00     0.010 A 
ATOM     14  C   UNL A   1      34.906  23.965  25.442  1.00  0.00     0.010 A 
ATOM     15  C   UNL A   1      36.504  22.949  23.391  1.00  0.00     0.001 A 
ATOM     16  C   UNL A   1      36.259  23.677  25.673  1.00  0.00     0.001 A 
ATOM     17  C   UNL A   1      37.052  23.157  24.652  1.00  0.00     0.000 A 
ENDBRANCH   9  12
BRANCH  11  18
ATOM     18  C   UNL A   1      32.128  21.477  23.811  1.00  0.00     0.002 A 
ATOM     19  C   UNL A   1      32.333  20.857  25.046  1.00  0.00     0.010 A 
ATOM     20  C   UNL A   1      32.167  20.717  22.635  1.00  0.00     0.010 A 
ATOM     21  C   UNL A   1      32.564  19.481  25.103  1.00  0.00     0.001 A 
ATOM     22  C   UNL A   1      32.405  19.346  22.693  1.00  0.00     0.001 A 
ATOM     23  C   UNL A   1      32.605  18.729  23.928  1.00  0.00     0.000 A 
ENDBRANCH  11  18
ENDBRANCH   6   7
ENDBRANCH   4   6
ENDBRANCH   3   4
ENDBRANCH   2   3
ENDBRANCH   1   2
BRANCH   1  24
ATOM     24  O   UNL A   1      34.742  30.148  27.319  1.00  0.00    -0.458 OA
BRANCH  24  25
ATOM     25  C   UNL A   1      35.169  31.226  28.017  1.00  0.00     0.338 C 
ATOM     26  O   UNL A   1      34.712  32.341  28.007  1.00  0.00    -0.246 OA
BRANCH  25  27
ATOM     27  C   UNL A   1      36.337  30.772  28.786  1.00  0.00     0.060 A 
ATOM     28  C   UNL A   1      37.313  31.714  29.121  1.00  0.00     0.016 A 
ATOM     29  C   UNL A   1      36.543  29.393  28.943  1.00  0.00     0.016 A 
ATOM     30  C   UNL A   1      38.588  31.257  29.366  1.00  0.00     0.010 A 
ATOM     31  C   UNL A   1      37.814  28.944  29.127  1.00  0.00     0.010 A 
ATOM     32  C   UNL A   1      38.828  29.886  29.242  1.00  0.00    -0.014 A 
BRANCH  32  33
ATOM     33  C   UNL A   1      40.178  29.387  29.278  1.00  0.00     0.031 A 
ATOM     34  C   UNL A   1      40.687  29.283  30.660  1.00  0.00     0.074 A 
ATOM     35  C   UNL A   1      40.759  28.910  28.159  1.00  0.00     0.049 A 
ATOM     36  N   UNL A   1      41.512  30.084  31.249  1.00  0.00    -0.248 NA
ATOM     37  C   UNL A   1      40.004  28.353  31.578  1.00  0.00     0.031 C 
ATOM     38  C   UNL A   1      40.145  28.696  26.843  1.00  0.00     0.029 A 
ATOM     39  N   UNL A   1      41.993  28.372  28.002  1.00  0.00    -0.354 N 
ATOM     40  C   UNL A   1      41.668  29.541  32.519  1.00  0.00     0.074 A 
ATOM     41  C   UNL A   1      40.504  28.737  32.753  1.00  0.00     0.031 C 
ATOM     42  C   UNL A   1      40.920  27.850  26.123  1.00  0.00     0.029 A 
ATOM     43  C   UNL A   1      42.128  27.565  26.876  1.00  0.00     0.049 A 
ATOM     44  H   UNL A   1      42.732  28.538  28.632  1.00  0.00     0.167 HD
ATOM     45  C   UNL A   1      42.900  29.473  33.093  1.00  0.00     0.034 A 
ATOM     46  C   UNL A   1      43.121  26.664  26.651  1.00  0.00     0.034 A 
ATOM     47  C   UNL A   1      43.832  30.335  32.402  1.00  0.00     0.049 A 
ATOM     48  C   UNL A   1      44.233  27.003  27.573  1.00  0.00     0.074 A 
ATOM     49  C   UNL A   1      43.871  31.679  32.089  1.00  0.00     0.029 A 
ATOM     50  N   UNL A   1      44.721  29.717  31.553  1.00  0.00    -0.354 N 
ATOM     51  N   UNL A   1      44.924  28.106  27.487  1.00  0.00    -0.248 NA
ATOM     52  C   UNL A   1      44.251  26.353  28.875  1.00  0.00     0.031 C 
ATOM     53  C   UNL A   1      44.430  31.735  30.778  1.00  0.00     0.029 A 
ATOM     54  C   UNL A   1      44.784  30.440  30.393  1.00  0.00     0.049 A 
ATOM     55  H   UNL A   1      45.225  28.894  31.747  1.00  0.00     0.167 HD
ATOM     56  C   UNL A   1      45.051  28.532  28.804  1.00  0.00     0.074 A 
ATOM     57  C   UNL A   1      44.713  27.364  29.618  1.00  0.00     0.031 C 
ATOM     58  C   UNL A   1      45.101  29.863  29.105  1.00  0.00     0.034 A 
BRANCH  45  59
ATOM     59  C   UNL A   1      43.388  28.327  33.960  1.00  0.00     0.023 A 
ATOM     60  C   UNL A   1      43.942  28.679  35.210  1.00  0.00     0.012 A 
ATOM     61  C   UNL A   1      43.596  26.992  33.531  1.00  0.00     0.148 A 
ATOM     62  C   UNL A   1      44.724  27.786  35.948  1.00  0.00     0.002 A 
ATOM     63  C   UNL A   1      44.310  26.084  34.303  1.00  0.00     0.091 A 
ATOM     64  F   UNL A   1      43.218  26.599  32.316  1.00  0.00    -0.205 F 
ATOM     65  C   UNL A   1      44.909  26.485  35.495  1.00  0.00     0.022 A 
BRANCH  63  66
ATOM     66  S   UNL A   1      44.543  24.379  33.776  1.00  0.00     0.127 S 
ATOM     67  O   UNL A   1      43.253  23.789  34.121  1.00  0.00    -0.237 OA
ATOM     68  O   UNL A   1      44.790  24.545  32.344  1.00  0.00    -0.237 OA
ATOM     69  O   UNL A   1      45.691  23.883  34.525  1.00  0.00    -0.744 OA
ENDBRANCH  63  66
ENDBRANCH  45  59
BRANCH  46  70
ATOM     70  C   UNL A   1      43.077  25.357  25.945  1.00  0.00     0.023 A 
ATOM     71  C   UNL A   1      44.078  25.036  25.003  1.00  0.00     0.012 A 
ATOM     72  C   UNL A   1      42.238  24.315  26.397  1.00  0.00     0.148 A 
ATOM     73  C   UNL A   1      44.255  23.719  24.555  1.00  0.00     0.002 A 
ATOM     74  C   UNL A   1      42.413  23.010  25.944  1.00  0.00     0.091 A 
ATOM     75  F   UNL A   1      41.329  24.585  27.343  1.00  0.00    -0.205 F 
ATOM     76  C   UNL A   1      43.430  22.706  25.031  1.00  0.00     0.022 A 
BRANCH  74  77
ATOM     77  S   UNL A   1      41.405  21.645  26.542  1.00  0.00     0.127 S 
ATOM     78  O   UNL A   1      41.922  20.522  25.760  1.00  0.00    -0.237 OA
ATOM     79  O   UNL A   1      41.750  21.615  27.962  1.00  0.00    -0.237 OA
ATOM     80  O   UNL A   1      40.026  22.004  26.237  1.00  0.00    -0.744 OA
ENDBRANCH  74  77
ENDBRANCH  46  70
BRANCH  58  81
ATOM     81  C   UNL A   1      45.286  30.839  27.970  1.00  0.00     0.023 A 
ATOM     82  C   UNL A   1      44.207  31.378  27.235  1.00  0.00     0.012 A 
ATOM     83  C   UNL A   1      46.574  31.358  27.765  1.00  0.00     0.148 A 
ATOM     84  C   UNL A   1      44.418  32.399  26.302  1.00  0.00     0.002 A 
ATOM     85  C   UNL A   1      46.771  32.403  26.873  1.00  0.00     0.091 A 
ATOM     86  F   UNL A   1      47.585  30.835  28.474  1.00  0.00    -0.205 F 
ATOM     87  C   UNL A   1      45.698  32.922  26.132  1.00  0.00     0.022 A 
BRANCH  85  88
ATOM     88  S   UNL A   1      48.371  33.197  26.712  1.00  0.00     0.127 S 
ATOM     89  O   UNL A   1      48.110  34.200  25.682  1.00  0.00    -0.237 OA
ATOM     90  O   UNL A   1      48.590  33.738  28.055  1.00  0.00    -0.237 OA
ATOM     91  O   UNL A   1      49.305  32.142  26.338  1.00  0.00    -0.744 OA
ENDBRANCH  85  88
ENDBRANCH  58  81
ENDBRANCH  32  33
ENDBRANCH  25  27
ENDBRANCH  24  25
ENDBRANCH   1  24
TORSDOF 17
ENDMDL
MODEL 2
REMARK VINA RESULT:     -11.4      3.366      7.474
REMARK SMILES O=C(Cn1cnc(-c2ccccc2)c1-c1ccccc1)OCCOC(=O)c1ccc(-c2c3nc(c(-c4cccc(S(=O)(=O)[O-])c4F)c4ccc([nH]4)c(-c4cccc(S(=O)(=O)[O-])c4F)c4nc(c(-c5cccc(S(=O)(=O)[O-])c5F)c5ccc2[nH]5)C=C4)C=C3)cc1
REMARK SMILES IDX 23 1 22 2 21 3 2 4 1 5 3 6 4 7 5 8 14 9 6 10 7 11 15 12
REMARK SMILES IDX 16 13 20 14 17 15 19 16 18 17 8 18 9 19 13 20 10 21 12 22
REMARK SMILES IDX 11 23 24 24 25 25 26 26 27 27 28 28 89 29 29 30 88 31 30 32
REMARK SMILES IDX 31 33 32 34 82 35 33 36 87 37 81 38 83 39 34 40 86 41 80 42
REMARK SMILES IDX 79 43 35 45 67 46 47 47 66 48 48 49 51 50 65 51 84 52 49 53
REMARK SMILES IDX 50 54 64 56 85 57 52 58 36 59 37 60 45 61 38 62 40 63 46 64
REMARK SMILES IDX 39 65 41 66 42 67 43 68 44 69 68 70 69 71 77 72 70 73 72 74
REMARK SMILES IDX 78 75 71 76 73 77 74 78 75 79 76 80 53 81 54 82 62 83 55 84
REMARK SMILES IDX 57 85 63 86 56 87 58 88 59 89 60 90 61 91
REMARK H PARENT 83 44 51 55
REMARK Flexibility Score: inf
ROOT
ATOM      1  C   UNL A   1      37.437  20.216  24.634  1.00  0.00     0.275 C 
ENDROOT
BRANCH   1   2
ATOM      2  C   UNL A   1      36.163  20.236  25.455  1.00  0.00     0.274 C 
BRANCH   2   3
ATOM      3  O   UNL A   1      34.987  20.190  24.616  1.00  0.00    -0.461 OA
BRANCH   3   4
ATOM      4  C   UNL A   1      33.723  20.557  24.934  1.00  0.00     0.326 C 
ATOM      5  O   UNL A   1      33.315  20.365  26.081  1.00  0.00    -0.250 OA
BRANCH   4   6
ATOM      6  C   UNL A   1      32.836  21.242  23.924  1.00  0.00     0.246 C 
BRANCH   6   7
ATOM      7  N   UNL A   1      32.454  22.605  24.241  1.00  0.00    -0.319 N 
ATOM      8  C   UNL A   1      31.174  23.088  24.234  1.00  0.00     0.201 A 
ATOM      9  C   UNL A   1      33.305  23.633  24.614  1.00  0.00     0.076 A 
ATOM     10  N   UNL A   1      31.127  24.343  24.598  1.00  0.00    -0.236 NA
ATOM     11  C   UNL A   1      32.438  24.708  24.774  1.00  0.00     0.096 A 
BRANCH   9  12
ATOM     12  C   UNL A   1      34.768  23.576  24.762  1.00  0.00     0.000 A 
ATOM     13  C   UNL A   1      35.347  23.712  26.036  1.00  0.00     0.010 A 
ATOM     14  C   UNL A   1      35.619  23.515  23.651  1.00  0.00     0.010 A 
ATOM     15  C   UNL A   1      36.733  23.819  26.192  1.00  0.00     0.001 A 
ATOM     16  C   UNL A   1      37.008  23.613  23.808  1.00  0.00     0.001 A 
ATOM     17  C   UNL A   1      37.562  23.779  25.076  1.00  0.00     0.000 A 
ENDBRANCH   9  12
BRANCH  11  18
ATOM     18  C   UNL A   1      32.823  26.081  25.020  1.00  0.00     0.002 A 
ATOM     19  C   UNL A   1      33.455  26.825  24.020  1.00  0.00     0.010 A 
ATOM     20  C   UNL A   1      32.601  26.655  26.278  1.00  0.00     0.010 A 
ATOM     21  C   UNL A   1      33.852  28.138  24.276  1.00  0.00     0.001 A 
ATOM     22  C   UNL A   1      33.005  27.963  26.534  1.00  0.00     0.001 A 
ATOM     23  C   UNL A   1      33.632  28.703  25.533  1.00  0.00     0.000 A 
ENDBRANCH  11  18
ENDBRANCH   6   7
ENDBRANCH   4   6
ENDBRANCH   3   4
ENDBRANCH   2   3
ENDBRANCH   1   2
BRANCH   1  24
ATOM     24  O   UNL A   1      38.487  20.752  25.420  1.00  0.00    -0.458 OA
BRANCH  24  25
ATOM     25  C   UNL A   1      39.537  19.952  25.719  1.00  0.00     0.338 C 
ATOM     26  O   UNL A   1      39.624  18.759  25.567  1.00  0.00    -0.246 OA
BRANCH  25  27
ATOM     27  C   UNL A   1      40.562  20.831  26.301  1.00  0.00     0.060 A 
ATOM     28  C   UNL A   1      40.897  20.653  27.646  1.00  0.00     0.016 A 
ATOM     29  C   UNL A   1      40.983  21.950  25.567  1.00  0.00     0.016 A 
ATOM     30  C   UNL A   1      41.433  21.726  28.321  1.00  0.00     0.010 A 
ATOM     31  C   UNL A   1      41.457  23.030  26.246  1.00  0.00     0.010 A 
ATOM     32  C   UNL A   1      41.585  22.928  27.626  1.00  0.00    -0.014 A 
BRANCH  32  33
ATOM     33  C   UNL A   1      41.938  24.130  28.336  1.00  0.00     0.031 A 
ATOM     34  C   UNL A   1      40.914  25.181  28.173  1.00  0.00     0.074 A 
ATOM     35  C   UNL A   1      42.988  24.141  29.180  1.00  0.00     0.049 A 
ATOM     36  N   UNL A   1      40.982  26.223  27.411  1.00  0.00    -0.248 NA
ATOM     37  C   UNL A   1      39.562  24.916  28.698  1.00  0.00     0.031 C 
ATOM     38  C   UNL A   1      43.814  23.005  29.609  1.00  0.00     0.029 A 
ATOM     39  N   UNL A   1      43.449  25.153  29.954  1.00  0.00    -0.354 N 
ATOM     40  C   UNL A   1      39.779  26.886  27.630  1.00  0.00     0.074 A 
ATOM     41  C   UNL A   1      38.866  25.897  28.122  1.00  0.00     0.031 C 
ATOM     42  C   UNL A   1      44.483  23.343  30.736  1.00  0.00     0.029 A 
ATOM     43  C   UNL A   1      44.227  24.741  31.034  1.00  0.00     0.049 A 
ATOM     44  H   UNL A   1      43.251  26.100  29.770  1.00  0.00     0.167 HD
ATOM     45  C   UNL A   1      39.753  28.239  27.771  1.00  0.00     0.034 A 
ATOM     46  C   UNL A   1      44.538  25.486  32.127  1.00  0.00     0.034 A 
ATOM     47  C   UNL A   1      40.988  28.824  27.299  1.00  0.00     0.049 A 
ATOM     48  C   UNL A   1      44.289  26.905  31.771  1.00  0.00     0.074 A 
ATOM     49  C   UNL A   1      41.689  28.796  26.109  1.00  0.00     0.029 A 
ATOM     50  N   UNL A   1      41.884  29.220  28.263  1.00  0.00    -0.354 N 
ATOM     51  N   UNL A   1      44.979  27.549  30.871  1.00  0.00    -0.248 NA
ATOM     52  C   UNL A   1      42.971  27.451  32.058  1.00  0.00     0.031 C 
ATOM     53  C   UNL A   1      43.061  28.732  26.493  1.00  0.00     0.029 A 
ATOM     54  C   UNL A   1      43.134  28.813  27.885  1.00  0.00     0.049 A 
ATOM     55  H   UNL A   1      41.663  29.712  29.087  1.00  0.00     0.167 HD
ATOM     56  C   UNL A   1      44.024  28.258  30.152  1.00  0.00     0.074 A 
ATOM     57  C   UNL A   1      42.826  28.244  30.992  1.00  0.00     0.031 C 
ATOM     58  C   UNL A   1      44.195  28.507  28.820  1.00  0.00     0.034 A 
BRANCH  45  59
ATOM     59  C   UNL A   1      38.844  28.991  28.726  1.00  0.00     0.023 A 
ATOM     60  C   UNL A   1      38.169  30.112  28.195  1.00  0.00     0.012 A 
ATOM     61  C   UNL A   1      38.826  28.852  30.136  1.00  0.00     0.148 A 
ATOM     62  C   UNL A   1      37.583  31.078  29.019  1.00  0.00     0.002 A 
ATOM     63  C   UNL A   1      38.178  29.774  30.949  1.00  0.00     0.091 A 
ATOM     64  F   UNL A   1      39.535  27.898  30.738  1.00  0.00    -0.205 F 
ATOM     65  C   UNL A   1      37.587  30.909  30.398  1.00  0.00     0.022 A 
BRANCH  63  66
ATOM     66  S   UNL A   1      38.122  29.579  32.737  1.00  0.00     0.127 S 
ATOM     67  O   UNL A   1      37.436  28.297  32.868  1.00  0.00    -0.237 OA
ATOM     68  O   UNL A   1      39.545  29.562  33.075  1.00  0.00    -0.237 OA
ATOM     69  O   UNL A   1      37.403  30.741  33.244  1.00  0.00    -0.744 OA
ENDBRANCH  63  66
ENDBRANCH  45  59
BRANCH  46  70
ATOM     70  C   UNL A   1      44.727  25.069  33.540  1.00  0.00     0.023 A 
ATOM     71  C   UNL A   1      43.729  24.309  34.186  1.00  0.00     0.012 A 
ATOM     72  C   UNL A   1      45.993  25.158  34.161  1.00  0.00     0.148 A 
ATOM     73  C   UNL A   1      43.993  23.636  35.388  1.00  0.00     0.002 A 
ATOM     74  C   UNL A   1      46.249  24.494  35.358  1.00  0.00     0.091 A 
ATOM     75  F   UNL A   1      46.975  25.815  33.529  1.00  0.00    -0.205 F 
ATOM     76  C   UNL A   1      45.254  23.721  35.968  1.00  0.00     0.022 A 
BRANCH  74  77
ATOM     77  S   UNL A   1      47.866  24.533  36.147  1.00  0.00     0.127 S 
ATOM     78  O   UNL A   1      47.584  23.914  37.442  1.00  0.00    -0.237 OA
ATOM     79  O   UNL A   1      48.665  23.715  35.237  1.00  0.00    -0.237 OA
ATOM     80  O   UNL A   1      48.239  25.939  36.223  1.00  0.00    -0.744 OA
ENDBRANCH  74  77
ENDBRANCH  46  70
BRANCH  58  81
ATOM     81  C   UNL A   1      45.551  28.234  28.217  1.00  0.00     0.023 A 
ATOM     82  C   UNL A   1      46.633  29.135  28.317  1.00  0.00     0.012 A 
ATOM     83  C   UNL A   1      45.780  26.953  27.693  1.00  0.00     0.148 A 
ATOM     84  C   UNL A   1      47.911  28.767  27.884  1.00  0.00     0.002 A 
ATOM     85  C   UNL A   1      47.059  26.575  27.308  1.00  0.00     0.091 A 
ATOM     86  F   UNL A   1      44.740  26.110  27.608  1.00  0.00    -0.205 F 
ATOM     87  C   UNL A   1      48.127  27.481  27.392  1.00  0.00     0.022 A 
BRANCH  85  88
ATOM     88  S   UNL A   1      47.415  24.896  26.791  1.00  0.00     0.127 S 
ATOM     89  O   UNL A   1      46.615  24.112  27.729  1.00  0.00    -0.237 OA
ATOM     90  O   UNL A   1      46.930  24.882  25.409  1.00  0.00    -0.237 OA
ATOM     91  O   UNL A   1      48.860  24.737  26.913  1.00  0.00    -0.744 OA
ENDBRANCH  85  88
ENDBRANCH  58  81
ENDBRANCH  32  33
ENDBRANCH  25  27
ENDBRANCH  24  25
ENDBRANCH   1  24
TORSDOF 17
ENDMDL
MODEL 3
REMARK VINA RESULT:     -11.2      3.340      8.440
REMARK SMILES O=C(Cn1cnc(-c2ccccc2)c1-c1ccccc1)OCCOC(=O)c1ccc(-c2c3nc(c(-c4cccc(S(=O)(=O)[O-])c4F)c4ccc([nH]4)c(-c4cccc(S(=O)(=O)[O-])c4F)c4nc(c(-c5cccc(S(=O)(=O)[O-])c5F)c5ccc2[nH]5)C=C4)C=C3)cc1
REMARK SMILES IDX 23 1 22 2 21 3 2 4 1 5 3 6 4 7 5 8 14 9 6 10 7 11 15 12
REMARK SMILES IDX 16 13 20 14 17 15 19 16 18 17 8 18 9 19 13 20 10 21 12 22
REMARK SMILES IDX 11 23 24 24 25 25 26 26 27 27 28 28 89 29 29 30 88 31 30 32
REMARK SMILES IDX 31 33 32 34 82 35 33 36 87 37 81 38 83 39 34 40 86 41 80 42
REMARK SMILES IDX 79 43 35 45 67 46 47 47 66 48 48 49 51 50 65 51 84 52 49 53
REMARK SMILES IDX 50 54 64 56 85 57 52 58 36 59 37 60 45 61 38 62 40 63 46 64
REMARK SMILES IDX 39 65 41 66 42 67 43 68 44 69 68 70 69 71 77 72 70 73 72 74
REMARK SMILES IDX 78 75 71 76 73 77 74 78 75 79 76 80 53 81 54 82 62 83 55 84
REMARK SMILES IDX 57 85 63 86 56 87 58 88 59 89 60 90 61 91
REMARK H PARENT 83 44 51 55
REMARK Flexibility Score: inf
ROOT
ATOM      1  C   UNL A   1      37.725  22.183  25.468  1.00  0.00     0.275 C 
ENDROOT
BRANCH   1   2
ATOM      2  C   UNL A   1      36.257  22.085  25.833  1.00  0.00     0.274 C 
BRANCH   2   3
ATOM      3  O   UNL A   1      35.408  22.237  24.672  1.00  0.00    -0.461 OA
BRANCH   3   4
ATOM      4  C   UNL A   1      34.585  23.269  24.374  1.00  0.00     0.326 C 
ATOM      5  O   UNL A   1      34.811  23.946  23.369  1.00  0.00    -0.250 OA
BRANCH   4   6
ATOM      6  C   UNL A   1      33.372  23.565  25.222  1.00  0.00     0.246 C 
BRANCH   6   7
ATOM      7  N   UNL A   1      32.250  24.168  24.531  1.00  0.00    -0.319 N 
ATOM      8  C   UNL A   1      31.475  23.546  23.590  1.00  0.00     0.201 A 
ATOM      9  C   UNL A   1      31.766  25.454  24.712  1.00  0.00     0.076 A 
ATOM     10  N   UNL A   1      30.511  24.322  23.165  1.00  0.00    -0.236 NA
ATOM     11  C   UNL A   1      30.717  25.520  23.801  1.00  0.00     0.096 A 
BRANCH   9  12
ATOM     12  C   UNL A   1      32.282  26.485  25.627  1.00  0.00     0.000 A 
ATOM     13  C   UNL A   1      31.487  26.929  26.698  1.00  0.00     0.010 A 
ATOM     14  C   UNL A   1      33.501  27.135  25.392  1.00  0.00     0.010 A 
ATOM     15  C   UNL A   1      31.881  28.013  27.489  1.00  0.00     0.001 A 
ATOM     16  C   UNL A   1      33.900  28.216  26.191  1.00  0.00     0.001 A 
ATOM     17  C   UNL A   1      33.084  28.662  27.229  1.00  0.00     0.000 A 
ENDBRANCH   9  12
BRANCH  11  18
ATOM     18  C   UNL A   1      29.953  26.703  23.470  1.00  0.00     0.002 A 
ATOM     19  C   UNL A   1      28.609  26.799  23.836  1.00  0.00     0.010 A 
ATOM     20  C   UNL A   1      30.551  27.740  22.742  1.00  0.00     0.010 A 
ATOM     21  C   UNL A   1      27.870  27.931  23.484  1.00  0.00     0.001 A 
ATOM     22  C   UNL A   1      29.812  28.864  22.385  1.00  0.00     0.001 A 
ATOM     23  C   UNL A   1      28.471  28.959  22.755  1.00  0.00     0.000 A 
ENDBRANCH  11  18
ENDBRANCH   6   7
ENDBRANCH   4   6
ENDBRANCH   3   4
ENDBRANCH   2   3
ENDBRANCH   1   2
BRANCH   1  24
ATOM     24  O   UNL A   1      38.363  23.041  26.399  1.00  0.00    -0.458 OA
BRANCH  24  25
ATOM     25  C   UNL A   1      39.621  22.736  26.794  1.00  0.00     0.338 C 
ATOM     26  O   UNL A   1      40.096  21.642  26.969  1.00  0.00    -0.246 OA
BRANCH  25  27
ATOM     27  C   UNL A   1      40.303  24.023  26.998  1.00  0.00     0.060 A 
ATOM     28  C   UNL A   1      41.384  24.063  27.882  1.00  0.00     0.016 A 
ATOM     29  C   UNL A   1      39.705  25.187  26.493  1.00  0.00     0.016 A 
ATOM     30  C   UNL A   1      41.693  25.273  28.462  1.00  0.00     0.010 A 
ATOM     31  C   UNL A   1      39.971  26.372  27.108  1.00  0.00     0.010 A 
ATOM     32  C   UNL A   1      40.894  26.375  28.146  1.00  0.00    -0.014 A 
BRANCH  32  33
ATOM     33  C   UNL A   1      41.041  27.604  28.881  1.00  0.00     0.031 A 
ATOM     34  C   UNL A   1      42.083  28.470  28.296  1.00  0.00     0.074 A 
ATOM     35  C   UNL A   1      40.161  27.930  29.848  1.00  0.00     0.049 A 
ATOM     36  N   UNL A   1      43.281  28.658  28.743  1.00  0.00    -0.248 NA
ATOM     37  C   UNL A   1      41.875  28.971  26.925  1.00  0.00     0.031 C 
ATOM     38  C   UNL A   1      38.920  27.234  30.212  1.00  0.00     0.029 A 
ATOM     39  N   UNL A   1      40.113  29.045  30.617  1.00  0.00    -0.354 N 
ATOM     40  C   UNL A   1      43.845  29.557  27.845  1.00  0.00     0.074 A 
ATOM     41  C   UNL A   1      43.093  29.428  26.631  1.00  0.00     0.031 C 
ATOM     42  C   UNL A   1      38.136  28.071  30.931  1.00  0.00     0.029 A 
ATOM     43  C   UNL A   1      38.863  29.303  31.175  1.00  0.00     0.049 A 
ATOM     44  H   UNL A   1      40.895  29.624  30.768  1.00  0.00     0.167 HD
ATOM     45  C   UNL A   1      44.600  30.597  28.292  1.00  0.00     0.034 A 
ATOM     46  C   UNL A   1      38.452  30.487  31.702  1.00  0.00     0.034 A 
ATOM     47  C   UNL A   1      45.001  30.382  29.664  1.00  0.00     0.049 A 
ATOM     48  C   UNL A   1      39.670  31.288  31.975  1.00  0.00     0.074 A 
ATOM     49  C   UNL A   1      45.677  29.384  30.338  1.00  0.00     0.029 A 
ATOM     50  N   UNL A   1      44.314  31.094  30.620  1.00  0.00    -0.354 N 
ATOM     51  N   UNL A   1      40.561  30.956  32.869  1.00  0.00    -0.248 NA
ATOM     52  C   UNL A   1      40.139  32.181  30.926  1.00  0.00     0.031 C 
ATOM     53  C   UNL A   1      45.006  29.268  31.591  1.00  0.00     0.029 A 
ATOM     54  C   UNL A   1      44.017  30.251  31.655  1.00  0.00     0.049 A 
ATOM     55  H   UNL A   1      44.077  32.047  30.566  1.00  0.00     0.167 HD
ATOM     56  C   UNL A   1      41.778  31.190  32.241  1.00  0.00     0.074 A 
ATOM     57  C   UNL A   1      41.458  32.042  31.094  1.00  0.00     0.031 C 
ATOM     58  C   UNL A   1      42.868  30.417  32.519  1.00  0.00     0.034 A 
BRANCH  45  59
ATOM     59  C   UNL A   1      44.605  31.987  27.683  1.00  0.00     0.023 A 
ATOM     60  C   UNL A   1      45.680  32.288  26.819  1.00  0.00     0.012 A 
ATOM     61  C   UNL A   1      43.810  33.081  28.107  1.00  0.00     0.148 A 
ATOM     62  C   UNL A   1      45.995  33.603  26.465  1.00  0.00     0.002 A 
ATOM     63  C   UNL A   1      44.081  34.380  27.693  1.00  0.00     0.091 A 
ATOM     64  F   UNL A   1      42.851  32.916  29.017  1.00  0.00    -0.205 F 
ATOM     65  C   UNL A   1      45.195  34.652  26.902  1.00  0.00     0.022 A 
BRANCH  63  66
ATOM     66  S   UNL A   1      43.050  35.765  28.201  1.00  0.00     0.127 S 
ATOM     67  O   UNL A   1      43.687  36.155  29.456  1.00  0.00    -0.237 OA
ATOM     68  O   UNL A   1      43.241  36.696  27.090  1.00  0.00    -0.237 OA
ATOM     69  O   UNL A   1      41.697  35.236  28.311  1.00  0.00    -0.744 OA
ENDBRANCH  63  66
ENDBRANCH  45  59
BRANCH  46  70
ATOM     70  C   UNL A   1      37.103  31.112  31.699  1.00  0.00     0.023 A 
ATOM     71  C   UNL A   1      36.531  31.548  32.913  1.00  0.00     0.012 A 
ATOM     72  C   UNL A   1      36.507  31.545  30.495  1.00  0.00     0.148 A 
ATOM     73  C   UNL A   1      35.425  32.411  32.924  1.00  0.00     0.002 A 
ATOM     74  C   UNL A   1      35.405  32.397  30.510  1.00  0.00     0.091 A 
ATOM     75  F   UNL A   1      37.077  31.201  29.332  1.00  0.00    -0.205 F 
ATOM     76  C   UNL A   1      34.869  32.842  31.724  1.00  0.00     0.022 A 
BRANCH  74  77
ATOM     77  S   UNL A   1      34.655  33.020  28.998  1.00  0.00     0.127 S 
ATOM     78  O   UNL A   1      34.149  31.792  28.384  1.00  0.00    -0.237 OA
ATOM     79  O   UNL A   1      33.623  33.914  29.519  1.00  0.00    -0.237 OA
ATOM     80  O   UNL A   1      35.730  33.663  28.255  1.00  0.00    -0.744 OA
ENDBRANCH  74  77
ENDBRANCH  46  70
BRANCH  58  81
ATOM     81  C   UNL A   1      42.793  29.489  33.706  1.00  0.00     0.023 A 
ATOM     82  C   UNL A   1      42.268  28.181  33.629  1.00  0.00     0.012 A 
ATOM     83  C   UNL A   1      43.437  29.893  34.886  1.00  0.00     0.148 A 
ATOM     84  C   UNL A   1      42.368  27.305  34.715  1.00  0.00     0.002 A 
ATOM     85  C   UNL A   1      43.576  29.006  35.944  1.00  0.00     0.091 A 
ATOM     86  F   UNL A   1      43.931  31.139  34.940  1.00  0.00    -0.205 F 
ATOM     87  C   UNL A   1      43.036  27.713  35.868  1.00  0.00     0.022 A 
BRANCH  85  88
ATOM     88  S   UNL A   1      44.535  29.436  37.397  1.00  0.00     0.127 S 
ATOM     89  O   UNL A   1      43.751  30.529  37.967  1.00  0.00    -0.237 OA
ATOM     90  O   UNL A   1      44.508  28.193  38.170  1.00  0.00    -0.237 OA
ATOM     91  O   UNL A   1      45.860  29.802  36.908  1.00  0.00    -0.744 OA
ENDBRANCH  85  88
ENDBRANCH  58  81
ENDBRANCH  32  33
ENDBRANCH  25  27
ENDBRANCH  24  25
ENDBRANCH   1  24
TORSDOF 17
ENDMDL
