MODEL 1
REMARK VINA RESULT:     -12.1      0.000      0.000
REMARK SMILES C[C@H]1N=N[C@H](S/C(=C/c2ccc(-c3cccc(Cl)c3)o2)C(=O)OCCOC(=O)c2ccc(-c3c4nc(c(-c5cccc(S(=O)(=O)[O-])c5F)c5ccc([nH]5)c(-c5cccc(S(=O)(=O)[O-])c5F)c5nc(c(-c6cccc(S(=O)(=O)[O-])c6F)c6ccc3[nH]6)C=C5)C=C4)cc2)[NH2+]1
REMARK SMILES IDX 25 1 24 2 23 3 21 4 22 5 7 6 8 7 6 8 5 9 1 10 2 11 3 12
REMARK SMILES IDX 92 13 4 14 9 17 10 18 20 19 11 20 12 21 13 22 14 23 19 24
REMARK SMILES IDX 15 25 17 26 16 27 18 28 26 29 27 30 28 31 29 32 30 33 91 34
REMARK SMILES IDX 31 35 90 36 32 37 33 38 34 39 84 40 35 41 89 42 83 43 85 44
REMARK SMILES IDX 36 45 88 46 82 47 81 48 37 50 69 51 49 52 68 53 50 54 53 55
REMARK SMILES IDX 67 56 86 57 51 58 52 59 66 61 87 62 54 63 38 64 39 65 47 66
REMARK SMILES IDX 40 67 42 68 48 69 41 70 43 71 44 72 45 73 46 74 70 75 71 76
REMARK SMILES IDX 79 77 72 78 74 79 80 80 73 81 75 82 76 83 77 84 78 85 55 86
REMARK SMILES IDX 56 87 64 88 57 89 59 90 65 91 58 92 60 93 61 94 62 95 63 96
REMARK H PARENT 92 15 92 16 85 49 53 60
REMARK Flexibility Score: inf
ROOT
ATOM      1  C   UNL A   1      36.733  21.056  24.788  1.00  0.00     0.275 C 
ENDROOT
BRANCH   1   2
ATOM      2  C   UNL A   1      36.537  22.232  23.831  1.00  0.00     0.275 C 
BRANCH   2   3
ATOM      3  O   UNL A   1      35.810  23.288  24.488  1.00  0.00    -0.458 OA
BRANCH   3   4
ATOM      4  C   UNL A   1      34.712  23.757  23.835  1.00  0.00     0.345 C 
ATOM      5  O   UNL A   1      34.625  23.963  22.633  1.00  0.00    -0.246 OA
BRANCH   4   6
ATOM      6  C   UNL A   1      33.621  24.061  24.816  1.00  0.00     0.104 C 
ATOM      7  C   UNL A   1      32.590  23.210  24.970  1.00  0.00     0.070 C 
BRANCH   6   8
ATOM      8  S   UNL A   1      33.915  25.498  25.752  1.00  0.00    -0.028 SA
BRANCH   8   9
ATOM      9  C   UNL A   1      32.437  26.543  25.642  1.00  0.00     0.393 C 
ATOM     10  C   UNL A   1      31.710  29.782  26.808  1.00  0.00     0.106 C 
ATOM     11  C   UNL A   1      32.425  28.436  26.862  1.00  0.00     0.324 C 
ATOM     12  N   UNL A   1      31.516  27.456  27.472  1.00  0.00    -0.126 NA
ATOM     13  N   UNL A   1      32.775  27.961  25.518  1.00  0.00    -0.293 N 
ATOM     14  N   UNL A   1      31.510  26.407  26.786  1.00  0.00    -0.115 NA
ATOM     15  H   UNL A   1      33.767  28.096  25.317  1.00  0.00     0.350 HD
ATOM     16  H   UNL A   1      32.301  28.448  24.757  1.00  0.00     0.350 HD
ENDBRANCH   8   9
ENDBRANCH   6   8
BRANCH   7  17
ATOM     17  C   UNL A   1      32.519  21.931  24.343  1.00  0.00     0.128 A 
ATOM     18  C   UNL A   1      32.066  21.586  23.072  1.00  0.00     0.051 A 
ATOM     19  O   UNL A   1      32.996  20.779  24.933  1.00  0.00    -0.457 OA
ATOM     20  C   UNL A   1      32.239  20.197  22.906  1.00  0.00     0.051 A 
ATOM     21  C   UNL A   1      32.819  19.744  24.067  1.00  0.00     0.134 A 
BRANCH  21  22
ATOM     22  C   UNL A   1      33.298  18.442  24.494  1.00  0.00     0.019 A 
ATOM     23  C   UNL A   1      34.654  18.116  24.328  1.00  0.00     0.012 A 
ATOM     24  C   UNL A   1      32.433  17.492  25.049  1.00  0.00     0.032 A 
ATOM     25  C   UNL A   1      35.141  16.865  24.711  1.00  0.00     0.002 A 
ATOM     26  C   UNL A   1      32.922  16.238  25.418  1.00  0.00     0.041 A 
ATOM     27  C   UNL A   1      34.271  15.923  25.253  1.00  0.00     0.020 A 
ATOM     28  Cl  UNL A   1      31.854  15.058  26.073  1.00  0.00    -0.084 Cl
ENDBRANCH  21  22
ENDBRANCH   7  17
ENDBRANCH   4   6
ENDBRANCH   3   4
ENDBRANCH   2   3
ENDBRANCH   1   2
BRANCH   1  29
ATOM     29  O   UNL A   1      37.369  21.531  25.987  1.00  0.00    -0.458 OA
BRANCH  29  30
ATOM     30  C   UNL A   1      38.700  21.311  26.049  1.00  0.00     0.338 C 
ATOM     31  O   UNL A   1      39.326  20.360  25.602  1.00  0.00    -0.246 OA
BRANCH  30  32
ATOM     32  C   UNL A   1      39.341  22.515  26.586  1.00  0.00     0.060 A 
ATOM     33  C   UNL A   1      38.855  23.745  26.142  1.00  0.00     0.016 A 
ATOM     34  C   UNL A   1      40.431  22.449  27.449  1.00  0.00     0.016 A 
ATOM     35  C   UNL A   1      39.474  24.927  26.533  1.00  0.00     0.010 A 
ATOM     36  C   UNL A   1      41.048  23.638  27.852  1.00  0.00     0.010 A 
ATOM     37  C   UNL A   1      40.590  24.882  27.378  1.00  0.00    -0.014 A 
BRANCH  37  38
ATOM     38  C   UNL A   1      41.333  26.132  27.682  1.00  0.00     0.031 A 
ATOM     39  C   UNL A   1      40.679  27.197  28.519  1.00  0.00     0.074 A 
ATOM     40  C   UNL A   1      42.587  26.307  27.227  1.00  0.00     0.049 A 
ATOM     41  N   UNL A   1      41.119  28.387  28.835  1.00  0.00    -0.248 NA
ATOM     42  C   UNL A   1      39.349  26.884  29.068  1.00  0.00     0.031 C 
ATOM     43  C   UNL A   1      43.337  25.342  26.423  1.00  0.00     0.029 A 
ATOM     44  N   UNL A   1      43.451  27.365  27.371  1.00  0.00    -0.354 N 
ATOM     45  C   UNL A   1      40.103  28.985  29.570  1.00  0.00     0.074 A 
ATOM     46  C   UNL A   1      39.023  28.025  29.657  1.00  0.00     0.031 C 
ATOM     47  C   UNL A   1      44.548  25.852  26.143  1.00  0.00     0.029 A 
ATOM     48  C   UNL A   1      44.646  27.193  26.713  1.00  0.00     0.049 A 
ATOM     49  H   UNL A   1      43.235  28.171  27.894  1.00  0.00     0.167 HD
ATOM     50  C   UNL A   1      40.076  30.215  30.136  1.00  0.00     0.034 A 
ATOM     51  C   UNL A   1      45.695  28.028  26.573  1.00  0.00     0.034 A 
ATOM     52  C   UNL A   1      41.173  31.143  30.101  1.00  0.00     0.049 A 
ATOM     53  C   UNL A   1      45.647  29.381  27.231  1.00  0.00     0.074 A 
ATOM     54  C   UNL A   1      41.254  32.401  30.673  1.00  0.00     0.029 A 
ATOM     55  N   UNL A   1      42.386  30.912  29.472  1.00  0.00    -0.354 N 
ATOM     56  N   UNL A   1      44.706  29.903  27.980  1.00  0.00    -0.248 NA
ATOM     57  C   UNL A   1      46.816  30.254  27.043  1.00  0.00     0.031 C 
ATOM     58  C   UNL A   1      42.516  32.932  30.385  1.00  0.00     0.029 A 
ATOM     59  C   UNL A   1      43.224  32.000  29.642  1.00  0.00     0.049 A 
ATOM     60  H   UNL A   1      42.617  30.093  28.977  1.00  0.00     0.167 HD
ATOM     61  C   UNL A   1      45.176  31.152  28.370  1.00  0.00     0.074 A 
ATOM     62  C   UNL A   1      46.499  31.296  27.799  1.00  0.00     0.031 C 
ATOM     63  C   UNL A   1      44.559  32.104  29.112  1.00  0.00     0.034 A 
BRANCH  50  64
ATOM     64  C   UNL A   1      38.826  30.614  30.873  1.00  0.00     0.023 A 
ATOM     65  C   UNL A   1      38.736  30.388  32.261  1.00  0.00     0.012 A 
ATOM     66  C   UNL A   1      37.762  31.251  30.205  1.00  0.00     0.148 A 
ATOM     67  C   UNL A   1      37.595  30.765  32.968  1.00  0.00     0.002 A 
ATOM     68  C   UNL A   1      36.644  31.657  30.924  1.00  0.00     0.091 A 
ATOM     69  F   UNL A   1      37.855  31.431  28.880  1.00  0.00    -0.205 F 
ATOM     70  C   UNL A   1      36.554  31.407  32.302  1.00  0.00     0.022 A 
BRANCH  68  71
ATOM     71  S   UNL A   1      35.284  32.553  30.163  1.00  0.00     0.127 S 
ATOM     72  O   UNL A   1      34.320  32.617  31.260  1.00  0.00    -0.237 OA
ATOM     73  O   UNL A   1      35.906  33.833  29.822  1.00  0.00    -0.237 OA
ATOM     74  O   UNL A   1      34.878  31.755  29.013  1.00  0.00    -0.744 OA
ENDBRANCH  68  71
ENDBRANCH  50  64
BRANCH  51  75
ATOM     75  C   UNL A   1      46.899  27.586  25.812  1.00  0.00     0.023 A 
ATOM     76  C   UNL A   1      46.962  27.820  24.425  1.00  0.00     0.012 A 
ATOM     77  C   UNL A   1      47.990  26.972  26.454  1.00  0.00     0.148 A 
ATOM     78  C   UNL A   1      48.082  27.431  23.688  1.00  0.00     0.002 A 
ATOM     79  C   UNL A   1      49.126  26.638  25.724  1.00  0.00     0.091 A 
ATOM     80  F   UNL A   1      47.903  26.731  27.771  1.00  0.00    -0.205 F 
ATOM     81  C   UNL A   1      49.169  26.854  24.339  1.00  0.00     0.022 A 
BRANCH  79  82
ATOM     82  S   UNL A   1      50.616  26.017  26.514  1.00  0.00     0.127 S 
ATOM     83  O   UNL A   1      50.933  27.094  27.447  1.00  0.00    -0.237 OA
ATOM     84  O   UNL A   1      50.143  24.780  27.137  1.00  0.00    -0.237 OA
ATOM     85  O   UNL A   1      51.568  25.809  25.430  1.00  0.00    -0.744 OA
ENDBRANCH  79  82
ENDBRANCH  51  75
BRANCH  63  86
ATOM     86  C   UNL A   1      45.311  33.385  29.363  1.00  0.00     0.023 A 
ATOM     87  C   UNL A   1      46.142  33.489  30.496  1.00  0.00     0.012 A 
ATOM     88  C   UNL A   1      45.249  34.455  28.450  1.00  0.00     0.148 A 
ATOM     89  C   UNL A   1      46.877  34.650  30.733  1.00  0.00     0.002 A 
ATOM     90  C   UNL A   1      46.016  35.594  28.670  1.00  0.00     0.091 A 
ATOM     91  F   UNL A   1      44.435  34.348  27.389  1.00  0.00    -0.205 F 
ATOM     92  C   UNL A   1      46.822  35.696  29.816  1.00  0.00     0.022 A 
BRANCH  90  93
ATOM     93  S   UNL A   1      46.066  36.948  27.491  1.00  0.00     0.127 S 
ATOM     94  O   UNL A   1      46.869  37.939  28.204  1.00  0.00    -0.237 OA
ATOM     95  O   UNL A   1      46.732  36.340  26.337  1.00  0.00    -0.237 OA
ATOM     96  O   UNL A   1      44.675  37.312  27.254  1.00  0.00    -0.744 OA
ENDBRANCH  90  93
ENDBRANCH  63  86
ENDBRANCH  37  38
ENDBRANCH  30  32
ENDBRANCH  29  30
ENDBRANCH   1  29
TORSDOF 18
ENDMDL
MODEL 2
REMARK VINA RESULT:     -12.0      2.753      4.648
REMARK SMILES C[C@H]1N=N[C@H](S/C(=C/c2ccc(-c3cccc(Cl)c3)o2)C(=O)OCCOC(=O)c2ccc(-c3c4nc(c(-c5cccc(S(=O)(=O)[O-])c5F)c5ccc([nH]5)c(-c5cccc(S(=O)(=O)[O-])c5F)c5nc(c(-c6cccc(S(=O)(=O)[O-])c6F)c6ccc3[nH]6)C=C5)C=C4)cc2)[NH2+]1
REMARK SMILES IDX 25 1 24 2 23 3 21 4 22 5 7 6 8 7 6 8 5 9 1 10 2 11 3 12
REMARK SMILES IDX 92 13 4 14 9 17 10 18 20 19 11 20 12 21 13 22 14 23 19 24
REMARK SMILES IDX 15 25 17 26 16 27 18 28 26 29 27 30 28 31 29 32 30 33 91 34
REMARK SMILES IDX 31 35 90 36 32 37 33 38 34 39 84 40 35 41 89 42 83 43 85 44
REMARK SMILES IDX 36 45 88 46 82 47 81 48 37 50 69 51 49 52 68 53 50 54 53 55
REMARK SMILES IDX 67 56 86 57 51 58 52 59 66 61 87 62 54 63 38 64 39 65 47 66
REMARK SMILES IDX 40 67 42 68 48 69 41 70 43 71 44 72 45 73 46 74 70 75 71 76
REMARK SMILES IDX 79 77 72 78 74 79 80 80 73 81 75 82 76 83 77 84 78 85 55 86
REMARK SMILES IDX 56 87 64 88 57 89 59 90 65 91 58 92 60 93 61 94 62 95 63 96
REMARK H PARENT 92 15 92 16 85 49 53 60
REMARK Flexibility Score: inf
ROOT
ATOM      1  C   UNL A   1      37.371  21.263  24.517  1.00  0.00     0.275 C 
ENDROOT
BRANCH   1   2
ATOM      2  C   UNL A   1      36.887  22.464  23.705  1.00  0.00     0.275 C 
BRANCH   2   3
ATOM      3  O   UNL A   1      35.995  23.270  24.499  1.00  0.00    -0.458 OA
BRANCH   3   4
ATOM      4  C   UNL A   1      34.676  22.944  24.436  1.00  0.00     0.345 C 
ATOM      5  O   UNL A   1      33.998  22.885  23.420  1.00  0.00    -0.246 OA
BRANCH   4   6
ATOM      6  C   UNL A   1      34.133  22.728  25.816  1.00  0.00     0.104 C 
ATOM      7  C   UNL A   1      33.499  23.725  26.460  1.00  0.00     0.070 C 
BRANCH   6   8
ATOM      8  S   UNL A   1      34.310  21.091  26.379  1.00  0.00    -0.028 SA
BRANCH   8   9
ATOM      9  C   UNL A   1      32.867  20.151  25.811  1.00  0.00     0.393 C 
ATOM     10  C   UNL A   1      32.329  16.723  25.229  1.00  0.00     0.106 C 
ATOM     11  C   UNL A   1      33.189  17.980  25.309  1.00  0.00     0.324 C 
ATOM     12  N   UNL A   1      33.003  18.746  24.069  1.00  0.00    -0.126 NA
ATOM     13  N   UNL A   1      32.792  18.830  26.437  1.00  0.00    -0.293 N 
ATOM     14  N   UNL A   1      32.808  19.952  24.348  1.00  0.00    -0.115 NA
ATOM     15  H   UNL A   1      33.442  18.746  27.219  1.00  0.00     0.350 HD
ATOM     16  H   UNL A   1      31.885  18.601  26.845  1.00  0.00     0.350 HD
ENDBRANCH   8   9
ENDBRANCH   6   8
BRANCH   7  17
ATOM     17  C   UNL A   1      33.177  24.977  25.857  1.00  0.00     0.128 A 
ATOM     18  C   UNL A   1      34.003  26.054  25.545  1.00  0.00     0.051 A 
ATOM     19  O   UNL A   1      31.913  25.286  25.401  1.00  0.00    -0.457 OA
ATOM     20  C   UNL A   1      33.218  27.045  24.922  1.00  0.00     0.051 A 
ATOM     21  C   UNL A   1      31.945  26.530  24.846  1.00  0.00     0.134 A 
BRANCH  21  22
ATOM     22  C   UNL A   1      30.708  27.022  24.268  1.00  0.00     0.019 A 
ATOM     23  C   UNL A   1      29.526  26.281  24.430  1.00  0.00     0.012 A 
ATOM     24  C   UNL A   1      30.670  28.211  23.531  1.00  0.00     0.032 A 
ATOM     25  C   UNL A   1      28.325  26.719  23.870  1.00  0.00     0.002 A 
ATOM     26  C   UNL A   1      29.469  28.637  22.961  1.00  0.00     0.041 A 
ATOM     27  C   UNL A   1      28.298  27.897  23.130  1.00  0.00     0.020 A 
ATOM     28  Cl  UNL A   1      29.427  30.083  22.029  1.00  0.00    -0.084 Cl
ENDBRANCH  21  22
ENDBRANCH   7  17
ENDBRANCH   4   6
ENDBRANCH   3   4
ENDBRANCH   2   3
ENDBRANCH   1   2
BRANCH   1  29
ATOM     29  O   UNL A   1      37.750  21.708  25.830  1.00  0.00    -0.458 OA
BRANCH  29  30
ATOM     30  C   UNL A   1      39.037  21.468  26.163  1.00  0.00     0.338 C 
ATOM     31  O   UNL A   1      39.706  20.477  25.904  1.00  0.00    -0.246 OA
BRANCH  30  32
ATOM     32  C   UNL A   1      39.600  22.692  26.738  1.00  0.00     0.060 A 
ATOM     33  C   UNL A   1      39.088  23.905  26.277  1.00  0.00     0.016 A 
ATOM     34  C   UNL A   1      40.646  22.663  27.656  1.00  0.00     0.016 A 
ATOM     35  C   UNL A   1      39.638  25.108  26.707  1.00  0.00     0.010 A 
ATOM     36  C   UNL A   1      41.193  23.872  28.097  1.00  0.00     0.010 A 
ATOM     37  C   UNL A   1      40.710  25.101  27.607  1.00  0.00    -0.014 A 
BRANCH  37  38
ATOM     38  C   UNL A   1      41.385  26.377  27.957  1.00  0.00     0.031 A 
ATOM     39  C   UNL A   1      40.626  27.434  28.710  1.00  0.00     0.074 A 
ATOM     40  C   UNL A   1      42.671  26.583  27.617  1.00  0.00     0.049 A 
ATOM     41  N   UNL A   1      41.000  28.642  29.044  1.00  0.00    -0.248 NA
ATOM     42  C   UNL A   1      39.260  27.090  29.139  1.00  0.00     0.031 C 
ATOM     43  C   UNL A   1      43.519  25.629  26.902  1.00  0.00     0.029 A 
ATOM     44  N   UNL A   1      43.486  27.669  27.821  1.00  0.00    -0.354 N 
ATOM     45  C   UNL A   1      39.903  29.220  29.671  1.00  0.00     0.074 A 
ATOM     46  C   UNL A   1      38.848  28.229  29.675  1.00  0.00     0.031 C 
ATOM     47  C   UNL A   1      44.736  26.172  26.726  1.00  0.00     0.029 A 
ATOM     48  C   UNL A   1      44.742  27.523  27.279  1.00  0.00     0.049 A 
ATOM     49  H   UNL A   1      43.200  28.475  28.307  1.00  0.00     0.167 HD
ATOM     50  C   UNL A   1      39.788  30.457  30.210  1.00  0.00     0.034 A 
ATOM     51  C   UNL A   1      45.775  28.387  27.222  1.00  0.00     0.034 A 
ATOM     52  C   UNL A   1      40.857  31.417  30.260  1.00  0.00     0.049 A 
ATOM     53  C   UNL A   1      45.627  29.748  27.849  1.00  0.00     0.074 A 
ATOM     54  C   UNL A   1      40.848  32.686  30.814  1.00  0.00     0.029 A 
ATOM     55  N   UNL A   1      42.129  31.214  29.750  1.00  0.00    -0.354 N 
ATOM     56  N   UNL A   1      44.606  30.252  28.498  1.00  0.00    -0.248 NA
ATOM     57  C   UNL A   1      46.783  30.653  27.754  1.00  0.00     0.031 C 
ATOM     58  C   UNL A   1      42.116  33.250  30.635  1.00  0.00     0.029 A 
ATOM     59  C   UNL A   1      42.916  32.329  29.977  1.00  0.00     0.049 A 
ATOM     60  H   UNL A   1      42.429  30.395  29.293  1.00  0.00     0.167 HD
ATOM     61  C   UNL A   1      45.002  31.521  28.907  1.00  0.00     0.074 A 
ATOM     62  C   UNL A   1      46.368  31.696  28.458  1.00  0.00     0.031 C 
ATOM     63  C   UNL A   1      44.292  32.465  29.572  1.00  0.00     0.034 A 
BRANCH  50  64
ATOM     64  C   UNL A   1      38.465  30.829  30.821  1.00  0.00     0.023 A 
ATOM     65  C   UNL A   1      38.213  30.524  32.174  1.00  0.00     0.012 A 
ATOM     66  C   UNL A   1      37.489  31.518  30.074  1.00  0.00     0.148 A 
ATOM     67  C   UNL A   1      37.001  30.875  32.766  1.00  0.00     0.002 A 
ATOM     68  C   UNL A   1      36.298  31.897  30.682  1.00  0.00     0.091 A 
ATOM     69  F   UNL A   1      37.735  31.774  28.781  1.00  0.00    -0.205 F 
ATOM     70  C   UNL A   1      36.048  31.568  32.024  1.00  0.00     0.022 A 
BRANCH  68  71
ATOM     71  S   UNL A   1      35.041  32.853  29.825  1.00  0.00     0.127 S 
ATOM     72  O   UNL A   1      34.523  31.874  28.871  1.00  0.00    -0.237 OA
ATOM     73  O   UNL A   1      34.119  33.197  30.908  1.00  0.00    -0.237 OA
ATOM     74  O   UNL A   1      35.738  33.992  29.242  1.00  0.00    -0.744 OA
ENDBRANCH  68  71
ENDBRANCH  50  64
BRANCH  51  75
ATOM     75  C   UNL A   1      47.057  27.971  26.584  1.00  0.00     0.023 A 
ATOM     76  C   UNL A   1      48.128  27.554  27.397  1.00  0.00     0.012 A 
ATOM     77  C   UNL A   1      47.210  27.951  25.185  1.00  0.00     0.148 A 
ATOM     78  C   UNL A   1      49.335  27.144  26.828  1.00  0.00     0.002 A 
ATOM     79  C   UNL A   1      48.395  27.488  24.623  1.00  0.00     0.091 A 
ATOM     80  F   UNL A   1      46.190  28.377  24.425  1.00  0.00    -0.205 F 
ATOM     81  C   UNL A   1      49.463  27.098  25.442  1.00  0.00     0.022 A 
BRANCH  79  82
ATOM     82  S   UNL A   1      48.586  27.271  22.849  1.00  0.00     0.127 S 
ATOM     83  O   UNL A   1      47.600  28.210  22.323  1.00  0.00    -0.237 OA
ATOM     84  O   UNL A   1      49.981  27.662  22.639  1.00  0.00    -0.237 OA
ATOM     85  O   UNL A   1      48.321  25.860  22.603  1.00  0.00    -0.744 OA
ENDBRANCH  79  82
ENDBRANCH  51  75
BRANCH  63  86
ATOM     86  C   UNL A   1      44.980  33.772  29.868  1.00  0.00     0.023 A 
ATOM     87  C   UNL A   1      45.705  33.915  31.067  1.00  0.00     0.012 A 
ATOM     88  C   UNL A   1      44.965  34.829  28.938  1.00  0.00     0.148 A 
ATOM     89  C   UNL A   1      46.382  35.101  31.349  1.00  0.00     0.002 A 
ATOM     90  C   UNL A   1      45.675  35.994  29.207  1.00  0.00     0.091 A 
ATOM     91  F   UNL A   1      44.250  34.684  27.812  1.00  0.00    -0.205 F 
ATOM     92  C   UNL A   1      46.375  36.135  30.416  1.00  0.00     0.022 A 
BRANCH  90  93
ATOM     93  S   UNL A   1      45.786  37.335  28.017  1.00  0.00     0.127 S 
ATOM     94  O   UNL A   1      46.397  36.669  26.869  1.00  0.00    -0.237 OA
ATOM     95  O   UNL A   1      44.383  37.709  27.829  1.00  0.00    -0.237 OA
ATOM     96  O   UNL A   1      46.596  38.362  28.659  1.00  0.00    -0.744 OA
ENDBRANCH  90  93
ENDBRANCH  63  86
ENDBRANCH  37  38
ENDBRANCH  30  32
ENDBRANCH  29  30
ENDBRANCH   1  29
TORSDOF 18
ENDMDL
MODEL 3
REMARK VINA RESULT:     -12.0      1.515      1.835
REMARK SMILES C[C@H]1N=N[C@H](S/C(=C/c2ccc(-c3cccc(Cl)c3)o2)C(=O)OCCOC(=O)c2ccc(-c3c4nc(c(-c5cccc(S(=O)(=O)[O-])c5F)c5ccc([nH]5)c(-c5cccc(S(=O)(=O)[O-])c5F)c5nc(c(-c6cccc(S(=O)(=O)[O-])c6F)c6ccc3[nH]6)C=C5)C=C4)cc2)[NH2+]1
REMARK SMILES IDX 25 1 24 2 23 3 21 4 22 5 7 6 8 7 6 8 5 9 1 10 2 11 3 12
REMARK SMILES IDX 92 13 4 14 9 17 10 18 20 19 11 20 12 21 13 22 14 23 19 24
REMARK SMILES IDX 15 25 17 26 16 27 18 28 26 29 27 30 28 31 29 32 30 33 91 34
REMARK SMILES IDX 31 35 90 36 32 37 33 38 34 39 84 40 35 41 89 42 83 43 85 44
REMARK SMILES IDX 36 45 88 46 82 47 81 48 37 50 69 51 49 52 68 53 50 54 53 55
REMARK SMILES IDX 67 56 86 57 51 58 52 59 66 61 87 62 54 63 38 64 39 65 47 66
REMARK SMILES IDX 40 67 42 68 48 69 41 70 43 71 44 72 45 73 46 74 70 75 71 76
REMARK SMILES IDX 79 77 72 78 74 79 80 80 73 81 75 82 76 83 77 84 78 85 55 86
REMARK SMILES IDX 56 87 64 88 57 89 59 90 65 91 58 92 60 93 61 94 62 95 63 96
REMARK H PARENT 92 15 92 16 85 49 53 60
REMARK Flexibility Score: inf
ROOT
ATOM      1  C   UNL A   1      36.545  21.653  24.166  1.00  0.00     0.275 C 
ENDROOT
BRANCH   1   2
ATOM      2  C   UNL A   1      36.650  22.981  23.416  1.00  0.00     0.275 C 
BRANCH   2   3
ATOM      3  O   UNL A   1      35.338  23.444  23.043  1.00  0.00    -0.458 OA
BRANCH   3   4
ATOM      4  C   UNL A   1      34.744  24.318  23.900  1.00  0.00     0.345 C 
ATOM      5  O   UNL A   1      35.188  24.678  24.980  1.00  0.00    -0.246 OA
BRANCH   4   6
ATOM      6  C   UNL A   1      33.409  24.737  23.363  1.00  0.00     0.104 C 
ATOM      7  C   UNL A   1      32.351  23.909  23.452  1.00  0.00     0.070 C 
BRANCH   6   8
ATOM      8  S   UNL A   1      33.386  26.372  22.769  1.00  0.00    -0.028 SA
BRANCH   8   9
ATOM      9  C   UNL A   1      32.704  27.427  24.077  1.00  0.00     0.393 C 
ATOM     10  C   UNL A   1      34.128  28.924  26.925  1.00  0.00     0.106 C 
ATOM     11  C   UNL A   1      34.023  27.843  25.854  1.00  0.00     0.324 C 
ATOM     12  N   UNL A   1      32.958  26.910  26.245  1.00  0.00    -0.126 NA
ATOM     13  N   UNL A   1      33.675  28.415  24.548  1.00  0.00    -0.293 N 
ATOM     14  N   UNL A   1      32.214  26.688  25.261  1.00  0.00    -0.115 NA
ATOM     15  H   UNL A   1      34.487  28.470  23.932  1.00  0.00     0.350 HD
ATOM     16  H   UNL A   1      33.327  29.374  24.582  1.00  0.00     0.350 HD
ENDBRANCH   8   9
ENDBRANCH   6   8
BRANCH   7  17
ATOM     17  C   UNL A   1      32.373  22.671  24.159  1.00  0.00     0.128 A 
ATOM     18  C   UNL A   1      31.894  22.363  25.430  1.00  0.00     0.051 A 
ATOM     19  O   UNL A   1      32.845  21.500  23.606  1.00  0.00    -0.457 OA
ATOM     20  C   UNL A   1      32.113  20.990  25.662  1.00  0.00     0.051 A 
ATOM     21  C   UNL A   1      32.691  20.498  24.515  1.00  0.00     0.134 A 
BRANCH  21  22
ATOM     22  C   UNL A   1      33.096  19.168  24.100  1.00  0.00     0.019 A 
ATOM     23  C   UNL A   1      32.546  18.609  22.935  1.00  0.00     0.012 A 
ATOM     24  C   UNL A   1      34.009  18.416  24.849  1.00  0.00     0.032 A 
ATOM     25  C   UNL A   1      32.902  17.325  22.521  1.00  0.00     0.002 A 
ATOM     26  C   UNL A   1      34.351  17.126  24.438  1.00  0.00     0.041 A 
ATOM     27  C   UNL A   1      33.803  16.580  23.277  1.00  0.00     0.020 A 
ATOM     28  Cl  UNL A   1      35.450  16.191  25.375  1.00  0.00    -0.084 Cl
ENDBRANCH  21  22
ENDBRANCH   7  17
ENDBRANCH   4   6
ENDBRANCH   3   4
ENDBRANCH   2   3
ENDBRANCH   1   2
BRANCH   1  29
ATOM     29  O   UNL A   1      36.992  21.844  25.518  1.00  0.00    -0.458 OA
BRANCH  29  30
ATOM     30  C   UNL A   1      38.264  21.459  25.757  1.00  0.00     0.338 C 
ATOM     31  O   UNL A   1      38.810  20.419  25.414  1.00  0.00    -0.246 OA
BRANCH  30  32
ATOM     32  C   UNL A   1      38.985  22.591  26.345  1.00  0.00     0.060 A 
ATOM     33  C   UNL A   1      38.444  23.861  26.149  1.00  0.00     0.016 A 
ATOM     34  C   UNL A   1      40.195  22.427  27.014  1.00  0.00     0.016 A 
ATOM     35  C   UNL A   1      39.121  24.990  26.596  1.00  0.00     0.010 A 
ATOM     36  C   UNL A   1      40.873  23.562  27.474  1.00  0.00     0.010 A 
ATOM     37  C   UNL A   1      40.354  24.851  27.245  1.00  0.00    -0.014 A 
BRANCH  37  38
ATOM     38  C   UNL A   1      41.140  26.060  27.597  1.00  0.00     0.031 A 
ATOM     39  C   UNL A   1      40.506  27.141  28.429  1.00  0.00     0.074 A 
ATOM     40  C   UNL A   1      42.417  26.185  27.190  1.00  0.00     0.049 A 
ATOM     41  N   UNL A   1      40.987  28.305  28.779  1.00  0.00    -0.248 NA
ATOM     42  C   UNL A   1      39.143  26.881  28.924  1.00  0.00     0.031 C 
ATOM     43  C   UNL A   1      43.151  25.199  26.396  1.00  0.00     0.029 A 
ATOM     44  N   UNL A   1      43.321  27.200  27.382  1.00  0.00    -0.354 N 
ATOM     45  C   UNL A   1      39.973  28.938  29.488  1.00  0.00     0.074 A 
ATOM     46  C   UNL A   1      38.848  28.027  29.520  1.00  0.00     0.031 C 
ATOM     47  C   UNL A   1      44.393  25.658  26.168  1.00  0.00     0.029 A 
ATOM     48  C   UNL A   1      44.531  26.984  26.764  1.00  0.00     0.049 A 
ATOM     49  H   UNL A   1      43.123  28.007  27.911  1.00  0.00     0.167 HD
ATOM     50  C   UNL A   1      39.980  30.159  30.073  1.00  0.00     0.034 A 
ATOM     51  C   UNL A   1      45.620  27.772  26.675  1.00  0.00     0.034 A 
ATOM     52  C   UNL A   1      41.119  31.036  30.093  1.00  0.00     0.049 A 
ATOM     53  C   UNL A   1      45.610  29.115  27.354  1.00  0.00     0.074 A 
ATOM     54  C   UNL A   1      41.236  32.281  30.688  1.00  0.00     0.029 A 
ATOM     55  N   UNL A   1      42.342  30.760  29.503  1.00  0.00    -0.354 N 
ATOM     56  N   UNL A   1      44.667  29.668  28.078  1.00  0.00    -0.248 NA
ATOM     57  C   UNL A   1      46.823  29.937  27.222  1.00  0.00     0.031 C 
ATOM     58  C   UNL A   1      42.530  32.758  30.454  1.00  0.00     0.029 A 
ATOM     59  C   UNL A   1      43.222  31.806  29.721  1.00  0.00     0.049 A 
ATOM     60  H   UNL A   1      42.554  29.939  29.003  1.00  0.00     0.167 HD
ATOM     61  C   UNL A   1      45.178  30.889  28.505  1.00  0.00     0.074 A 
ATOM     62  C   UNL A   1      46.527  30.981  27.984  1.00  0.00     0.031 C 
ATOM     63  C   UNL A   1      44.579  31.857  29.241  1.00  0.00     0.034 A 
BRANCH  50  64
ATOM     64  C   UNL A   1      38.725  30.603  30.772  1.00  0.00     0.023 A 
ATOM     65  C   UNL A   1      38.579  30.370  32.155  1.00  0.00     0.012 A 
ATOM     66  C   UNL A   1      37.711  31.289  30.075  1.00  0.00     0.148 A 
ATOM     67  C   UNL A   1      37.431  30.788  32.827  1.00  0.00     0.002 A 
ATOM     68  C   UNL A   1      36.586  31.735  30.760  1.00  0.00     0.091 A 
ATOM     69  F   UNL A   1      37.855  31.476  28.756  1.00  0.00    -0.205 F 
ATOM     70  C   UNL A   1      36.440  31.478  32.133  1.00  0.00     0.022 A 
BRANCH  68  71
ATOM     71  S   UNL A   1      35.291  32.692  29.964  1.00  0.00     0.127 S 
ATOM     72  O   UNL A   1      34.401  32.980  31.087  1.00  0.00    -0.237 OA
ATOM     73  O   UNL A   1      36.027  33.851  29.456  1.00  0.00    -0.237 OA
ATOM     74  O   UNL A   1      34.739  31.829  28.928  1.00  0.00    -0.744 OA
ENDBRANCH  68  71
ENDBRANCH  50  64
BRANCH  51  75
ATOM     75  C   UNL A   1      46.830  27.288  25.950  1.00  0.00     0.023 A 
ATOM     76  C   UNL A   1      47.706  26.392  26.592  1.00  0.00     0.012 A 
ATOM     77  C   UNL A   1      47.098  27.677  24.624  1.00  0.00     0.148 A 
ATOM     78  C   UNL A   1      48.839  25.909  25.934  1.00  0.00     0.002 A 
ATOM     79  C   UNL A   1      48.197  27.149  23.955  1.00  0.00     0.091 A 
ATOM     80  F   UNL A   1      46.269  28.552  24.036  1.00  0.00    -0.205 F 
ATOM     81  C   UNL A   1      49.076  26.276  24.612  1.00  0.00     0.022 A 
BRANCH  79  82
ATOM     82  S   UNL A   1      48.493  27.467  22.211  1.00  0.00     0.127 S 
ATOM     83  O   UNL A   1      47.291  28.206  21.833  1.00  0.00    -0.237 OA
ATOM     84  O   UNL A   1      49.720  28.264  22.246  1.00  0.00    -0.237 OA
ATOM     85  O   UNL A   1      48.655  26.154  21.602  1.00  0.00    -0.744 OA
ENDBRANCH  79  82
ENDBRANCH  51  75
BRANCH  63  86
ATOM     86  C   UNL A   1      45.378  33.098  29.539  1.00  0.00     0.023 A 
ATOM     87  C   UNL A   1      46.174  33.145  30.701  1.00  0.00     0.012 A 
ATOM     88  C   UNL A   1      45.395  34.185  28.645  1.00  0.00     0.148 A 
ATOM     89  C   UNL A   1      46.952  34.267  30.983  1.00  0.00     0.002 A 
ATOM     90  C   UNL A   1      46.204  35.284  28.911  1.00  0.00     0.091 A 
ATOM     91  F   UNL A   1      44.613  34.133  27.555  1.00  0.00    -0.205 F 
ATOM     92  C   UNL A   1      46.975  35.331  30.084  1.00  0.00     0.022 A 
BRANCH  90  93
ATOM     93  S   UNL A   1      46.353  36.654  27.759  1.00  0.00     0.127 S 
ATOM     94  O   UNL A   1      44.960  37.059  27.591  1.00  0.00    -0.237 OA
ATOM     95  O   UNL A   1      47.180  37.607  28.504  1.00  0.00    -0.237 OA
ATOM     96  O   UNL A   1      46.999  36.102  26.575  1.00  0.00    -0.744 OA
ENDBRANCH  90  93
ENDBRANCH  63  86
ENDBRANCH  37  38
ENDBRANCH  30  32
ENDBRANCH  29  30
ENDBRANCH   1  29
TORSDOF 18
ENDMDL
