MODEL 1
REMARK VINA RESULT:     -11.5      0.000      0.000
REMARK SMILES CCn1ncc(-c2cc(C(F)(F)F)nc(-n3ccc(C(=O)OCCOC(=O)c4ccc(-c5c6nc(c(-c7cccc(S(=O)(=O)[O-])c7F)c7ccc([nH]7)c(-c7cccc(S(=O)(=O)[O-])c7F)c7nc(c(-c8cccc(S(=O)(=O)[O-])c8F)c8ccc5[nH]8)C=C7)C=C6)cc4)n3)n2)c1C
REMARK SMILES IDX 23 1 22 2 20 3 21 4 19 5 16 6 17 7 91 8 18 9 15 10 7 11 8 12
REMARK SMILES IDX 92 13 9 14 14 15 6 16 3 17 4 18 93 19 5 20 94 21 2 22 1 23
REMARK SMILES IDX 10 24 11 25 12 26 13 27 24 28 25 29 26 30 27 31 28 32 29 33
REMARK SMILES IDX 90 34 30 35 89 36 31 37 32 38 33 39 83 40 34 41 88 42 82 43
REMARK SMILES IDX 84 44 35 45 87 46 81 47 80 48 36 50 68 51 48 52 67 53 49 54
REMARK SMILES IDX 52 55 66 56 85 57 50 58 51 59 65 61 86 62 53 63 37 64 38 65
REMARK SMILES IDX 46 66 39 67 41 68 47 69 40 70 42 71 43 72 44 73 45 74 69 75
REMARK SMILES IDX 70 76 78 77 71 78 73 79 79 80 72 81 74 82 75 83 76 84 77 85
REMARK SMILES IDX 54 86 55 87 63 88 56 89 58 90 64 91 57 92 59 93 60 94 61 95
REMARK SMILES IDX 62 96
REMARK H PARENT 84 49 52 60
REMARK Flexibility Score: inf
ROOT
ATOM      1  C   UNL A   1      34.635  34.551  29.334  1.00  0.00     0.275 C 
ENDROOT
BRANCH   1   2
ATOM      2  O   UNL A   1      34.776  33.469  28.400  1.00  0.00    -0.457 OA
BRANCH   2   3
ATOM      3  C   UNL A   1      33.613  32.914  27.934  1.00  0.00     0.358 C 
ATOM      4  O   UNL A   1      32.556  33.530  27.806  1.00  0.00    -0.244 OA
BRANCH   3   5
ATOM      5  C   UNL A   1      33.792  31.538  27.457  1.00  0.00     0.170 A 
ATOM      6  N   UNL A   1      33.314  29.617  26.638  1.00  0.00    -0.205 N 
ATOM      7  C   UNL A   1      34.487  29.434  27.332  1.00  0.00     0.119 A 
ATOM      8  N   UNL A   1      32.916  30.920  26.642  1.00  0.00    -0.158 NA
ATOM      9  C   UNL A   1      34.856  30.666  27.809  1.00  0.00     0.058 A 
BRANCH   6  10
ATOM     10  C   UNL A   1      32.582  28.608  25.932  1.00  0.00     0.251 A 
ATOM     11  C   UNL A   1      32.103  26.386  25.653  1.00  0.00     0.080 A 
ATOM     12  C   UNL A   1      31.153  26.663  24.697  1.00  0.00     0.062 A 
ATOM     13  N   UNL A   1      32.862  27.328  26.227  1.00  0.00    -0.211 NA
ATOM     14  C   UNL A   1      30.943  28.001  24.410  1.00  0.00     0.150 A 
ATOM     15  N   UNL A   1      31.612  28.986  25.070  1.00  0.00    -0.207 NA
BRANCH  11  16
ATOM     16  C   UNL A   1      32.245  25.059  26.205  1.00  0.00     0.041 A 
ATOM     17  N   UNL A   1      33.138  23.144  26.805  1.00  0.00    -0.269 N 
ATOM     18  N   UNL A   1      31.890  23.104  27.320  1.00  0.00    -0.181 NA
ATOM     19  C   UNL A   1      33.413  24.313  26.137  1.00  0.00     0.045 A 
ATOM     20  C   UNL A   1      31.344  24.257  26.930  1.00  0.00     0.145 A 
ATOM     21  C   UNL A   1      34.728  24.637  25.517  1.00  0.00     0.067 C 
BRANCH  17  22
ATOM     22  C   UNL A   1      34.008  21.996  26.990  1.00  0.00     0.141 C 
ATOM     23  C   UNL A   1      33.878  20.967  25.879  1.00  0.00     0.029 C 
ENDBRANCH  17  22
ENDBRANCH  11  16
BRANCH  14  24
ATOM     24  C   UNL A   1      29.939  28.385  23.332  1.00  0.00     0.433 C 
ATOM     25  F   UNL A   1      29.013  27.418  23.090  1.00  0.00    -0.165 F 
ATOM     26  F   UNL A   1      29.246  29.519  23.634  1.00  0.00    -0.165 F 
ATOM     27  F   UNL A   1      30.528  28.635  22.123  1.00  0.00    -0.165 F 
ENDBRANCH  14  24
ENDBRANCH   6  10
ENDBRANCH   3   5
ENDBRANCH   2   3
ENDBRANCH   1   2
BRANCH   1  28
ATOM     28  C   UNL A   1      35.050  34.143  30.744  1.00  0.00     0.275 C 
BRANCH  28  29
ATOM     29  O   UNL A   1      36.295  33.446  30.749  1.00  0.00    -0.458 OA
BRANCH  29  30
ATOM     30  C   UNL A   1      36.201  32.122  31.001  1.00  0.00     0.338 C 
ATOM     31  O   UNL A   1      35.355  31.564  31.680  1.00  0.00    -0.246 OA
BRANCH  30  32
ATOM     32  C   UNL A   1      37.398  31.440  30.501  1.00  0.00     0.060 A 
ATOM     33  C   UNL A   1      37.341  30.047  30.378  1.00  0.00     0.016 A 
ATOM     34  C   UNL A   1      38.608  32.142  30.405  1.00  0.00     0.016 A 
ATOM     35  C   UNL A   1      38.522  29.342  30.295  1.00  0.00     0.010 A 
ATOM     36  C   UNL A   1      39.785  31.436  30.334  1.00  0.00     0.010 A 
ATOM     37  C   UNL A   1      39.731  30.043  30.341  1.00  0.00    -0.014 A 
BRANCH  37  38
ATOM     38  C   UNL A   1      40.963  29.284  30.292  1.00  0.00     0.031 A 
ATOM     39  C   UNL A   1      41.517  28.967  31.630  1.00  0.00     0.074 A 
ATOM     40  C   UNL A   1      41.451  28.792  29.137  1.00  0.00     0.049 A 
ATOM     41  N   UNL A   1      42.656  29.322  32.124  1.00  0.00    -0.248 NA
ATOM     42  C   UNL A   1      40.624  28.300  32.592  1.00  0.00     0.031 C 
ATOM     43  C   UNL A   1      40.799  28.796  27.823  1.00  0.00     0.029 A 
ATOM     44  N   UNL A   1      42.562  28.034  28.932  1.00  0.00    -0.354 N 
ATOM     45  C   UNL A   1      42.715  28.715  33.377  1.00  0.00     0.074 A 
ATOM     46  C   UNL A   1      41.379  28.285  33.688  1.00  0.00     0.031 C 
ATOM     47  C   UNL A   1      41.386  27.863  27.041  1.00  0.00     0.029 A 
ATOM     48  C   UNL A   1      42.517  27.297  27.754  1.00  0.00     0.049 A 
ATOM     49  H   UNL A   1      43.323  28.011  29.556  1.00  0.00     0.167 HD
ATOM     50  C   UNL A   1      43.903  28.369  33.938  1.00  0.00     0.034 A 
ATOM     51  C   UNL A   1      43.291  26.227  27.445  1.00  0.00     0.034 A 
ATOM     52  C   UNL A   1      45.003  29.069  33.330  1.00  0.00     0.049 A 
ATOM     53  C   UNL A   1      44.472  26.258  28.339  1.00  0.00     0.074 A 
ATOM     54  C   UNL A   1      45.340  30.395  33.155  1.00  0.00     0.029 A 
ATOM     55  N   UNL A   1      45.788  28.358  32.457  1.00  0.00    -0.354 N 
ATOM     56  N   UNL A   1      45.401  27.168  28.282  1.00  0.00    -0.248 NA
ATOM     57  C   UNL A   1      44.413  25.500  29.579  1.00  0.00     0.031 C 
ATOM     58  C   UNL A   1      45.965  30.451  31.875  1.00  0.00     0.029 A 
ATOM     59  C   UNL A   1      46.017  29.151  31.366  1.00  0.00     0.049 A 
ATOM     60  H   UNL A   1      46.126  27.443  32.591  1.00  0.00     0.167 HD
ATOM     61  C   UNL A   1      45.731  27.409  29.610  1.00  0.00     0.074 A 
ATOM     62  C   UNL A   1      45.186  26.273  30.347  1.00  0.00     0.031 C 
ATOM     63  C   UNL A   1      46.149  28.643  30.018  1.00  0.00     0.034 A 
BRANCH  50  64
ATOM     64  C   UNL A   1      44.118  27.117  34.761  1.00  0.00     0.023 A 
ATOM     65  C   UNL A   1      44.755  27.272  36.012  1.00  0.00     0.012 A 
ATOM     66  C   UNL A   1      44.001  25.798  34.263  1.00  0.00     0.148 A 
ATOM     67  C   UNL A   1      45.303  26.182  36.698  1.00  0.00     0.002 A 
ATOM     68  C   UNL A   1      44.470  24.710  34.987  1.00  0.00     0.091 A 
ATOM     69  F   UNL A   1      43.562  25.581  33.020  1.00  0.00    -0.205 F 
ATOM     70  C   UNL A   1      45.155  24.898  36.188  1.00  0.00     0.022 A 
BRANCH  68  71
ATOM     71  S   UNL A   1      44.252  23.027  34.394  1.00  0.00     0.127 S 
ATOM     72  O   UNL A   1      45.162  23.000  33.253  1.00  0.00    -0.237 OA
ATOM     73  O   UNL A   1      44.683  22.242  35.551  1.00  0.00    -0.237 OA
ATOM     74  O   UNL A   1      42.831  22.905  34.089  1.00  0.00    -0.744 OA
ENDBRANCH  68  71
ENDBRANCH  50  64
BRANCH  51  75
ATOM     75  C   UNL A   1      42.958  25.037  26.630  1.00  0.00     0.023 A 
ATOM     76  C   UNL A   1      43.819  24.646  25.586  1.00  0.00     0.012 A 
ATOM     77  C   UNL A   1      41.950  24.133  27.035  1.00  0.00     0.148 A 
ATOM     78  C   UNL A   1      43.701  23.387  24.987  1.00  0.00     0.002 A 
ATOM     79  C   UNL A   1      41.827  22.888  26.428  1.00  0.00     0.091 A 
ATOM     80  F   UNL A   1      41.175  24.454  28.080  1.00  0.00    -0.205 F 
ATOM     81  C   UNL A   1      42.710  22.505  25.410  1.00  0.00     0.022 A 
BRANCH  79  82
ATOM     82  S   UNL A   1      40.581  21.695  26.935  1.00  0.00     0.127 S 
ATOM     83  O   UNL A   1      40.921  20.533  26.113  1.00  0.00    -0.237 OA
ATOM     84  O   UNL A   1      40.867  21.543  28.359  1.00  0.00    -0.237 OA
ATOM     85  O   UNL A   1      39.295  22.301  26.608  1.00  0.00    -0.744 OA
ENDBRANCH  79  82
ENDBRANCH  51  75
BRANCH  63  86
ATOM     86  C   UNL A   1      46.513  29.657  28.962  1.00  0.00     0.023 A 
ATOM     87  C   UNL A   1      47.805  29.726  28.399  1.00  0.00     0.012 A 
ATOM     88  C   UNL A   1      45.486  30.432  28.399  1.00  0.00     0.148 A 
ATOM     89  C   UNL A   1      48.070  30.568  27.316  1.00  0.00     0.002 A 
ATOM     90  C   UNL A   1      45.741  31.231  27.291  1.00  0.00     0.091 A 
ATOM     91  F   UNL A   1      44.261  30.352  28.942  1.00  0.00    -0.205 F 
ATOM     92  C   UNL A   1      47.035  31.311  26.752  1.00  0.00     0.022 A 
BRANCH  90  93
ATOM     93  S   UNL A   1      44.422  32.102  26.442  1.00  0.00     0.127 S 
ATOM     94  O   UNL A   1      44.033  33.106  27.430  1.00  0.00    -0.237 OA
ATOM     95  O   UNL A   1      45.106  32.637  25.263  1.00  0.00    -0.237 OA
ATOM     96  O   UNL A   1      43.413  31.096  26.136  1.00  0.00    -0.744 OA
ENDBRANCH  90  93
ENDBRANCH  63  86
ENDBRANCH  37  38
ENDBRANCH  30  32
ENDBRANCH  29  30
ENDBRANCH  28  29
ENDBRANCH   1  28
TORSDOF 18
ENDMDL
MODEL 2
REMARK VINA RESULT:     -11.4      3.200      9.259
REMARK SMILES CCn1ncc(-c2cc(C(F)(F)F)nc(-n3ccc(C(=O)OCCOC(=O)c4ccc(-c5c6nc(c(-c7cccc(S(=O)(=O)[O-])c7F)c7ccc([nH]7)c(-c7cccc(S(=O)(=O)[O-])c7F)c7nc(c(-c8cccc(S(=O)(=O)[O-])c8F)c8ccc5[nH]8)C=C7)C=C6)cc4)n3)n2)c1C
REMARK SMILES IDX 23 1 22 2 20 3 21 4 19 5 16 6 17 7 91 8 18 9 15 10 7 11 8 12
REMARK SMILES IDX 92 13 9 14 14 15 6 16 3 17 4 18 93 19 5 20 94 21 2 22 1 23
REMARK SMILES IDX 10 24 11 25 12 26 13 27 24 28 25 29 26 30 27 31 28 32 29 33
REMARK SMILES IDX 90 34 30 35 89 36 31 37 32 38 33 39 83 40 34 41 88 42 82 43
REMARK SMILES IDX 84 44 35 45 87 46 81 47 80 48 36 50 68 51 48 52 67 53 49 54
REMARK SMILES IDX 52 55 66 56 85 57 50 58 51 59 65 61 86 62 53 63 37 64 38 65
REMARK SMILES IDX 46 66 39 67 41 68 47 69 40 70 42 71 43 72 44 73 45 74 69 75
REMARK SMILES IDX 70 76 78 77 71 78 73 79 79 80 72 81 74 82 75 83 76 84 77 85
REMARK SMILES IDX 54 86 55 87 63 88 56 89 58 90 64 91 57 92 59 93 60 94 61 95
REMARK SMILES IDX 62 96
REMARK H PARENT 84 49 52 60
REMARK Flexibility Score: inf
ROOT
ATOM      1  C   UNL A   1      41.943  19.218  26.434  1.00  0.00     0.275 C 
ENDROOT
BRANCH   1   2
ATOM      2  O   UNL A   1      40.985  20.207  26.022  1.00  0.00    -0.457 OA
BRANCH   2   3
ATOM      3  C   UNL A   1      40.972  21.374  26.739  1.00  0.00     0.358 C 
ATOM      4  O   UNL A   1      41.938  21.817  27.359  1.00  0.00    -0.244 OA
BRANCH   3   5
ATOM      5  C   UNL A   1      39.725  22.130  26.569  1.00  0.00     0.170 A 
ATOM      6  N   UNL A   1      37.756  22.631  25.890  1.00  0.00    -0.205 N 
ATOM      7  C   UNL A   1      38.320  23.824  26.280  1.00  0.00     0.119 A 
ATOM      8  N   UNL A   1      38.579  21.573  26.134  1.00  0.00    -0.158 NA
ATOM      9  C   UNL A   1      39.559  23.523  26.787  1.00  0.00     0.058 A 
BRANCH   6  10
ATOM     10  C   UNL A   1      36.445  22.456  25.338  1.00  0.00     0.251 A 
ATOM     11  C   UNL A   1      34.651  23.374  24.250  1.00  0.00     0.080 A 
ATOM     12  C   UNL A   1      34.007  22.160  24.192  1.00  0.00     0.062 A 
ATOM     13  N   UNL A   1      35.826  23.551  24.867  1.00  0.00    -0.211 NA
ATOM     14  C   UNL A   1      34.683  21.079  24.731  1.00  0.00     0.150 A 
ATOM     15  N   UNL A   1      35.934  21.207  25.253  1.00  0.00    -0.207 NA
BRANCH  11  16
ATOM     16  C   UNL A   1      34.162  24.519  23.518  1.00  0.00     0.041 A 
ATOM     17  N   UNL A   1      33.492  26.560  23.062  1.00  0.00    -0.269 N 
ATOM     18  N   UNL A   1      33.504  25.938  21.862  1.00  0.00    -0.181 NA
ATOM     19  C   UNL A   1      33.900  25.752  24.097  1.00  0.00     0.045 A 
ATOM     20  C   UNL A   1      33.886  24.693  22.150  1.00  0.00     0.145 A 
ATOM     21  C   UNL A   1      34.025  26.200  25.512  1.00  0.00     0.067 C 
BRANCH  17  22
ATOM     22  C   UNL A   1      33.054  27.943  23.129  1.00  0.00     0.141 C 
ATOM     23  C   UNL A   1      31.633  28.092  23.646  1.00  0.00     0.029 C 
ENDBRANCH  17  22
ENDBRANCH  11  16
BRANCH  14  24
ATOM     24  C   UNL A   1      34.016  19.710  24.743  1.00  0.00     0.433 C 
ATOM     25  F   UNL A   1      33.310  19.465  25.881  1.00  0.00    -0.165 F 
ATOM     26  F   UNL A   1      33.151  19.535  23.705  1.00  0.00    -0.165 F 
ATOM     27  F   UNL A   1      34.912  18.681  24.644  1.00  0.00    -0.165 F 
ENDBRANCH  14  24
ENDBRANCH   6  10
ENDBRANCH   3   5
ENDBRANCH   2   3
ENDBRANCH   1   2
BRANCH   1  28
ATOM     28  C   UNL A   1      43.020  18.997  25.378  1.00  0.00     0.275 C 
BRANCH  28  29
ATOM     29  O   UNL A   1      44.136  19.865  25.568  1.00  0.00    -0.458 OA
BRANCH  29  30
ATOM     30  C   UNL A   1      44.386  20.701  24.537  1.00  0.00     0.338 C 
ATOM     31  O   UNL A   1      44.522  20.396  23.364  1.00  0.00    -0.246 OA
BRANCH  30  32
ATOM     32  C   UNL A   1      44.675  22.043  25.050  1.00  0.00     0.060 A 
ATOM     33  C   UNL A   1      45.653  22.155  26.045  1.00  0.00     0.016 A 
ATOM     34  C   UNL A   1      43.821  23.107  24.730  1.00  0.00     0.016 A 
ATOM     35  C   UNL A   1      45.683  23.296  26.817  1.00  0.00     0.010 A 
ATOM     36  C   UNL A   1      43.845  24.240  25.510  1.00  0.00     0.010 A 
ATOM     37  C   UNL A   1      44.735  24.295  26.581  1.00  0.00    -0.014 A 
BRANCH  37  38
ATOM     38  C   UNL A   1      44.756  25.470  27.427  1.00  0.00     0.031 A 
ATOM     39  C   UNL A   1      45.862  26.406  27.114  1.00  0.00     0.074 A 
ATOM     40  C   UNL A   1      43.764  25.737  28.299  1.00  0.00     0.049 A 
ATOM     41  N   UNL A   1      46.829  26.779  27.884  1.00  0.00    -0.248 NA
ATOM     42  C   UNL A   1      45.988  26.863  25.721  1.00  0.00     0.031 C 
ATOM     43  C   UNL A   1      42.489  25.026  28.441  1.00  0.00     0.029 A 
ATOM     44  N   UNL A   1      43.618  26.807  29.127  1.00  0.00    -0.354 N 
ATOM     45  C   UNL A   1      47.552  27.707  27.136  1.00  0.00     0.074 A 
ATOM     46  C   UNL A   1      47.121  27.561  25.773  1.00  0.00     0.031 C 
ATOM     47  C   UNL A   1      41.613  25.823  29.092  1.00  0.00     0.029 A 
ATOM     48  C   UNL A   1      42.301  27.031  29.512  1.00  0.00     0.049 A 
ATOM     49  H   UNL A   1      44.372  27.366  29.424  1.00  0.00     0.167 HD
ATOM     50  C   UNL A   1      48.246  28.709  27.736  1.00  0.00     0.034 A 
ATOM     51  C   UNL A   1      41.801  28.176  30.038  1.00  0.00     0.034 A 
ATOM     52  C   UNL A   1      48.491  28.430  29.126  1.00  0.00     0.049 A 
ATOM     53  C   UNL A   1      42.944  28.966  30.555  1.00  0.00     0.074 A 
ATOM     54  C   UNL A   1      49.120  27.420  29.824  1.00  0.00     0.029 A 
ATOM     55  N   UNL A   1      47.721  29.103  30.042  1.00  0.00    -0.354 N 
ATOM     56  N   UNL A   1      43.671  28.607  31.574  1.00  0.00    -0.248 NA
ATOM     57  C   UNL A   1      43.541  29.962  29.680  1.00  0.00     0.031 C 
ATOM     58  C   UNL A   1      48.345  27.253  31.009  1.00  0.00     0.029 A 
ATOM     59  C   UNL A   1      47.320  28.200  30.988  1.00  0.00     0.049 A 
ATOM     60  H   UNL A   1      47.498  30.062  30.021  1.00  0.00     0.167 HD
ATOM     61  C   UNL A   1      44.964  28.973  31.222  1.00  0.00     0.074 A 
ATOM     62  C   UNL A   1      44.804  29.908  30.112  1.00  0.00     0.031 C 
ATOM     63  C   UNL A   1      46.041  28.260  31.664  1.00  0.00     0.034 A 
BRANCH  50  64
ATOM     64  C   UNL A   1      48.364  30.110  27.177  1.00  0.00     0.023 A 
ATOM     65  C   UNL A   1      49.645  30.707  27.202  1.00  0.00     0.012 A 
ATOM     66  C   UNL A   1      47.268  30.963  26.907  1.00  0.00     0.148 A 
ATOM     67  C   UNL A   1      49.816  32.085  27.033  1.00  0.00     0.002 A 
ATOM     68  C   UNL A   1      47.452  32.316  26.654  1.00  0.00     0.091 A 
ATOM     69  F   UNL A   1      46.016  30.512  27.027  1.00  0.00    -0.205 F 
ATOM     70  C   UNL A   1      48.720  32.890  26.752  1.00  0.00     0.022 A 
BRANCH  68  71
ATOM     71  S   UNL A   1      46.070  33.385  26.233  1.00  0.00     0.127 S 
ATOM     72  O   UNL A   1      46.740  34.450  25.493  1.00  0.00    -0.237 OA
ATOM     73  O   UNL A   1      45.237  32.494  25.424  1.00  0.00    -0.237 OA
ATOM     74  O   UNL A   1      45.470  33.764  27.507  1.00  0.00    -0.744 OA
ENDBRANCH  68  71
ENDBRANCH  50  64
BRANCH  51  75
ATOM     75  C   UNL A   1      40.451  28.764  29.887  1.00  0.00     0.023 A 
ATOM     76  C   UNL A   1      39.832  28.765  28.621  1.00  0.00     0.012 A 
ATOM     77  C   UNL A   1      39.661  29.080  31.014  1.00  0.00     0.148 A 
ATOM     78  C   UNL A   1      38.467  29.042  28.486  1.00  0.00     0.002 A 
ATOM     79  C   UNL A   1      38.308  29.368  30.875  1.00  0.00     0.091 A 
ATOM     80  F   UNL A   1      40.213  29.005  32.233  1.00  0.00    -0.205 F 
ATOM     81  C   UNL A   1      37.702  29.337  29.612  1.00  0.00     0.022 A 
BRANCH  79  82
ATOM     82  S   UNL A   1      37.259  29.744  32.287  1.00  0.00     0.127 S 
ATOM     83  O   UNL A   1      37.327  28.500  33.055  1.00  0.00    -0.237 OA
ATOM     84  O   UNL A   1      37.957  30.876  32.891  1.00  0.00    -0.237 OA
ATOM     85  O   UNL A   1      35.940  30.034  31.736  1.00  0.00    -0.744 OA
ENDBRANCH  79  82
ENDBRANCH  51  75
BRANCH  63  86
ATOM     86  C   UNL A   1      45.824  27.246  32.758  1.00  0.00     0.023 A 
ATOM     87  C   UNL A   1      45.812  27.602  34.123  1.00  0.00     0.012 A 
ATOM     88  C   UNL A   1      45.446  25.943  32.395  1.00  0.00     0.148 A 
ATOM     89  C   UNL A   1      45.454  26.673  35.103  1.00  0.00     0.002 A 
ATOM     90  C   UNL A   1      45.043  25.035  33.367  1.00  0.00     0.091 A 
ATOM     91  F   UNL A   1      45.457  25.619  31.092  1.00  0.00    -0.205 F 
ATOM     92  C   UNL A   1      45.056  25.393  34.725  1.00  0.00     0.022 A 
BRANCH  90  93
ATOM     93  S   UNL A   1      44.393  23.422  32.930  1.00  0.00     0.127 S 
ATOM     94  O   UNL A   1      45.481  22.534  33.334  1.00  0.00    -0.237 OA
ATOM     95  O   UNL A   1      43.190  23.331  33.759  1.00  0.00    -0.237 OA
ATOM     96  O   UNL A   1      44.123  23.476  31.499  1.00  0.00    -0.744 OA
ENDBRANCH  90  93
ENDBRANCH  63  86
ENDBRANCH  37  38
ENDBRANCH  30  32
ENDBRANCH  29  30
ENDBRANCH  28  29
ENDBRANCH   1  28
TORSDOF 18
ENDMDL
MODEL 3
REMARK VINA RESULT:     -11.3      4.651      6.826
REMARK SMILES CCn1ncc(-c2cc(C(F)(F)F)nc(-n3ccc(C(=O)OCCOC(=O)c4ccc(-c5c6nc(c(-c7cccc(S(=O)(=O)[O-])c7F)c7ccc([nH]7)c(-c7cccc(S(=O)(=O)[O-])c7F)c7nc(c(-c8cccc(S(=O)(=O)[O-])c8F)c8ccc5[nH]8)C=C7)C=C6)cc4)n3)n2)c1C
REMARK SMILES IDX 23 1 22 2 20 3 21 4 19 5 16 6 17 7 91 8 18 9 15 10 7 11 8 12
REMARK SMILES IDX 92 13 9 14 14 15 6 16 3 17 4 18 93 19 5 20 94 21 2 22 1 23
REMARK SMILES IDX 10 24 11 25 12 26 13 27 24 28 25 29 26 30 27 31 28 32 29 33
REMARK SMILES IDX 90 34 30 35 89 36 31 37 32 38 33 39 83 40 34 41 88 42 82 43
REMARK SMILES IDX 84 44 35 45 87 46 81 47 80 48 36 50 68 51 48 52 67 53 49 54
REMARK SMILES IDX 52 55 66 56 85 57 50 58 51 59 65 61 86 62 53 63 37 64 38 65
REMARK SMILES IDX 46 66 39 67 41 68 47 69 40 70 42 71 43 72 44 73 45 74 69 75
REMARK SMILES IDX 70 76 78 77 71 78 73 79 79 80 72 81 74 82 75 83 76 84 77 85
REMARK SMILES IDX 54 86 55 87 63 88 56 89 58 90 64 91 57 92 59 93 60 94 61 95
REMARK SMILES IDX 62 96
REMARK H PARENT 84 49 52 60
REMARK Flexibility Score: inf
ROOT
ATOM      1  C   UNL A   1      33.756  34.781  28.654  1.00  0.00     0.275 C 
ENDROOT
BRANCH   1   2
ATOM      2  O   UNL A   1      33.016  34.600  29.873  1.00  0.00    -0.457 OA
BRANCH   2   3
ATOM      3  C   UNL A   1      33.071  35.629  30.774  1.00  0.00     0.358 C 
ATOM      4  O   UNL A   1      32.250  36.545  30.830  1.00  0.00    -0.244 OA
BRANCH   3   5
ATOM      5  C   UNL A   1      34.130  35.452  31.775  1.00  0.00     0.170 A 
ATOM      6  N   UNL A   1      35.850  34.634  32.757  1.00  0.00    -0.205 N 
ATOM      7  C   UNL A   1      35.166  35.321  33.734  1.00  0.00     0.119 A 
ATOM      8  N   UNL A   1      35.265  34.769  31.534  1.00  0.00    -0.158 NA
ATOM      9  C   UNL A   1      34.095  35.917  33.116  1.00  0.00     0.058 A 
BRANCH   6  10
ATOM     10  C   UNL A   1      37.062  33.892  32.936  1.00  0.00     0.251 A 
ATOM     11  C   UNL A   1      39.216  33.492  32.270  1.00  0.00     0.080 A 
ATOM     12  C   UNL A   1      39.413  32.589  33.289  1.00  0.00     0.062 A 
ATOM     13  N   UNL A   1      38.043  34.097  32.042  1.00  0.00    -0.211 NA
ATOM     14  C   UNL A   1      38.347  32.394  34.151  1.00  0.00     0.150 A 
ATOM     15  N   UNL A   1      37.185  33.090  34.017  1.00  0.00    -0.207 NA
BRANCH  11  16
ATOM     16  C   UNL A   1      40.316  33.955  31.456  1.00  0.00     0.041 A 
ATOM     17  N   UNL A   1      41.434  34.846  29.789  1.00  0.00    -0.269 N 
ATOM     18  N   UNL A   1      42.380  34.570  30.713  1.00  0.00    -0.181 NA
ATOM     19  C   UNL A   1      40.164  34.512  30.194  1.00  0.00     0.045 A 
ATOM     20  C   UNL A   1      41.698  34.006  31.711  1.00  0.00     0.145 A 
ATOM     21  C   UNL A   1      38.935  34.754  29.388  1.00  0.00     0.067 C 
BRANCH  17  22
ATOM     22  C   UNL A   1      41.843  35.422  28.520  1.00  0.00     0.141 C 
ATOM     23  C   UNL A   1      42.399  36.830  28.658  1.00  0.00     0.029 C 
ENDBRANCH  17  22
ENDBRANCH  11  16
BRANCH  14  24
ATOM     24  C   UNL A   1      38.473  31.378  35.278  1.00  0.00     0.433 C 
ATOM     25  F   UNL A   1      39.763  31.117  35.624  1.00  0.00    -0.165 F 
ATOM     26  F   UNL A   1      37.837  31.770  36.417  1.00  0.00    -0.165 F 
ATOM     27  F   UNL A   1      37.929  30.163  34.960  1.00  0.00    -0.165 F 
ENDBRANCH  14  24
ENDBRANCH   6  10
ENDBRANCH   3   5
ENDBRANCH   2   3
ENDBRANCH   1   2
BRANCH   1  28
ATOM     28  C   UNL A   1      34.039  33.453  27.959  1.00  0.00     0.275 C 
BRANCH  28  29
ATOM     29  O   UNL A   1      34.979  32.664  28.686  1.00  0.00    -0.458 OA
BRANCH  29  30
ATOM     30  C   UNL A   1      35.210  31.438  28.167  1.00  0.00     0.338 C 
ATOM     31  O   UNL A   1      34.496  30.826  27.390  1.00  0.00    -0.246 OA
BRANCH  30  32
ATOM     32  C   UNL A   1      36.368  30.833  28.830  1.00  0.00     0.060 A 
ATOM     33  C   UNL A   1      37.442  31.673  29.146  1.00  0.00     0.016 A 
ATOM     34  C   UNL A   1      36.477  29.437  28.899  1.00  0.00     0.016 A 
ATOM     35  C   UNL A   1      38.672  31.107  29.399  1.00  0.00     0.010 A 
ATOM     36  C   UNL A   1      37.708  28.875  29.139  1.00  0.00     0.010 A 
ATOM     37  C   UNL A   1      38.803  29.717  29.327  1.00  0.00    -0.014 A 
BRANCH  37  38
ATOM     38  C   UNL A   1      40.111  29.141  29.556  1.00  0.00     0.031 A 
ATOM     39  C   UNL A   1      40.545  29.202  30.973  1.00  0.00     0.074 A 
ATOM     40  C   UNL A   1      40.778  28.481  28.590  1.00  0.00     0.049 A 
ATOM     41  N   UNL A   1      41.574  29.808  31.464  1.00  0.00    -0.248 NA
ATOM     42  C   UNL A   1      39.633  28.644  31.985  1.00  0.00     0.031 C 
ATOM     43  C   UNL A   1      40.282  28.110  27.261  1.00  0.00     0.029 A 
ATOM     44  N   UNL A   1      41.985  27.857  28.657  1.00  0.00    -0.354 N 
ATOM     45  C   UNL A   1      41.561  29.503  32.823  1.00  0.00     0.074 A 
ATOM     46  C   UNL A   1      40.258  28.972  33.113  1.00  0.00     0.031 C 
ATOM     47  C   UNL A   1      41.055  27.119  26.766  1.00  0.00     0.029 A 
ATOM     48  C   UNL A   1      42.157  26.882  27.681  1.00  0.00     0.049 A 
ATOM     49  H   UNL A   1      42.669  28.074  29.331  1.00  0.00     0.167 HD
ATOM     50  C   UNL A   1      42.711  29.453  33.546  1.00  0.00     0.034 A 
ATOM     51  C   UNL A   1      43.078  25.886  27.692  1.00  0.00     0.034 A 
ATOM     52  C   UNL A   1      43.785  30.148  32.887  1.00  0.00     0.049 A 
ATOM     53  C   UNL A   1      44.140  26.272  28.650  1.00  0.00     0.074 A 
ATOM     54  C   UNL A   1      43.985  31.438  32.439  1.00  0.00     0.029 A 
ATOM     55  N   UNL A   1      44.739  29.378  32.269  1.00  0.00    -0.354 N 
ATOM     56  N   UNL A   1      44.959  27.267  28.462  1.00  0.00    -0.248 NA
ATOM     57  C   UNL A   1      44.030  25.802  30.022  1.00  0.00     0.031 C 
ATOM     58  C   UNL A   1      44.738  31.298  31.237  1.00  0.00     0.029 A 
ATOM     59  C   UNL A   1      44.995  29.939  31.047  1.00  0.00     0.049 A 
ATOM     60  H   UNL A   1      45.162  28.570  32.638  1.00  0.00     0.167 HD
ATOM     61  C   UNL A   1      45.109  27.834  29.722  1.00  0.00     0.074 A 
ATOM     62  C   UNL A   1      44.619  26.821  30.653  1.00  0.00     0.031 C 
ATOM     63  C   UNL A   1      45.335  29.172  29.868  1.00  0.00     0.034 A 
BRANCH  50  64
ATOM     64  C   UNL A   1      42.975  28.452  34.650  1.00  0.00     0.023 A 
ATOM     65  C   UNL A   1      43.454  28.960  35.878  1.00  0.00     0.012 A 
ATOM     66  C   UNL A   1      43.059  27.052  34.462  1.00  0.00     0.148 A 
ATOM     67  C   UNL A   1      44.044  28.130  36.837  1.00  0.00     0.002 A 
ATOM     68  C   UNL A   1      43.566  26.221  35.453  1.00  0.00     0.091 A 
ATOM     69  F   UNL A   1      42.781  26.512  33.272  1.00  0.00    -0.205 F 
ATOM     70  C   UNL A   1      44.094  26.757  36.627  1.00  0.00     0.022 A 
BRANCH  68  71
ATOM     71  S   UNL A   1      43.600  24.436  35.248  1.00  0.00     0.127 S 
ATOM     72  O   UNL A   1      42.177  24.125  35.158  1.00  0.00    -0.237 OA
ATOM     73  O   UNL A   1      44.349  24.291  33.999  1.00  0.00    -0.237 OA
ATOM     74  O   UNL A   1      44.299  23.924  36.421  1.00  0.00    -0.744 OA
ENDBRANCH  68  71
ENDBRANCH  50  64
BRANCH  51  75
ATOM     75  C   UNL A   1      42.976  24.513  27.149  1.00  0.00     0.023 A 
ATOM     76  C   UNL A   1      41.737  23.844  27.179  1.00  0.00     0.012 A 
ATOM     77  C   UNL A   1      44.014  23.958  26.366  1.00  0.00     0.148 A 
ATOM     78  C   UNL A   1      41.528  22.679  26.431  1.00  0.00     0.002 A 
ATOM     79  C   UNL A   1      43.807  22.793  25.635  1.00  0.00     0.091 A 
ATOM     80  F   UNL A   1      45.172  24.624  26.261  1.00  0.00    -0.205 F 
ATOM     81  C   UNL A   1      42.560  22.156  25.655  1.00  0.00     0.022 A 
BRANCH  79  82
ATOM     82  S   UNL A   1      45.089  22.072  24.601  1.00  0.00     0.127 S 
ATOM     83  O   UNL A   1      46.165  21.846  25.566  1.00  0.00    -0.237 OA
ATOM     84  O   UNL A   1      44.438  20.859  24.113  1.00  0.00    -0.237 OA
ATOM     85  O   UNL A   1      45.396  23.077  23.590  1.00  0.00    -0.744 OA
ENDBRANCH  79  82
ENDBRANCH  51  75
BRANCH  63  86
ATOM     86  C   UNL A   1      45.696  29.972  28.641  1.00  0.00     0.023 A 
ATOM     87  C   UNL A   1      44.719  30.575  27.821  1.00  0.00     0.012 A 
ATOM     88  C   UNL A   1      47.050  30.271  28.415  1.00  0.00     0.148 A 
ATOM     89  C   UNL A   1      45.087  31.436  26.784  1.00  0.00     0.002 A 
ATOM     90  C   UNL A   1      47.409  31.166  27.415  1.00  0.00     0.091 A 
ATOM     91  F   UNL A   1      47.968  29.694  29.206  1.00  0.00    -0.205 F 
ATOM     92  C   UNL A   1      46.431  31.743  26.589  1.00  0.00     0.022 A 
BRANCH  90  93
ATOM     93  S   UNL A   1      49.108  31.702  27.206  1.00  0.00     0.127 S 
ATOM     94  O   UNL A   1      49.751  30.492  26.697  1.00  0.00    -0.237 OA
ATOM     95  O   UNL A   1      48.980  32.784  26.227  1.00  0.00    -0.237 OA
ATOM     96  O   UNL A   1      49.552  32.145  28.522  1.00  0.00    -0.744 OA
ENDBRANCH  90  93
ENDBRANCH  63  86
ENDBRANCH  37  38
ENDBRANCH  30  32
ENDBRANCH  29  30
ENDBRANCH  28  29
ENDBRANCH   1  28
TORSDOF 18
ENDMDL
