MODEL 1
REMARK VINA RESULT:     -11.3      0.000      0.000
REMARK SMILES C[NH2+]C[C@H](C)C(=O)N[C@H](Cc1ccccc1)C(=O)OCCOC(=O)c1ccc(-c2c3nc(c(-c4cccc(S(=O)(=O)[O-])c4F)c4ccc([nH]4)c(-c4cccc(S(=O)(=O)[O-])c4F)c4nc(c(-c5cccc(S(=O)(=O)[O-])c5F)c5ccc2[nH]5)C=C4)C=C3)cc1
REMARK SMILES IDX 20 1 19 2 17 3 18 4 9 5 8 6 6 7 7 8 4 10 5 11 3 12 2 13 1 14
REMARK SMILES IDX 10 17 11 18 12 19 16 20 13 21 15 22 14 23 21 24 22 25 23 26
REMARK SMILES IDX 24 27 25 28 26 29 87 30 27 31 86 32 28 33 29 34 30 35 80 36
REMARK SMILES IDX 31 37 85 38 79 39 81 40 32 41 84 42 78 43 77 44 33 46 65 47
REMARK SMILES IDX 45 48 64 49 46 50 49 51 63 52 82 53 47 54 48 55 62 57 83 58
REMARK SMILES IDX 50 59 34 60 35 61 43 62 36 63 38 64 44 65 37 66 39 67 40 68
REMARK SMILES IDX 41 69 42 70 66 71 67 72 75 73 68 74 70 75 76 76 69 77 71 78
REMARK SMILES IDX 72 79 73 80 74 81 51 82 52 83 60 84 53 85 55 86 61 87 54 88
REMARK SMILES IDX 56 89 57 90 58 91 59 92
REMARK H PARENT 8 9 2 15 2 16 81 45 49 56
REMARK Flexibility Score: inf
ROOT
ATOM      1  C   UNL A   1      35.474  21.733  25.011  1.00  0.00     0.274 C 
ENDROOT
BRANCH   1   2
ATOM      2  O   UNL A   1      35.698  23.102  24.584  1.00  0.00    -0.461 OA
BRANCH   2   3
ATOM      3  C   UNL A   1      34.837  23.533  23.627  1.00  0.00     0.329 C 
ATOM      4  O   UNL A   1      34.936  23.204  22.442  1.00  0.00    -0.250 OA
BRANCH   3   5
ATOM      5  C   UNL A   1      33.850  24.662  24.049  1.00  0.00     0.196 C 
BRANCH   5   6
ATOM      6  N   UNL A   1      33.457  24.994  22.654  1.00  0.00    -0.342 N 
ATOM      7  C   UNL A   1      33.106  26.066  21.921  1.00  0.00     0.229 C 
ATOM      8  O   UNL A   1      33.212  26.029  20.695  1.00  0.00    -0.275 OA
ATOM      9  H   UNL A   1      33.452  24.182  22.097  1.00  0.00     0.164 HD
BRANCH   7  10
ATOM     10  C   UNL A   1      32.487  27.228  22.594  1.00  0.00     0.130 C 
ATOM     11  C   UNL A   1      33.593  28.304  22.534  1.00  0.00     0.024 C 
BRANCH  10  12
ATOM     12  C   UNL A   1      31.007  27.424  22.170  1.00  0.00     0.273 C 
BRANCH  12  13
ATOM     13  N   UNL A   1      30.192  28.601  22.493  1.00  0.00    -0.348 N 
ATOM     14  C   UNL A   1      28.929  28.343  23.151  1.00  0.00     0.330 C 
ATOM     15  H   UNL A   1      30.744  29.204  23.102  1.00  0.00     0.346 HD
ATOM     16  H   UNL A   1      29.951  29.021  21.595  1.00  0.00     0.346 HD
ENDBRANCH  12  13
ENDBRANCH  10  12
ENDBRANCH   7  10
ENDBRANCH   5   6
BRANCH   5  17
ATOM     17  C   UNL A   1      34.323  25.550  25.280  1.00  0.00     0.072 C 
BRANCH  17  18
ATOM     18  C   UNL A   1      33.484  26.614  26.028  1.00  0.00    -0.045 A 
ATOM     19  C   UNL A   1      34.034  27.822  26.475  1.00  0.00     0.004 A 
ATOM     20  C   UNL A   1      32.088  26.510  26.187  1.00  0.00     0.004 A 
ATOM     21  C   UNL A   1      33.241  28.800  27.121  1.00  0.00     0.000 A 
ATOM     22  C   UNL A   1      31.307  27.431  26.898  1.00  0.00     0.000 A 
ATOM     23  C   UNL A   1      31.887  28.587  27.371  1.00  0.00     0.000 A 
ENDBRANCH  17  18
ENDBRANCH   5  17
ENDBRANCH   3   5
ENDBRANCH   2   3
ENDBRANCH   1   2
BRANCH   1  24
ATOM     24  C   UNL A   1      36.777  20.981  25.319  1.00  0.00     0.275 C 
BRANCH  24  25
ATOM     25  O   UNL A   1      37.937  21.818  25.175  1.00  0.00    -0.458 OA
BRANCH  25  26
ATOM     26  C   UNL A   1      38.979  21.474  25.954  1.00  0.00     0.338 C 
ATOM     27  O   UNL A   1      39.535  20.371  26.004  1.00  0.00    -0.246 OA
BRANCH  26  28
ATOM     28  C   UNL A   1      39.536  22.644  26.626  1.00  0.00     0.060 A 
ATOM     29  C   UNL A   1      39.117  23.904  26.199  1.00  0.00     0.016 A 
ATOM     30  C   UNL A   1      40.563  22.525  27.553  1.00  0.00     0.016 A 
ATOM     31  C   UNL A   1      39.731  25.054  26.639  1.00  0.00     0.010 A 
ATOM     32  C   UNL A   1      41.163  23.687  28.037  1.00  0.00     0.010 A 
ATOM     33  C   UNL A   1      40.763  24.952  27.562  1.00  0.00    -0.014 A 
BRANCH  33  34
ATOM     34  C   UNL A   1      41.464  26.185  27.956  1.00  0.00     0.031 A 
ATOM     35  C   UNL A   1      40.718  27.233  28.717  1.00  0.00     0.074 A 
ATOM     36  C   UNL A   1      42.765  26.330  27.652  1.00  0.00     0.049 A 
ATOM     37  N   UNL A   1      41.093  28.439  29.036  1.00  0.00    -0.248 NA
ATOM     38  C   UNL A   1      39.362  26.877  29.170  1.00  0.00     0.031 C 
ATOM     39  C   UNL A   1      43.589  25.333  26.962  1.00  0.00     0.029 A 
ATOM     40  N   UNL A   1      43.615  27.381  27.862  1.00  0.00    -0.354 N 
ATOM     41  C   UNL A   1      39.998  29.016  29.663  1.00  0.00     0.074 A 
ATOM     42  C   UNL A   1      38.945  28.024  29.684  1.00  0.00     0.031 C 
ATOM     43  C   UNL A   1      44.818  25.835  26.777  1.00  0.00     0.029 A 
ATOM     44  C   UNL A   1      44.843  27.206  27.271  1.00  0.00     0.049 A 
ATOM     45  H   UNL A   1      43.372  28.181  28.383  1.00  0.00     0.167 HD
ATOM     46  C   UNL A   1      39.889  30.263  30.175  1.00  0.00     0.034 A 
ATOM     47  C   UNL A   1      45.850  28.078  27.092  1.00  0.00     0.034 A 
ATOM     48  C   UNL A   1      40.962  31.220  30.159  1.00  0.00     0.049 A 
ATOM     49  C   UNL A   1      45.698  29.467  27.639  1.00  0.00     0.074 A 
ATOM     50  C   UNL A   1      40.980  32.504  30.670  1.00  0.00     0.029 A 
ATOM     51  N   UNL A   1      42.208  30.998  29.587  1.00  0.00    -0.354 N 
ATOM     52  N   UNL A   1      44.680  29.993  28.277  1.00  0.00    -0.248 NA
ATOM     53  C   UNL A   1      46.837  30.374  27.466  1.00  0.00     0.031 C 
ATOM     54  C   UNL A   1      42.225  33.070  30.375  1.00  0.00     0.029 A 
ATOM     55  C   UNL A   1      43.000  32.125  29.720  1.00  0.00     0.049 A 
ATOM     56  H   UNL A   1      42.488  30.161  29.152  1.00  0.00     0.167 HD
ATOM     57  C   UNL A   1      45.063  31.285  28.608  1.00  0.00     0.074 A 
ATOM     58  C   UNL A   1      46.417  31.454  28.115  1.00  0.00     0.031 C 
ATOM     59  C   UNL A   1      44.358  32.251  29.250  1.00  0.00     0.034 A 
BRANCH  46  60
ATOM     60  C   UNL A   1      38.561  30.650  30.770  1.00  0.00     0.023 A 
ATOM     61  C   UNL A   1      38.250  30.300  32.100  1.00  0.00     0.012 A 
ATOM     62  C   UNL A   1      37.614  31.356  30.004  1.00  0.00     0.148 A 
ATOM     63  C   UNL A   1      36.999  30.599  32.639  1.00  0.00     0.002 A 
ATOM     64  C   UNL A   1      36.389  31.697  30.565  1.00  0.00     0.091 A 
ATOM     65  F   UNL A   1      37.915  31.657  28.732  1.00  0.00    -0.205 F 
ATOM     66  C   UNL A   1      36.073  31.303  31.875  1.00  0.00     0.022 A 
BRANCH  64  67
ATOM     67  S   UNL A   1      35.164  32.672  29.688  1.00  0.00     0.127 S 
ATOM     68  O   UNL A   1      34.616  31.688  28.755  1.00  0.00    -0.237 OA
ATOM     69  O   UNL A   1      34.253  33.063  30.765  1.00  0.00    -0.237 OA
ATOM     70  O   UNL A   1      35.891  33.776  29.079  1.00  0.00    -0.744 OA
ENDBRANCH  64  67
ENDBRANCH  46  60
BRANCH  47  71
ATOM     71  C   UNL A   1      47.068  27.646  26.353  1.00  0.00     0.023 A 
ATOM     72  C   UNL A   1      48.042  26.868  27.003  1.00  0.00     0.012 A 
ATOM     73  C   UNL A   1      47.222  27.944  24.983  1.00  0.00     0.148 A 
ATOM     74  C   UNL A   1      49.159  26.408  26.306  1.00  0.00     0.002 A 
ATOM     75  C   UNL A   1      48.307  27.433  24.283  1.00  0.00     0.091 A 
ATOM     76  F   UNL A   1      46.284  28.693  24.387  1.00  0.00    -0.205 F 
ATOM     77  C   UNL A   1      49.286  26.678  24.946  1.00  0.00     0.022 A 
BRANCH  75  78
ATOM     78  S   UNL A   1      48.479  27.613  22.503  1.00  0.00     0.127 S 
ATOM     79  O   UNL A   1      49.771  28.286  22.395  1.00  0.00    -0.237 OA
ATOM     80  O   UNL A   1      48.471  26.219  22.061  1.00  0.00    -0.237 OA
ATOM     81  O   UNL A   1      47.327  28.390  22.069  1.00  0.00    -0.744 OA
ENDBRANCH  75  78
ENDBRANCH  47  71
BRANCH  59  82
ATOM     82  C   UNL A   1      45.054  33.565  29.492  1.00  0.00     0.023 A 
ATOM     83  C   UNL A   1      45.812  33.757  30.663  1.00  0.00     0.012 A 
ATOM     84  C   UNL A   1      45.009  34.582  28.519  1.00  0.00     0.148 A 
ATOM     85  C   UNL A   1      46.487  34.957  30.878  1.00  0.00     0.002 A 
ATOM     86  C   UNL A   1      45.729  35.752  28.715  1.00  0.00     0.091 A 
ATOM     87  F   UNL A   1      44.265  34.383  27.421  1.00  0.00    -0.205 F 
ATOM     88  C   UNL A   1      46.457  35.948  29.900  1.00  0.00     0.022 A 
BRANCH  86  89
ATOM     89  S   UNL A   1      45.832  37.038  27.466  1.00  0.00     0.127 S 
ATOM     90  O   UNL A   1      46.250  36.278  26.289  1.00  0.00    -0.237 OA
ATOM     91  O   UNL A   1      44.455  37.531  27.417  1.00  0.00    -0.237 OA
ATOM     92  O   UNL A   1      46.803  38.004  27.961  1.00  0.00    -0.744 OA
ENDBRANCH  86  89
ENDBRANCH  59  82
ENDBRANCH  33  34
ENDBRANCH  26  28
ENDBRANCH  25  26
ENDBRANCH  24  25
ENDBRANCH   1  24
TORSDOF 20
ENDMDL
MODEL 2
REMARK VINA RESULT:     -11.0      5.271     10.037
REMARK SMILES C[NH2+]C[C@H](C)C(=O)N[C@H](Cc1ccccc1)C(=O)OCCOC(=O)c1ccc(-c2c3nc(c(-c4cccc(S(=O)(=O)[O-])c4F)c4ccc([nH]4)c(-c4cccc(S(=O)(=O)[O-])c4F)c4nc(c(-c5cccc(S(=O)(=O)[O-])c5F)c5ccc2[nH]5)C=C4)C=C3)cc1
REMARK SMILES IDX 20 1 19 2 17 3 18 4 9 5 8 6 6 7 7 8 4 10 5 11 3 12 2 13 1 14
REMARK SMILES IDX 10 17 11 18 12 19 16 20 13 21 15 22 14 23 21 24 22 25 23 26
REMARK SMILES IDX 24 27 25 28 26 29 87 30 27 31 86 32 28 33 29 34 30 35 80 36
REMARK SMILES IDX 31 37 85 38 79 39 81 40 32 41 84 42 78 43 77 44 33 46 65 47
REMARK SMILES IDX 45 48 64 49 46 50 49 51 63 52 82 53 47 54 48 55 62 57 83 58
REMARK SMILES IDX 50 59 34 60 35 61 43 62 36 63 38 64 44 65 37 66 39 67 40 68
REMARK SMILES IDX 41 69 42 70 66 71 67 72 75 73 68 74 70 75 76 76 69 77 71 78
REMARK SMILES IDX 72 79 73 80 74 81 51 82 52 83 60 84 53 85 55 86 61 87 54 88
REMARK SMILES IDX 56 89 57 90 58 91 59 92
REMARK H PARENT 8 9 2 15 2 16 81 45 49 56
REMARK Flexibility Score: inf
ROOT
ATOM      1  C   UNL A   1      31.472  28.599  25.061  1.00  0.00     0.274 C 
ENDROOT
BRANCH   1   2
ATOM      2  O   UNL A   1      32.514  27.765  24.488  1.00  0.00    -0.461 OA
BRANCH   2   3
ATOM      3  C   UNL A   1      32.831  26.680  25.239  1.00  0.00     0.329 C 
ATOM      4  O   UNL A   1      33.390  26.766  26.335  1.00  0.00    -0.250 OA
BRANCH   3   5
ATOM      5  C   UNL A   1      32.675  25.294  24.544  1.00  0.00     0.196 C 
BRANCH   5   6
ATOM      6  N   UNL A   1      31.916  24.690  25.671  1.00  0.00    -0.342 N 
ATOM      7  C   UNL A   1      32.025  23.673  26.545  1.00  0.00     0.229 C 
ATOM      8  O   UNL A   1      31.379  23.697  27.593  1.00  0.00    -0.275 OA
ATOM      9  H   UNL A   1      31.077  25.184  25.823  1.00  0.00     0.164 HD
BRANCH   7  10
ATOM     10  C   UNL A   1      32.829  22.488  26.176  1.00  0.00     0.130 C 
ATOM     11  C   UNL A   1      33.572  22.142  27.484  1.00  0.00     0.024 C 
BRANCH  10  12
ATOM     12  C   UNL A   1      32.026  21.492  25.298  1.00  0.00     0.273 C 
BRANCH  12  13
ATOM     13  N   UNL A   1      32.262  20.045  25.244  1.00  0.00    -0.348 N 
ATOM     14  C   UNL A   1      33.511  19.623  24.647  1.00  0.00     0.330 C 
ATOM     15  H   UNL A   1      32.236  19.689  26.199  1.00  0.00     0.346 HD
ATOM     16  H   UNL A   1      31.531  19.671  24.638  1.00  0.00     0.346 HD
ENDBRANCH  12  13
ENDBRANCH  10  12
ENDBRANCH   7  10
ENDBRANCH   5   6
BRANCH   5  17
ATOM     17  C   UNL A   1      33.937  24.810  23.707  1.00  0.00     0.072 C 
BRANCH  17  18
ATOM     18  C   UNL A   1      35.136  23.987  24.237  1.00  0.00    -0.045 A 
ATOM     19  C   UNL A   1      35.664  22.897  23.535  1.00  0.00     0.004 A 
ATOM     20  C   UNL A   1      35.869  24.357  25.382  1.00  0.00     0.004 A 
ATOM     21  C   UNL A   1      36.787  22.182  24.014  1.00  0.00     0.000 A 
ATOM     22  C   UNL A   1      36.929  23.610  25.913  1.00  0.00     0.000 A 
ATOM     23  C   UNL A   1      37.392  22.512  25.225  1.00  0.00     0.000 A 
ENDBRANCH  17  18
ENDBRANCH   5  17
ENDBRANCH   3   5
ENDBRANCH   2   3
ENDBRANCH   1   2
BRANCH   1  24
ATOM     24  C   UNL A   1      31.971  29.998  25.448  1.00  0.00     0.275 C 
BRANCH  24  25
ATOM     25  O   UNL A   1      32.524  30.033  26.774  1.00  0.00    -0.458 OA
BRANCH  25  26
ATOM     26  C   UNL A   1      33.075  31.210  27.123  1.00  0.00     0.338 C 
ATOM     27  O   UNL A   1      32.501  32.301  27.207  1.00  0.00    -0.246 OA
BRANCH  26  28
ATOM     28  C   UNL A   1      34.441  31.024  27.603  1.00  0.00     0.060 A 
ATOM     29  C   UNL A   1      34.833  29.738  27.977  1.00  0.00     0.016 A 
ATOM     30  C   UNL A   1      35.281  32.105  27.830  1.00  0.00     0.016 A 
ATOM     31  C   UNL A   1      36.028  29.508  28.618  1.00  0.00     0.010 A 
ATOM     32  C   UNL A   1      36.514  31.876  28.442  1.00  0.00     0.010 A 
ATOM     33  C   UNL A   1      36.879  30.580  28.858  1.00  0.00    -0.014 A 
BRANCH  33  34
ATOM     34  C   UNL A   1      38.112  30.328  29.619  1.00  0.00     0.031 A 
ATOM     35  C   UNL A   1      39.148  29.417  29.044  1.00  0.00     0.074 A 
ATOM     36  C   UNL A   1      38.296  30.945  30.800  1.00  0.00     0.049 A 
ATOM     37  N   UNL A   1      40.230  28.950  29.600  1.00  0.00    -0.248 NA
ATOM     38  C   UNL A   1      38.930  28.963  27.660  1.00  0.00     0.031 C 
ATOM     39  C   UNL A   1      37.363  31.896  31.411  1.00  0.00     0.029 A 
ATOM     40  N   UNL A   1      39.316  30.845  31.705  1.00  0.00    -0.354 N 
ATOM     41  C   UNL A   1      40.787  28.090  28.664  1.00  0.00     0.074 A 
ATOM     42  C   UNL A   1      39.925  28.105  27.503  1.00  0.00     0.031 C 
ATOM     43  C   UNL A   1      37.841  32.268  32.607  1.00  0.00     0.029 A 
ATOM     44  C   UNL A   1      39.070  31.530  32.870  1.00  0.00     0.049 A 
ATOM     45  H   UNL A   1      40.143  30.335  31.539  1.00  0.00     0.167 HD
ATOM     46  C   UNL A   1      41.919  27.358  28.772  1.00  0.00     0.034 A 
ATOM     47  C   UNL A   1      39.728  31.510  34.042  1.00  0.00     0.034 A 
ATOM     48  C   UNL A   1      42.768  27.381  29.933  1.00  0.00     0.049 A 
ATOM     49  C   UNL A   1      40.964  30.666  34.153  1.00  0.00     0.074 A 
ATOM     50  C   UNL A   1      43.953  26.703  30.149  1.00  0.00     0.029 A 
ATOM     51  N   UNL A   1      42.510  28.115  31.083  1.00  0.00    -0.354 N 
ATOM     52  N   UNL A   1      41.516  29.893  33.248  1.00  0.00    -0.248 NA
ATOM     53  C   UNL A   1      41.681  30.708  35.432  1.00  0.00     0.031 C 
ATOM     54  C   UNL A   1      44.393  27.001  31.442  1.00  0.00     0.029 A 
ATOM     55  C   UNL A   1      43.507  27.899  32.019  1.00  0.00     0.049 A 
ATOM     56  H   UNL A   1      41.733  28.705  31.214  1.00  0.00     0.167 HD
ATOM     57  C   UNL A   1      42.662  29.376  33.836  1.00  0.00     0.074 A 
ATOM     58  C   UNL A   1      42.734  29.942  35.170  1.00  0.00     0.031 C 
ATOM     59  C   UNL A   1      43.569  28.504  33.326  1.00  0.00     0.034 A 
BRANCH  46  60
ATOM     60  C   UNL A   1      42.277  26.467  27.612  1.00  0.00     0.023 A 
ATOM     61  C   UNL A   1      42.951  26.996  26.492  1.00  0.00     0.012 A 
ATOM     62  C   UNL A   1      41.934  25.101  27.628  1.00  0.00     0.148 A 
ATOM     63  C   UNL A   1      43.230  26.193  25.387  1.00  0.00     0.002 A 
ATOM     64  C   UNL A   1      42.263  24.295  26.545  1.00  0.00     0.091 A 
ATOM     65  F   UNL A   1      41.267  24.620  28.688  1.00  0.00    -0.205 F 
ATOM     66  C   UNL A   1      42.894  24.843  25.416  1.00  0.00     0.022 A 
BRANCH  64  67
ATOM     67  S   UNL A   1      41.942  22.529  26.523  1.00  0.00     0.127 S 
ATOM     68  O   UNL A   1      42.918  22.039  27.496  1.00  0.00    -0.237 OA
ATOM     69  O   UNL A   1      40.550  22.464  26.971  1.00  0.00    -0.237 OA
ATOM     70  O   UNL A   1      42.156  22.100  25.148  1.00  0.00    -0.744 OA
ENDBRANCH  64  67
ENDBRANCH  46  60
BRANCH  47  71
ATOM     71  C   UNL A   1      39.208  32.308  35.186  1.00  0.00     0.023 A 
ATOM     72  C   UNL A   1      38.283  31.733  36.076  1.00  0.00     0.012 A 
ATOM     73  C   UNL A   1      39.689  33.610  35.434  1.00  0.00     0.148 A 
ATOM     74  C   UNL A   1      37.831  32.450  37.185  1.00  0.00     0.002 A 
ATOM     75  C   UNL A   1      39.279  34.293  36.571  1.00  0.00     0.091 A 
ATOM     76  F   UNL A   1      40.565  34.139  34.568  1.00  0.00    -0.205 F 
ATOM     77  C   UNL A   1      38.337  33.721  37.439  1.00  0.00     0.022 A 
BRANCH  75  78
ATOM     78  S   UNL A   1      39.981  35.876  37.053  1.00  0.00     0.127 S 
ATOM     79  O   UNL A   1      41.386  35.530  37.256  1.00  0.00    -0.237 OA
ATOM     80  O   UNL A   1      39.712  36.693  35.870  1.00  0.00    -0.237 OA
ATOM     81  O   UNL A   1      39.256  36.285  38.247  1.00  0.00    -0.744 OA
ENDBRANCH  75  78
ENDBRANCH  47  71
BRANCH  59  82
ATOM     82  C   UNL A   1      44.739  28.140  34.201  1.00  0.00     0.023 A 
ATOM     83  C   UNL A   1      45.898  28.940  34.200  1.00  0.00     0.012 A 
ATOM     84  C   UNL A   1      44.656  27.040  35.076  1.00  0.00     0.148 A 
ATOM     85  C   UNL A   1      46.972  28.629  35.032  1.00  0.00     0.002 A 
ATOM     86  C   UNL A   1      45.706  26.769  35.942  1.00  0.00     0.091 A 
ATOM     87  F   UNL A   1      43.551  26.281  35.046  1.00  0.00    -0.205 F 
ATOM     88  C   UNL A   1      46.872  27.552  35.912  1.00  0.00     0.022 A 
BRANCH  86  89
ATOM     89  S   UNL A   1      45.624  25.468  37.177  1.00  0.00     0.127 S 
ATOM     90  O   UNL A   1      47.038  25.158  37.379  1.00  0.00    -0.237 OA
ATOM     91  O   UNL A   1      44.983  26.151  38.301  1.00  0.00    -0.237 OA
ATOM     92  O   UNL A   1      44.829  24.400  36.586  1.00  0.00    -0.744 OA
ENDBRANCH  86  89
ENDBRANCH  59  82
ENDBRANCH  33  34
ENDBRANCH  26  28
ENDBRANCH  25  26
ENDBRANCH  24  25
ENDBRANCH   1  24
TORSDOF 20
ENDMDL
MODEL 3
REMARK VINA RESULT:     -10.6      1.662      7.931
REMARK SMILES C[NH2+]C[C@H](C)C(=O)N[C@H](Cc1ccccc1)C(=O)OCCOC(=O)c1ccc(-c2c3nc(c(-c4cccc(S(=O)(=O)[O-])c4F)c4ccc([nH]4)c(-c4cccc(S(=O)(=O)[O-])c4F)c4nc(c(-c5cccc(S(=O)(=O)[O-])c5F)c5ccc2[nH]5)C=C4)C=C3)cc1
REMARK SMILES IDX 20 1 19 2 17 3 18 4 9 5 8 6 6 7 7 8 4 10 5 11 3 12 2 13 1 14
REMARK SMILES IDX 10 17 11 18 12 19 16 20 13 21 15 22 14 23 21 24 22 25 23 26
REMARK SMILES IDX 24 27 25 28 26 29 87 30 27 31 86 32 28 33 29 34 30 35 80 36
REMARK SMILES IDX 31 37 85 38 79 39 81 40 32 41 84 42 78 43 77 44 33 46 65 47
REMARK SMILES IDX 45 48 64 49 46 50 49 51 63 52 82 53 47 54 48 55 62 57 83 58
REMARK SMILES IDX 50 59 34 60 35 61 43 62 36 63 38 64 44 65 37 66 39 67 40 68
REMARK SMILES IDX 41 69 42 70 66 71 67 72 75 73 68 74 70 75 76 76 69 77 71 78
REMARK SMILES IDX 72 79 73 80 74 81 51 82 52 83 60 84 53 85 55 86 61 87 54 88
REMARK SMILES IDX 56 89 57 90 58 91 59 92
REMARK H PARENT 8 9 2 15 2 16 81 45 49 56
REMARK Flexibility Score: inf
ROOT
ATOM      1  C   UNL A   1      37.887  20.350  24.638  1.00  0.00     0.274 C 
ENDROOT
BRANCH   1   2
ATOM      2  O   UNL A   1      37.111  21.201  25.521  1.00  0.00    -0.461 OA
BRANCH   2   3
ATOM      3  C   UNL A   1      35.769  21.025  25.424  1.00  0.00     0.329 C 
ATOM      4  O   UNL A   1      35.262  19.988  24.989  1.00  0.00    -0.250 OA
BRANCH   3   5
ATOM      5  C   UNL A   1      34.889  22.288  25.665  1.00  0.00     0.196 C 
BRANCH   5   6
ATOM      6  N   UNL A   1      33.609  21.533  25.674  1.00  0.00    -0.342 N 
ATOM      7  C   UNL A   1      32.531  21.344  24.892  1.00  0.00     0.229 C 
ATOM      8  O   UNL A   1      31.826  20.347  25.053  1.00  0.00    -0.275 OA
ATOM      9  H   UNL A   1      33.524  21.012  26.506  1.00  0.00     0.164 HD
BRANCH   7  10
ATOM     10  C   UNL A   1      32.143  22.400  23.931  1.00  0.00     0.130 C 
ATOM     11  C   UNL A   1      32.293  21.704  22.561  1.00  0.00     0.024 C 
BRANCH  10  12
ATOM     12  C   UNL A   1      30.902  23.197  24.414  1.00  0.00     0.273 C 
BRANCH  12  13
ATOM     13  N   UNL A   1      30.411  23.225  25.796  1.00  0.00    -0.348 N 
ATOM     14  C   UNL A   1      31.050  24.175  26.682  1.00  0.00     0.330 C 
ATOM     15  H   UNL A   1      29.415  23.445  25.770  1.00  0.00     0.346 HD
ATOM     16  H   UNL A   1      30.627  22.305  26.182  1.00  0.00     0.346 HD
ENDBRANCH  12  13
ENDBRANCH  10  12
ENDBRANCH   7  10
ENDBRANCH   5   6
BRANCH   5  17
ATOM     17  C   UNL A   1      35.366  23.599  24.904  1.00  0.00     0.072 C 
BRANCH  17  18
ATOM     18  C   UNL A   1      34.518  24.863  24.620  1.00  0.00    -0.045 A 
ATOM     19  C   UNL A   1      34.197  25.790  25.619  1.00  0.00     0.004 A 
ATOM     20  C   UNL A   1      34.130  25.244  23.320  1.00  0.00     0.004 A 
ATOM     21  C   UNL A   1      33.456  26.960  25.332  1.00  0.00     0.000 A 
ATOM     22  C   UNL A   1      33.325  26.354  23.033  1.00  0.00     0.000 A 
ATOM     23  C   UNL A   1      32.982  27.221  24.048  1.00  0.00     0.000 A 
ENDBRANCH  17  18
ENDBRANCH   5  17
ENDBRANCH   3   5
ENDBRANCH   2   3
ENDBRANCH   1   2
BRANCH   1  24
ATOM     24  C   UNL A   1      38.885  19.459  25.390  1.00  0.00     0.275 C 
BRANCH  24  25
ATOM     25  O   UNL A   1      39.301  20.039  26.638  1.00  0.00    -0.458 OA
BRANCH  25  26
ATOM     26  C   UNL A   1      40.619  20.292  26.730  1.00  0.00     0.338 C 
ATOM     27  O   UNL A   1      41.542  19.557  26.362  1.00  0.00    -0.246 OA
BRANCH  26  28
ATOM     28  C   UNL A   1      40.857  21.670  27.148  1.00  0.00     0.060 A 
ATOM     29  C   UNL A   1      40.289  22.691  26.388  1.00  0.00     0.016 A 
ATOM     30  C   UNL A   1      41.744  21.971  28.174  1.00  0.00     0.016 A 
ATOM     31  C   UNL A   1      40.619  24.011  26.593  1.00  0.00     0.010 A 
ATOM     32  C   UNL A   1      42.053  23.310  28.418  1.00  0.00     0.010 A 
ATOM     33  C   UNL A   1      41.508  24.330  27.612  1.00  0.00    -0.014 A 
BRANCH  33  34
ATOM     34  C   UNL A   1      41.915  25.736  27.761  1.00  0.00     0.031 A 
ATOM     35  C   UNL A   1      43.270  26.154  27.290  1.00  0.00     0.074 A 
ATOM     36  C   UNL A   1      41.052  26.620  28.290  1.00  0.00     0.049 A 
ATOM     37  N   UNL A   1      43.881  27.294  27.451  1.00  0.00    -0.248 NA
ATOM     38  C   UNL A   1      44.047  25.148  26.544  1.00  0.00     0.031 C 
ATOM     39  C   UNL A   1      39.686  26.312  28.724  1.00  0.00     0.029 A 
ATOM     40  N   UNL A   1      41.203  27.950  28.573  1.00  0.00    -0.354 N 
ATOM     41  C   UNL A   1      45.140  27.124  26.894  1.00  0.00     0.074 A 
ATOM     42  C   UNL A   1      45.204  25.772  26.385  1.00  0.00     0.031 C 
ATOM     43  C   UNL A   1      39.136  27.415  29.250  1.00  0.00     0.029 A 
ATOM     44  C   UNL A   1      40.132  28.480  29.250  1.00  0.00     0.049 A 
ATOM     45  H   UNL A   1      41.998  28.473  28.318  1.00  0.00     0.167 HD
ATOM     46  C   UNL A   1      46.147  28.023  26.816  1.00  0.00     0.034 A 
ATOM     47  C   UNL A   1      39.996  29.671  29.860  1.00  0.00     0.034 A 
ATOM     48  C   UNL A   1      46.045  29.369  27.312  1.00  0.00     0.049 A 
ATOM     49  C   UNL A   1      41.137  30.643  29.791  1.00  0.00     0.074 A 
ATOM     50  C   UNL A   1      46.988  30.379  27.267  1.00  0.00     0.029 A 
ATOM     51  N   UNL A   1      44.931  29.889  27.959  1.00  0.00    -0.354 N 
ATOM     52  N   UNL A   1      42.308  30.497  29.217  1.00  0.00    -0.248 NA
ATOM     53  C   UNL A   1      40.933  31.948  30.426  1.00  0.00     0.031 C 
ATOM     54  C   UNL A   1      46.457  31.497  27.918  1.00  0.00     0.029 A 
ATOM     55  C   UNL A   1      45.166  31.201  28.331  1.00  0.00     0.049 A 
ATOM     56  H   UNL A   1      44.096  29.396  28.128  1.00  0.00     0.167 HD
ATOM     57  C   UNL A   1      42.974  31.701  29.399  1.00  0.00     0.074 A 
ATOM     58  C   UNL A   1      42.064  32.572  30.118  1.00  0.00     0.031 C 
ATOM     59  C   UNL A   1      44.227  32.055  29.016  1.00  0.00     0.034 A 
BRANCH  46  60
ATOM     60  C   UNL A   1      47.436  27.562  26.190  1.00  0.00     0.023 A 
ATOM     61  C   UNL A   1      48.460  27.016  26.993  1.00  0.00     0.012 A 
ATOM     62  C   UNL A   1      47.638  27.678  24.802  1.00  0.00     0.148 A 
ATOM     63  C   UNL A   1      49.680  26.644  26.431  1.00  0.00     0.002 A 
ATOM     64  C   UNL A   1      48.838  27.257  24.242  1.00  0.00     0.091 A 
ATOM     65  F   UNL A   1      46.667  28.226  24.057  1.00  0.00    -0.205 F 
ATOM     66  C   UNL A   1      49.867  26.757  25.057  1.00  0.00     0.022 A 
BRANCH  64  67
ATOM     67  S   UNL A   1      49.141  27.288  22.473  1.00  0.00     0.127 S 
ATOM     68  O   UNL A   1      50.599  27.183  22.420  1.00  0.00    -0.237 OA
ATOM     69  O   UNL A   1      48.427  26.095  22.017  1.00  0.00    -0.237 OA
ATOM     70  O   UNL A   1      48.586  28.547  21.994  1.00  0.00    -0.744 OA
ENDBRANCH  64  67
ENDBRANCH  46  60
BRANCH  47  71
ATOM     71  C   UNL A   1      38.736  29.979  30.589  1.00  0.00     0.023 A 
ATOM     72  C   UNL A   1      38.570  29.540  31.915  1.00  0.00     0.012 A 
ATOM     73  C   UNL A   1      37.733  30.770  29.992  1.00  0.00     0.148 A 
ATOM     74  C   UNL A   1      37.418  29.871  32.630  1.00  0.00     0.002 A 
ATOM     75  C   UNL A   1      36.617  31.144  30.730  1.00  0.00     0.091 A 
ATOM     76  F   UNL A   1      37.911  31.170  28.725  1.00  0.00    -0.205 F 
ATOM     77  C   UNL A   1      36.450  30.682  32.043  1.00  0.00     0.022 A 
BRANCH  75  78
ATOM     78  S   UNL A   1      35.389  32.297  30.105  1.00  0.00     0.127 S 
ATOM     79  O   UNL A   1      36.205  33.469  29.802  1.00  0.00    -0.237 OA
ATOM     80  O   UNL A   1      34.877  31.582  28.936  1.00  0.00    -0.237 OA
ATOM     81  O   UNL A   1      34.421  32.467  31.180  1.00  0.00    -0.744 OA
ENDBRANCH  75  78
ENDBRANCH  47  71
BRANCH  59  82
ATOM     82  C   UNL A   1      44.673  33.458  29.333  1.00  0.00     0.023 A 
ATOM     83  C   UNL A   1      45.224  33.754  30.595  1.00  0.00     0.012 A 
ATOM     84  C   UNL A   1      44.608  34.463  28.350  1.00  0.00     0.148 A 
ATOM     85  C   UNL A   1      45.672  35.042  30.884  1.00  0.00     0.002 A 
ATOM     86  C   UNL A   1      45.106  35.729  28.627  1.00  0.00     0.091 A 
ATOM     87  F   UNL A   1      44.061  34.162  27.163  1.00  0.00    -0.205 F 
ATOM     88  C   UNL A   1      45.625  36.025  29.898  1.00  0.00     0.022 A 
BRANCH  86  89
ATOM     89  S   UNL A   1      45.181  37.025  27.387  1.00  0.00     0.127 S 
ATOM     90  O   UNL A   1      43.764  37.253  27.107  1.00  0.00    -0.237 OA
ATOM     91  O   UNL A   1      45.841  38.110  28.114  1.00  0.00    -0.237 OA
ATOM     92  O   UNL A   1      45.956  36.480  26.280  1.00  0.00    -0.744 OA
ENDBRANCH  86  89
ENDBRANCH  59  82
ENDBRANCH  33  34
ENDBRANCH  26  28
ENDBRANCH  25  26
ENDBRANCH  24  25
ENDBRANCH   1  24
TORSDOF 20
ENDMDL
