MODEL 1
REMARK VINA RESULT:     -12.8      0.000      0.000
REMARK SMILES C[C@H](C(=O)OCCOC(=O)c1ccc(-c2c3nc(c(-c4cccc(S(=O)(=O)[O-])c4F)c4ccc([nH]4)c(-c4cccc(S(=O)(=O)[O-])c4F)c4nc(c(-c5cccc(S(=O)(=O)[O-])c5F)c5ccc2[nH]5)C=C4)C=C3)cc1)c1ccc2c(c1)[nH]c1ccc(Cl)cc12
REMARK SMILES IDX 7 1 6 2 5 3 3 4 4 5 2 6 1 7 74 8 75 9 79 10 76 11 78 12
REMARK SMILES IDX 77 13 80 14 87 15 81 16 86 18 82 19 84 20 83 21 85 22 8 23
REMARK SMILES IDX 9 24 10 25 11 26 12 27 73 28 13 29 72 30 14 31 15 32 16 33
REMARK SMILES IDX 66 34 17 35 71 36 65 37 67 38 18 39 70 40 64 41 63 42 19 44
REMARK SMILES IDX 51 45 31 46 50 47 32 48 35 49 49 50 68 51 33 52 34 53 48 55
REMARK SMILES IDX 69 56 36 57 20 58 21 59 29 60 22 61 24 62 30 63 23 64 25 65
REMARK SMILES IDX 26 66 27 67 28 68 52 69 53 70 61 71 54 72 56 73 62 74 55 75
REMARK SMILES IDX 57 76 58 77 59 78 60 79 37 80 38 81 46 82 39 83 41 84 47 85
REMARK SMILES IDX 40 86 42 87 43 88 44 89 45 90
REMARK H PARENT 80 17 67 43 35 54
REMARK Flexibility Score: inf
ROOT
ATOM      1  C   UNL A   1      36.603  20.174  25.001  1.00  0.00     0.275 C 
ENDROOT
BRANCH   1   2
ATOM      2  C   UNL A   1      35.120  20.530  24.975  1.00  0.00     0.274 C 
BRANCH   2   3
ATOM      3  O   UNL A   1      34.914  21.831  24.386  1.00  0.00    -0.462 OA
BRANCH   3   4
ATOM      4  C   UNL A   1      33.629  22.294  24.412  1.00  0.00     0.313 C 
ATOM      5  O   UNL A   1      32.721  21.840  23.726  1.00  0.00    -0.252 OA
BRANCH   4   6
ATOM      6  C   UNL A   1      33.481  23.510  25.323  1.00  0.00     0.126 C 
ATOM      7  C   UNL A   1      34.870  24.006  25.754  1.00  0.00     0.025 C 
BRANCH   6   8
ATOM      8  C   UNL A   1      32.634  24.630  24.728  1.00  0.00    -0.032 A 
ATOM      9  C   UNL A   1      33.258  25.698  24.071  1.00  0.00     0.005 A 
ATOM     10  C   UNL A   1      31.233  24.616  24.821  1.00  0.00     0.031 A 
ATOM     11  C   UNL A   1      32.515  26.743  23.498  1.00  0.00     0.011 A 
ATOM     12  C   UNL A   1      30.508  25.696  24.301  1.00  0.00     0.047 A 
ATOM     13  C   UNL A   1      31.111  26.749  23.622  1.00  0.00     0.007 A 
ATOM     14  N   UNL A   1      29.157  25.954  24.335  1.00  0.00    -0.355 N 
ATOM     15  C   UNL A   1      30.068  27.629  23.187  1.00  0.00     0.009 A 
ATOM     16  C   UNL A   1      28.864  27.130  23.685  1.00  0.00     0.047 A 
ATOM     17  H   UNL A   1      28.490  25.375  24.769  1.00  0.00     0.167 HD
ATOM     18  C   UNL A   1      30.041  28.814  22.423  1.00  0.00     0.031 A 
ATOM     19  C   UNL A   1      27.636  27.778  23.501  1.00  0.00     0.028 A 
ATOM     20  C   UNL A   1      28.818  29.457  22.210  1.00  0.00     0.041 A 
ATOM     21  C   UNL A   1      27.635  28.958  22.751  1.00  0.00     0.022 A 
ATOM     22  Cl  UNL A   1      28.778  30.894  21.258  1.00  0.00    -0.084 Cl
ENDBRANCH   6   8
ENDBRANCH   4   6
ENDBRANCH   3   4
ENDBRANCH   2   3
ENDBRANCH   1   2
BRANCH   1  23
ATOM     23  O   UNL A   1      37.362  21.328  25.394  1.00  0.00    -0.458 OA
BRANCH  23  24
ATOM     24  C   UNL A   1      38.625  21.085  25.804  1.00  0.00     0.338 C 
ATOM     25  O   UNL A   1      39.223  20.018  25.751  1.00  0.00    -0.246 OA
BRANCH  24  26
ATOM     26  C   UNL A   1      39.216  22.308  26.376  1.00  0.00     0.060 A 
ATOM     27  C   UNL A   1      38.665  23.565  26.126  1.00  0.00     0.016 A 
ATOM     28  C   UNL A   1      40.403  22.201  27.101  1.00  0.00     0.016 A 
ATOM     29  C   UNL A   1      39.362  24.719  26.495  1.00  0.00     0.010 A 
ATOM     30  C   UNL A   1      41.036  23.354  27.571  1.00  0.00     0.010 A 
ATOM     31  C   UNL A   1      40.552  24.630  27.232  1.00  0.00    -0.014 A 
BRANCH  31  32
ATOM     32  C   UNL A   1      41.305  25.849  27.643  1.00  0.00     0.031 A 
ATOM     33  C   UNL A   1      40.631  26.920  28.466  1.00  0.00     0.074 A 
ATOM     34  C   UNL A   1      42.580  26.027  27.241  1.00  0.00     0.049 A 
ATOM     35  N   UNL A   1      41.058  28.116  28.779  1.00  0.00    -0.248 NA
ATOM     36  C   UNL A   1      39.292  26.611  28.998  1.00  0.00     0.031 C 
ATOM     37  C   UNL A   1      43.356  25.081  26.439  1.00  0.00     0.029 A 
ATOM     38  N   UNL A   1      43.441  27.081  27.432  1.00  0.00    -0.354 N 
ATOM     39  C   UNL A   1      40.023  28.725  29.479  1.00  0.00     0.074 A 
ATOM     40  C   UNL A   1      38.946  27.761  29.558  1.00  0.00     0.031 C 
ATOM     41  C   UNL A   1      44.577  25.589  26.214  1.00  0.00     0.029 A 
ATOM     42  C   UNL A   1      44.647  26.928  26.787  1.00  0.00     0.049 A 
ATOM     43  H   UNL A   1      43.217  27.870  27.975  1.00  0.00     0.167 HD
ATOM     44  C   UNL A   1      39.967  29.969  30.011  1.00  0.00     0.034 A 
ATOM     45  C   UNL A   1      45.681  27.778  26.632  1.00  0.00     0.034 A 
ATOM     46  C   UNL A   1      41.054  30.912  29.978  1.00  0.00     0.049 A 
ATOM     47  C   UNL A   1      45.601  29.149  27.242  1.00  0.00     0.074 A 
ATOM     48  C   UNL A   1      41.107  32.181  30.527  1.00  0.00     0.029 A 
ATOM     49  N   UNL A   1      42.277  30.688  29.366  1.00  0.00    -0.354 N 
ATOM     50  N   UNL A   1      44.640  29.677  27.960  1.00  0.00    -0.248 NA
ATOM     51  C   UNL A   1      46.754  30.037  27.032  1.00  0.00     0.031 C 
ATOM     52  C   UNL A   1      42.362  32.729  30.240  1.00  0.00     0.029 A 
ATOM     53  C   UNL A   1      43.093  31.796  29.522  1.00  0.00     0.049 A 
ATOM     54  H   UNL A   1      42.528  29.864  28.890  1.00  0.00     0.167 HD
ATOM     55  C   UNL A   1      45.077  30.950  28.303  1.00  0.00     0.074 A 
ATOM     56  C   UNL A   1      46.403  31.103  27.739  1.00  0.00     0.031 C 
ATOM     57  C   UNL A   1      44.430  31.914  29.002  1.00  0.00     0.034 A 
BRANCH  44  58
ATOM     58  C   UNL A   1      38.695  30.379  30.704  1.00  0.00     0.023 A 
ATOM     59  C   UNL A   1      38.525  30.097  32.073  1.00  0.00     0.012 A 
ATOM     60  C   UNL A   1      37.694  31.091  30.015  1.00  0.00     0.148 A 
ATOM     61  C   UNL A   1      37.366  30.493  32.741  1.00  0.00     0.002 A 
ATOM     62  C   UNL A   1      36.559  31.516  30.696  1.00  0.00     0.091 A 
ATOM     63  F   UNL A   1      37.860  31.326  28.705  1.00  0.00    -0.205 F 
ATOM     64  C   UNL A   1      36.389  31.211  32.056  1.00  0.00     0.022 A 
BRANCH  62  65
ATOM     65  S   UNL A   1      35.280  32.507  29.911  1.00  0.00     0.127 S 
ATOM     66  O   UNL A   1      36.048  33.660  29.445  1.00  0.00    -0.237 OA
ATOM     67  O   UNL A   1      34.806  31.620  28.848  1.00  0.00    -0.237 OA
ATOM     68  O   UNL A   1      34.299  32.781  30.951  1.00  0.00    -0.744 OA
ENDBRANCH  62  65
ENDBRANCH  44  58
BRANCH  45  69
ATOM     69  C   UNL A   1      46.889  27.339  25.877  1.00  0.00     0.023 A 
ATOM     70  C   UNL A   1      47.796  26.449  26.483  1.00  0.00     0.012 A 
ATOM     71  C   UNL A   1      47.113  27.749  24.548  1.00  0.00     0.148 A 
ATOM     72  C   UNL A   1      48.911  25.985  25.784  1.00  0.00     0.002 A 
ATOM     73  C   UNL A   1      48.192  27.236  23.837  1.00  0.00     0.091 A 
ATOM     74  F   UNL A   1      46.253  28.616  23.996  1.00  0.00    -0.205 F 
ATOM     75  C   UNL A   1      49.100  26.365  24.458  1.00  0.00     0.022 A 
BRANCH  73  76
ATOM     76  S   UNL A   1      48.415  27.555  22.084  1.00  0.00     0.127 S 
ATOM     77  O   UNL A   1      47.153  28.203  21.734  1.00  0.00    -0.237 OA
ATOM     78  O   UNL A   1      49.582  28.438  22.078  1.00  0.00    -0.237 OA
ATOM     79  O   UNL A   1      48.653  26.251  21.480  1.00  0.00    -0.744 OA
ENDBRANCH  73  76
ENDBRANCH  45  69
BRANCH  57  80
ATOM     80  C   UNL A   1      45.151  33.218  29.218  1.00  0.00     0.023 A 
ATOM     81  C   UNL A   1      45.979  33.373  30.347  1.00  0.00     0.012 A 
ATOM     82  C   UNL A   1      45.063  34.257  28.272  1.00  0.00     0.148 A 
ATOM     83  C   UNL A   1      46.691  34.556  30.544  1.00  0.00     0.002 A 
ATOM     84  C   UNL A   1      45.807  35.418  28.454  1.00  0.00     0.091 A 
ATOM     85  F   UNL A   1      44.251  34.098  27.217  1.00  0.00    -0.205 F 
ATOM     86  C   UNL A   1      46.614  35.572  29.594  1.00  0.00     0.022 A 
BRANCH  84  87
ATOM     87  S   UNL A   1      45.832  36.737  27.237  1.00  0.00     0.127 S 
ATOM     88  O   UNL A   1      46.726  37.708  27.866  1.00  0.00    -0.237 OA
ATOM     89  O   UNL A   1      46.389  36.068  26.059  1.00  0.00    -0.237 OA
ATOM     90  O   UNL A   1      44.447  37.163  27.086  1.00  0.00    -0.744 OA
ENDBRANCH  84  87
ENDBRANCH  57  80
ENDBRANCH  31  32
ENDBRANCH  24  26
ENDBRANCH  23  24
ENDBRANCH   1  23
TORSDOF 15
ENDMDL
MODEL 2
REMARK VINA RESULT:     -12.7      5.578     10.624
REMARK SMILES C[C@H](C(=O)OCCOC(=O)c1ccc(-c2c3nc(c(-c4cccc(S(=O)(=O)[O-])c4F)c4ccc([nH]4)c(-c4cccc(S(=O)(=O)[O-])c4F)c4nc(c(-c5cccc(S(=O)(=O)[O-])c5F)c5ccc2[nH]5)C=C4)C=C3)cc1)c1ccc2c(c1)[nH]c1ccc(Cl)cc12
REMARK SMILES IDX 7 1 6 2 5 3 3 4 4 5 2 6 1 7 74 8 75 9 79 10 76 11 78 12
REMARK SMILES IDX 77 13 80 14 87 15 81 16 86 18 82 19 84 20 83 21 85 22 8 23
REMARK SMILES IDX 9 24 10 25 11 26 12 27 73 28 13 29 72 30 14 31 15 32 16 33
REMARK SMILES IDX 66 34 17 35 71 36 65 37 67 38 18 39 70 40 64 41 63 42 19 44
REMARK SMILES IDX 51 45 31 46 50 47 32 48 35 49 49 50 68 51 33 52 34 53 48 55
REMARK SMILES IDX 69 56 36 57 20 58 21 59 29 60 22 61 24 62 30 63 23 64 25 65
REMARK SMILES IDX 26 66 27 67 28 68 52 69 53 70 61 71 54 72 56 73 62 74 55 75
REMARK SMILES IDX 57 76 58 77 59 78 60 79 37 80 38 81 46 82 39 83 41 84 47 85
REMARK SMILES IDX 40 86 42 87 43 88 44 89 45 90
REMARK H PARENT 80 17 67 43 35 54
REMARK Flexibility Score: inf
ROOT
ATOM      1  C   UNL A   1      31.431  31.594  26.548  1.00  0.00     0.275 C 
ENDROOT
BRANCH   1   2
ATOM      2  C   UNL A   1      31.023  30.794  25.316  1.00  0.00     0.274 C 
BRANCH   2   3
ATOM      3  O   UNL A   1      31.995  29.769  25.024  1.00  0.00    -0.462 OA
BRANCH   3   4
ATOM      4  C   UNL A   1      31.554  28.482  25.156  1.00  0.00     0.313 C 
ATOM      5  O   UNL A   1      30.655  27.991  24.483  1.00  0.00    -0.252 OA
BRANCH   4   6
ATOM      6  C   UNL A   1      32.245  27.760  26.310  1.00  0.00     0.126 C 
ATOM      7  C   UNL A   1      31.518  28.073  27.626  1.00  0.00     0.025 C 
BRANCH   6   8
ATOM      8  C   UNL A   1      32.411  26.260  26.090  1.00  0.00    -0.032 A 
ATOM      9  C   UNL A   1      31.314  25.407  26.268  1.00  0.00     0.005 A 
ATOM     10  C   UNL A   1      33.646  25.708  25.711  1.00  0.00     0.031 A 
ATOM     11  C   UNL A   1      31.421  24.022  26.064  1.00  0.00     0.011 A 
ATOM     12  C   UNL A   1      33.753  24.318  25.573  1.00  0.00     0.047 A 
ATOM     13  C   UNL A   1      32.668  23.462  25.718  1.00  0.00     0.007 A 
ATOM     14  N   UNL A   1      34.852  23.539  25.291  1.00  0.00    -0.355 N 
ATOM     15  C   UNL A   1      33.133  22.134  25.451  1.00  0.00     0.009 A 
ATOM     16  C   UNL A   1      34.509  22.209  25.232  1.00  0.00     0.047 A 
ATOM     17  H   UNL A   1      35.762  23.888  25.153  1.00  0.00     0.167 HD
ATOM     18  C   UNL A   1      32.509  20.871  25.388  1.00  0.00     0.031 A 
ATOM     19  C   UNL A   1      35.306  21.081  24.999  1.00  0.00     0.028 A 
ATOM     20  C   UNL A   1      33.289  19.740  25.131  1.00  0.00     0.041 A 
ATOM     21  C   UNL A   1      34.667  19.837  24.954  1.00  0.00     0.022 A 
ATOM     22  Cl  UNL A   1      32.525  18.197  25.032  1.00  0.00    -0.084 Cl
ENDBRANCH   6   8
ENDBRANCH   4   6
ENDBRANCH   3   4
ENDBRANCH   2   3
ENDBRANCH   1   2
BRANCH   1  23
ATOM     23  O   UNL A   1      32.795  31.297  26.878  1.00  0.00    -0.458 OA
BRANCH  23  24
ATOM     24  C   UNL A   1      33.477  32.285  27.494  1.00  0.00     0.338 C 
ATOM     25  O   UNL A   1      33.125  33.450  27.626  1.00  0.00    -0.246 OA
BRANCH  24  26
ATOM     26  C   UNL A   1      34.770  31.778  27.989  1.00  0.00     0.060 A 
ATOM     27  C   UNL A   1      34.936  30.438  28.342  1.00  0.00     0.016 A 
ATOM     28  C   UNL A   1      35.810  32.684  28.193  1.00  0.00     0.016 A 
ATOM     29  C   UNL A   1      36.094  30.030  29.008  1.00  0.00     0.010 A 
ATOM     30  C   UNL A   1      37.013  32.246  28.753  1.00  0.00     0.010 A 
ATOM     31  C   UNL A   1      37.154  30.926  29.214  1.00  0.00    -0.014 A 
BRANCH  31  32
ATOM     32  C   UNL A   1      38.401  30.507  29.914  1.00  0.00     0.031 A 
ATOM     33  C   UNL A   1      39.339  29.513  29.272  1.00  0.00     0.074 A 
ATOM     34  C   UNL A   1      38.678  30.977  31.148  1.00  0.00     0.049 A 
ATOM     35  N   UNL A   1      40.376  28.902  29.784  1.00  0.00    -0.248 NA
ATOM     36  C   UNL A   1      39.067  29.144  27.871  1.00  0.00     0.031 C 
ATOM     37  C   UNL A   1      37.862  31.937  31.892  1.00  0.00     0.029 A 
ATOM     38  N   UNL A   1      39.713  30.688  32.005  1.00  0.00    -0.354 N 
ATOM     39  C   UNL A   1      40.836  28.033  28.802  1.00  0.00     0.074 A 
ATOM     40  C   UNL A   1      39.972  28.203  27.653  1.00  0.00     0.031 C 
ATOM     41  C   UNL A   1      38.427  32.165  33.086  1.00  0.00     0.029 A 
ATOM     42  C   UNL A   1      39.602  31.313  33.227  1.00  0.00     0.049 A 
ATOM     43  H   UNL A   1      40.459  30.093  31.770  1.00  0.00     0.167 HD
ATOM     44  C   UNL A   1      41.881  27.173  28.844  1.00  0.00     0.034 A 
ATOM     45  C   UNL A   1      40.332  31.188  34.353  1.00  0.00     0.034 A 
ATOM     46  C   UNL A   1      42.773  27.038  29.965  1.00  0.00     0.049 A 
ATOM     47  C   UNL A   1      41.494  30.236  34.371  1.00  0.00     0.074 A 
ATOM     48  C   UNL A   1      43.886  26.224  30.085  1.00  0.00     0.029 A 
ATOM     49  N   UNL A   1      42.657  27.736  31.157  1.00  0.00    -0.354 N 
ATOM     50  N   UNL A   1      41.952  29.476  33.407  1.00  0.00    -0.248 NA
ATOM     51  C   UNL A   1      42.248  30.134  35.629  1.00  0.00     0.031 C 
ATOM     52  C   UNL A   1      44.438  26.424  31.355  1.00  0.00     0.029 A 
ATOM     53  C   UNL A   1      43.677  27.371  32.020  1.00  0.00     0.049 A 
ATOM     54  H   UNL A   1      41.953  28.393  31.360  1.00  0.00     0.167 HD
ATOM     55  C   UNL A   1      43.058  28.819  33.933  1.00  0.00     0.074 A 
ATOM     56  C   UNL A   1      43.218  29.294  35.292  1.00  0.00     0.031 C 
ATOM     57  C   UNL A   1      43.855  27.890  33.351  1.00  0.00     0.034 A 
BRANCH  44  58
ATOM     58  C   UNL A   1      42.140  26.323  27.628  1.00  0.00     0.023 A 
ATOM     59  C   UNL A   1      42.814  26.877  26.522  1.00  0.00     0.012 A 
ATOM     60  C   UNL A   1      41.766  24.966  27.602  1.00  0.00     0.148 A 
ATOM     61  C   UNL A   1      43.088  26.099  25.397  1.00  0.00     0.002 A 
ATOM     62  C   UNL A   1      42.077  24.187  26.493  1.00  0.00     0.091 A 
ATOM     63  F   UNL A   1      41.101  24.464  28.652  1.00  0.00    -0.205 F 
ATOM     64  C   UNL A   1      42.730  24.753  25.387  1.00  0.00     0.022 A 
BRANCH  62  65
ATOM     65  S   UNL A   1      41.716  22.427  26.421  1.00  0.00     0.127 S 
ATOM     66  O   UNL A   1      42.280  22.065  25.122  1.00  0.00    -0.237 OA
ATOM     67  O   UNL A   1      42.455  21.910  27.573  1.00  0.00    -0.237 OA
ATOM     68  O   UNL A   1      40.269  22.316  26.534  1.00  0.00    -0.744 OA
ENDBRANCH  62  65
ENDBRANCH  44  58
BRANCH  45  69
ATOM     69  C   UNL A   1      39.987  32.007  35.549  1.00  0.00     0.023 A 
ATOM     70  C   UNL A   1      40.600  33.261  35.727  1.00  0.00     0.012 A 
ATOM     71  C   UNL A   1      39.015  31.580  36.475  1.00  0.00     0.148 A 
ATOM     72  C   UNL A   1      40.262  34.070  36.813  1.00  0.00     0.002 A 
ATOM     73  C   UNL A   1      38.640  32.416  37.521  1.00  0.00     0.091 A 
ATOM     74  F   UNL A   1      38.460  30.372  36.304  1.00  0.00    -0.205 F 
ATOM     75  C   UNL A   1      39.272  33.655  37.699  1.00  0.00     0.022 A 
BRANCH  73  76
ATOM     76  S   UNL A   1      37.267  32.020  38.610  1.00  0.00     0.127 S 
ATOM     77  O   UNL A   1      37.791  32.425  39.912  1.00  0.00    -0.237 OA
ATOM     78  O   UNL A   1      36.200  32.871  38.083  1.00  0.00    -0.237 OA
ATOM     79  O   UNL A   1      37.031  30.593  38.432  1.00  0.00    -0.744 OA
ENDBRANCH  73  76
ENDBRANCH  45  69
BRANCH  57  80
ATOM     80  C   UNL A   1      44.988  27.334  34.171  1.00  0.00     0.023 A 
ATOM     81  C   UNL A   1      46.230  28.000  34.178  1.00  0.00     0.012 A 
ATOM     82  C   UNL A   1      44.803  26.201  34.985  1.00  0.00     0.148 A 
ATOM     83  C   UNL A   1      47.280  27.528  34.964  1.00  0.00     0.002 A 
ATOM     84  C   UNL A   1      45.842  25.760  35.797  1.00  0.00     0.091 A 
ATOM     85  F   UNL A   1      43.620  25.569  34.946  1.00  0.00    -0.205 F 
ATOM     86  C   UNL A   1      47.083  26.417  35.782  1.00  0.00     0.022 A 
BRANCH  84  87
ATOM     87  S   UNL A   1      45.643  24.391  36.942  1.00  0.00     0.127 S 
ATOM     88  O   UNL A   1      45.313  23.291  36.038  1.00  0.00    -0.237 OA
ATOM     89  O   UNL A   1      46.969  24.300  37.557  1.00  0.00    -0.237 OA
ATOM     90  O   UNL A   1      44.583  24.792  37.859  1.00  0.00    -0.744 OA
ENDBRANCH  84  87
ENDBRANCH  57  80
ENDBRANCH  31  32
ENDBRANCH  24  26
ENDBRANCH  23  24
ENDBRANCH   1  23
TORSDOF 15
ENDMDL
MODEL 3
REMARK VINA RESULT:     -12.5      1.591      2.014
REMARK SMILES C[C@H](C(=O)OCCOC(=O)c1ccc(-c2c3nc(c(-c4cccc(S(=O)(=O)[O-])c4F)c4ccc([nH]4)c(-c4cccc(S(=O)(=O)[O-])c4F)c4nc(c(-c5cccc(S(=O)(=O)[O-])c5F)c5ccc2[nH]5)C=C4)C=C3)cc1)c1ccc2c(c1)[nH]c1ccc(Cl)cc12
REMARK SMILES IDX 7 1 6 2 5 3 3 4 4 5 2 6 1 7 74 8 75 9 79 10 76 11 78 12
REMARK SMILES IDX 77 13 80 14 87 15 81 16 86 18 82 19 84 20 83 21 85 22 8 23
REMARK SMILES IDX 9 24 10 25 11 26 12 27 73 28 13 29 72 30 14 31 15 32 16 33
REMARK SMILES IDX 66 34 17 35 71 36 65 37 67 38 18 39 70 40 64 41 63 42 19 44
REMARK SMILES IDX 51 45 31 46 50 47 32 48 35 49 49 50 68 51 33 52 34 53 48 55
REMARK SMILES IDX 69 56 36 57 20 58 21 59 29 60 22 61 24 62 30 63 23 64 25 65
REMARK SMILES IDX 26 66 27 67 28 68 52 69 53 70 61 71 54 72 56 73 62 74 55 75
REMARK SMILES IDX 57 76 58 77 59 78 60 79 37 80 38 81 46 82 39 83 41 84 47 85
REMARK SMILES IDX 40 86 42 87 43 88 44 89 45 90
REMARK H PARENT 80 17 67 43 35 54
REMARK Flexibility Score: inf
ROOT
ATOM      1  C   UNL A   1      36.213  21.522  24.699  1.00  0.00     0.275 C 
ENDROOT
BRANCH   1   2
ATOM      2  C   UNL A   1      35.038  20.551  24.655  1.00  0.00     0.274 C 
BRANCH   2   3
ATOM      3  O   UNL A   1      33.793  21.259  24.485  1.00  0.00    -0.462 OA
BRANCH   3   4
ATOM      4  C   UNL A   1      32.752  20.815  25.249  1.00  0.00     0.313 C 
ATOM      5  O   UNL A   1      32.168  19.753  25.066  1.00  0.00    -0.252 OA
BRANCH   4   6
ATOM      6  C   UNL A   1      32.335  21.844  26.297  1.00  0.00     0.126 C 
ATOM      7  C   UNL A   1      33.469  22.033  27.317  1.00  0.00     0.025 C 
BRANCH   6   8
ATOM      8  C   UNL A   1      31.867  23.171  25.710  1.00  0.00    -0.032 A 
ATOM      9  C   UNL A   1      31.105  23.180  24.534  1.00  0.00     0.005 A 
ATOM     10  C   UNL A   1      32.182  24.395  26.324  1.00  0.00     0.031 A 
ATOM     11  C   UNL A   1      30.644  24.379  23.968  1.00  0.00     0.011 A 
ATOM     12  C   UNL A   1      31.769  25.586  25.713  1.00  0.00     0.047 A 
ATOM     13  C   UNL A   1      30.989  25.609  24.563  1.00  0.00     0.007 A 
ATOM     14  N   UNL A   1      32.014  26.893  26.067  1.00  0.00    -0.355 N 
ATOM     15  C   UNL A   1      30.713  26.983  24.263  1.00  0.00     0.009 A 
ATOM     16  C   UNL A   1      31.403  27.761  25.193  1.00  0.00     0.047 A 
ATOM     17  H   UNL A   1      32.555  27.169  26.841  1.00  0.00     0.167 HD
ATOM     18  C   UNL A   1      29.947  27.635  23.275  1.00  0.00     0.031 A 
ATOM     19  C   UNL A   1      31.407  29.161  25.161  1.00  0.00     0.028 A 
ATOM     20  C   UNL A   1      29.922  29.033  23.247  1.00  0.00     0.041 A 
ATOM     21  C   UNL A   1      30.651  29.787  24.164  1.00  0.00     0.022 A 
ATOM     22  Cl  UNL A   1      28.969  29.833  22.054  1.00  0.00    -0.084 Cl
ENDBRANCH   6   8
ENDBRANCH   4   6
ENDBRANCH   3   4
ENDBRANCH   2   3
ENDBRANCH   1   2
BRANCH   1  23
ATOM     23  O   UNL A   1      36.929  21.346  25.931  1.00  0.00    -0.458 OA
BRANCH  23  24
ATOM     24  C   UNL A   1      38.272  21.280  25.823  1.00  0.00     0.338 C 
ATOM     25  O   UNL A   1      38.928  20.363  25.346  1.00  0.00    -0.246 OA
BRANCH  24  26
ATOM     26  C   UNL A   1      38.887  22.490  26.400  1.00  0.00     0.060 A 
ATOM     27  C   UNL A   1      38.390  23.762  26.116  1.00  0.00     0.016 A 
ATOM     28  C   UNL A   1      40.045  22.351  27.166  1.00  0.00     0.016 A 
ATOM     29  C   UNL A   1      39.115  24.895  26.494  1.00  0.00     0.010 A 
ATOM     30  C   UNL A   1      40.702  23.487  27.642  1.00  0.00     0.010 A 
ATOM     31  C   UNL A   1      40.276  24.775  27.272  1.00  0.00    -0.014 A 
BRANCH  31  32
ATOM     32  C   UNL A   1      41.058  25.972  27.693  1.00  0.00     0.031 A 
ATOM     33  C   UNL A   1      40.408  27.054  28.522  1.00  0.00     0.074 A 
ATOM     34  C   UNL A   1      42.338  26.121  27.295  1.00  0.00     0.049 A 
ATOM     35  N   UNL A   1      40.863  28.237  28.844  1.00  0.00    -0.248 NA
ATOM     36  C   UNL A   1      39.060  26.775  29.048  1.00  0.00     0.031 C 
ATOM     37  C   UNL A   1      43.093  25.161  26.490  1.00  0.00     0.029 A 
ATOM     38  N   UNL A   1      43.224  27.153  27.496  1.00  0.00    -0.354 N 
ATOM     39  C   UNL A   1      39.841  28.866  29.545  1.00  0.00     0.074 A 
ATOM     40  C   UNL A   1      38.741  27.929  29.615  1.00  0.00     0.031 C 
ATOM     41  C   UNL A   1      44.326  25.641  26.271  1.00  0.00     0.029 A 
ATOM     42  C   UNL A   1      44.428  26.973  26.854  1.00  0.00     0.049 A 
ATOM     43  H   UNL A   1      43.018  27.943  28.044  1.00  0.00     0.167 HD
ATOM     44  C   UNL A   1      39.815  30.108  30.085  1.00  0.00     0.034 A 
ATOM     45  C   UNL A   1      45.483  27.799  26.707  1.00  0.00     0.034 A 
ATOM     46  C   UNL A   1      40.925  31.023  30.061  1.00  0.00     0.049 A 
ATOM     47  C   UNL A   1      45.435  29.167  27.326  1.00  0.00     0.074 A 
ATOM     48  C   UNL A   1      41.008  32.288  30.620  1.00  0.00     0.029 A 
ATOM     49  N   UNL A   1      42.144  30.774  29.452  1.00  0.00    -0.354 N 
ATOM     50  N   UNL A   1      44.485  29.714  28.045  1.00  0.00    -0.248 NA
ATOM     51  C   UNL A   1      46.610  30.028  27.126  1.00  0.00     0.031 C 
ATOM     52  C   UNL A   1      42.277  32.806  30.339  1.00  0.00     0.029 A 
ATOM     53  C   UNL A   1      42.987  31.860  29.618  1.00  0.00     0.049 A 
ATOM     54  H   UNL A   1      42.376  29.947  28.971  1.00  0.00     0.167 HD
ATOM     55  C   UNL A   1      44.953  30.974  28.398  1.00  0.00     0.074 A 
ATOM     56  C   UNL A   1      46.284  31.097  27.839  1.00  0.00     0.031 C 
ATOM     57  C   UNL A   1      44.328  31.949  29.101  1.00  0.00     0.034 A 
BRANCH  44  58
ATOM     58  C   UNL A   1      38.552  30.545  30.778  1.00  0.00     0.023 A 
ATOM     59  C   UNL A   1      38.377  30.270  32.148  1.00  0.00     0.012 A 
ATOM     60  C   UNL A   1      37.564  31.274  30.087  1.00  0.00     0.148 A 
ATOM     61  C   UNL A   1      37.226  30.691  32.815  1.00  0.00     0.002 A 
ATOM     62  C   UNL A   1      36.438  31.723  30.767  1.00  0.00     0.091 A 
ATOM     63  F   UNL A   1      37.734  31.501  28.776  1.00  0.00    -0.205 F 
ATOM     64  C   UNL A   1      36.263  31.426  32.128  1.00  0.00     0.022 A 
BRANCH  62  65
ATOM     65  S   UNL A   1      35.179  32.736  29.980  1.00  0.00     0.127 S 
ATOM     66  O   UNL A   1      34.668  31.826  28.955  1.00  0.00    -0.237 OA
ATOM     67  O   UNL A   1      34.251  32.995  31.081  1.00  0.00    -0.237 OA
ATOM     68  O   UNL A   1      35.874  33.916  29.486  1.00  0.00    -0.744 OA
ENDBRANCH  62  65
ENDBRANCH  44  58
BRANCH  45  69
ATOM     69  C   UNL A   1      46.682  27.335  25.953  1.00  0.00     0.023 A 
ATOM     70  C   UNL A   1      46.780  27.608  24.576  1.00  0.00     0.012 A 
ATOM     71  C   UNL A   1      47.748  26.681  26.602  1.00  0.00     0.148 A 
ATOM     72  C   UNL A   1      47.912  27.226  23.855  1.00  0.00     0.002 A 
ATOM     73  C   UNL A   1      48.898  26.358  25.890  1.00  0.00     0.091 A 
ATOM     74  F   UNL A   1      47.627  26.407  27.908  1.00  0.00    -0.205 F 
ATOM     75  C   UNL A   1      48.976  26.617  24.514  1.00  0.00     0.022 A 
BRANCH  73  76
ATOM     76  S   UNL A   1      50.367  25.714  26.698  1.00  0.00     0.127 S 
ATOM     77  O   UNL A   1      50.662  26.766  27.667  1.00  0.00    -0.237 OA
ATOM     78  O   UNL A   1      49.876  24.463  27.278  1.00  0.00    -0.237 OA
ATOM     79  O   UNL A   1      51.346  25.532  25.634  1.00  0.00    -0.744 OA
ENDBRANCH  73  76
ENDBRANCH  45  69
BRANCH  57  80
ATOM     80  C   UNL A   1      45.080  33.233  29.328  1.00  0.00     0.023 A 
ATOM     81  C   UNL A   1      45.913  33.358  30.457  1.00  0.00     0.012 A 
ATOM     82  C   UNL A   1      45.016  34.283  28.393  1.00  0.00     0.148 A 
ATOM     83  C   UNL A   1      46.653  34.522  30.664  1.00  0.00     0.002 A 
ATOM     84  C   UNL A   1      45.788  35.423  28.584  1.00  0.00     0.091 A 
ATOM     85  F   UNL A   1      44.199  34.152  27.337  1.00  0.00    -0.205 F 
ATOM     86  C   UNL A   1      46.600  35.547  29.723  1.00  0.00     0.022 A 
BRANCH  84  87
ATOM     87  S   UNL A   1      45.843  36.753  27.378  1.00  0.00     0.127 S 
ATOM     88  O   UNL A   1      44.438  37.148  27.305  1.00  0.00    -0.237 OA
ATOM     89  O   UNL A   1      46.719  37.730  28.027  1.00  0.00    -0.237 OA
ATOM     90  O   UNL A   1      46.395  36.164  26.165  1.00  0.00    -0.744 OA
ENDBRANCH  84  87
ENDBRANCH  57  80
ENDBRANCH  31  32
ENDBRANCH  24  26
ENDBRANCH  23  24
ENDBRANCH   1  23
TORSDOF 15
ENDMDL
