MODEL 1
REMARK VINA RESULT:     -11.5      0.000      0.000
REMARK SMILES COc1ccc2cc([C@H](C)C(=O)OCCOC(=O)c3ccc(-c4c5nc(c(-c6cccc(S(=O)(=O)[O-])c6F)c6ccc([nH]6)c(-c6cccc(S(=O)(=O)[O-])c6F)c6nc(c(-c7cccc(S(=O)(=O)[O-])c7F)c7ccc4[nH]7)C=C6)C=C5)cc3)ccc2c1
REMARK SMILES IDX 15 1 14 2 13 3 11 4 12 5 9 6 10 7 8 8 3 9 4 10 85 11 5 12
REMARK SMILES IDX 84 13 6 14 83 15 7 16 82 17 2 18 1 19 16 20 17 21 18 22
REMARK SMILES IDX 19 23 20 24 81 25 21 26 80 27 22 28 23 29 24 30 74 31 25 32
REMARK SMILES IDX 79 33 73 34 75 35 26 36 78 37 72 38 71 39 27 41 59 42 39 43
REMARK SMILES IDX 58 44 40 45 43 46 57 47 76 48 41 49 42 50 56 52 77 53 44 54
REMARK SMILES IDX 28 55 29 56 37 57 30 58 32 59 38 60 31 61 33 62 34 63 35 64
REMARK SMILES IDX 36 65 60 66 61 67 69 68 62 69 64 70 70 71 63 72 65 73 66 74
REMARK SMILES IDX 67 75 68 76 45 77 46 78 54 79 47 80 49 81 55 82 48 83 50 84
REMARK SMILES IDX 51 85 52 86 53 87
REMARK H PARENT 75 40 43 51
REMARK Flexibility Score: inf
ROOT
ATOM      1  C   UNL A   1      36.532  20.284  24.987  1.00  0.00     0.275 C 
ENDROOT
BRANCH   1   2
ATOM      2  C   UNL A   1      35.010  20.416  25.112  1.00  0.00     0.274 C 
BRANCH   2   3
ATOM      3  O   UNL A   1      34.487  21.479  24.293  1.00  0.00    -0.462 OA
BRANCH   3   4
ATOM      4  C   UNL A   1      34.142  22.615  24.958  1.00  0.00     0.313 C 
ATOM      5  O   UNL A   1      33.180  22.703  25.716  1.00  0.00    -0.252 OA
BRANCH   4   6
ATOM      6  C   UNL A   1      35.047  23.805  24.638  1.00  0.00     0.126 C 
ATOM      7  C   UNL A   1      36.029  23.534  23.497  1.00  0.00     0.025 C 
BRANCH   6   8
ATOM      8  C   UNL A   1      34.235  25.084  24.537  1.00  0.00    -0.033 A 
ATOM      9  C   UNL A   1      32.128  29.586  25.576  1.00  0.00     0.119 A 
ATOM     10  C   UNL A   1      32.914  29.266  26.681  1.00  0.00     0.047 A 
ATOM     11  C   UNL A   1      32.037  28.699  24.501  1.00  0.00     0.055 A 
ATOM     12  C   UNL A   1      33.643  28.077  26.691  1.00  0.00     0.012 A 
ATOM     13  C   UNL A   1      32.765  27.500  24.497  1.00  0.00    -0.015 A 
ATOM     14  C   UNL A   1      33.582  27.194  25.605  1.00  0.00    -0.018 A 
ATOM     15  C   UNL A   1      32.700  26.596  23.424  1.00  0.00     0.009 A 
ATOM     16  C   UNL A   1      34.311  25.999  25.605  1.00  0.00     0.013 A 
ATOM     17  C   UNL A   1      33.421  25.398  23.446  1.00  0.00     0.005 A 
BRANCH   9  18
ATOM     18  O   UNL A   1      31.375  30.726  25.482  1.00  0.00    -0.497 OA
ATOM     19  C   UNL A   1      31.489  31.572  26.624  1.00  0.00     0.278 C 
ENDBRANCH   9  18
ENDBRANCH   6   8
ENDBRANCH   4   6
ENDBRANCH   3   4
ENDBRANCH   2   3
ENDBRANCH   1   2
BRANCH   1  20
ATOM     20  O   UNL A   1      37.234  21.256  25.784  1.00  0.00    -0.458 OA
BRANCH  20  21
ATOM     21  C   UNL A   1      38.562  21.029  25.925  1.00  0.00     0.338 C 
ATOM     22  O   UNL A   1      39.180  20.045  25.557  1.00  0.00    -0.246 OA
BRANCH  21  23
ATOM     23  C   UNL A   1      39.224  22.218  26.484  1.00  0.00     0.060 A 
ATOM     24  C   UNL A   1      38.720  23.474  26.135  1.00  0.00     0.016 A 
ATOM     25  C   UNL A   1      40.383  22.110  27.251  1.00  0.00     0.016 A 
ATOM     26  C   UNL A   1      39.373  24.633  26.544  1.00  0.00     0.010 A 
ATOM     27  C   UNL A   1      41.041  23.275  27.661  1.00  0.00     0.010 A 
ATOM     28  C   UNL A   1      40.548  24.542  27.296  1.00  0.00    -0.014 A 
BRANCH  28  29
ATOM     29  C   UNL A   1      41.282  25.776  27.659  1.00  0.00     0.031 A 
ATOM     30  C   UNL A   1      40.588  26.853  28.442  1.00  0.00     0.074 A 
ATOM     31  C   UNL A   1      42.564  25.926  27.279  1.00  0.00     0.049 A 
ATOM     32  N   UNL A   1      41.029  28.033  28.788  1.00  0.00    -0.248 NA
ATOM     33  C   UNL A   1      39.213  26.570  28.889  1.00  0.00     0.031 C 
ATOM     34  C   UNL A   1      43.341  24.944  26.523  1.00  0.00     0.029 A 
ATOM     35  N   UNL A   1      43.431  26.976  27.454  1.00  0.00    -0.354 N 
ATOM     36  C   UNL A   1      39.976  28.653  29.447  1.00  0.00     0.074 A 
ATOM     37  C   UNL A   1      38.875  27.715  29.466  1.00  0.00     0.031 C 
ATOM     38  C   UNL A   1      44.559  25.450  26.269  1.00  0.00     0.029 A 
ATOM     39  C   UNL A   1      44.637  26.802  26.817  1.00  0.00     0.049 A 
ATOM     40  H   UNL A   1      43.210  27.777  27.983  1.00  0.00     0.167 HD
ATOM     41  C   UNL A   1      39.935  29.891  29.995  1.00  0.00     0.034 A 
ATOM     42  C   UNL A   1      45.675  27.649  26.665  1.00  0.00     0.034 A 
ATOM     43  C   UNL A   1      41.050  30.798  30.023  1.00  0.00     0.049 A 
ATOM     44  C   UNL A   1      45.605  29.011  27.300  1.00  0.00     0.074 A 
ATOM     45  C   UNL A   1      41.127  32.046  30.616  1.00  0.00     0.029 A 
ATOM     46  N   UNL A   1      42.281  30.559  29.431  1.00  0.00    -0.354 N 
ATOM     47  N   UNL A   1      44.646  29.535  28.026  1.00  0.00    -0.248 NA
ATOM     48  C   UNL A   1      46.768  29.891  27.121  1.00  0.00     0.031 C 
ATOM     49  C   UNL A   1      42.402  32.568  30.371  1.00  0.00     0.029 A 
ATOM     50  C   UNL A   1      43.121  31.640  29.636  1.00  0.00     0.049 A 
ATOM     51  H   UNL A   1      42.522  29.741  28.939  1.00  0.00     0.167 HD
ATOM     52  C   UNL A   1      45.100  30.791  28.411  1.00  0.00     0.074 A 
ATOM     53  C   UNL A   1      46.433  30.940  27.861  1.00  0.00     0.031 C 
ATOM     54  C   UNL A   1      44.466  31.745  29.136  1.00  0.00     0.034 A 
BRANCH  41  55
ATOM     55  C   UNL A   1      38.653  30.338  30.639  1.00  0.00     0.023 A 
ATOM     56  C   UNL A   1      38.471  30.160  32.025  1.00  0.00     0.012 A 
ATOM     57  C   UNL A   1      37.670  31.015  29.890  1.00  0.00     0.148 A 
ATOM     58  C   UNL A   1      37.322  30.638  32.654  1.00  0.00     0.002 A 
ATOM     59  C   UNL A   1      36.544  31.519  30.530  1.00  0.00     0.091 A 
ATOM     60  F   UNL A   1      37.856  31.153  28.570  1.00  0.00    -0.205 F 
ATOM     61  C   UNL A   1      36.366  31.326  31.911  1.00  0.00     0.022 A 
BRANCH  59  62
ATOM     62  S   UNL A   1      35.289  32.478  29.675  1.00  0.00     0.127 S 
ATOM     63  O   UNL A   1      34.355  32.776  30.760  1.00  0.00    -0.237 OA
ATOM     64  O   UNL A   1      36.054  33.629  29.195  1.00  0.00    -0.237 OA
ATOM     65  O   UNL A   1      34.768  31.613  28.625  1.00  0.00    -0.744 OA
ENDBRANCH  59  62
ENDBRANCH  41  55
BRANCH  42  66
ATOM     66  C   UNL A   1      46.877  27.223  25.896  1.00  0.00     0.023 A 
ATOM     67  C   UNL A   1      47.813  26.357  26.493  1.00  0.00     0.012 A 
ATOM     68  C   UNL A   1      47.088  27.654  24.572  1.00  0.00     0.148 A 
ATOM     69  C   UNL A   1      48.952  25.952  25.795  1.00  0.00     0.002 A 
ATOM     70  C   UNL A   1      48.195  27.201  23.864  1.00  0.00     0.091 A 
ATOM     71  F   UNL A   1      46.203  28.500  24.026  1.00  0.00    -0.205 F 
ATOM     72  C   UNL A   1      49.137  26.363  24.477  1.00  0.00     0.022 A 
BRANCH  70  73
ATOM     73  S   UNL A   1      48.416  27.583  22.122  1.00  0.00     0.127 S 
ATOM     74  O   UNL A   1      49.553  28.499  22.156  1.00  0.00    -0.237 OA
ATOM     75  O   UNL A   1      48.703  26.269  21.546  1.00  0.00    -0.237 OA
ATOM     76  O   UNL A   1      47.143  28.150  21.696  1.00  0.00    -0.744 OA
ENDBRANCH  70  73
ENDBRANCH  42  66
BRANCH  54  77
ATOM     77  C   UNL A   1      45.206  33.028  29.401  1.00  0.00     0.023 A 
ATOM     78  C   UNL A   1      46.043  33.125  30.530  1.00  0.00     0.012 A 
ATOM     79  C   UNL A   1      45.138  34.103  28.494  1.00  0.00     0.148 A 
ATOM     80  C   UNL A   1      46.783  34.283  30.765  1.00  0.00     0.002 A 
ATOM     81  C   UNL A   1      45.911  35.237  28.712  1.00  0.00     0.091 A 
ATOM     82  F   UNL A   1      44.319  34.000  27.437  1.00  0.00    -0.205 F 
ATOM     83  C   UNL A   1      46.727  35.333  29.851  1.00  0.00     0.022 A 
BRANCH  81  84
ATOM     84  S   UNL A   1      45.967  36.594  27.535  1.00  0.00     0.127 S 
ATOM     85  O   UNL A   1      46.426  35.919  26.322  1.00  0.00    -0.237 OA
ATOM     86  O   UNL A   1      44.572  37.035  27.496  1.00  0.00    -0.237 OA
ATOM     87  O   UNL A   1      46.888  37.570  28.100  1.00  0.00    -0.744 OA
ENDBRANCH  81  84
ENDBRANCH  54  77
ENDBRANCH  28  29
ENDBRANCH  21  23
ENDBRANCH  20  21
ENDBRANCH   1  20
TORSDOF 16
ENDMDL
MODEL 2
REMARK VINA RESULT:     -11.4      1.571      7.830
REMARK SMILES COc1ccc2cc([C@H](C)C(=O)OCCOC(=O)c3ccc(-c4c5nc(c(-c6cccc(S(=O)(=O)[O-])c6F)c6ccc([nH]6)c(-c6cccc(S(=O)(=O)[O-])c6F)c6nc(c(-c7cccc(S(=O)(=O)[O-])c7F)c7ccc4[nH]7)C=C6)C=C5)cc3)ccc2c1
REMARK SMILES IDX 15 1 14 2 13 3 11 4 12 5 9 6 10 7 8 8 3 9 4 10 85 11 5 12
REMARK SMILES IDX 84 13 6 14 83 15 7 16 82 17 2 18 1 19 16 20 17 21 18 22
REMARK SMILES IDX 19 23 20 24 81 25 21 26 80 27 22 28 23 29 24 30 74 31 25 32
REMARK SMILES IDX 79 33 73 34 75 35 26 36 78 37 72 38 71 39 27 41 59 42 39 43
REMARK SMILES IDX 58 44 40 45 43 46 57 47 76 48 41 49 42 50 56 52 77 53 44 54
REMARK SMILES IDX 28 55 29 56 37 57 30 58 32 59 38 60 31 61 33 62 34 63 35 64
REMARK SMILES IDX 36 65 60 66 61 67 69 68 62 69 64 70 70 71 63 72 65 73 66 74
REMARK SMILES IDX 67 75 68 76 45 77 46 78 54 79 47 80 49 81 55 82 48 83 50 84
REMARK SMILES IDX 51 85 52 86 53 87
REMARK H PARENT 75 40 43 51
REMARK Flexibility Score: inf
ROOT
ATOM      1  C   UNL A   1      37.396  19.958  24.974  1.00  0.00     0.275 C 
ENDROOT
BRANCH   1   2
ATOM      2  C   UNL A   1      35.865  19.959  24.915  1.00  0.00     0.274 C 
BRANCH   2   3
ATOM      3  O   UNL A   1      35.300  21.171  25.452  1.00  0.00    -0.462 OA
BRANCH   3   4
ATOM      4  C   UNL A   1      34.680  21.977  24.548  1.00  0.00     0.313 C 
ATOM      5  O   UNL A   1      33.600  21.721  24.024  1.00  0.00    -0.252 OA
BRANCH   4   6
ATOM      6  C   UNL A   1      35.483  23.232  24.203  1.00  0.00     0.126 C 
ATOM      7  C   UNL A   1      36.496  23.016  23.078  1.00  0.00     0.025 C 
BRANCH   6   8
ATOM      8  C   UNL A   1      34.565  24.433  24.060  1.00  0.00    -0.033 A 
ATOM      9  C   UNL A   1      31.841  28.602  25.057  1.00  0.00     0.119 A 
ATOM     10  C   UNL A   1      32.465  28.255  26.254  1.00  0.00     0.047 A 
ATOM     11  C   UNL A   1      32.024  27.814  23.919  1.00  0.00     0.055 A 
ATOM     12  C   UNL A   1      33.307  27.144  26.300  1.00  0.00     0.012 A 
ATOM     13  C   UNL A   1      32.868  26.693  23.950  1.00  0.00    -0.015 A 
ATOM     14  C   UNL A   1      33.520  26.364  25.155  1.00  0.00    -0.018 A 
ATOM     15  C   UNL A   1      33.079  25.891  22.817  1.00  0.00     0.009 A 
ATOM     16  C   UNL A   1      34.365  25.248  25.192  1.00  0.00     0.013 A 
ATOM     17  C   UNL A   1      33.911  24.769  22.872  1.00  0.00     0.005 A 
BRANCH   9  18
ATOM     18  O   UNL A   1      30.994  29.669  24.922  1.00  0.00    -0.497 OA
ATOM     19  C   UNL A   1      30.241  29.640  23.713  1.00  0.00     0.278 C 
ENDBRANCH   9  18
ENDBRANCH   6   8
ENDBRANCH   4   6
ENDBRANCH   3   4
ENDBRANCH   2   3
ENDBRANCH   1   2
BRANCH   1  20
ATOM     20  O   UNL A   1      37.921  21.131  25.623  1.00  0.00    -0.458 OA
BRANCH  20  21
ATOM     21  C   UNL A   1      39.168  20.993  26.134  1.00  0.00     0.338 C 
ATOM     22  O   UNL A   1      39.861  19.990  26.113  1.00  0.00    -0.246 OA
BRANCH  21  23
ATOM     23  C   UNL A   1      39.662  22.289  26.624  1.00  0.00     0.060 A 
ATOM     24  C   UNL A   1      39.123  23.451  26.066  1.00  0.00     0.016 A 
ATOM     25  C   UNL A   1      40.710  22.366  27.541  1.00  0.00     0.016 A 
ATOM     26  C   UNL A   1      39.631  24.699  26.411  1.00  0.00     0.010 A 
ATOM     27  C   UNL A   1      41.223  23.621  27.887  1.00  0.00     0.010 A 
ATOM     28  C   UNL A   1      40.695  24.792  27.312  1.00  0.00    -0.014 A 
BRANCH  28  29
ATOM     29  C   UNL A   1      41.285  26.118  27.614  1.00  0.00     0.031 A 
ATOM     30  C   UNL A   1      42.691  26.423  27.183  1.00  0.00     0.074 A 
ATOM     31  C   UNL A   1      40.560  27.036  28.279  1.00  0.00     0.049 A 
ATOM     32  N   UNL A   1      43.411  27.488  27.418  1.00  0.00    -0.248 NA
ATOM     33  C   UNL A   1      43.381  25.394  26.387  1.00  0.00     0.031 C 
ATOM     34  C   UNL A   1      39.184  26.851  28.740  1.00  0.00     0.029 A 
ATOM     35  N   UNL A   1      40.891  28.297  28.706  1.00  0.00    -0.354 N 
ATOM     36  C   UNL A   1      44.652  27.240  26.847  1.00  0.00     0.074 A 
ATOM     37  C   UNL A   1      44.587  25.928  26.241  1.00  0.00     0.031 C 
ATOM     38  C   UNL A   1      38.798  27.946  29.415  1.00  0.00     0.029 A 
ATOM     39  C   UNL A   1      39.909  28.894  29.461  1.00  0.00     0.049 A 
ATOM     40  H   UNL A   1      41.748  28.732  28.494  1.00  0.00     0.167 HD
ATOM     41  C   UNL A   1      45.745  28.039  26.824  1.00  0.00     0.034 A 
ATOM     42  C   UNL A   1      39.915  30.060  30.139  1.00  0.00     0.034 A 
ATOM     43  C   UNL A   1      45.787  29.365  27.380  1.00  0.00     0.049 A 
ATOM     44  C   UNL A   1      41.139  30.932  30.079  1.00  0.00     0.074 A 
ATOM     45  C   UNL A   1      46.826  30.278  27.344  1.00  0.00     0.029 A 
ATOM     46  N   UNL A   1      44.749  29.966  28.074  1.00  0.00    -0.354 N 
ATOM     47  N   UNL A   1      42.262  30.736  29.430  1.00  0.00    -0.248 NA
ATOM     48  C   UNL A   1      41.091  32.201  30.820  1.00  0.00     0.031 C 
ATOM     49  C   UNL A   1      46.420  31.428  28.030  1.00  0.00     0.029 A 
ATOM     50  C   UNL A   1      45.125  31.234  28.480  1.00  0.00     0.049 A 
ATOM     51  H   UNL A   1      43.873  29.552  28.250  1.00  0.00     0.167 HD
ATOM     52  C   UNL A   1      43.041  31.864  29.663  1.00  0.00     0.074 A 
ATOM     53  C   UNL A   1      42.251  32.753  30.490  1.00  0.00     0.031 C 
ATOM     54  C   UNL A   1      44.303  32.132  29.249  1.00  0.00     0.034 A 
BRANCH  41  55
ATOM     55  C   UNL A   1      46.986  27.522  26.152  1.00  0.00     0.023 A 
ATOM     56  C   UNL A   1      47.239  27.853  24.807  1.00  0.00     0.012 A 
ATOM     57  C   UNL A   1      47.943  26.786  26.879  1.00  0.00     0.148 A 
ATOM     58  C   UNL A   1      48.422  27.448  24.189  1.00  0.00     0.002 A 
ATOM     59  C   UNL A   1      49.134  26.417  26.267  1.00  0.00     0.091 A 
ATOM     60  F   UNL A   1      47.670  26.465  28.151  1.00  0.00    -0.205 F 
ATOM     61  C   UNL A   1      49.373  26.742  24.921  1.00  0.00     0.022 A 
BRANCH  59  62
ATOM     62  S   UNL A   1      50.452  25.564  27.142  1.00  0.00     0.127 S 
ATOM     63  O   UNL A   1      51.428  25.354  26.074  1.00  0.00    -0.237 OA
ATOM     64  O   UNL A   1      50.847  26.553  28.145  1.00  0.00    -0.237 OA
ATOM     65  O   UNL A   1      49.854  24.352  27.686  1.00  0.00    -0.744 OA
ENDBRANCH  59  62
ENDBRANCH  41  55
BRANCH  42  66
ATOM     66  C   UNL A   1      38.713  30.477  30.914  1.00  0.00     0.023 A 
ATOM     67  C   UNL A   1      38.641  30.192  32.291  1.00  0.00     0.012 A 
ATOM     68  C   UNL A   1      37.652  31.171  30.300  1.00  0.00     0.148 A 
ATOM     69  C   UNL A   1      37.521  30.565  33.036  1.00  0.00     0.002 A 
ATOM     70  C   UNL A   1      36.566  31.588  31.060  1.00  0.00     0.091 A 
ATOM     71  F   UNL A   1      37.722  31.411  28.983  1.00  0.00    -0.205 F 
ATOM     72  C   UNL A   1      36.489  31.274  32.424  1.00  0.00     0.022 A 
BRANCH  70  73
ATOM     73  S   UNL A   1      35.274  32.623  30.361  1.00  0.00     0.127 S 
ATOM     74  O   UNL A   1      34.812  31.813  29.238  1.00  0.00    -0.237 OA
ATOM     75  O   UNL A   1      34.325  32.733  31.471  1.00  0.00    -0.237 OA
ATOM     76  O   UNL A   1      35.936  33.877  30.023  1.00  0.00    -0.744 OA
ENDBRANCH  70  73
ENDBRANCH  42  66
BRANCH  54  77
ATOM     77  C   UNL A   1      44.908  33.447  29.658  1.00  0.00     0.023 A 
ATOM     78  C   UNL A   1      45.690  33.516  30.828  1.00  0.00     0.012 A 
ATOM     79  C   UNL A   1      44.773  34.589  28.846  1.00  0.00     0.148 A 
ATOM     80  C   UNL A   1      46.309  34.710  31.197  1.00  0.00     0.002 A 
ATOM     81  C   UNL A   1      45.427  35.764  29.197  1.00  0.00     0.091 A 
ATOM     82  F   UNL A   1      44.007  34.509  27.748  1.00  0.00    -0.205 F 
ATOM     83  C   UNL A   1      46.188  35.829  30.376  1.00  0.00     0.022 A 
BRANCH  81  84
ATOM     84  S   UNL A   1      45.398  37.222  28.147  1.00  0.00     0.127 S 
ATOM     85  O   UNL A   1      45.952  36.701  26.898  1.00  0.00    -0.237 OA
ATOM     86  O   UNL A   1      43.972  37.544  28.093  1.00  0.00    -0.237 OA
ATOM     87  O   UNL A   1      46.212  38.218  28.831  1.00  0.00    -0.744 OA
ENDBRANCH  81  84
ENDBRANCH  54  77
ENDBRANCH  28  29
ENDBRANCH  21  23
ENDBRANCH  20  21
ENDBRANCH   1  20
TORSDOF 16
ENDMDL
MODEL 3
REMARK VINA RESULT:     -11.4      0.920      7.749
REMARK SMILES COc1ccc2cc([C@H](C)C(=O)OCCOC(=O)c3ccc(-c4c5nc(c(-c6cccc(S(=O)(=O)[O-])c6F)c6ccc([nH]6)c(-c6cccc(S(=O)(=O)[O-])c6F)c6nc(c(-c7cccc(S(=O)(=O)[O-])c7F)c7ccc4[nH]7)C=C6)C=C5)cc3)ccc2c1
REMARK SMILES IDX 15 1 14 2 13 3 11 4 12 5 9 6 10 7 8 8 3 9 4 10 85 11 5 12
REMARK SMILES IDX 84 13 6 14 83 15 7 16 82 17 2 18 1 19 16 20 17 21 18 22
REMARK SMILES IDX 19 23 20 24 81 25 21 26 80 27 22 28 23 29 24 30 74 31 25 32
REMARK SMILES IDX 79 33 73 34 75 35 26 36 78 37 72 38 71 39 27 41 59 42 39 43
REMARK SMILES IDX 58 44 40 45 43 46 57 47 76 48 41 49 42 50 56 52 77 53 44 54
REMARK SMILES IDX 28 55 29 56 37 57 30 58 32 59 38 60 31 61 33 62 34 63 35 64
REMARK SMILES IDX 36 65 60 66 61 67 69 68 62 69 64 70 70 71 63 72 65 73 66 74
REMARK SMILES IDX 67 75 68 76 45 77 46 78 54 79 47 80 49 81 55 82 48 83 50 84
REMARK SMILES IDX 51 85 52 86 53 87
REMARK H PARENT 75 40 43 51
REMARK Flexibility Score: inf
ROOT
ATOM      1  C   UNL A   1      37.506  19.874  24.996  1.00  0.00     0.275 C 
ENDROOT
BRANCH   1   2
ATOM      2  C   UNL A   1      35.974  19.857  24.982  1.00  0.00     0.274 C 
BRANCH   2   3
ATOM      3  O   UNL A   1      35.409  21.007  25.641  1.00  0.00    -0.462 OA
BRANCH   3   4
ATOM      4  C   UNL A   1      34.754  21.882  24.832  1.00  0.00     0.313 C 
ATOM      5  O   UNL A   1      33.706  21.624  24.245  1.00  0.00    -0.252 OA
BRANCH   4   6
ATOM      6  C   UNL A   1      35.472  23.223  24.679  1.00  0.00     0.126 C 
ATOM      7  C   UNL A   1      36.397  23.283  23.463  1.00  0.00     0.025 C 
BRANCH   6   8
ATOM      8  C   UNL A   1      34.496  24.375  24.840  1.00  0.00    -0.033 A 
ATOM      9  C   UNL A   1      31.817  28.613  24.028  1.00  0.00     0.119 A 
ATOM     10  C   UNL A   1      32.648  28.465  22.919  1.00  0.00     0.047 A 
ATOM     11  C   UNL A   1      31.877  27.690  25.075  1.00  0.00     0.055 A 
ATOM     12  C   UNL A   1      33.507  27.369  22.838  1.00  0.00     0.012 A 
ATOM     13  C   UNL A   1      32.737  26.583  25.008  1.00  0.00    -0.015 A 
ATOM     14  C   UNL A   1      33.554  26.422  23.870  1.00  0.00    -0.018 A 
ATOM     15  C   UNL A   1      32.807  25.635  26.041  1.00  0.00     0.009 A 
ATOM     16  C   UNL A   1      34.412  25.319  23.797  1.00  0.00     0.013 A 
ATOM     17  C   UNL A   1      33.682  24.547  25.962  1.00  0.00     0.005 A 
BRANCH   9  18
ATOM     18  O   UNL A   1      30.949  29.659  24.195  1.00  0.00    -0.497 OA
ATOM     19  C   UNL A   1      29.759  29.531  23.422  1.00  0.00     0.278 C 
ENDBRANCH   9  18
ENDBRANCH   6   8
ENDBRANCH   4   6
ENDBRANCH   3   4
ENDBRANCH   2   3
ENDBRANCH   1   2
BRANCH   1  20
ATOM     20  O   UNL A   1      38.034  21.063  25.613  1.00  0.00    -0.458 OA
BRANCH  20  21
ATOM     21  C   UNL A   1      39.271  20.928  26.149  1.00  0.00     0.338 C 
ATOM     22  O   UNL A   1      39.963  19.924  26.150  1.00  0.00    -0.246 OA
BRANCH  21  23
ATOM     23  C   UNL A   1      39.759  22.227  26.637  1.00  0.00     0.060 A 
ATOM     24  C   UNL A   1      39.131  23.383  26.165  1.00  0.00     0.016 A 
ATOM     25  C   UNL A   1      40.879  22.318  27.462  1.00  0.00     0.016 A 
ATOM     26  C   UNL A   1      39.621  24.640  26.506  1.00  0.00     0.010 A 
ATOM     27  C   UNL A   1      41.373  23.582  27.804  1.00  0.00     0.010 A 
ATOM     28  C   UNL A   1      40.756  24.748  27.315  1.00  0.00    -0.014 A 
BRANCH  28  29
ATOM     29  C   UNL A   1      41.320  26.086  27.608  1.00  0.00     0.031 A 
ATOM     30  C   UNL A   1      42.721  26.414  27.176  1.00  0.00     0.074 A 
ATOM     31  C   UNL A   1      40.577  26.995  28.265  1.00  0.00     0.049 A 
ATOM     32  N   UNL A   1      43.421  27.494  27.404  1.00  0.00    -0.248 NA
ATOM     33  C   UNL A   1      43.431  25.392  26.388  1.00  0.00     0.031 C 
ATOM     34  C   UNL A   1      39.205  26.789  28.726  1.00  0.00     0.029 A 
ATOM     35  N   UNL A   1      40.884  28.266  28.683  1.00  0.00    -0.354 N 
ATOM     36  C   UNL A   1      44.667  27.265  26.836  1.00  0.00     0.074 A 
ATOM     37  C   UNL A   1      44.627  25.948  26.239  1.00  0.00     0.031 C 
ATOM     38  C   UNL A   1      38.798  27.881  29.393  1.00  0.00     0.029 A 
ATOM     39  C   UNL A   1      39.890  28.850  29.433  1.00  0.00     0.049 A 
ATOM     40  H   UNL A   1      41.734  28.715  28.469  1.00  0.00     0.167 HD
ATOM     41  C   UNL A   1      45.745  28.084  26.809  1.00  0.00     0.034 A 
ATOM     42  C   UNL A   1      39.875  30.020  30.102  1.00  0.00     0.034 A 
ATOM     43  C   UNL A   1      45.762  29.414  27.355  1.00  0.00     0.049 A 
ATOM     44  C   UNL A   1      41.083  30.915  30.038  1.00  0.00     0.074 A 
ATOM     45  C   UNL A   1      46.784  30.346  27.314  1.00  0.00     0.029 A 
ATOM     46  N   UNL A   1      44.712  30.000  28.044  1.00  0.00    -0.354 N 
ATOM     47  N   UNL A   1      42.210  30.734  29.392  1.00  0.00    -0.248 NA
ATOM     48  C   UNL A   1      41.010  32.187  30.770  1.00  0.00     0.031 C 
ATOM     49  C   UNL A   1      46.356  31.493  27.991  1.00  0.00     0.029 A 
ATOM     50  C   UNL A   1      45.064  31.278  28.441  1.00  0.00     0.049 A 
ATOM     51  H   UNL A   1      43.843  29.572  28.222  1.00  0.00     0.167 HD
ATOM     52  C   UNL A   1      42.967  31.878  29.617  1.00  0.00     0.074 A 
ATOM     53  C   UNL A   1      42.160  32.759  30.437  1.00  0.00     0.031 C 
ATOM     54  C   UNL A   1      44.225  32.166  29.203  1.00  0.00     0.034 A 
BRANCH  41  55
ATOM     55  C   UNL A   1      46.996  27.584  26.143  1.00  0.00     0.023 A 
ATOM     56  C   UNL A   1      47.891  26.769  26.863  1.00  0.00     0.012 A 
ATOM     57  C   UNL A   1      47.238  27.846  24.779  1.00  0.00     0.148 A 
ATOM     58  C   UNL A   1      49.017  26.232  26.240  1.00  0.00     0.002 A 
ATOM     59  C   UNL A   1      48.342  27.278  24.156  1.00  0.00     0.091 A 
ATOM     60  F   UNL A   1      46.384  28.642  24.121  1.00  0.00    -0.205 F 
ATOM     61  C   UNL A   1      49.235  26.476  24.886  1.00  0.00     0.022 A 
BRANCH  59  62
ATOM     62  S   UNL A   1      48.676  27.477  22.402  1.00  0.00     0.127 S 
ATOM     63  O   UNL A   1      47.549  28.307  21.979  1.00  0.00    -0.237 OA
ATOM     64  O   UNL A   1      49.969  28.161  22.410  1.00  0.00    -0.237 OA
ATOM     65  O   UNL A   1      48.703  26.132  21.843  1.00  0.00    -0.744 OA
ENDBRANCH  59  62
ENDBRANCH  41  55
BRANCH  42  66
ATOM     66  C   UNL A   1      38.665  30.421  30.873  1.00  0.00     0.023 A 
ATOM     67  C   UNL A   1      38.583  30.120  32.246  1.00  0.00     0.012 A 
ATOM     68  C   UNL A   1      37.604  31.115  30.259  1.00  0.00     0.148 A 
ATOM     69  C   UNL A   1      37.456  30.476  32.986  1.00  0.00     0.002 A 
ATOM     70  C   UNL A   1      36.509  31.517  31.015  1.00  0.00     0.091 A 
ATOM     71  F   UNL A   1      37.682  31.370  28.946  1.00  0.00    -0.205 F 
ATOM     72  C   UNL A   1      36.424  31.186  32.375  1.00  0.00     0.022 A 
BRANCH  70  73
ATOM     73  S   UNL A   1      35.215  32.551  30.319  1.00  0.00     0.127 S 
ATOM     74  O   UNL A   1      34.306  32.700  31.451  1.00  0.00    -0.237 OA
ATOM     75  O   UNL A   1      35.946  33.765  29.953  1.00  0.00    -0.237 OA
ATOM     76  O   UNL A   1      34.706  31.801  29.177  1.00  0.00    -0.744 OA
ENDBRANCH  70  73
ENDBRANCH  42  66
BRANCH  54  77
ATOM     77  C   UNL A   1      44.805  33.495  29.603  1.00  0.00     0.023 A 
ATOM     78  C   UNL A   1      45.572  33.590  30.782  1.00  0.00     0.012 A 
ATOM     79  C   UNL A   1      44.663  34.625  28.775  1.00  0.00     0.148 A 
ATOM     80  C   UNL A   1      46.167  34.797  31.143  1.00  0.00     0.002 A 
ATOM     81  C   UNL A   1      45.295  35.815  29.120  1.00  0.00     0.091 A 
ATOM     82  F   UNL A   1      43.912  34.521  27.670  1.00  0.00    -0.205 F 
ATOM     83  C   UNL A   1      46.040  35.905  30.307  1.00  0.00     0.022 A 
BRANCH  81  84
ATOM     84  S   UNL A   1      45.258  37.259  28.052  1.00  0.00     0.127 S 
ATOM     85  O   UNL A   1      45.953  38.252  28.869  1.00  0.00    -0.237 OA
ATOM     86  O   UNL A   1      46.005  36.804  26.879  1.00  0.00    -0.237 OA
ATOM     87  O   UNL A   1      43.849  37.526  27.798  1.00  0.00    -0.744 OA
ENDBRANCH  81  84
ENDBRANCH  54  77
ENDBRANCH  28  29
ENDBRANCH  21  23
ENDBRANCH  20  21
ENDBRANCH   1  20
TORSDOF 16
ENDMDL
