MODEL 1
REMARK VINA RESULT:     -10.2      0.000      0.000
REMARK SMILES Nc1nnc(S[C@H](F)C(=O)OCCOC(=O)c2ccc(-c3c4nc(c(-c5cccc(S(=O)(=O)[O-])c5F)c5ccc([nH]5)c(-c5cccc(S(=O)(=O)[O-])c5F)c5nc(c(-c6cccc(S(=O)(=O)[O-])c6F)c6ccc3[nH]6)C=C5)C=C4)cc2)s1
REMARK SMILES IDX 12 1 11 2 9 3 10 4 7 5 8 6 6 7 5 8 2 9 3 10 80 11 4 12 1 13
REMARK SMILES IDX 13 16 14 17 15 18 16 19 17 20 18 21 79 22 19 23 78 24 20 25
REMARK SMILES IDX 21 26 22 27 72 28 23 29 77 30 71 31 73 32 24 33 76 34 70 35
REMARK SMILES IDX 69 36 25 38 57 39 37 40 56 41 38 42 41 43 55 44 74 45 39 46
REMARK SMILES IDX 40 47 54 49 75 50 42 51 26 52 27 53 35 54 28 55 30 56 36 57
REMARK SMILES IDX 29 58 31 59 32 60 33 61 34 62 58 63 59 64 67 65 60 66 62 67
REMARK SMILES IDX 68 68 61 69 63 70 64 71 65 72 66 73 43 74 44 75 52 76 45 77
REMARK SMILES IDX 47 78 53 79 46 80 48 81 49 82 50 83 51 84
REMARK H PARENT 1 14 1 15 73 37 41 48
REMARK Flexibility Score: inf
ROOT
ATOM      1  C   UNL A   1      31.034  28.836  24.720  1.00  0.00     0.274 C 
ENDROOT
BRANCH   1   2
ATOM      2  O   UNL A   1      31.916  28.197  23.779  1.00  0.00    -0.459 OA
BRANCH   2   3
ATOM      3  C   UNL A   1      31.318  27.509  22.765  1.00  0.00     0.351 C 
ATOM      4  O   UNL A   1      30.401  27.938  22.068  1.00  0.00    -0.248 OA
BRANCH   3   5
ATOM      5  C   UNL A   1      31.922  26.134  22.580  1.00  0.00     0.340 C 
ATOM      6  F   UNL A   1      32.558  25.997  21.375  1.00  0.00    -0.222 F 
BRANCH   5   7
ATOM      7  S   UNL A   1      33.070  25.583  23.865  1.00  0.00    -0.044 SA
BRANCH   7   8
ATOM      8  C   UNL A   1      32.101  24.809  25.086  1.00  0.00     0.179 A 
ATOM      9  C   UNL A   1      30.674  23.425  26.390  1.00  0.00     0.203 A 
ATOM     10  N   UNL A   1      31.411  24.222  27.129  1.00  0.00    -0.120 NA
ATOM     11  S   UNL A   1      30.948  23.597  24.703  1.00  0.00    -0.069 S 
ATOM     12  N   UNL A   1      32.275  24.989  26.374  1.00  0.00    -0.130 NA
BRANCH   9  13
ATOM     13  N   UNL A   1      29.793  22.539  26.874  1.00  0.00    -0.374 N 
ATOM     14  H   UNL A   1      29.696  22.425  27.847  1.00  0.00     0.159 HD
ATOM     15  H   UNL A   1      29.246  22.003  26.258  1.00  0.00     0.159 HD
ENDBRANCH   9  13
ENDBRANCH   7   8
ENDBRANCH   5   7
ENDBRANCH   3   5
ENDBRANCH   2   3
ENDBRANCH   1   2
BRANCH   1  16
ATOM     16  C   UNL A   1      31.600  30.165  25.232  1.00  0.00     0.275 C 
BRANCH  16  17
ATOM     17  O   UNL A   1      32.609  29.976  26.242  1.00  0.00    -0.458 OA
BRANCH  17  18
ATOM     18  C   UNL A   1      33.024  31.108  26.860  1.00  0.00     0.338 C 
ATOM     19  O   UNL A   1      32.380  32.128  27.030  1.00  0.00    -0.246 OA
BRANCH  18  20
ATOM     20  C   UNL A   1      34.346  30.889  27.476  1.00  0.00     0.060 A 
ATOM     21  C   UNL A   1      34.675  29.580  27.845  1.00  0.00     0.016 A 
ATOM     22  C   UNL A   1      35.223  31.942  27.740  1.00  0.00     0.016 A 
ATOM     23  C   UNL A   1      35.878  29.314  28.485  1.00  0.00     0.010 A 
ATOM     24  C   UNL A   1      36.433  31.675  28.389  1.00  0.00     0.010 A 
ATOM     25  C   UNL A   1      36.758  30.363  28.778  1.00  0.00    -0.014 A 
BRANCH  25  26
ATOM     26  C   UNL A   1      37.988  30.083  29.554  1.00  0.00     0.031 A 
ATOM     27  C   UNL A   1      39.016  29.143  28.999  1.00  0.00     0.074 A 
ATOM     28  C   UNL A   1      38.175  30.672  30.749  1.00  0.00     0.049 A 
ATOM     29  N   UNL A   1      40.136  28.735  29.534  1.00  0.00    -0.248 NA
ATOM     30  C   UNL A   1      38.748  28.586  27.663  1.00  0.00     0.031 C 
ATOM     31  C   UNL A   1      37.242  31.603  31.384  1.00  0.00     0.029 A 
ATOM     32  N   UNL A   1      39.201  30.552  31.652  1.00  0.00    -0.354 N 
ATOM     33  C   UNL A   1      40.686  27.840  28.626  1.00  0.00     0.074 A 
ATOM     34  C   UNL A   1      39.775  27.765  27.502  1.00  0.00     0.031 C 
ATOM     35  C   UNL A   1      37.723  31.944  32.591  1.00  0.00     0.029 A 
ATOM     36  C   UNL A   1      38.976  31.231  32.825  1.00  0.00     0.049 A 
ATOM     37  H   UNL A   1      40.017  30.030  31.476  1.00  0.00     0.167 HD
ATOM     38  C   UNL A   1      41.847  27.150  28.716  1.00  0.00     0.034 A 
ATOM     39  C   UNL A   1      39.684  31.249  33.972  1.00  0.00     0.034 A 
ATOM     40  C   UNL A   1      42.756  27.248  29.827  1.00  0.00     0.049 A 
ATOM     41  C   UNL A   1      40.969  30.470  34.051  1.00  0.00     0.074 A 
ATOM     42  C   UNL A   1      43.988  26.638  29.986  1.00  0.00     0.029 A 
ATOM     43  N   UNL A   1      42.524  27.989  30.976  1.00  0.00    -0.354 N 
ATOM     44  N   UNL A   1      41.539  29.724  33.134  1.00  0.00    -0.248 NA
ATOM     45  C   UNL A   1      41.727  30.561  35.307  1.00  0.00     0.031 C 
ATOM     46  C   UNL A   1      44.485  26.983  31.248  1.00  0.00     0.029 A 
ATOM     47  C   UNL A   1      43.581  27.837  31.859  1.00  0.00     0.049 A 
ATOM     48  H   UNL A   1      41.726  28.541  31.141  1.00  0.00     0.167 HD
ATOM     49  C   UNL A   1      42.732  29.279  33.690  1.00  0.00     0.074 A 
ATOM     50  C   UNL A   1      42.815  29.859  35.016  1.00  0.00     0.031 C 
ATOM     51  C   UNL A   1      43.669  28.455  33.159  1.00  0.00     0.034 A 
BRANCH  38  52
ATOM     52  C   UNL A   1      42.200  26.229  27.577  1.00  0.00     0.023 A 
ATOM     53  C   UNL A   1      42.951  26.713  26.486  1.00  0.00     0.012 A 
ATOM     54  C   UNL A   1      41.818  24.874  27.605  1.00  0.00     0.148 A 
ATOM     55  C   UNL A   1      43.280  25.873  25.423  1.00  0.00     0.002 A 
ATOM     56  C   UNL A   1      42.189  24.032  26.563  1.00  0.00     0.091 A 
ATOM     57  F   UNL A   1      41.083  24.437  28.638  1.00  0.00    -0.205 F 
ATOM     58  C   UNL A   1      42.908  24.532  25.466  1.00  0.00     0.022 A 
BRANCH  56  59
ATOM     59  S   UNL A   1      41.823  22.273  26.567  1.00  0.00     0.127 S 
ATOM     60  O   UNL A   1      40.366  22.274  26.445  1.00  0.00    -0.237 OA
ATOM     61  O   UNL A   1      42.534  21.808  25.375  1.00  0.00    -0.237 OA
ATOM     62  O   UNL A   1      42.348  21.758  27.824  1.00  0.00    -0.744 OA
ENDBRANCH  56  59
ENDBRANCH  38  52
BRANCH  39  63
ATOM     63  C   UNL A   1      39.189  32.046  35.129  1.00  0.00     0.023 A 
ATOM     64  C   UNL A   1      38.236  31.493  36.004  1.00  0.00     0.012 A 
ATOM     65  C   UNL A   1      39.695  33.335  35.388  1.00  0.00     0.148 A 
ATOM     66  C   UNL A   1      37.778  32.218  37.104  1.00  0.00     0.002 A 
ATOM     67  C   UNL A   1      39.278  34.029  36.518  1.00  0.00     0.091 A 
ATOM     68  F   UNL A   1      40.591  33.849  34.533  1.00  0.00    -0.205 F 
ATOM     69  C   UNL A   1      38.306  33.480  37.369  1.00  0.00     0.022 A 
BRANCH  67  70
ATOM     70  S   UNL A   1      40.002  35.598  37.009  1.00  0.00     0.127 S 
ATOM     71  O   UNL A   1      39.652  36.455  35.879  1.00  0.00    -0.237 OA
ATOM     72  O   UNL A   1      39.278  35.886  38.249  1.00  0.00    -0.237 OA
ATOM     73  O   UNL A   1      41.424  35.340  37.189  1.00  0.00    -0.744 OA
ENDBRANCH  67  70
ENDBRANCH  39  63
BRANCH  51  74
ATOM     74  C   UNL A   1      44.887  28.150  33.992  1.00  0.00     0.023 A 
ATOM     75  C   UNL A   1      45.977  29.042  33.998  1.00  0.00     0.012 A 
ATOM     76  C   UNL A   1      44.917  27.017  34.830  1.00  0.00     0.148 A 
ATOM     77  C   UNL A   1      47.092  28.795  34.799  1.00  0.00     0.002 A 
ATOM     78  C   UNL A   1      46.009  26.805  35.665  1.00  0.00     0.091 A 
ATOM     79  F   UNL A   1      43.878  26.170  34.798  1.00  0.00    -0.205 F 
ATOM     80  C   UNL A   1      47.103  27.685  35.640  1.00  0.00     0.022 A 
BRANCH  78  81
ATOM     81  S   UNL A   1      46.066  25.458  36.850  1.00  0.00     0.127 S 
ATOM     82  O   UNL A   1      47.360  25.680  37.493  1.00  0.00    -0.237 OA
ATOM     83  O   UNL A   1      44.908  25.742  37.699  1.00  0.00    -0.237 OA
ATOM     84  O   UNL A   1      45.957  24.231  36.071  1.00  0.00    -0.744 OA
ENDBRANCH  78  81
ENDBRANCH  51  74
ENDBRANCH  25  26
ENDBRANCH  18  20
ENDBRANCH  17  18
ENDBRANCH  16  17
ENDBRANCH   1  16
TORSDOF 17
ENDMDL
MODEL 2
REMARK VINA RESULT:     -10.2      4.100      9.870
REMARK SMILES Nc1nnc(S[C@H](F)C(=O)OCCOC(=O)c2ccc(-c3c4nc(c(-c5cccc(S(=O)(=O)[O-])c5F)c5ccc([nH]5)c(-c5cccc(S(=O)(=O)[O-])c5F)c5nc(c(-c6cccc(S(=O)(=O)[O-])c6F)c6ccc3[nH]6)C=C5)C=C4)cc2)s1
REMARK SMILES IDX 12 1 11 2 9 3 10 4 7 5 8 6 6 7 5 8 2 9 3 10 80 11 4 12 1 13
REMARK SMILES IDX 13 16 14 17 15 18 16 19 17 20 18 21 79 22 19 23 78 24 20 25
REMARK SMILES IDX 21 26 22 27 72 28 23 29 77 30 71 31 73 32 24 33 76 34 70 35
REMARK SMILES IDX 69 36 25 38 57 39 37 40 56 41 38 42 41 43 55 44 74 45 39 46
REMARK SMILES IDX 40 47 54 49 75 50 42 51 26 52 27 53 35 54 28 55 30 56 36 57
REMARK SMILES IDX 29 58 31 59 32 60 33 61 34 62 58 63 59 64 67 65 60 66 62 67
REMARK SMILES IDX 68 68 61 69 63 70 64 71 65 72 66 73 43 74 44 75 52 76 45 77
REMARK SMILES IDX 47 78 53 79 46 80 48 81 49 82 50 83 51 84
REMARK H PARENT 1 14 1 15 73 37 41 48
REMARK Flexibility Score: inf
ROOT
ATOM      1  C   UNL A   1      34.044  34.526  29.385  1.00  0.00     0.274 C 
ENDROOT
BRANCH   1   2
ATOM      2  O   UNL A   1      32.876  34.949  30.110  1.00  0.00    -0.459 OA
BRANCH   2   3
ATOM      3  C   UNL A   1      32.864  36.246  30.530  1.00  0.00     0.351 C 
ATOM      4  O   UNL A   1      32.972  37.225  29.794  1.00  0.00    -0.248 OA
BRANCH   3   5
ATOM      5  C   UNL A   1      32.692  36.354  32.029  1.00  0.00     0.340 C 
ATOM      6  F   UNL A   1      32.136  35.229  32.578  1.00  0.00    -0.222 F 
BRANCH   5   7
ATOM      7  S   UNL A   1      34.179  36.745  32.982  1.00  0.00    -0.044 SA
BRANCH   7   8
ATOM      8  C   UNL A   1      34.854  35.220  33.479  1.00  0.00     0.179 A 
ATOM      9  C   UNL A   1      36.019  33.162  33.722  1.00  0.00     0.203 A 
ATOM     10  N   UNL A   1      35.525  33.595  34.859  1.00  0.00    -0.120 NA
ATOM     11  S   UNL A   1      35.697  34.197  32.389  1.00  0.00    -0.069 S 
ATOM     12  N   UNL A   1      34.892  34.814  34.727  1.00  0.00    -0.130 NA
BRANCH   9  13
ATOM     13  N   UNL A   1      36.727  32.033  33.582  1.00  0.00    -0.374 N 
ATOM     14  H   UNL A   1      36.441  31.351  32.933  1.00  0.00     0.159 HD
ATOM     15  H   UNL A   1      37.532  31.886  34.128  1.00  0.00     0.159 HD
ENDBRANCH   9  13
ENDBRANCH   7   8
ENDBRANCH   5   7
ENDBRANCH   3   5
ENDBRANCH   2   3
ENDBRANCH   1   2
BRANCH   1  16
ATOM     16  C   UNL A   1      33.687  33.812  28.076  1.00  0.00     0.275 C 
BRANCH  16  17
ATOM     17  O   UNL A   1      34.747  32.954  27.615  1.00  0.00    -0.458 OA
BRANCH  17  18
ATOM     18  C   UNL A   1      34.574  31.635  27.876  1.00  0.00     0.338 C 
ATOM     19  O   UNL A   1      33.564  30.978  27.690  1.00  0.00    -0.246 OA
BRANCH  18  20
ATOM     20  C   UNL A   1      35.857  31.027  28.271  1.00  0.00     0.060 A 
ATOM     21  C   UNL A   1      35.829  29.704  28.723  1.00  0.00     0.016 A 
ATOM     22  C   UNL A   1      37.053  31.746  28.254  1.00  0.00     0.016 A 
ATOM     23  C   UNL A   1      36.994  29.091  29.168  1.00  0.00     0.010 A 
ATOM     24  C   UNL A   1      38.225  31.130  28.706  1.00  0.00     0.010 A 
ATOM     25  C   UNL A   1      38.197  29.806  29.180  1.00  0.00    -0.014 A 
BRANCH  25  26
ATOM     26  C   UNL A   1      39.408  29.178  29.754  1.00  0.00     0.031 A 
ATOM     27  C   UNL A   1      40.010  29.739  31.008  1.00  0.00     0.074 A 
ATOM     28  C   UNL A   1      39.962  28.111  29.150  1.00  0.00     0.049 A 
ATOM     29  N   UNL A   1      41.087  29.365  31.647  1.00  0.00    -0.248 NA
ATOM     30  C   UNL A   1      39.307  30.876  31.625  1.00  0.00     0.031 C 
ATOM     31  C   UNL A   1      39.461  27.483  27.928  1.00  0.00     0.029 A 
ATOM     32  N   UNL A   1      41.082  27.386  29.468  1.00  0.00    -0.354 N 
ATOM     33  C   UNL A   1      41.219  30.244  32.714  1.00  0.00     0.074 A 
ATOM     34  C   UNL A   1      40.109  31.172  32.637  1.00  0.00     0.031 C 
ATOM     35  C   UNL A   1      40.291  26.486  27.580  1.00  0.00     0.029 A 
ATOM     36  C   UNL A   1      41.396  26.428  28.534  1.00  0.00     0.049 A 
ATOM     37  H   UNL A   1      41.609  27.538  30.286  1.00  0.00     0.167 HD
ATOM     38  C   UNL A   1      42.172  30.270  33.674  1.00  0.00     0.034 A 
ATOM     39  C   UNL A   1      42.470  25.621  28.440  1.00  0.00     0.034 A 
ATOM     40  C   UNL A   1      43.258  29.331  33.755  1.00  0.00     0.049 A 
ATOM     41  C   UNL A   1      43.520  25.672  29.517  1.00  0.00     0.074 A 
ATOM     42  C   UNL A   1      44.241  29.233  34.724  1.00  0.00     0.029 A 
ATOM     43  N   UNL A   1      43.516  28.337  32.822  1.00  0.00    -0.354 N 
ATOM     44  N   UNL A   1      43.567  26.427  30.589  1.00  0.00    -0.248 NA
ATOM     45  C   UNL A   1      44.647  24.737  29.392  1.00  0.00     0.031 C 
ATOM     46  C   UNL A   1      45.114  28.202  34.358  1.00  0.00     0.029 A 
ATOM     47  C   UNL A   1      44.654  27.633  33.181  1.00  0.00     0.049 A 
ATOM     48  H   UNL A   1      42.971  28.158  32.022  1.00  0.00     0.167 HD
ATOM     49  C   UNL A   1      44.710  26.041  31.279  1.00  0.00     0.074 A 
ATOM     50  C   UNL A   1      45.315  24.968  30.515  1.00  0.00     0.031 C 
ATOM     51  C   UNL A   1      45.221  26.539  32.433  1.00  0.00     0.034 A 
BRANCH  38  52
ATOM     52  C   UNL A   1      42.079  31.352  34.719  1.00  0.00     0.023 A 
ATOM     53  C   UNL A   1      41.400  31.107  35.929  1.00  0.00     0.012 A 
ATOM     54  C   UNL A   1      42.696  32.602  34.515  1.00  0.00     0.148 A 
ATOM     55  C   UNL A   1      41.301  32.101  36.903  1.00  0.00     0.002 A 
ATOM     56  C   UNL A   1      42.633  33.572  35.508  1.00  0.00     0.091 A 
ATOM     57  F   UNL A   1      43.317  32.826  33.348  1.00  0.00    -0.205 F 
ATOM     58  C   UNL A   1      41.925  33.328  36.696  1.00  0.00     0.022 A 
BRANCH  56  59
ATOM     59  S   UNL A   1      43.471  35.154  35.367  1.00  0.00     0.127 S 
ATOM     60  O   UNL A   1      42.943  35.872  36.526  1.00  0.00    -0.237 OA
ATOM     61  O   UNL A   1      44.878  34.768  35.479  1.00  0.00    -0.237 OA
ATOM     62  O   UNL A   1      43.093  35.693  34.068  1.00  0.00    -0.744 OA
ENDBRANCH  56  59
ENDBRANCH  38  52
BRANCH  39  63
ATOM     63  C   UNL A   1      42.590  24.689  27.284  1.00  0.00     0.023 A 
ATOM     64  C   UNL A   1      43.253  25.106  26.115  1.00  0.00     0.012 A 
ATOM     65  C   UNL A   1      42.086  23.376  27.358  1.00  0.00     0.148 A 
ATOM     66  C   UNL A   1      43.393  24.238  25.031  1.00  0.00     0.002 A 
ATOM     67  C   UNL A   1      42.280  22.498  26.298  1.00  0.00     0.091 A 
ATOM     68  F   UNL A   1      41.445  23.004  28.476  1.00  0.00    -0.205 F 
ATOM     69  C   UNL A   1      42.918  22.932  25.127  1.00  0.00     0.022 A 
BRANCH  67  70
ATOM     70  S   UNL A   1      41.822  20.763  26.386  1.00  0.00     0.127 S 
ATOM     71  O   UNL A   1      42.220  20.417  27.747  1.00  0.00    -0.237 OA
ATOM     72  O   UNL A   1      40.376  20.825  26.164  1.00  0.00    -0.237 OA
ATOM     73  O   UNL A   1      42.566  20.103  25.323  1.00  0.00    -0.744 OA
ENDBRANCH  67  70
ENDBRANCH  39  63
BRANCH  51  74
ATOM     74  C   UNL A   1      46.482  25.911  32.967  1.00  0.00     0.023 A 
ATOM     75  C   UNL A   1      47.734  26.488  32.675  1.00  0.00     0.012 A 
ATOM     76  C   UNL A   1      46.420  24.792  33.822  1.00  0.00     0.148 A 
ATOM     77  C   UNL A   1      48.906  25.944  33.200  1.00  0.00     0.002 A 
ATOM     78  C   UNL A   1      47.587  24.286  34.382  1.00  0.00     0.091 A 
ATOM     79  F   UNL A   1      45.221  24.245  34.074  1.00  0.00    -0.205 F 
ATOM     80  C   UNL A   1      48.832  24.852  34.062  1.00  0.00     0.022 A 
BRANCH  78  81
ATOM     81  S   UNL A   1      47.578  22.946  35.578  1.00  0.00     0.127 S 
ATOM     82  O   UNL A   1      47.097  21.828  34.769  1.00  0.00    -0.237 OA
ATOM     83  O   UNL A   1      48.989  22.860  35.959  1.00  0.00    -0.237 OA
ATOM     84  O   UNL A   1      46.689  23.370  36.651  1.00  0.00    -0.744 OA
ENDBRANCH  78  81
ENDBRANCH  51  74
ENDBRANCH  25  26
ENDBRANCH  18  20
ENDBRANCH  17  18
ENDBRANCH  16  17
ENDBRANCH   1  16
TORSDOF 17
ENDMDL
MODEL 3
REMARK VINA RESULT:     -10.1      4.154      9.846
REMARK SMILES Nc1nnc(S[C@H](F)C(=O)OCCOC(=O)c2ccc(-c3c4nc(c(-c5cccc(S(=O)(=O)[O-])c5F)c5ccc([nH]5)c(-c5cccc(S(=O)(=O)[O-])c5F)c5nc(c(-c6cccc(S(=O)(=O)[O-])c6F)c6ccc3[nH]6)C=C5)C=C4)cc2)s1
REMARK SMILES IDX 12 1 11 2 9 3 10 4 7 5 8 6 6 7 5 8 2 9 3 10 80 11 4 12 1 13
REMARK SMILES IDX 13 16 14 17 15 18 16 19 17 20 18 21 79 22 19 23 78 24 20 25
REMARK SMILES IDX 21 26 22 27 72 28 23 29 77 30 71 31 73 32 24 33 76 34 70 35
REMARK SMILES IDX 69 36 25 38 57 39 37 40 56 41 38 42 41 43 55 44 74 45 39 46
REMARK SMILES IDX 40 47 54 49 75 50 42 51 26 52 27 53 35 54 28 55 30 56 36 57
REMARK SMILES IDX 29 58 31 59 32 60 33 61 34 62 58 63 59 64 67 65 60 66 62 67
REMARK SMILES IDX 68 68 61 69 63 70 64 71 65 72 66 73 43 74 44 75 52 76 45 77
REMARK SMILES IDX 47 78 53 79 46 80 48 81 49 82 50 83 51 84
REMARK H PARENT 1 14 1 15 73 37 41 48
REMARK Flexibility Score: inf
ROOT
ATOM      1  C   UNL A   1      35.024  34.208  29.043  1.00  0.00     0.274 C 
ENDROOT
BRANCH   1   2
ATOM      2  O   UNL A   1      35.015  34.029  30.470  1.00  0.00    -0.459 OA
BRANCH   2   3
ATOM      3  C   UNL A   1      33.950  34.560  31.136  1.00  0.00     0.351 C 
ATOM      4  O   UNL A   1      32.976  35.085  30.601  1.00  0.00    -0.248 OA
BRANCH   3   5
ATOM      5  C   UNL A   1      34.094  34.423  32.636  1.00  0.00     0.340 C 
ATOM      6  F   UNL A   1      33.885  33.141  33.070  1.00  0.00    -0.222 F 
BRANCH   5   7
ATOM      7  S   UNL A   1      35.659  34.989  33.347  1.00  0.00    -0.044 SA
BRANCH   7   8
ATOM      8  C   UNL A   1      36.367  33.605  34.129  1.00  0.00     0.179 A 
ATOM      9  C   UNL A   1      37.547  31.638  34.753  1.00  0.00     0.203 A 
ATOM     10  N   UNL A   1      37.132  32.324  35.792  1.00  0.00    -0.120 NA
ATOM     11  S   UNL A   1      37.134  32.351  33.245  1.00  0.00    -0.069 S 
ATOM     12  N   UNL A   1      36.490  33.491  35.431  1.00  0.00    -0.130 NA
BRANCH   9  13
ATOM     13  N   UNL A   1      38.245  30.496  34.825  1.00  0.00    -0.374 N 
ATOM     14  H   UNL A   1      38.537  30.154  35.700  1.00  0.00     0.159 HD
ATOM     15  H   UNL A   1      38.465  30.002  34.004  1.00  0.00     0.159 HD
ENDBRANCH   9  13
ENDBRANCH   7   8
ENDBRANCH   5   7
ENDBRANCH   3   5
ENDBRANCH   2   3
ENDBRANCH   1   2
BRANCH   1  16
ATOM     16  C   UNL A   1      34.132  33.188  28.326  1.00  0.00     0.275 C 
BRANCH  16  17
ATOM     17  O   UNL A   1      34.895  32.247  27.549  1.00  0.00    -0.458 OA
BRANCH  17  18
ATOM     18  C   UNL A   1      34.692  30.944  27.862  1.00  0.00     0.338 C 
ATOM     19  O   UNL A   1      33.649  30.321  27.762  1.00  0.00    -0.246 OA
BRANCH  18  20
ATOM     20  C   UNL A   1      35.975  30.299  28.192  1.00  0.00     0.060 A 
ATOM     21  C   UNL A   1      36.078  29.672  29.439  1.00  0.00     0.016 A 
ATOM     22  C   UNL A   1      37.073  30.351  27.331  1.00  0.00     0.016 A 
ATOM     23  C   UNL A   1      37.278  29.098  29.837  1.00  0.00     0.010 A 
ATOM     24  C   UNL A   1      38.283  29.777  27.735  1.00  0.00     0.010 A 
ATOM     25  C   UNL A   1      38.395  29.163  28.996  1.00  0.00    -0.014 A 
BRANCH  25  26
ATOM     26  C   UNL A   1      39.695  28.642  29.474  1.00  0.00     0.031 A 
ATOM     27  C   UNL A   1      40.408  29.343  30.593  1.00  0.00     0.074 A 
ATOM     28  C   UNL A   1      40.230  27.547  28.905  1.00  0.00     0.049 A 
ATOM     29  N   UNL A   1      41.569  29.075  31.129  1.00  0.00    -0.248 NA
ATOM     30  C   UNL A   1      39.723  30.503  31.187  1.00  0.00     0.031 C 
ATOM     31  C   UNL A   1      39.625  26.786  27.812  1.00  0.00     0.029 A 
ATOM     32  N   UNL A   1      41.416  26.902  29.150  1.00  0.00    -0.354 N 
ATOM     33  C   UNL A   1      41.777  30.054  32.091  1.00  0.00     0.074 A 
ATOM     34  C   UNL A   1      40.620  30.924  32.065  1.00  0.00     0.031 C 
ATOM     35  C   UNL A   1      40.460  25.796  27.457  1.00  0.00     0.029 A 
ATOM     36  C   UNL A   1      41.669  25.874  28.273  1.00  0.00     0.049 A 
ATOM     37  H   UNL A   1      42.025  27.151  29.882  1.00  0.00     0.167 HD
ATOM     38  C   UNL A   1      42.832  30.209  32.925  1.00  0.00     0.034 A 
ATOM     39  C   UNL A   1      42.766  25.106  28.123  1.00  0.00     0.034 A 
ATOM     40  C   UNL A   1      43.967  29.327  32.957  1.00  0.00     0.049 A 
ATOM     41  C   UNL A   1      43.929  25.301  29.058  1.00  0.00     0.074 A 
ATOM     42  C   UNL A   1      45.060  29.361  33.807  1.00  0.00     0.029 A 
ATOM     43  N   UNL A   1      44.167  28.261  32.092  1.00  0.00    -0.354 N 
ATOM     44  N   UNL A   1      44.059  26.154  30.046  1.00  0.00    -0.248 NA
ATOM     45  C   UNL A   1      45.081  24.405  28.882  1.00  0.00     0.031 C 
ATOM     46  C   UNL A   1      45.936  28.337  33.431  1.00  0.00     0.029 A 
ATOM     47  C   UNL A   1      45.374  27.642  32.373  1.00  0.00     0.049 A 
ATOM     48  H   UNL A   1      43.544  27.986  31.382  1.00  0.00     0.167 HD
ATOM     49  C   UNL A   1      45.293  25.882  30.626  1.00  0.00     0.074 A 
ATOM     50  C   UNL A   1      45.861  24.768  29.893  1.00  0.00     0.031 C 
ATOM     51  C   UNL A   1      45.907  26.506  31.662  1.00  0.00     0.034 A 
BRANCH  38  52
ATOM     52  C   UNL A   1      42.804  31.380  33.873  1.00  0.00     0.023 A 
ATOM     53  C   UNL A   1      43.348  32.619  33.480  1.00  0.00     0.012 A 
ATOM     54  C   UNL A   1      42.207  31.259  35.143  1.00  0.00     0.148 A 
ATOM     55  C   UNL A   1      43.334  33.709  34.350  1.00  0.00     0.002 A 
ATOM     56  C   UNL A   1      42.156  32.362  35.987  1.00  0.00     0.091 A 
ATOM     57  F   UNL A   1      41.717  30.067  35.510  1.00  0.00    -0.205 F 
ATOM     58  C   UNL A   1      42.730  33.583  35.599  1.00  0.00     0.022 A 
BRANCH  56  59
ATOM     59  S   UNL A   1      41.329  32.320  37.582  1.00  0.00     0.127 S 
ATOM     60  O   UNL A   1      40.080  31.637  37.249  1.00  0.00    -0.237 OA
ATOM     61  O   UNL A   1      42.259  31.530  38.390  1.00  0.00    -0.237 OA
ATOM     62  O   UNL A   1      41.193  33.708  38.000  1.00  0.00    -0.744 OA
ENDBRANCH  56  59
ENDBRANCH  38  52
BRANCH  39  63
ATOM     63  C   UNL A   1      42.800  24.076  27.048  1.00  0.00     0.023 A 
ATOM     64  C   UNL A   1      43.529  24.318  25.869  1.00  0.00     0.012 A 
ATOM     65  C   UNL A   1      42.146  22.839  27.210  1.00  0.00     0.148 A 
ATOM     66  C   UNL A   1      43.589  23.355  24.861  1.00  0.00     0.002 A 
ATOM     67  C   UNL A   1      42.258  21.861  26.229  1.00  0.00     0.091 A 
ATOM     68  F   UNL A   1      41.444  22.635  28.334  1.00  0.00    -0.205 F 
ATOM     69  C   UNL A   1      42.965  22.123  25.045  1.00  0.00     0.022 A 
BRANCH  67  70
ATOM     70  S   UNL A   1      41.600  20.203  26.439  1.00  0.00     0.127 S 
ATOM     71  O   UNL A   1      42.128  19.836  27.750  1.00  0.00    -0.237 OA
ATOM     72  O   UNL A   1      40.157  20.447  26.401  1.00  0.00    -0.237 OA
ATOM     73  O   UNL A   1      42.109  19.429  25.315  1.00  0.00    -0.744 OA
ENDBRANCH  67  70
ENDBRANCH  39  63
BRANCH  51  74
ATOM     74  C   UNL A   1      47.252  25.983  32.095  1.00  0.00     0.023 A 
ATOM     75  C   UNL A   1      48.421  26.423  31.443  1.00  0.00     0.012 A 
ATOM     76  C   UNL A   1      47.362  25.114  33.199  1.00  0.00     0.148 A 
ATOM     77  C   UNL A   1      49.676  25.982  31.862  1.00  0.00     0.002 A 
ATOM     78  C   UNL A   1      48.619  24.720  33.644  1.00  0.00     0.091 A 
ATOM     79  F   UNL A   1      46.238  24.692  33.796  1.00  0.00    -0.205 F 
ATOM     80  C   UNL A   1      49.776  25.142  32.968  1.00  0.00     0.022 A 
BRANCH  78  81
ATOM     81  S   UNL A   1      48.848  23.719  35.117  1.00  0.00     0.127 S 
ATOM     82  O   UNL A   1      50.217  24.060  35.500  1.00  0.00    -0.237 OA
ATOM     83  O   UNL A   1      47.817  24.245  36.013  1.00  0.00    -0.237 OA
ATOM     84  O   UNL A   1      48.640  22.339  34.702  1.00  0.00    -0.744 OA
ENDBRANCH  78  81
ENDBRANCH  51  74
ENDBRANCH  25  26
ENDBRANCH  18  20
ENDBRANCH  17  18
ENDBRANCH  16  17
ENDBRANCH   1  16
TORSDOF 17
ENDMDL
