MODEL 1
REMARK VINA RESULT:     -11.6      0.000      0.000
REMARK SMILES CCn1cc(C(=O)/C=C/c2cccc(O[C@H](C)C(=O)OCCOC(=O)c3ccc(-c4c5nc(c(-c6cccc(S(=O)(=O)[O-])c6F)c6ccc([nH]6)c(-c6cccc(S(=O)(=O)[O-])c6F)c6nc(c(-c7cccc(S(=O)(=O)[O-])c7F)c7ccc4[nH]7)C=C6)C=C5)cc3)c2)cn1
REMARK SMILES IDX 20 1 18 2 19 3 16 4 17 5 15 6 14 7 10 8 11 9 89 10 12 11
REMARK SMILES IDX 13 12 9 13 8 14 6 15 7 16 5 17 3 18 4 19 91 20 90 21 2 22
REMARK SMILES IDX 1 23 21 24 22 25 23 26 24 27 25 28 26 29 27 30 88 31 28 32
REMARK SMILES IDX 87 33 29 34 30 35 31 36 81 37 32 38 86 39 80 40 82 41 33 42
REMARK SMILES IDX 85 43 79 44 78 45 34 47 66 48 46 49 65 50 47 51 50 52 64 53
REMARK SMILES IDX 83 54 48 55 49 56 63 58 84 59 51 60 35 61 36 62 44 63 37 64
REMARK SMILES IDX 39 65 45 66 38 67 40 68 41 69 42 70 43 71 67 72 68 73 76 74
REMARK SMILES IDX 69 75 71 76 77 77 70 78 72 79 73 80 74 81 75 82 52 83 53 84
REMARK SMILES IDX 61 85 54 86 56 87 62 88 55 89 57 90 58 91 59 92 60 93
REMARK H PARENT 82 46 50 57
REMARK Flexibility Score: inf
ROOT
ATOM      1  O   UNL A   1      33.106  30.201  25.803  1.00  0.00    -0.459 OA
ENDROOT
BRANCH   1   2
ATOM      2  C   UNL A   1      32.914  28.860  25.649  1.00  0.00     0.347 C 
ATOM      3  O   UNL A   1      32.994  28.050  26.567  1.00  0.00    -0.248 OA
BRANCH   2   4
ATOM      4  C   UNL A   1      32.533  28.474  24.207  1.00  0.00     0.279 C 
ATOM      5  C   UNL A   1      33.655  28.687  23.175  1.00  0.00     0.066 C 
BRANCH   4   6
ATOM      6  O   UNL A   1      31.868  27.189  24.251  1.00  0.00    -0.479 OA
BRANCH   6   7
ATOM      7  C   UNL A   1      32.255  26.238  23.355  1.00  0.00     0.121 A 
ATOM      8  C   UNL A   1      33.446  24.170  22.933  1.00  0.00    -0.022 A 
ATOM      9  C   UNL A   1      33.204  24.349  21.561  1.00  0.00     0.008 A 
ATOM     10  C   UNL A   1      32.988  25.146  23.828  1.00  0.00     0.054 A 
ATOM     11  C   UNL A   1      32.415  25.401  21.104  1.00  0.00     0.004 A 
ATOM     12  C   UNL A   1      31.888  26.308  22.012  1.00  0.00     0.046 A 
BRANCH   8  13
ATOM     13  C   UNL A   1      34.203  22.970  23.325  1.00  0.00     0.012 C 
ATOM     14  C   UNL A   1      33.977  22.193  24.396  1.00  0.00     0.053 C 
BRANCH  14  15
ATOM     15  C   UNL A   1      34.709  20.933  24.722  1.00  0.00     0.189 C 
ATOM     16  O   UNL A   1      35.905  20.995  24.993  1.00  0.00    -0.289 OA
BRANCH  15  17
ATOM     17  C   UNL A   1      33.991  19.666  24.710  1.00  0.00     0.060 A 
ATOM     18  N   UNL A   1      33.337  17.558  24.576  1.00  0.00    -0.272 N 
ATOM     19  C   UNL A   1      34.440  18.367  24.567  1.00  0.00     0.120 A 
ATOM     20  N   UNL A   1      32.197  18.229  24.813  1.00  0.00    -0.181 NA
ATOM     21  C   UNL A   1      32.597  19.501  24.907  1.00  0.00     0.147 A 
BRANCH  18  22
ATOM     22  C   UNL A   1      33.350  16.130  24.317  1.00  0.00     0.141 C 
ATOM     23  C   UNL A   1      32.812  15.247  25.430  1.00  0.00     0.029 C 
ENDBRANCH  18  22
ENDBRANCH  15  17
ENDBRANCH  14  15
ENDBRANCH   8  13
ENDBRANCH   6   7
ENDBRANCH   4   6
ENDBRANCH   2   4
ENDBRANCH   1   2
BRANCH   1  24
ATOM     24  C   UNL A   1      32.448  30.828  26.919  1.00  0.00     0.274 C 
BRANCH  24  25
ATOM     25  C   UNL A   1      33.357  31.859  27.587  1.00  0.00     0.275 C 
BRANCH  25  26
ATOM     26  O   UNL A   1      34.337  31.255  28.439  1.00  0.00    -0.458 OA
BRANCH  26  27
ATOM     27  C   UNL A   1      35.570  31.780  28.286  1.00  0.00     0.338 C 
ATOM     28  O   UNL A   1      35.899  32.664  27.516  1.00  0.00    -0.246 OA
BRANCH  27  29
ATOM     29  C   UNL A   1      36.595  31.033  28.996  1.00  0.00     0.060 A 
ATOM     30  C   UNL A   1      37.632  31.786  29.564  1.00  0.00     0.016 A 
ATOM     31  C   UNL A   1      36.702  29.664  28.750  1.00  0.00     0.016 A 
ATOM     32  C   UNL A   1      38.853  31.182  29.760  1.00  0.00     0.010 A 
ATOM     33  C   UNL A   1      37.927  29.068  28.933  1.00  0.00     0.010 A 
ATOM     34  C   UNL A   1      38.999  29.848  29.378  1.00  0.00    -0.014 A 
BRANCH  34  35
ATOM     35  C   UNL A   1      40.304  29.239  29.540  1.00  0.00     0.031 A 
ATOM     36  C   UNL A   1      40.667  28.966  30.949  1.00  0.00     0.074 A 
ATOM     37  C   UNL A   1      41.010  28.801  28.482  1.00  0.00     0.049 A 
ATOM     38  N   UNL A   1      41.715  29.361  31.593  1.00  0.00    -0.248 NA
ATOM     39  C   UNL A   1      39.672  28.265  31.779  1.00  0.00     0.031 C 
ATOM     40  C   UNL A   1      40.565  28.754  27.086  1.00  0.00     0.029 A 
ATOM     41  N   UNL A   1      42.193  28.125  28.462  1.00  0.00    -0.354 N 
ATOM     42  C   UNL A   1      41.613  28.762  32.846  1.00  0.00     0.074 A 
ATOM     43  C   UNL A   1      40.266  28.274  32.969  1.00  0.00     0.031 C 
ATOM     44  C   UNL A   1      41.317  27.850  26.422  1.00  0.00     0.029 A 
ATOM     45  C   UNL A   1      42.343  27.346  27.319  1.00  0.00     0.049 A 
ATOM     46  H   UNL A   1      42.866  28.180  29.179  1.00  0.00     0.167 HD
ATOM     47  C   UNL A   1      42.712  28.466  33.588  1.00  0.00     0.034 A 
ATOM     48  C   UNL A   1      43.164  26.279  27.179  1.00  0.00     0.034 A 
ATOM     49  C   UNL A   1      43.873  29.193  33.152  1.00  0.00     0.049 A 
ATOM     50  C   UNL A   1      44.183  26.344  28.251  1.00  0.00     0.074 A 
ATOM     51  C   UNL A   1      44.192  30.527  32.999  1.00  0.00     0.029 A 
ATOM     52  N   UNL A   1      44.830  28.488  32.465  1.00  0.00    -0.354 N 
ATOM     53  N   UNL A   1      45.122  27.247  28.314  1.00  0.00    -0.248 NA
ATOM     54  C   UNL A   1      43.946  25.606  29.481  1.00  0.00     0.031 C 
ATOM     55  C   UNL A   1      45.062  30.574  31.871  1.00  0.00     0.029 A 
ATOM     56  C   UNL A   1      45.241  29.266  31.416  1.00  0.00     0.049 A 
ATOM     57  H   UNL A   1      45.160  27.589  32.686  1.00  0.00     0.167 HD
ATOM     58  C   UNL A   1      45.272  27.498  29.671  1.00  0.00     0.074 A 
ATOM     59  C   UNL A   1      44.637  26.364  30.336  1.00  0.00     0.031 C 
ATOM     60  C   UNL A   1      45.621  28.740  30.122  1.00  0.00     0.034 A 
BRANCH  47  61
ATOM     61  C   UNL A   1      42.821  27.249  34.472  1.00  0.00     0.023 A 
ATOM     62  C   UNL A   1      42.553  27.420  35.846  1.00  0.00     0.012 A 
ATOM     63  C   UNL A   1      43.424  26.031  34.081  1.00  0.00     0.148 A 
ATOM     64  C   UNL A   1      42.906  26.445  36.786  1.00  0.00     0.002 A 
ATOM     65  C   UNL A   1      43.683  25.028  35.005  1.00  0.00     0.091 A 
ATOM     66  F   UNL A   1      43.890  25.876  32.837  1.00  0.00    -0.205 F 
ATOM     67  C   UNL A   1      43.458  25.241  36.365  1.00  0.00     0.022 A 
BRANCH  65  68
ATOM     68  S   UNL A   1      44.321  23.434  34.480  1.00  0.00     0.127 S 
ATOM     69  O   UNL A   1      45.593  23.810  33.873  1.00  0.00    -0.237 OA
ATOM     70  O   UNL A   1      44.427  22.711  35.749  1.00  0.00    -0.237 OA
ATOM     71  O   UNL A   1      43.304  22.901  33.580  1.00  0.00    -0.744 OA
ENDBRANCH  65  68
ENDBRANCH  47  61
BRANCH  48  72
ATOM     72  C   UNL A   1      42.984  25.068  26.342  1.00  0.00     0.023 A 
ATOM     73  C   UNL A   1      43.861  24.838  25.267  1.00  0.00     0.012 A 
ATOM     74  C   UNL A   1      42.121  24.020  26.733  1.00  0.00     0.148 A 
ATOM     75  C   UNL A   1      43.898  23.598  24.618  1.00  0.00     0.002 A 
ATOM     76  C   UNL A   1      42.143  22.796  26.068  1.00  0.00     0.091 A 
ATOM     77  F   UNL A   1      41.348  24.177  27.815  1.00  0.00    -0.205 F 
ATOM     78  C   UNL A   1      43.040  22.577  25.019  1.00  0.00     0.022 A 
BRANCH  76  79
ATOM     79  S   UNL A   1      41.049  21.449  26.540  1.00  0.00     0.127 S 
ATOM     80  O   UNL A   1      41.386  21.255  27.951  1.00  0.00    -0.237 OA
ATOM     81  O   UNL A   1      39.731  22.028  26.299  1.00  0.00    -0.237 OA
ATOM     82  O   UNL A   1      41.420  20.328  25.684  1.00  0.00    -0.744 OA
ENDBRANCH  76  79
ENDBRANCH  48  72
BRANCH  60  83
ATOM     83  C   UNL A   1      46.145  29.741  29.122  1.00  0.00     0.023 A 
ATOM     84  C   UNL A   1      47.504  29.777  28.746  1.00  0.00     0.012 A 
ATOM     85  C   UNL A   1      45.229  30.545  28.421  1.00  0.00     0.148 A 
ATOM     86  C   UNL A   1      47.946  30.620  27.724  1.00  0.00     0.002 A 
ATOM     87  C   UNL A   1      45.664  31.344  27.370  1.00  0.00     0.091 A 
ATOM     88  F   UNL A   1      43.936  30.498  28.778  1.00  0.00    -0.205 F 
ATOM     89  C   UNL A   1      47.023  31.395  27.027  1.00  0.00     0.022 A 
BRANCH  87  90
ATOM     90  S   UNL A   1      44.500  32.251  26.348  1.00  0.00     0.127 S 
ATOM     91  O   UNL A   1      43.531  31.217  25.992  1.00  0.00    -0.237 OA
ATOM     92  O   UNL A   1      43.995  33.273  27.266  1.00  0.00    -0.237 OA
ATOM     93  O   UNL A   1      45.287  32.789  25.243  1.00  0.00    -0.744 OA
ENDBRANCH  87  90
ENDBRANCH  60  83
ENDBRANCH  34  35
ENDBRANCH  27  29
ENDBRANCH  26  27
ENDBRANCH  25  26
ENDBRANCH  24  25
ENDBRANCH   1  24
TORSDOF 20
ENDMDL
MODEL 2
REMARK VINA RESULT:     -11.1      4.968     10.929
REMARK SMILES CCn1cc(C(=O)/C=C/c2cccc(O[C@H](C)C(=O)OCCOC(=O)c3ccc(-c4c5nc(c(-c6cccc(S(=O)(=O)[O-])c6F)c6ccc([nH]6)c(-c6cccc(S(=O)(=O)[O-])c6F)c6nc(c(-c7cccc(S(=O)(=O)[O-])c7F)c7ccc4[nH]7)C=C6)C=C5)cc3)c2)cn1
REMARK SMILES IDX 20 1 18 2 19 3 16 4 17 5 15 6 14 7 10 8 11 9 89 10 12 11
REMARK SMILES IDX 13 12 9 13 8 14 6 15 7 16 5 17 3 18 4 19 91 20 90 21 2 22
REMARK SMILES IDX 1 23 21 24 22 25 23 26 24 27 25 28 26 29 27 30 88 31 28 32
REMARK SMILES IDX 87 33 29 34 30 35 31 36 81 37 32 38 86 39 80 40 82 41 33 42
REMARK SMILES IDX 85 43 79 44 78 45 34 47 66 48 46 49 65 50 47 51 50 52 64 53
REMARK SMILES IDX 83 54 48 55 49 56 63 58 84 59 51 60 35 61 36 62 44 63 37 64
REMARK SMILES IDX 39 65 45 66 38 67 40 68 41 69 42 70 43 71 67 72 68 73 76 74
REMARK SMILES IDX 69 75 71 76 77 77 70 78 72 79 73 80 74 81 75 82 52 83 53 84
REMARK SMILES IDX 61 85 54 86 56 87 62 88 55 89 57 90 58 91 59 92 60 93
REMARK H PARENT 82 46 50 57
REMARK Flexibility Score: inf
ROOT
ATOM      1  O   UNL A   1      43.133  21.128  26.491  1.00  0.00    -0.459 OA
ENDROOT
BRANCH   1   2
ATOM      2  C   UNL A   1      43.808  21.753  25.485  1.00  0.00     0.347 C 
ATOM      3  O   UNL A   1      43.261  22.330  24.551  1.00  0.00    -0.248 OA
BRANCH   2   4
ATOM      4  C   UNL A   1      45.337  21.702  25.672  1.00  0.00     0.279 C 
ATOM      5  C   UNL A   1      45.983  20.367  25.264  1.00  0.00     0.066 C 
BRANCH   4   6
ATOM      6  O   UNL A   1      45.891  22.930  25.142  1.00  0.00    -0.479 OA
BRANCH   6   7
ATOM      7  C   UNL A   1      45.639  24.087  25.817  1.00  0.00     0.121 A 
ATOM      8  C   UNL A   1      45.640  25.283  27.925  1.00  0.00    -0.022 A 
ATOM      9  C   UNL A   1      45.010  26.358  27.277  1.00  0.00     0.008 A 
ATOM     10  C   UNL A   1      45.927  24.129  27.184  1.00  0.00     0.054 A 
ATOM     11  C   UNL A   1      44.788  26.337  25.903  1.00  0.00     0.004 A 
ATOM     12  C   UNL A   1      45.165  25.224  25.165  1.00  0.00     0.046 A 
BRANCH   8  13
ATOM     13  C   UNL A   1      45.924  25.444  29.360  1.00  0.00     0.012 C 
ATOM     14  C   UNL A   1      45.211  24.942  30.380  1.00  0.00     0.053 C 
BRANCH  14  15
ATOM     15  C   UNL A   1      45.571  25.051  31.826  1.00  0.00     0.189 C 
ATOM     16  O   UNL A   1      46.664  25.523  32.130  1.00  0.00    -0.289 OA
BRANCH  15  17
ATOM     17  C   UNL A   1      44.625  24.597  32.834  1.00  0.00     0.060 A 
ATOM     18  N   UNL A   1      43.242  24.359  34.543  1.00  0.00    -0.272 N 
ATOM     19  C   UNL A   1      43.987  25.277  33.855  1.00  0.00     0.120 A 
ATOM     20  N   UNL A   1      43.270  23.137  33.986  1.00  0.00    -0.181 NA
ATOM     21  C   UNL A   1      44.095  23.287  32.945  1.00  0.00     0.147 A 
BRANCH  18  22
ATOM     22  C   UNL A   1      42.521  24.627  35.774  1.00  0.00     0.141 C 
ATOM     23  C   UNL A   1      43.308  25.337  36.864  1.00  0.00     0.029 C 
ENDBRANCH  18  22
ENDBRANCH  15  17
ENDBRANCH  14  15
ENDBRANCH   8  13
ENDBRANCH   6   7
ENDBRANCH   4   6
ENDBRANCH   2   4
ENDBRANCH   1   2
BRANCH   1  24
ATOM     24  C   UNL A   1      42.032  20.283  26.107  1.00  0.00     0.274 C 
BRANCH  24  25
ATOM     25  C   UNL A   1      40.858  20.434  27.074  1.00  0.00     0.275 C 
BRANCH  25  26
ATOM     26  O   UNL A   1      40.811  21.732  27.679  1.00  0.00    -0.458 OA
BRANCH  26  27
ATOM     27  C   UNL A   1      40.086  22.622  26.971  1.00  0.00     0.338 C 
ATOM     28  O   UNL A   1      39.226  22.374  26.146  1.00  0.00    -0.246 OA
BRANCH  27  29
ATOM     29  C   UNL A   1      40.573  23.985  27.110  1.00  0.00     0.060 A 
ATOM     30  C   UNL A   1      41.689  24.166  27.937  1.00  0.00     0.016 A 
ATOM     31  C   UNL A   1      39.717  25.029  26.756  1.00  0.00     0.016 A 
ATOM     32  C   UNL A   1      41.872  25.390  28.538  1.00  0.00     0.010 A 
ATOM     33  C   UNL A   1      39.895  26.247  27.369  1.00  0.00     0.010 A 
ATOM     34  C   UNL A   1      40.933  26.393  28.295  1.00  0.00    -0.014 A 
BRANCH  34  35
ATOM     35  C   UNL A   1      41.108  27.660  28.975  1.00  0.00     0.031 A 
ATOM     36  C   UNL A   1      42.175  28.507  28.396  1.00  0.00     0.074 A 
ATOM     37  C   UNL A   1      40.241  28.078  29.914  1.00  0.00     0.049 A 
ATOM     38  N   UNL A   1      43.201  29.016  28.995  1.00  0.00    -0.248 NA
ATOM     39  C   UNL A   1      42.161  28.710  26.937  1.00  0.00     0.031 C 
ATOM     40  C   UNL A   1      38.986  27.428  30.305  1.00  0.00     0.029 A 
ATOM     41  N   UNL A   1      40.201  29.270  30.573  1.00  0.00    -0.354 N 
ATOM     42  C   UNL A   1      43.834  29.790  28.026  1.00  0.00     0.074 A 
ATOM     43  C   UNL A   1      43.276  29.412  26.757  1.00  0.00     0.031 C 
ATOM     44  C   UNL A   1      38.190  28.344  30.896  1.00  0.00     0.029 A 
ATOM     45  C   UNL A   1      38.920  29.595  31.011  1.00  0.00     0.049 A 
ATOM     46  H   UNL A   1      40.990  29.838  30.723  1.00  0.00     0.167 HD
ATOM     47  C   UNL A   1      44.576  30.880  28.356  1.00  0.00     0.034 A 
ATOM     48  C   UNL A   1      38.468  30.834  31.314  1.00  0.00     0.034 A 
ATOM     49  C   UNL A   1      44.964  30.874  29.740  1.00  0.00     0.049 A 
ATOM     50  C   UNL A   1      39.644  31.706  31.540  1.00  0.00     0.074 A 
ATOM     51  C   UNL A   1      45.660  30.007  30.558  1.00  0.00     0.029 A 
ATOM     52  N   UNL A   1      44.317  31.752  30.574  1.00  0.00    -0.354 N 
ATOM     53  N   UNL A   1      40.456  31.591  32.554  1.00  0.00    -0.248 NA
ATOM     54  C   UNL A   1      40.144  32.500  30.429  1.00  0.00     0.031 C 
ATOM     55  C   UNL A   1      45.049  30.134  31.839  1.00  0.00     0.029 A 
ATOM     56  C   UNL A   1      44.031  31.084  31.734  1.00  0.00     0.049 A 
ATOM     57  H   UNL A   1      44.099  32.690  30.373  1.00  0.00     0.167 HD
ATOM     58  C   UNL A   1      41.705  31.903  32.035  1.00  0.00     0.074 A 
ATOM     59  C   UNL A   1      41.430  32.591  30.778  1.00  0.00     0.031 C 
ATOM     60  C   UNL A   1      42.836  31.308  32.519  1.00  0.00     0.034 A 
BRANCH  47  61
ATOM     61  C   UNL A   1      44.644  32.131  27.516  1.00  0.00     0.023 A 
ATOM     62  C   UNL A   1      43.669  32.289  26.508  1.00  0.00     0.012 A 
ATOM     63  C   UNL A   1      45.751  33.010  27.483  1.00  0.00     0.148 A 
ATOM     64  C   UNL A   1      43.812  33.246  25.497  1.00  0.00     0.002 A 
ATOM     65  C   UNL A   1      45.839  34.020  26.535  1.00  0.00     0.091 A 
ATOM     66  F   UNL A   1      46.808  32.796  28.274  1.00  0.00    -0.205 F 
ATOM     67  C   UNL A   1      44.890  34.123  25.519  1.00  0.00     0.022 A 
BRANCH  65  68
ATOM     68  S   UNL A   1      47.177  35.217  26.585  1.00  0.00     0.127 S 
ATOM     69  O   UNL A   1      48.271  34.462  25.986  1.00  0.00    -0.237 OA
ATOM     70  O   UNL A   1      46.648  36.304  25.761  1.00  0.00    -0.237 OA
ATOM     71  O   UNL A   1      47.320  35.561  27.996  1.00  0.00    -0.744 OA
ENDBRANCH  65  68
ENDBRANCH  47  61
BRANCH  48  72
ATOM     72  C   UNL A   1      37.099  31.387  31.176  1.00  0.00     0.023 A 
ATOM     73  C   UNL A   1      36.408  31.810  32.326  1.00  0.00     0.012 A 
ATOM     74  C   UNL A   1      36.562  31.729  29.914  1.00  0.00     0.148 A 
ATOM     75  C   UNL A   1      35.236  32.569  32.226  1.00  0.00     0.002 A 
ATOM     76  C   UNL A   1      35.383  32.462  29.819  1.00  0.00     0.091 A 
ATOM     77  F   UNL A   1      37.251  31.426  28.806  1.00  0.00    -0.205 F 
ATOM     78  C   UNL A   1      34.725  32.897  30.973  1.00  0.00     0.022 A 
BRANCH  76  79
ATOM     79  S   UNL A   1      34.674  32.903  28.226  1.00  0.00     0.127 S 
ATOM     80  O   UNL A   1      34.337  31.595  27.664  1.00  0.00    -0.237 OA
ATOM     81  O   UNL A   1      33.527  33.716  28.618  1.00  0.00    -0.237 OA
ATOM     82  O   UNL A   1      35.734  33.599  27.507  1.00  0.00    -0.744 OA
ENDBRANCH  76  79
ENDBRANCH  48  72
BRANCH  60  83
ATOM     83  C   UNL A   1      42.744  30.552  33.822  1.00  0.00     0.023 A 
ATOM     84  C   UNL A   1      42.253  29.231  33.885  1.00  0.00     0.012 A 
ATOM     85  C   UNL A   1      43.318  31.114  34.976  1.00  0.00     0.148 A 
ATOM     86  C   UNL A   1      42.298  28.502  35.074  1.00  0.00     0.002 A 
ATOM     87  C   UNL A   1      43.408  30.366  36.145  1.00  0.00     0.091 A 
ATOM     88  F   UNL A   1      43.792  32.368  34.907  1.00  0.00    -0.205 F 
ATOM     89  C   UNL A   1      42.888  29.065  36.202  1.00  0.00     0.022 A 
BRANCH  87  90
ATOM     90  S   UNL A   1      44.285  30.990  37.582  1.00  0.00     0.127 S 
ATOM     91  O   UNL A   1      44.203  29.862  38.506  1.00  0.00    -0.237 OA
ATOM     92  O   UNL A   1      45.624  31.251  37.053  1.00  0.00    -0.237 OA
ATOM     93  O   UNL A   1      43.566  32.194  37.986  1.00  0.00    -0.744 OA
ENDBRANCH  87  90
ENDBRANCH  60  83
ENDBRANCH  34  35
ENDBRANCH  27  29
ENDBRANCH  26  27
ENDBRANCH  25  26
ENDBRANCH  24  25
ENDBRANCH   1  24
TORSDOF 20
ENDMDL
MODEL 3
REMARK VINA RESULT:     -11.1      6.424     10.921
REMARK SMILES CCn1cc(C(=O)/C=C/c2cccc(O[C@H](C)C(=O)OCCOC(=O)c3ccc(-c4c5nc(c(-c6cccc(S(=O)(=O)[O-])c6F)c6ccc([nH]6)c(-c6cccc(S(=O)(=O)[O-])c6F)c6nc(c(-c7cccc(S(=O)(=O)[O-])c7F)c7ccc4[nH]7)C=C6)C=C5)cc3)c2)cn1
REMARK SMILES IDX 20 1 18 2 19 3 16 4 17 5 15 6 14 7 10 8 11 9 89 10 12 11
REMARK SMILES IDX 13 12 9 13 8 14 6 15 7 16 5 17 3 18 4 19 91 20 90 21 2 22
REMARK SMILES IDX 1 23 21 24 22 25 23 26 24 27 25 28 26 29 27 30 88 31 28 32
REMARK SMILES IDX 87 33 29 34 30 35 31 36 81 37 32 38 86 39 80 40 82 41 33 42
REMARK SMILES IDX 85 43 79 44 78 45 34 47 66 48 46 49 65 50 47 51 50 52 64 53
REMARK SMILES IDX 83 54 48 55 49 56 63 58 84 59 51 60 35 61 36 62 44 63 37 64
REMARK SMILES IDX 39 65 45 66 38 67 40 68 41 69 42 70 43 71 67 72 68 73 76 74
REMARK SMILES IDX 69 75 71 76 77 77 70 78 72 79 73 80 74 81 75 82 52 83 53 84
REMARK SMILES IDX 61 85 54 86 56 87 62 88 55 89 57 90 58 91 59 92 60 93
REMARK H PARENT 82 46 50 57
REMARK Flexibility Score: inf
ROOT
ATOM      1  O   UNL A   1      33.725  35.146  30.569  1.00  0.00    -0.459 OA
ENDROOT
BRANCH   1   2
ATOM      2  C   UNL A   1      33.250  36.146  31.364  1.00  0.00     0.347 C 
ATOM      3  O   UNL A   1      32.213  36.763  31.139  1.00  0.00    -0.248 OA
BRANCH   2   4
ATOM      4  C   UNL A   1      34.128  36.388  32.607  1.00  0.00     0.279 C 
ATOM      5  C   UNL A   1      33.766  37.653  33.404  1.00  0.00     0.066 C 
BRANCH   4   6
ATOM      6  O   UNL A   1      34.247  35.133  33.318  1.00  0.00    -0.479 OA
BRANCH   6   7
ATOM      7  C   UNL A   1      35.500  34.677  33.602  1.00  0.00     0.121 A 
ATOM      8  C   UNL A   1      36.991  33.604  35.184  1.00  0.00    -0.022 A 
ATOM      9  C   UNL A   1      38.055  33.863  34.305  1.00  0.00     0.008 A 
ATOM     10  C   UNL A   1      35.708  34.046  34.832  1.00  0.00     0.054 A 
ATOM     11  C   UNL A   1      37.830  34.430  33.053  1.00  0.00     0.004 A 
ATOM     12  C   UNL A   1      36.539  34.775  32.679  1.00  0.00     0.046 A 
BRANCH   8  13
ATOM     13  C   UNL A   1      37.317  32.908  36.438  1.00  0.00     0.012 C 
ATOM     14  C   UNL A   1      37.904  33.439  37.522  1.00  0.00     0.053 C 
BRANCH  14  15
ATOM     15  C   UNL A   1      38.146  32.728  38.813  1.00  0.00     0.189 C 
ATOM     16  O   UNL A   1      39.288  32.367  39.086  1.00  0.00    -0.289 OA
BRANCH  15  17
ATOM     17  C   UNL A   1      37.029  32.481  39.713  1.00  0.00     0.060 A 
ATOM     18  N   UNL A   1      35.489  32.513  41.299  1.00  0.00    -0.272 N 
ATOM     19  C   UNL A   1      36.508  33.239  40.745  1.00  0.00     0.120 A 
ATOM     20  N   UNL A   1      35.241  31.370  40.640  1.00  0.00    -0.181 NA
ATOM     21  C   UNL A   1      36.163  31.359  39.673  1.00  0.00     0.147 A 
BRANCH  18  22
ATOM     22  C   UNL A   1      34.760  32.884  42.499  1.00  0.00     0.141 C 
ATOM     23  C   UNL A   1      34.374  31.741  43.423  1.00  0.00     0.029 C 
ENDBRANCH  18  22
ENDBRANCH  15  17
ENDBRANCH  14  15
ENDBRANCH   8  13
ENDBRANCH   6   7
ENDBRANCH   4   6
ENDBRANCH   2   4
ENDBRANCH   1   2
BRANCH   1  24
ATOM     24  C   UNL A   1      33.137  35.020  29.261  1.00  0.00     0.274 C 
BRANCH  24  25
ATOM     25  C   UNL A   1      33.861  33.960  28.431  1.00  0.00     0.275 C 
BRANCH  25  26
ATOM     26  O   UNL A   1      33.725  32.646  28.983  1.00  0.00    -0.458 OA
BRANCH  26  27
ATOM     27  C   UNL A   1      34.428  31.712  28.309  1.00  0.00     0.338 C 
ATOM     28  O   UNL A   1      34.079  31.114  27.308  1.00  0.00    -0.246 OA
BRANCH  27  29
ATOM     29  C   UNL A   1      35.624  31.285  29.017  1.00  0.00     0.060 A 
ATOM     30  C   UNL A   1      35.624  31.471  30.407  1.00  0.00     0.016 A 
ATOM     31  C   UNL A   1      36.793  31.093  28.280  1.00  0.00     0.016 A 
ATOM     32  C   UNL A   1      36.831  31.610  31.052  1.00  0.00     0.010 A 
ATOM     33  C   UNL A   1      37.997  31.246  28.926  1.00  0.00     0.010 A 
ATOM     34  C   UNL A   1      37.999  31.561  30.288  1.00  0.00    -0.014 A 
BRANCH  34  35
ATOM     35  C   UNL A   1      39.260  31.760  30.971  1.00  0.00     0.031 A 
ATOM     36  C   UNL A   1      39.780  30.544  31.637  1.00  0.00     0.074 A 
ATOM     37  C   UNL A   1      39.960  32.901  30.834  1.00  0.00     0.049 A 
ATOM     38  N   UNL A   1      40.108  30.392  32.877  1.00  0.00    -0.248 NA
ATOM     39  C   UNL A   1      39.823  29.305  30.841  1.00  0.00     0.031 C 
ATOM     40  C   UNL A   1      39.653  34.018  29.936  1.00  0.00     0.029 A 
ATOM     41  N   UNL A   1      41.195  33.212  31.319  1.00  0.00    -0.354 N 
ATOM     42  C   UNL A   1      40.613  29.097  32.959  1.00  0.00     0.074 A 
ATOM     43  C   UNL A   1      40.234  28.422  31.748  1.00  0.00     0.031 C 
ATOM     44  C   UNL A   1      40.782  34.728  29.727  1.00  0.00     0.029 A 
ATOM     45  C   UNL A   1      41.843  34.174  30.551  1.00  0.00     0.049 A 
ATOM     46  H   UNL A   1      41.585  32.801  32.124  1.00  0.00     0.167 HD
ATOM     47  C   UNL A   1      41.538  28.749  33.892  1.00  0.00     0.034 A 
ATOM     48  C   UNL A   1      43.177  34.398  30.506  1.00  0.00     0.034 A 
ATOM     49  C   UNL A   1      41.594  29.689  34.978  1.00  0.00     0.049 A 
ATOM     50  C   UNL A   1      43.783  33.783  31.710  1.00  0.00     0.074 A 
ATOM     51  C   UNL A   1      40.687  30.183  35.893  1.00  0.00     0.029 A 
ATOM     52  N   UNL A   1      42.679  30.529  35.021  1.00  0.00    -0.354 N 
ATOM     53  N   UNL A   1      43.599  34.219  32.925  1.00  0.00    -0.248 NA
ATOM     54  C   UNL A   1      44.321  32.436  31.607  1.00  0.00     0.031 C 
ATOM     55  C   UNL A   1      41.084  31.533  36.118  1.00  0.00     0.029 A 
ATOM     56  C   UNL A   1      42.221  31.778  35.345  1.00  0.00     0.049 A 
ATOM     57  H   UNL A   1      43.615  30.278  34.850  1.00  0.00     0.167 HD
ATOM     58  C   UNL A   1      43.567  33.071  33.704  1.00  0.00     0.074 A 
ATOM     59  C   UNL A   1      44.159  32.031  32.868  1.00  0.00     0.031 C 
ATOM     60  C   UNL A   1      42.789  33.004  34.826  1.00  0.00     0.034 A 
BRANCH  47  61
ATOM     61  C   UNL A   1      42.644  27.755  33.641  1.00  0.00     0.023 A 
ATOM     62  C   UNL A   1      43.421  27.928  32.477  1.00  0.00     0.012 A 
ATOM     63  C   UNL A   1      42.784  26.528  34.331  1.00  0.00     0.148 A 
ATOM     64  C   UNL A   1      44.262  26.916  32.002  1.00  0.00     0.002 A 
ATOM     65  C   UNL A   1      43.692  25.566  33.909  1.00  0.00     0.091 A 
ATOM     66  F   UNL A   1      41.942  26.208  35.319  1.00  0.00    -0.205 F 
ATOM     67  C   UNL A   1      44.410  25.739  32.726  1.00  0.00     0.022 A 
BRANCH  65  68
ATOM     68  S   UNL A   1      43.963  24.072  34.867  1.00  0.00     0.127 S 
ATOM     69  O   UNL A   1      45.105  23.482  34.179  1.00  0.00    -0.237 OA
ATOM     70  O   UNL A   1      44.249  24.608  36.199  1.00  0.00    -0.237 OA
ATOM     71  O   UNL A   1      42.704  23.339  34.784  1.00  0.00    -0.744 OA
ENDBRANCH  65  68
ENDBRANCH  47  61
BRANCH  48  72
ATOM     72  C   UNL A   1      44.003  34.884  29.375  1.00  0.00     0.023 A 
ATOM     73  C   UNL A   1      44.853  35.988  29.568  1.00  0.00     0.012 A 
ATOM     74  C   UNL A   1      44.150  34.131  28.188  1.00  0.00     0.148 A 
ATOM     75  C   UNL A   1      45.833  36.319  28.624  1.00  0.00     0.002 A 
ATOM     76  C   UNL A   1      45.109  34.478  27.241  1.00  0.00     0.091 A 
ATOM     77  F   UNL A   1      43.424  33.018  28.025  1.00  0.00    -0.205 F 
ATOM     78  C   UNL A   1      45.963  35.563  27.462  1.00  0.00     0.022 A 
BRANCH  76  79
ATOM     79  S   UNL A   1      45.310  33.542  25.718  1.00  0.00     0.127 S 
ATOM     80  O   UNL A   1      46.083  34.465  24.887  1.00  0.00    -0.237 OA
ATOM     81  O   UNL A   1      46.046  32.368  26.177  1.00  0.00    -0.237 OA
ATOM     82  O   UNL A   1      43.958  33.298  25.229  1.00  0.00    -0.744 OA
ENDBRANCH  76  79
ENDBRANCH  48  72
BRANCH  60  83
ATOM     83  C   UNL A   1      42.218  34.288  35.377  1.00  0.00     0.023 A 
ATOM     84  C   UNL A   1      41.130  34.943  34.763  1.00  0.00     0.012 A 
ATOM     85  C   UNL A   1      42.668  34.752  36.625  1.00  0.00     0.148 A 
ATOM     86  C   UNL A   1      40.530  36.054  35.357  1.00  0.00     0.002 A 
ATOM     87  C   UNL A   1      42.035  35.827  37.239  1.00  0.00     0.091 A 
ATOM     88  F   UNL A   1      43.697  34.117  37.208  1.00  0.00    -0.205 F 
ATOM     89  C   UNL A   1      40.975  36.490  36.603  1.00  0.00     0.022 A 
BRANCH  87  90
ATOM     90  S   UNL A   1      42.473  36.337  38.903  1.00  0.00     0.127 S 
ATOM     91  O   UNL A   1      43.857  36.774  38.738  1.00  0.00    -0.237 OA
ATOM     92  O   UNL A   1      41.519  37.415  39.170  1.00  0.00    -0.237 OA
ATOM     93  O   UNL A   1      42.276  35.156  39.738  1.00  0.00    -0.744 OA
ENDBRANCH  87  90
ENDBRANCH  60  83
ENDBRANCH  34  35
ENDBRANCH  27  29
ENDBRANCH  26  27
ENDBRANCH  25  26
ENDBRANCH  24  25
ENDBRANCH   1  24
TORSDOF 20
ENDMDL
