MODEL 1
REMARK VINA RESULT:     -13.3      0.000      0.000
REMARK SMILES COc1ccc2c(c1)c(CC(=O)OCCOC(=O)c1ccc(-c3c4nc(c(-c5cccc(S(=O)(=O)[O-])c5F)c5ccc([nH]5)c(-c5cccc(S(=O)(=O)[O-])c5F)c5nc(c(-c6cccc(S(=O)(=O)[O-])c6F)c6ccc3[nH]6)C=C5)C=C4)cc1)c(C)n2Cc1ccn(C(F)F)c(=O)c1
REMARK SMILES IDX 14 1 13 2 11 3 12 4 10 5 9 6 3 7 4 8 8 9 5 10 7 11 6 12
REMARK SMILES IDX 84 13 82 14 83 15 2 16 1 17 85 18 86 19 87 20 95 21 88 22
REMARK SMILES IDX 93 23 89 24 94 25 90 26 91 27 92 28 15 29 16 30 17 31 18 32
REMARK SMILES IDX 19 33 20 34 81 35 21 36 80 37 22 38 23 39 24 40 74 41 25 42
REMARK SMILES IDX 79 43 73 44 75 45 26 46 78 47 72 48 71 49 27 51 59 52 39 53
REMARK SMILES IDX 58 54 40 55 43 56 57 57 76 58 41 59 42 60 56 62 77 63 44 64
REMARK SMILES IDX 28 65 29 66 37 67 30 68 32 69 38 70 31 71 33 72 34 73 35 74
REMARK SMILES IDX 36 75 60 76 61 77 69 78 62 79 64 80 70 81 63 82 65 83 66 84
REMARK SMILES IDX 67 85 68 86 45 87 46 88 54 89 47 90 49 91 55 92 48 93 50 94
REMARK SMILES IDX 51 95 52 96 53 97
REMARK H PARENT 75 50 43 61
REMARK Flexibility Score: inf
ROOT
ATOM      1  C   UNL A   1      31.985  27.617  25.277  1.00  0.00     0.274 C 
ENDROOT
BRANCH   1   2
ATOM      2  O   UNL A   1      31.203  26.784  26.161  1.00  0.00    -0.462 OA
BRANCH   2   3
ATOM      3  C   UNL A   1      31.765  25.594  26.489  1.00  0.00     0.310 C 
ATOM      4  O   UNL A   1      31.218  24.758  27.203  1.00  0.00    -0.252 OA
BRANCH   3   5
ATOM      5  C   UNL A   1      33.168  25.386  25.996  1.00  0.00     0.160 C 
BRANCH   5   6
ATOM      6  C   UNL A   1      33.580  24.139  25.270  1.00  0.00    -0.008 A 
ATOM      7  C   UNL A   1      37.046  22.463  25.609  1.00  0.00     0.119 A 
ATOM      8  C   UNL A   1      36.759  21.370  24.806  1.00  0.00     0.048 A 
ATOM      9  C   UNL A   1      36.037  23.394  25.907  1.00  0.00     0.057 A 
ATOM     10  C   UNL A   1      35.496  21.229  24.223  1.00  0.00     0.031 A 
ATOM     11  C   UNL A   1      34.769  23.327  25.282  1.00  0.00     0.007 A 
ATOM     12  C   UNL A   1      34.538  22.241  24.424  1.00  0.00     0.049 A 
ATOM     13  N   UNL A   1      33.267  22.413  23.904  1.00  0.00    -0.340 N 
ATOM     14  C   UNL A   1      32.851  23.695  24.170  1.00  0.00     0.020 A 
ATOM     15  C   UNL A   1      31.793  24.442  23.425  1.00  0.00     0.065 C 
BRANCH   7  16
ATOM     16  O   UNL A   1      38.265  22.668  26.203  1.00  0.00    -0.497 OA
ATOM     17  C   UNL A   1      39.224  21.633  25.988  1.00  0.00     0.278 C 
ENDBRANCH   7  16
BRANCH  13  18
ATOM     18  C   UNL A   1      32.500  21.409  23.169  1.00  0.00     0.158 C 
BRANCH  18  19
ATOM     19  C   UNL A   1      32.668  20.023  23.763  1.00  0.00    -0.021 A 
ATOM     20  C   UNL A   1      32.458  19.842  25.186  1.00  0.00     0.024 A 
ATOM     21  C   UNL A   1      33.001  18.949  23.027  1.00  0.00     0.077 A 
ATOM     22  C   UNL A   1      32.709  18.673  25.779  1.00  0.00     0.095 A 
ATOM     23  C   UNL A   1      33.206  17.611  23.661  1.00  0.00     0.255 A 
ATOM     24  N   UNL A   1      33.100  17.574  25.041  1.00  0.00    -0.258 N 
ATOM     25  O   UNL A   1      33.454  16.651  22.936  1.00  0.00    -0.269 OA
BRANCH  24  26
ATOM     26  C   UNL A   1      33.331  16.316  25.699  1.00  0.00     0.451 C 
ATOM     27  F   UNL A   1      32.254  15.501  25.573  1.00  0.00    -0.185 F 
ATOM     28  F   UNL A   1      34.403  15.671  25.176  1.00  0.00    -0.185 F 
ENDBRANCH  24  26
ENDBRANCH  18  19
ENDBRANCH  13  18
ENDBRANCH   5   6
ENDBRANCH   3   5
ENDBRANCH   2   3
ENDBRANCH   1   2
BRANCH   1  29
ATOM     29  C   UNL A   1      31.516  29.072  25.360  1.00  0.00     0.275 C 
BRANCH  29  30
ATOM     30  O   UNL A   1      31.879  29.597  26.643  1.00  0.00    -0.458 OA
BRANCH  30  31
ATOM     31  C   UNL A   1      32.178  30.917  26.716  1.00  0.00     0.338 C 
ATOM     32  O   UNL A   1      31.447  31.859  26.459  1.00  0.00    -0.246 OA
BRANCH  31  33
ATOM     33  C   UNL A   1      33.444  30.988  27.464  1.00  0.00     0.060 A 
ATOM     34  C   UNL A   1      33.898  32.224  27.927  1.00  0.00     0.016 A 
ATOM     35  C   UNL A   1      34.279  29.865  27.480  1.00  0.00     0.016 A 
ATOM     36  C   UNL A   1      35.232  32.362  28.275  1.00  0.00     0.010 A 
ATOM     37  C   UNL A   1      35.621  30.015  27.800  1.00  0.00     0.010 A 
ATOM     38  C   UNL A   1      36.105  31.273  28.143  1.00  0.00    -0.014 A 
BRANCH  38  39
ATOM     39  C   UNL A   1      37.441  31.412  28.697  1.00  0.00     0.031 A 
ATOM     40  C   UNL A   1      38.196  30.147  28.599  1.00  0.00     0.074 A 
ATOM     41  C   UNL A   1      38.031  32.488  29.247  1.00  0.00     0.049 A 
ATOM     42  N   UNL A   1      38.311  29.264  29.533  1.00  0.00    -0.248 NA
ATOM     43  C   UNL A   1      38.722  29.739  27.292  1.00  0.00     0.031 C 
ATOM     44  C   UNL A   1      37.638  33.892  29.216  1.00  0.00     0.029 A 
ATOM     45  N   UNL A   1      39.220  32.509  29.918  1.00  0.00    -0.354 N 
ATOM     46  C   UNL A   1      39.111  28.271  28.995  1.00  0.00     0.074 A 
ATOM     47  C   UNL A   1      39.180  28.519  27.576  1.00  0.00     0.031 C 
ATOM     48  C   UNL A   1      38.674  34.647  29.661  1.00  0.00     0.029 A 
ATOM     49  C   UNL A   1      39.739  33.776  30.136  1.00  0.00     0.049 A 
ATOM     50  H   UNL A   1      39.673  31.690  30.223  1.00  0.00     0.167 HD
ATOM     51  C   UNL A   1      39.845  27.451  29.789  1.00  0.00     0.034 A 
ATOM     52  C   UNL A   1      40.978  34.045  30.623  1.00  0.00     0.034 A 
ATOM     53  C   UNL A   1      39.458  27.530  31.173  1.00  0.00     0.049 A 
ATOM     54  C   UNL A   1      41.389  32.859  31.422  1.00  0.00     0.074 A 
ATOM     55  C   UNL A   1      38.268  27.377  31.858  1.00  0.00     0.029 A 
ATOM     56  N   UNL A   1      40.297  28.210  32.024  1.00  0.00    -0.354 N 
ATOM     57  N   UNL A   1      40.833  32.510  32.549  1.00  0.00    -0.248 NA
ATOM     58  C   UNL A   1      42.206  31.836  30.786  1.00  0.00     0.031 C 
ATOM     59  C   UNL A   1      38.294  28.380  32.869  1.00  0.00     0.029 A 
ATOM     60  C   UNL A   1      39.513  29.054  32.763  1.00  0.00     0.049 A 
ATOM     61  H   UNL A   1      41.274  28.108  32.089  1.00  0.00     0.167 HD
ATOM     62  C   UNL A   1      40.864  31.122  32.538  1.00  0.00     0.074 A 
ATOM     63  C   UNL A   1      41.820  30.771  31.493  1.00  0.00     0.031 C 
ATOM     64  C   UNL A   1      39.911  30.382  33.177  1.00  0.00     0.034 A 
BRANCH  51  65
ATOM     65  C   UNL A   1      41.138  26.832  29.360  1.00  0.00     0.023 A 
ATOM     66  C   UNL A   1      42.313  27.597  29.492  1.00  0.00     0.012 A 
ATOM     67  C   UNL A   1      41.215  25.636  28.613  1.00  0.00     0.148 A 
ATOM     68  C   UNL A   1      43.510  27.192  28.899  1.00  0.00     0.002 A 
ATOM     69  C   UNL A   1      42.426  25.192  28.103  1.00  0.00     0.091 A 
ATOM     70  F   UNL A   1      40.094  24.991  28.269  1.00  0.00    -0.205 F 
ATOM     71  C   UNL A   1      43.573  25.979  28.221  1.00  0.00     0.022 A 
BRANCH  69  72
ATOM     72  S   UNL A   1      42.556  23.605  27.278  1.00  0.00     0.127 S 
ATOM     73  O   UNL A   1      44.003  23.437  27.189  1.00  0.00    -0.237 OA
ATOM     74  O   UNL A   1      41.883  22.715  28.224  1.00  0.00    -0.237 OA
ATOM     75  O   UNL A   1      41.847  23.772  26.015  1.00  0.00    -0.744 OA
ENDBRANCH  69  72
ENDBRANCH  51  65
BRANCH  52  76
ATOM     76  C   UNL A   1      41.927  35.152  30.326  1.00  0.00     0.023 A 
ATOM     77  C   UNL A   1      42.893  35.508  31.295  1.00  0.00     0.012 A 
ATOM     78  C   UNL A   1      42.092  35.668  29.023  1.00  0.00     0.148 A 
ATOM     79  C   UNL A   1      44.008  36.290  30.965  1.00  0.00     0.002 A 
ATOM     80  C   UNL A   1      43.193  36.464  28.704  1.00  0.00     0.091 A 
ATOM     81  F   UNL A   1      41.233  35.309  28.063  1.00  0.00    -0.205 F 
ATOM     82  C   UNL A   1      44.163  36.762  29.668  1.00  0.00     0.022 A 
BRANCH  80  83
ATOM     83  S   UNL A   1      43.431  37.106  27.041  1.00  0.00     0.127 S 
ATOM     84  O   UNL A   1      42.235  37.926  26.845  1.00  0.00    -0.237 OA
ATOM     85  O   UNL A   1      44.674  37.860  27.177  1.00  0.00    -0.237 OA
ATOM     86  O   UNL A   1      43.489  35.931  26.177  1.00  0.00    -0.744 OA
ENDBRANCH  80  83
ENDBRANCH  52  76
BRANCH  64  87
ATOM     87  C   UNL A   1      38.983  31.064  34.148  1.00  0.00     0.023 A 
ATOM     88  C   UNL A   1      39.329  31.247  35.502  1.00  0.00     0.012 A 
ATOM     89  C   UNL A   1      37.866  31.745  33.628  1.00  0.00     0.148 A 
ATOM     90  C   UNL A   1      38.576  32.093  36.321  1.00  0.00     0.002 A 
ATOM     91  C   UNL A   1      37.149  32.621  34.433  1.00  0.00     0.091 A 
ATOM     92  F   UNL A   1      37.563  31.564  32.334  1.00  0.00    -0.205 F 
ATOM     93  C   UNL A   1      37.498  32.794  35.782  1.00  0.00     0.022 A 
BRANCH  91  94
ATOM     94  S   UNL A   1      35.837  33.657  33.780  1.00  0.00     0.127 S 
ATOM     95  O   UNL A   1      35.384  34.368  34.974  1.00  0.00    -0.237 OA
ATOM     96  O   UNL A   1      36.554  34.487  32.811  1.00  0.00    -0.237 OA
ATOM     97  O   UNL A   1      34.856  32.755  33.190  1.00  0.00    -0.744 OA
ENDBRANCH  91  94
ENDBRANCH  64  87
ENDBRANCH  38  39
ENDBRANCH  31  33
ENDBRANCH  30  31
ENDBRANCH  29  30
ENDBRANCH   1  29
TORSDOF 19
ENDMDL
MODEL 2
REMARK VINA RESULT:     -13.1      1.938      2.981
REMARK SMILES COc1ccc2c(c1)c(CC(=O)OCCOC(=O)c1ccc(-c3c4nc(c(-c5cccc(S(=O)(=O)[O-])c5F)c5ccc([nH]5)c(-c5cccc(S(=O)(=O)[O-])c5F)c5nc(c(-c6cccc(S(=O)(=O)[O-])c6F)c6ccc3[nH]6)C=C5)C=C4)cc1)c(C)n2Cc1ccn(C(F)F)c(=O)c1
REMARK SMILES IDX 14 1 13 2 11 3 12 4 10 5 9 6 3 7 4 8 8 9 5 10 7 11 6 12
REMARK SMILES IDX 84 13 82 14 83 15 2 16 1 17 85 18 86 19 87 20 95 21 88 22
REMARK SMILES IDX 93 23 89 24 94 25 90 26 91 27 92 28 15 29 16 30 17 31 18 32
REMARK SMILES IDX 19 33 20 34 81 35 21 36 80 37 22 38 23 39 24 40 74 41 25 42
REMARK SMILES IDX 79 43 73 44 75 45 26 46 78 47 72 48 71 49 27 51 59 52 39 53
REMARK SMILES IDX 58 54 40 55 43 56 57 57 76 58 41 59 42 60 56 62 77 63 44 64
REMARK SMILES IDX 28 65 29 66 37 67 30 68 32 69 38 70 31 71 33 72 34 73 35 74
REMARK SMILES IDX 36 75 60 76 61 77 69 78 62 79 64 80 70 81 63 82 65 83 66 84
REMARK SMILES IDX 67 85 68 86 45 87 46 88 54 89 47 90 49 91 55 92 48 93 50 94
REMARK SMILES IDX 51 95 52 96 53 97
REMARK H PARENT 75 50 43 61
REMARK Flexibility Score: inf
ROOT
ATOM      1  C   UNL A   1      31.319  28.250  24.533  1.00  0.00     0.274 C 
ENDROOT
BRANCH   1   2
ATOM      2  O   UNL A   1      30.071  27.923  23.884  1.00  0.00    -0.462 OA
BRANCH   2   3
ATOM      3  C   UNL A   1      29.508  26.749  24.262  1.00  0.00     0.310 C 
ATOM      4  O   UNL A   1      28.374  26.403  23.940  1.00  0.00    -0.252 OA
BRANCH   3   5
ATOM      5  C   UNL A   1      30.331  25.911  25.199  1.00  0.00     0.160 C 
BRANCH   5   6
ATOM      6  C   UNL A   1      31.199  24.789  24.709  1.00  0.00    -0.008 A 
ATOM      7  C   UNL A   1      32.978  24.749  21.277  1.00  0.00     0.119 A 
ATOM      8  C   UNL A   1      33.653  23.555  21.477  1.00  0.00     0.048 A 
ATOM      9  C   UNL A   1      32.212  25.299  22.318  1.00  0.00     0.057 A 
ATOM     10  C   UNL A   1      33.512  22.850  22.677  1.00  0.00     0.031 A 
ATOM     11  C   UNL A   1      31.986  24.586  23.520  1.00  0.00     0.007 A 
ATOM     12  C   UNL A   1      32.634  23.349  23.658  1.00  0.00     0.049 A 
ATOM     13  N   UNL A   1      32.230  22.826  24.874  1.00  0.00    -0.340 N 
ATOM     14  C   UNL A   1      31.147  23.543  25.324  1.00  0.00     0.020 A 
ATOM     15  C   UNL A   1      30.133  23.062  26.311  1.00  0.00     0.065 C 
BRANCH   7  16
ATOM     16  O   UNL A   1      33.064  25.485  20.123  1.00  0.00    -0.497 OA
ATOM     17  C   UNL A   1      31.891  25.473  19.310  1.00  0.00     0.278 C 
ENDBRANCH   7  16
BRANCH  13  18
ATOM     18  C   UNL A   1      32.836  21.685  25.558  1.00  0.00     0.158 C 
BRANCH  18  19
ATOM     19  C   UNL A   1      34.344  21.819  25.655  1.00  0.00    -0.021 A 
ATOM     20  C   UNL A   1      34.902  23.011  26.263  1.00  0.00     0.024 A 
ATOM     21  C   UNL A   1      35.190  20.878  25.202  1.00  0.00     0.077 A 
ATOM     22  C   UNL A   1      36.218  23.234  26.265  1.00  0.00     0.095 A 
ATOM     23  C   UNL A   1      36.670  21.074  25.272  1.00  0.00     0.255 A 
ATOM     24  N   UNL A   1      37.096  22.298  25.759  1.00  0.00    -0.258 N 
ATOM     25  O   UNL A   1      37.400  20.159  24.896  1.00  0.00    -0.269 OA
BRANCH  24  26
ATOM     26  C   UNL A   1      38.512  22.547  25.804  1.00  0.00     0.451 C 
ATOM     27  F   UNL A   1      38.765  23.868  25.975  1.00  0.00    -0.185 F 
ATOM     28  F   UNL A   1      39.102  21.876  26.825  1.00  0.00    -0.185 F 
ENDBRANCH  24  26
ENDBRANCH  18  19
ENDBRANCH  13  18
ENDBRANCH   5   6
ENDBRANCH   3   5
ENDBRANCH   2   3
ENDBRANCH   1   2
BRANCH   1  29
ATOM     29  C   UNL A   1      31.333  29.722  24.955  1.00  0.00     0.275 C 
BRANCH  29  30
ATOM     30  O   UNL A   1      32.270  29.880  26.029  1.00  0.00    -0.458 OA
BRANCH  30  31
ATOM     31  C   UNL A   1      32.273  31.065  26.685  1.00  0.00     0.338 C 
ATOM     32  O   UNL A   1      31.336  31.829  26.841  1.00  0.00    -0.246 OA
BRANCH  31  33
ATOM     33  C   UNL A   1      33.541  31.092  27.434  1.00  0.00     0.060 A 
ATOM     34  C   UNL A   1      33.986  32.293  27.986  1.00  0.00     0.016 A 
ATOM     35  C   UNL A   1      34.385  29.977  27.366  1.00  0.00     0.016 A 
ATOM     36  C   UNL A   1      35.319  32.416  28.341  1.00  0.00     0.010 A 
ATOM     37  C   UNL A   1      35.726  30.113  27.693  1.00  0.00     0.010 A 
ATOM     38  C   UNL A   1      36.201  31.347  28.128  1.00  0.00    -0.014 A 
BRANCH  38  39
ATOM     39  C   UNL A   1      37.537  31.456  28.688  1.00  0.00     0.031 A 
ATOM     40  C   UNL A   1      38.273  30.181  28.569  1.00  0.00     0.074 A 
ATOM     41  C   UNL A   1      38.142  32.512  29.259  1.00  0.00     0.049 A 
ATOM     42  N   UNL A   1      38.372  29.280  29.487  1.00  0.00    -0.248 NA
ATOM     43  C   UNL A   1      38.797  29.789  27.257  1.00  0.00     0.031 C 
ATOM     44  C   UNL A   1      37.769  33.923  29.253  1.00  0.00     0.029 A 
ATOM     45  N   UNL A   1      39.328  32.503  29.935  1.00  0.00    -0.354 N 
ATOM     46  C   UNL A   1      39.159  28.285  28.934  1.00  0.00     0.074 A 
ATOM     47  C   UNL A   1      39.236  28.557  27.520  1.00  0.00     0.031 C 
ATOM     48  C   UNL A   1      38.816  34.654  29.714  1.00  0.00     0.029 A 
ATOM     49  C   UNL A   1      39.866  33.758  30.177  1.00  0.00     0.049 A 
ATOM     50  H   UNL A   1      39.768  31.671  30.225  1.00  0.00     0.167 HD
ATOM     51  C   UNL A   1      39.877  27.440  29.715  1.00  0.00     0.034 A 
ATOM     52  C   UNL A   1      41.107  33.999  30.673  1.00  0.00     0.034 A 
ATOM     53  C   UNL A   1      39.487  27.499  31.099  1.00  0.00     0.049 A 
ATOM     54  C   UNL A   1      41.498  32.793  31.451  1.00  0.00     0.074 A 
ATOM     55  C   UNL A   1      38.292  27.351  31.777  1.00  0.00     0.029 A 
ATOM     56  N   UNL A   1      40.333  28.150  31.965  1.00  0.00    -0.354 N 
ATOM     57  N   UNL A   1      40.933  32.432  32.569  1.00  0.00    -0.248 NA
ATOM     58  C   UNL A   1      42.301  31.769  30.798  1.00  0.00     0.031 C 
ATOM     59  C   UNL A   1      38.331  28.336  32.807  1.00  0.00     0.029 A 
ATOM     60  C   UNL A   1      39.560  28.993  32.717  1.00  0.00     0.049 A 
ATOM     61  H   UNL A   1      41.308  28.033  32.031  1.00  0.00     0.167 HD
ATOM     62  C   UNL A   1      40.943  31.044  32.534  1.00  0.00     0.074 A 
ATOM     63  C   UNL A   1      41.896  30.698  31.485  1.00  0.00     0.031 C 
ATOM     64  C   UNL A   1      39.976  30.307  33.156  1.00  0.00     0.034 A 
BRANCH  51  65
ATOM     65  C   UNL A   1      41.162  26.808  29.279  1.00  0.00     0.023 A 
ATOM     66  C   UNL A   1      42.321  27.608  29.272  1.00  0.00     0.012 A 
ATOM     67  C   UNL A   1      41.232  25.547  28.648  1.00  0.00     0.148 A 
ATOM     68  C   UNL A   1      43.497  27.172  28.657  1.00  0.00     0.002 A 
ATOM     69  C   UNL A   1      42.425  25.081  28.119  1.00  0.00     0.091 A 
ATOM     70  F   UNL A   1      40.112  24.847  28.430  1.00  0.00    -0.205 F 
ATOM     71  C   UNL A   1      43.557  25.899  28.098  1.00  0.00     0.022 A 
BRANCH  69  72
ATOM     72  S   UNL A   1      42.554  23.423  27.446  1.00  0.00     0.127 S 
ATOM     73  O   UNL A   1      41.850  22.640  28.456  1.00  0.00    -0.237 OA
ATOM     74  O   UNL A   1      41.858  23.559  26.167  1.00  0.00    -0.237 OA
ATOM     75  O   UNL A   1      43.985  23.173  27.318  1.00  0.00    -0.744 OA
ENDBRANCH  69  72
ENDBRANCH  51  65
BRANCH  52  76
ATOM     76  C   UNL A   1      42.074  35.097  30.399  1.00  0.00     0.023 A 
ATOM     77  C   UNL A   1      42.956  35.507  31.424  1.00  0.00     0.012 A 
ATOM     78  C   UNL A   1      42.343  35.549  29.089  1.00  0.00     0.148 A 
ATOM     79  C   UNL A   1      44.092  36.280  31.147  1.00  0.00     0.002 A 
ATOM     80  C   UNL A   1      43.464  36.335  28.821  1.00  0.00     0.091 A 
ATOM     81  F   UNL A   1      41.566  35.136  28.081  1.00  0.00    -0.205 F 
ATOM     82  C   UNL A   1      44.351  36.688  29.844  1.00  0.00     0.022 A 
BRANCH  80  83
ATOM     83  S   UNL A   1      43.834  36.896  27.152  1.00  0.00     0.127 S 
ATOM     84  O   UNL A   1      43.907  35.639  26.406  1.00  0.00    -0.237 OA
ATOM     85  O   UNL A   1      42.673  37.725  26.843  1.00  0.00    -0.237 OA
ATOM     86  O   UNL A   1      45.110  37.597  27.254  1.00  0.00    -0.744 OA
ENDBRANCH  80  83
ENDBRANCH  52  76
BRANCH  64  87
ATOM     87  C   UNL A   1      39.056  30.985  34.137  1.00  0.00     0.023 A 
ATOM     88  C   UNL A   1      39.408  31.155  35.491  1.00  0.00     0.012 A 
ATOM     89  C   UNL A   1      37.940  31.676  33.627  1.00  0.00     0.148 A 
ATOM     90  C   UNL A   1      38.662  31.998  36.320  1.00  0.00     0.002 A 
ATOM     91  C   UNL A   1      37.231  32.549  34.443  1.00  0.00     0.091 A 
ATOM     92  F   UNL A   1      37.631  31.508  32.332  1.00  0.00    -0.205 F 
ATOM     93  C   UNL A   1      37.586  32.708  35.791  1.00  0.00     0.022 A 
BRANCH  91  94
ATOM     94  S   UNL A   1      35.921  33.598  33.803  1.00  0.00     0.127 S 
ATOM     95  O   UNL A   1      35.437  34.257  35.015  1.00  0.00    -0.237 OA
ATOM     96  O   UNL A   1      36.649  34.472  32.882  1.00  0.00    -0.237 OA
ATOM     97  O   UNL A   1      34.962  32.710  33.159  1.00  0.00    -0.744 OA
ENDBRANCH  91  94
ENDBRANCH  64  87
ENDBRANCH  38  39
ENDBRANCH  31  33
ENDBRANCH  30  31
ENDBRANCH  29  30
ENDBRANCH   1  29
TORSDOF 19
ENDMDL
MODEL 3
REMARK VINA RESULT:     -12.6      4.126      8.062
REMARK SMILES COc1ccc2c(c1)c(CC(=O)OCCOC(=O)c1ccc(-c3c4nc(c(-c5cccc(S(=O)(=O)[O-])c5F)c5ccc([nH]5)c(-c5cccc(S(=O)(=O)[O-])c5F)c5nc(c(-c6cccc(S(=O)(=O)[O-])c6F)c6ccc3[nH]6)C=C5)C=C4)cc1)c(C)n2Cc1ccn(C(F)F)c(=O)c1
REMARK SMILES IDX 14 1 13 2 11 3 12 4 10 5 9 6 3 7 4 8 8 9 5 10 7 11 6 12
REMARK SMILES IDX 84 13 82 14 83 15 2 16 1 17 85 18 86 19 87 20 95 21 88 22
REMARK SMILES IDX 93 23 89 24 94 25 90 26 91 27 92 28 15 29 16 30 17 31 18 32
REMARK SMILES IDX 19 33 20 34 81 35 21 36 80 37 22 38 23 39 24 40 74 41 25 42
REMARK SMILES IDX 79 43 73 44 75 45 26 46 78 47 72 48 71 49 27 51 59 52 39 53
REMARK SMILES IDX 58 54 40 55 43 56 57 57 76 58 41 59 42 60 56 62 77 63 44 64
REMARK SMILES IDX 28 65 29 66 37 67 30 68 32 69 38 70 31 71 33 72 34 73 35 74
REMARK SMILES IDX 36 75 60 76 61 77 69 78 62 79 64 80 70 81 63 82 65 83 66 84
REMARK SMILES IDX 67 85 68 86 45 87 46 88 54 89 47 90 49 91 55 92 48 93 50 94
REMARK SMILES IDX 51 95 52 96 53 97
REMARK H PARENT 75 50 43 61
REMARK Flexibility Score: inf
ROOT
ATOM      1  C   UNL A   1      36.484  21.395  25.334  1.00  0.00     0.274 C 
ENDROOT
BRANCH   1   2
ATOM      2  O   UNL A   1      36.337  22.636  24.610  1.00  0.00    -0.462 OA
BRANCH   2   3
ATOM      3  C   UNL A   1      35.537  23.561  25.196  1.00  0.00     0.310 C 
ATOM      4  O   UNL A   1      35.382  23.653  26.412  1.00  0.00    -0.252 OA
BRANCH   3   5
ATOM      5  C   UNL A   1      34.757  24.431  24.253  1.00  0.00     0.160 C 
BRANCH   5   6
ATOM      6  C   UNL A   1      33.502  25.136  24.674  1.00  0.00    -0.008 A 
ATOM      7  C   UNL A   1      33.419  28.311  26.876  1.00  0.00     0.119 A 
ATOM      8  C   UNL A   1      32.047  28.497  26.813  1.00  0.00     0.048 A 
ATOM      9  C   UNL A   1      34.019  27.285  26.128  1.00  0.00     0.057 A 
ATOM     10  C   UNL A   1      31.244  27.620  26.077  1.00  0.00     0.031 A 
ATOM     11  C   UNL A   1      33.238  26.334  25.428  1.00  0.00     0.007 A 
ATOM     12  C   UNL A   1      31.847  26.517  25.443  1.00  0.00     0.049 A 
ATOM     13  N   UNL A   1      31.302  25.455  24.743  1.00  0.00    -0.340 N 
ATOM     14  C   UNL A   1      32.271  24.495  24.575  1.00  0.00     0.020 A 
ATOM     15  C   UNL A   1      32.024  23.045  24.307  1.00  0.00     0.065 C 
BRANCH   7  16
ATOM     16  O   UNL A   1      34.263  29.127  27.585  1.00  0.00    -0.497 OA
ATOM     17  C   UNL A   1      33.952  30.519  27.524  1.00  0.00     0.278 C 
ENDBRANCH   7  16
BRANCH  13  18
ATOM     18  C   UNL A   1      29.920  25.355  24.279  1.00  0.00     0.158 C 
BRANCH  18  19
ATOM     19  C   UNL A   1      29.444  26.645  23.635  1.00  0.00    -0.021 A 
ATOM     20  C   UNL A   1      30.360  27.380  22.785  1.00  0.00     0.024 A 
ATOM     21  C   UNL A   1      28.207  27.138  23.817  1.00  0.00     0.077 A 
ATOM     22  C   UNL A   1      30.035  28.577  22.292  1.00  0.00     0.095 A 
ATOM     23  C   UNL A   1      27.797  28.438  23.204  1.00  0.00     0.255 A 
ATOM     24  N   UNL A   1      28.785  29.118  22.512  1.00  0.00    -0.258 N 
ATOM     25  O   UNL A   1      26.638  28.816  23.354  1.00  0.00    -0.269 OA
BRANCH  24  26
ATOM     26  C   UNL A   1      28.447  30.394  21.941  1.00  0.00     0.451 C 
ATOM     27  F   UNL A   1      28.594  31.386  22.854  1.00  0.00    -0.185 F 
ATOM     28  F   UNL A   1      29.237  30.688  20.878  1.00  0.00    -0.185 F 
ENDBRANCH  24  26
ENDBRANCH  18  19
ENDBRANCH  13  18
ENDBRANCH   5   6
ENDBRANCH   3   5
ENDBRANCH   2   3
ENDBRANCH   1   2
BRANCH   1  29
ATOM     29  C   UNL A   1      37.947  20.941  25.325  1.00  0.00     0.275 C 
BRANCH  29  30
ATOM     30  O   UNL A   1      38.777  22.067  25.636  1.00  0.00    -0.458 OA
BRANCH  30  31
ATOM     31  C   UNL A   1      39.702  21.909  26.614  1.00  0.00     0.338 C 
ATOM     32  O   UNL A   1      40.469  20.974  26.765  1.00  0.00    -0.246 OA
BRANCH  31  33
ATOM     33  C   UNL A   1      39.810  23.226  27.263  1.00  0.00     0.060 A 
ATOM     34  C   UNL A   1      38.920  24.241  26.908  1.00  0.00     0.016 A 
ATOM     35  C   UNL A   1      40.945  23.504  28.034  1.00  0.00     0.016 A 
ATOM     36  C   UNL A   1      39.244  25.554  27.208  1.00  0.00     0.010 A 
ATOM     37  C   UNL A   1      41.281  24.823  28.305  1.00  0.00     0.010 A 
ATOM     38  C   UNL A   1      40.459  25.846  27.844  1.00  0.00    -0.014 A 
BRANCH  38  39
ATOM     39  C   UNL A   1      40.664  27.208  28.306  1.00  0.00     0.031 A 
ATOM     40  C   UNL A   1      41.945  27.754  27.812  1.00  0.00     0.074 A 
ATOM     41  C   UNL A   1      39.875  27.980  29.074  1.00  0.00     0.049 A 
ATOM     42  N   UNL A   1      43.058  27.768  28.463  1.00  0.00    -0.248 NA
ATOM     43  C   UNL A   1      42.044  28.158  26.406  1.00  0.00     0.031 C 
ATOM     44  C   UNL A   1      38.476  27.807  29.452  1.00  0.00     0.029 A 
ATOM     45  N   UNL A   1      40.205  29.183  29.628  1.00  0.00    -0.354 N 
ATOM     46  C   UNL A   1      43.965  28.382  27.616  1.00  0.00     0.074 A 
ATOM     47  C   UNL A   1      43.346  28.432  26.315  1.00  0.00     0.031 C 
ATOM     48  C   UNL A   1      38.025  28.965  29.997  1.00  0.00     0.029 A 
ATOM     49  C   UNL A   1      39.132  29.901  30.134  1.00  0.00     0.049 A 
ATOM     50  H   UNL A   1      41.131  29.516  29.665  1.00  0.00     0.167 HD
ATOM     51  C   UNL A   1      45.065  29.011  28.100  1.00  0.00     0.034 A 
ATOM     52  C   UNL A   1      39.182  31.184  30.574  1.00  0.00     0.034 A 
ATOM     53  C   UNL A   1      45.320  28.696  29.481  1.00  0.00     0.049 A 
ATOM     54  C   UNL A   1      40.587  31.439  30.990  1.00  0.00     0.074 A 
ATOM     55  C   UNL A   1      45.491  27.525  30.194  1.00  0.00     0.029 A 
ATOM     56  N   UNL A   1      45.025  29.664  30.413  1.00  0.00    -0.354 N 
ATOM     57  N   UNL A   1      41.155  30.880  32.024  1.00  0.00    -0.248 NA
ATOM     58  C   UNL A   1      41.497  32.061  30.040  1.00  0.00     0.031 C 
ATOM     59  C   UNL A   1      44.820  27.747  31.431  1.00  0.00     0.029 A 
ATOM     60  C   UNL A   1      44.318  29.050  31.412  1.00  0.00     0.049 A 
ATOM     61  H   UNL A   1      45.274  30.615  30.369  1.00  0.00     0.167 HD
ATOM     62  C   UNL A   1      42.476  30.695  31.640  1.00  0.00     0.074 A 
ATOM     63  C   UNL A   1      42.652  31.543  30.465  1.00  0.00     0.031 C 
ATOM     64  C   UNL A   1      43.224  29.665  32.132  1.00  0.00     0.034 A 
BRANCH  51  65
ATOM     65  C   UNL A   1      45.715  30.174  27.418  1.00  0.00     0.023 A 
ATOM     66  C   UNL A   1      47.117  30.281  27.487  1.00  0.00     0.012 A 
ATOM     67  C   UNL A   1      44.996  31.287  26.928  1.00  0.00     0.148 A 
ATOM     68  C   UNL A   1      47.774  31.448  27.092  1.00  0.00     0.002 A 
ATOM     69  C   UNL A   1      45.658  32.408  26.452  1.00  0.00     0.091 A 
ATOM     70  F   UNL A   1      43.663  31.326  27.049  1.00  0.00    -0.205 F 
ATOM     71  C   UNL A   1      47.047  32.505  26.554  1.00  0.00     0.022 A 
BRANCH  69  72
ATOM     72  S   UNL A   1      44.757  33.763  25.696  1.00  0.00     0.127 S 
ATOM     73  O   UNL A   1      45.841  34.544  25.108  1.00  0.00    -0.237 OA
ATOM     74  O   UNL A   1      43.903  33.062  24.737  1.00  0.00    -0.237 OA
ATOM     75  O   UNL A   1      44.028  34.393  26.790  1.00  0.00    -0.744 OA
ENDBRANCH  69  72
ENDBRANCH  51  65
BRANCH  52  76
ATOM     76  C   UNL A   1      38.178  32.281  30.509  1.00  0.00     0.023 A 
ATOM     77  C   UNL A   1      37.770  32.764  29.245  1.00  0.00     0.012 A 
ATOM     78  C   UNL A   1      37.411  32.662  31.630  1.00  0.00     0.148 A 
ATOM     79  C   UNL A   1      36.612  33.540  29.096  1.00  0.00     0.002 A 
ATOM     80  C   UNL A   1      36.270  33.452  31.480  1.00  0.00     0.091 A 
ATOM     81  F   UNL A   1      37.729  32.179  32.837  1.00  0.00    -0.205 F 
ATOM     82  C   UNL A   1      35.857  33.878  30.213  1.00  0.00     0.022 A 
BRANCH  80  83
ATOM     83  S   UNL A   1      35.267  33.923  32.897  1.00  0.00     0.127 S 
ATOM     84  O   UNL A   1      35.804  35.240  33.240  1.00  0.00    -0.237 OA
ATOM     85  O   UNL A   1      33.922  33.939  32.330  1.00  0.00    -0.237 OA
ATOM     86  O   UNL A   1      35.521  32.901  33.908  1.00  0.00    -0.744 OA
ENDBRANCH  80  83
ENDBRANCH  52  76
BRANCH  64  87
ATOM     87  C   UNL A   1      42.717  28.894  33.322  1.00  0.00     0.023 A 
ATOM     88  C   UNL A   1      41.722  27.903  33.195  1.00  0.00     0.012 A 
ATOM     89  C   UNL A   1      43.430  28.997  34.531  1.00  0.00     0.148 A 
ATOM     90  C   UNL A   1      41.446  27.032  34.253  1.00  0.00     0.002 A 
ATOM     91  C   UNL A   1      43.185  28.100  35.562  1.00  0.00     0.091 A 
ATOM     92  F   UNL A   1      44.380  29.940  34.624  1.00  0.00    -0.205 F 
ATOM     93  C   UNL A   1      42.189  27.119  35.429  1.00  0.00     0.022 A 
BRANCH  91  94
ATOM     94  S   UNL A   1      44.189  28.061  37.050  1.00  0.00     0.127 S 
ATOM     95  O   UNL A   1      43.967  29.395  37.605  1.00  0.00    -0.237 OA
ATOM     96  O   UNL A   1      43.572  26.974  37.810  1.00  0.00    -0.237 OA
ATOM     97  O   UNL A   1      45.554  27.793  36.617  1.00  0.00    -0.744 OA
ENDBRANCH  91  94
ENDBRANCH  64  87
ENDBRANCH  38  39
ENDBRANCH  31  33
ENDBRANCH  30  31
ENDBRANCH  29  30
ENDBRANCH   1  29
TORSDOF 19
ENDMDL
