MODEL 1
REMARK VINA RESULT:     -12.8      0.000      0.000
REMARK SMILES Cc1ccccc1[C@@H](Cc1c(Cl)cccc1Cl)C(=O)OCCOC(=O)c1ccc(-c2c3nc(c(-c4cccc(S(=O)(=O)[O-])c4F)c4ccc([nH]4)c(-c4cccc(S(=O)(=O)[O-])c4F)c4nc(c(-c5cccc(S(=O)(=O)[O-])c5F)c5ccc2[nH]5)C=C4)C=C3)cc1
REMARK SMILES IDX 22 1 21 2 20 3 18 4 19 5 8 6 7 7 1 8 2 9 3 10 4 11 6 12 5 13
REMARK SMILES IDX 9 14 10 15 11 16 16 17 12 18 13 19 15 20 17 21 14 22 23 23
REMARK SMILES IDX 24 24 25 25 26 26 27 27 88 28 28 29 87 30 29 31 30 32 31 33
REMARK SMILES IDX 81 34 32 35 86 36 80 37 82 38 33 39 85 40 79 41 78 42 34 44
REMARK SMILES IDX 66 45 46 46 65 47 47 48 50 49 64 50 83 51 48 52 49 53 63 55
REMARK SMILES IDX 84 56 51 57 35 58 36 59 44 60 37 61 39 62 45 63 38 64 40 65
REMARK SMILES IDX 41 66 42 67 43 68 67 69 68 70 76 71 69 72 71 73 77 74 70 75
REMARK SMILES IDX 72 76 73 77 74 78 75 79 52 80 53 81 61 82 54 83 56 84 62 85
REMARK SMILES IDX 55 86 57 87 58 88 59 89 60 90
REMARK H PARENT 82 43 50 54
REMARK Flexibility Score: inf
ROOT
ATOM      1  C   UNL A   1      40.058  20.754  26.390  1.00  0.00     0.275 C 
ENDROOT
BRANCH   1   2
ATOM      2  C   UNL A   1      38.920  20.894  25.372  1.00  0.00     0.274 C 
BRANCH   2   3
ATOM      3  O   UNL A   1      37.798  21.439  26.065  1.00  0.00    -0.462 OA
BRANCH   3   4
ATOM      4  C   UNL A   1      36.988  22.375  25.299  1.00  0.00     0.313 C 
ATOM      5  O   UNL A   1      37.847  23.127  24.742  1.00  0.00    -0.252 OA
BRANCH   4   6
ATOM      6  C   UNL A   1      34.789  22.462  25.325  1.00  0.00     0.134 C 
BRANCH   6   7
ATOM      7  C   UNL A   1      33.633  21.162  24.962  1.00  0.00    -0.031 A 
ATOM      8  C   UNL A   1      32.574  22.369  22.904  1.00  0.00     0.044 C 
ATOM      9  C   UNL A   1      32.887  21.158  23.745  1.00  0.00    -0.047 A 
ATOM     10  C   UNL A   1      32.387  19.933  23.261  1.00  0.00     0.004 A 
ATOM     11  C   UNL A   1      32.490  18.766  24.011  1.00  0.00     0.000 A 
ATOM     12  C   UNL A   1      33.514  20.029  25.805  1.00  0.00     0.005 A 
ATOM     13  C   UNL A   1      32.993  18.828  25.305  1.00  0.00     0.000 A 
ENDBRANCH   6   7
BRANCH   6  14
ATOM     14  C   UNL A   1      33.630  23.624  26.296  1.00  0.00     0.058 C 
BRANCH  14  15
ATOM     15  C   UNL A   1      32.526  24.843  26.147  1.00  0.00    -0.010 A 
ATOM     16  C   UNL A   1      31.147  24.487  26.026  1.00  0.00     0.045 A 
ATOM     17  C   UNL A   1      32.642  26.257  26.062  1.00  0.00     0.045 A 
ATOM     18  Cl  UNL A   1      30.633  22.834  25.912  1.00  0.00    -0.084 Cl
ATOM     19  C   UNL A   1      30.064  25.430  25.954  1.00  0.00     0.021 A 
ATOM     20  C   UNL A   1      31.568  27.194  26.021  1.00  0.00     0.021 A 
ATOM     21  Cl  UNL A   1      34.012  27.196  25.926  1.00  0.00    -0.084 Cl
ATOM     22  C   UNL A   1      30.270  26.792  25.974  1.00  0.00     0.003 A 
ENDBRANCH  14  15
ENDBRANCH   6  14
ENDBRANCH   4   6
ENDBRANCH   3   4
ENDBRANCH   2   3
ENDBRANCH   1   2
BRANCH   1  23
ATOM     23  O   UNL A   1      41.240  21.601  26.185  1.00  0.00    -0.458 OA
BRANCH  23  24
ATOM     24  C   UNL A   1      41.628  22.687  26.935  1.00  0.00     0.338 C 
ATOM     25  O   UNL A   1      42.265  22.566  27.972  1.00  0.00    -0.246 OA
BRANCH  24  26
ATOM     26  C   UNL A   1      40.933  23.979  26.622  1.00  0.00     0.060 A 
ATOM     27  C   UNL A   1      42.041  25.271  26.132  1.00  0.00     0.016 A 
ATOM     28  C   UNL A   1      39.540  24.319  27.651  1.00  0.00     0.016 A 
ATOM     29  C   UNL A   1      41.866  26.919  26.891  1.00  0.00     0.010 A 
ATOM     30  C   UNL A   1      39.266  25.947  28.343  1.00  0.00     0.010 A 
ATOM     31  C   UNL A   1      40.519  27.229  28.108  1.00  0.00    -0.014 A 
BRANCH  31  32
ATOM     32  C   UNL A   1      40.526  28.112  29.275  1.00  0.00     0.031 A 
ATOM     33  C   UNL A   1      39.543  29.229  29.304  1.00  0.00     0.074 A 
ATOM     34  C   UNL A   1      41.381  27.865  30.293  1.00  0.00     0.049 A 
ATOM     35  N   UNL A   1      39.736  30.329  29.944  1.00  0.00    -0.248 NA
ATOM     36  C   UNL A   1      38.333  29.272  28.481  1.00  0.00     0.031 C 
ATOM     37  C   UNL A   1      41.445  28.549  31.575  1.00  0.00     0.029 A 
ATOM     38  N   UNL A   1      42.532  27.071  30.293  1.00  0.00    -0.354 N 
ATOM     39  C   UNL A   1      38.658  31.161  29.711  1.00  0.00     0.074 A 
ATOM     40  C   UNL A   1      37.870  30.494  28.724  1.00  0.00     0.031 C 
ATOM     41  C   UNL A   1      42.698  28.426  32.050  1.00  0.00     0.029 A 
ATOM     42  C   UNL A   1      43.501  27.754  31.033  1.00  0.00     0.049 A 
ATOM     43  H   UNL A   1      42.640  26.197  29.855  1.00  0.00     0.167 HD
ATOM     44  C   UNL A   1      38.517  32.294  30.444  1.00  0.00     0.034 A 
ATOM     45  C   UNL A   1      44.709  28.167  30.536  1.00  0.00     0.034 A 
ATOM     46  C   UNL A   1      39.731  32.491  31.255  1.00  0.00     0.049 A 
ATOM     47  C   UNL A   1      44.817  29.696  30.666  1.00  0.00     0.074 A 
ATOM     48  C   UNL A   1      40.088  32.054  32.520  1.00  0.00     0.029 A 
ATOM     49  N   UNL A   1      40.924  32.832  30.618  1.00  0.00    -0.354 N 
ATOM     50  N   UNL A   1      43.839  30.520  30.965  1.00  0.00    -0.248 NA
ATOM     51  C   UNL A   1      46.059  30.404  30.418  1.00  0.00     0.031 C 
ATOM     52  C   UNL A   1      41.512  32.073  32.609  1.00  0.00     0.029 A 
ATOM     53  C   UNL A   1      42.030  32.588  31.429  1.00  0.00     0.049 A 
ATOM     54  H   UNL A   1      40.978  33.200  29.707  1.00  0.00     0.167 HD
ATOM     55  C   UNL A   1      44.256  31.831  30.850  1.00  0.00     0.074 A 
ATOM     56  C   UNL A   1      45.670  31.683  30.528  1.00  0.00     0.031 C 
ATOM     57  C   UNL A   1      43.395  32.908  30.969  1.00  0.00     0.034 A 
BRANCH  44  58
ATOM     58  C   UNL A   1      37.194  33.043  30.642  1.00  0.00     0.023 A 
ATOM     59  C   UNL A   1      36.746  33.187  31.972  1.00  0.00     0.012 A 
ATOM     60  C   UNL A   1      36.291  33.519  29.648  1.00  0.00     0.148 A 
ATOM     61  C   UNL A   1      35.467  33.673  32.290  1.00  0.00     0.002 A 
ATOM     62  C   UNL A   1      35.001  33.968  29.959  1.00  0.00     0.091 A 
ATOM     63  F   UNL A   1      36.664  33.594  28.375  1.00  0.00    -0.205 F 
ATOM     64  C   UNL A   1      34.582  34.037  31.284  1.00  0.00     0.022 A 
BRANCH  62  65
ATOM     65  S   UNL A   1      33.792  34.432  28.693  1.00  0.00     0.127 S 
ATOM     66  O   UNL A   1      32.639  34.827  29.504  1.00  0.00    -0.237 OA
ATOM     67  O   UNL A   1      34.459  35.538  28.009  1.00  0.00    -0.237 OA
ATOM     68  O   UNL A   1      33.572  33.248  27.870  1.00  0.00    -0.744 OA
ENDBRANCH  62  65
ENDBRANCH  44  58
BRANCH  45  69
ATOM     69  C   UNL A   1      45.357  27.320  29.433  1.00  0.00     0.023 A 
ATOM     70  C   UNL A   1      45.446  25.925  29.671  1.00  0.00     0.012 A 
ATOM     71  C   UNL A   1      45.605  27.749  28.108  1.00  0.00     0.148 A 
ATOM     72  C   UNL A   1      45.480  24.999  28.621  1.00  0.00     0.002 A 
ATOM     73  C   UNL A   1      45.574  26.821  27.053  1.00  0.00     0.091 A 
ATOM     74  F   UNL A   1      45.698  29.060  27.850  1.00  0.00    -0.205 F 
ATOM     75  C   UNL A   1      45.484  25.448  27.309  1.00  0.00     0.022 A 
BRANCH  73  76
ATOM     76  S   UNL A   1      45.339  27.316  25.324  1.00  0.00     0.127 S 
ATOM     77  O   UNL A   1      45.052  26.036  24.676  1.00  0.00    -0.237 OA
ATOM     78  O   UNL A   1      44.183  28.208  25.415  1.00  0.00    -0.237 OA
ATOM     79  O   UNL A   1      46.598  27.929  24.923  1.00  0.00    -0.744 OA
ENDBRANCH  73  76
ENDBRANCH  45  69
BRANCH  57  80
ATOM     80  C   UNL A   1      43.738  34.391  30.675  1.00  0.00     0.023 A 
ATOM     81  C   UNL A   1      43.853  35.371  31.677  1.00  0.00     0.012 A 
ATOM     82  C   UNL A   1      43.985  34.869  29.352  1.00  0.00     0.148 A 
ATOM     83  C   UNL A   1      44.235  36.696  31.426  1.00  0.00     0.002 A 
ATOM     84  C   UNL A   1      44.406  36.180  29.102  1.00  0.00     0.091 A 
ATOM     85  F   UNL A   1      43.769  34.077  28.297  1.00  0.00    -0.205 F 
ATOM     86  C   UNL A   1      44.535  37.097  30.141  1.00  0.00     0.022 A 
BRANCH  84  87
ATOM     87  S   UNL A   1      44.844  36.760  27.456  1.00  0.00     0.127 S 
ATOM     88  O   UNL A   1      44.777  38.211  27.627  1.00  0.00    -0.237 OA
ATOM     89  O   UNL A   1      46.199  36.226  27.299  1.00  0.00    -0.237 OA
ATOM     90  O   UNL A   1      43.861  36.183  26.552  1.00  0.00    -0.744 OA
ENDBRANCH  84  87
ENDBRANCH  57  80
ENDBRANCH  31  32
ENDBRANCH  24  26
ENDBRANCH  23  24
ENDBRANCH   1  23
TORSDOF 17
ENDMDL
MODEL 2
REMARK VINA RESULT:     -12.5      8.349     16.642
REMARK SMILES Cc1ccccc1[C@@H](Cc1c(Cl)cccc1Cl)C(=O)OCCOC(=O)c1ccc(-c2c3nc(c(-c4cccc(S(=O)(=O)[O-])c4F)c4ccc([nH]4)c(-c4cccc(S(=O)(=O)[O-])c4F)c4nc(c(-c5cccc(S(=O)(=O)[O-])c5F)c5ccc2[nH]5)C=C4)C=C3)cc1
REMARK SMILES IDX 22 1 21 2 20 3 18 4 19 5 8 6 7 7 1 8 2 9 3 10 4 11 6 12 5 13
REMARK SMILES IDX 9 14 10 15 11 16 16 17 12 18 13 19 15 20 17 21 14 22 23 23
REMARK SMILES IDX 24 24 25 25 26 26 27 27 88 28 28 29 87 30 29 31 30 32 31 33
REMARK SMILES IDX 81 34 32 35 86 36 80 37 82 38 33 39 85 40 79 41 78 42 34 44
REMARK SMILES IDX 66 45 46 46 65 47 47 48 50 49 64 50 83 51 48 52 49 53 63 55
REMARK SMILES IDX 84 56 51 57 35 58 36 59 44 60 37 61 39 62 45 63 38 64 40 65
REMARK SMILES IDX 41 66 42 67 43 68 67 69 68 70 76 71 69 72 71 73 77 74 70 75
REMARK SMILES IDX 72 76 73 77 74 78 75 79 52 80 53 81 61 82 54 83 56 84 62 85
REMARK SMILES IDX 55 86 57 87 58 88 59 89 60 90
REMARK H PARENT 82 43 50 54
REMARK Flexibility Score: inf
ROOT
ATOM      1  C   UNL A   1      44.252  43.901  23.827  1.00  0.00     0.275 C 
ENDROOT
BRANCH   1   2
ATOM      2  C   UNL A   1      45.223  44.248  22.692  1.00  0.00     0.274 C 
BRANCH   2   3
ATOM      3  O   UNL A   1      45.880  43.039  22.315  1.00  0.00    -0.462 OA
BRANCH   3   4
ATOM      4  C   UNL A   1      45.792  42.696  20.904  1.00  0.00     0.313 C 
ATOM      5  O   UNL A   1      46.459  41.618  20.816  1.00  0.00    -0.252 OA
BRANCH   4   6
ATOM      6  C   UNL A   1      44.834  43.935  19.357  1.00  0.00     0.134 C 
BRANCH   6   7
ATOM      7  C   UNL A   1      43.188  43.799  18.703  1.00  0.00    -0.031 A 
ATOM      8  C   UNL A   1      42.167  42.764  20.870  1.00  0.00     0.044 C 
ATOM      9  C   UNL A   1      42.083  43.483  19.549  1.00  0.00    -0.047 A 
ATOM     10  C   UNL A   1      40.788  43.862  19.142  1.00  0.00     0.004 A 
ATOM     11  C   UNL A   1      40.559  44.409  17.884  1.00  0.00     0.000 A 
ATOM     12  C   UNL A   1      42.905  44.128  17.353  1.00  0.00     0.005 A 
ATOM     13  C   UNL A   1      41.604  44.481  16.970  1.00  0.00     0.000 A 
ENDBRANCH   6   7
BRANCH   6  14
ATOM     14  C   UNL A   1      45.214  45.728  18.830  1.00  0.00     0.058 C 
BRANCH  14  15
ATOM     15  C   UNL A   1      44.649  47.279  18.860  1.00  0.00    -0.010 A 
ATOM     16  C   UNL A   1      45.017  48.104  19.968  1.00  0.00     0.045 A 
ATOM     17  C   UNL A   1      43.790  48.019  18.005  1.00  0.00     0.045 A 
ATOM     18  Cl  UNL A   1      45.923  47.485  21.312  1.00  0.00    -0.084 Cl
ATOM     19  C   UNL A   1      44.661  49.490  20.107  1.00  0.00     0.021 A 
ATOM     20  C   UNL A   1      43.461  49.402  18.124  1.00  0.00     0.021 A 
ATOM     21  Cl  UNL A   1      42.898  47.497  16.697  1.00  0.00    -0.084 Cl
ATOM     22  C   UNL A   1      43.897  50.153  19.170  1.00  0.00     0.003 A 
ENDBRANCH  14  15
ENDBRANCH   6  14
ENDBRANCH   4   6
ENDBRANCH   3   4
ENDBRANCH   2   3
ENDBRANCH   1   2
BRANCH   1  23
ATOM     23  O   UNL A   1      44.755  44.049  25.199  1.00  0.00    -0.458 OA
BRANCH  23  24
ATOM     24  C   UNL A   1      44.687  43.125  26.215  1.00  0.00     0.338 C 
ATOM     25  O   UNL A   1      45.209  43.319  27.305  1.00  0.00    -0.246 OA
BRANCH  24  26
ATOM     26  C   UNL A   1      44.268  41.742  25.815  1.00  0.00     0.060 A 
ATOM     27  C   UNL A   1      42.800  41.188  26.637  1.00  0.00     0.016 A 
ATOM     28  C   UNL A   1      45.611  40.637  25.512  1.00  0.00     0.016 A 
ATOM     29  C   UNL A   1      42.779  39.523  27.381  1.00  0.00     0.010 A 
ATOM     30  C   UNL A   1      45.598  38.959  26.135  1.00  0.00     0.010 A 
ATOM     31  C   UNL A   1      44.253  38.431  27.222  1.00  0.00    -0.014 A 
BRANCH  31  32
ATOM     32  C   UNL A   1      44.765  37.443  28.173  1.00  0.00     0.031 A 
ATOM     33  C   UNL A   1      44.450  36.011  27.921  1.00  0.00     0.074 A 
ATOM     34  C   UNL A   1      45.531  37.850  29.210  1.00  0.00     0.049 A 
ATOM     35  N   UNL A   1      44.372  35.126  28.852  1.00  0.00    -0.248 NA
ATOM     36  C   UNL A   1      44.033  35.485  26.620  1.00  0.00     0.031 C 
ATOM     37  C   UNL A   1      46.226  37.012  30.175  1.00  0.00     0.029 A 
ATOM     38  N   UNL A   1      45.665  39.136  29.745  1.00  0.00    -0.354 N 
ATOM     39  C   UNL A   1      44.008  33.923  28.277  1.00  0.00     0.074 A 
ATOM     40  C   UNL A   1      43.719  34.227  26.911  1.00  0.00     0.031 C 
ATOM     41  C   UNL A   1      46.386  37.724  31.306  1.00  0.00     0.029 A 
ATOM     42  C   UNL A   1      45.700  39.000  31.135  1.00  0.00     0.049 A 
ATOM     43  H   UNL A   1      45.725  39.977  29.238  1.00  0.00     0.167 HD
ATOM     44  C   UNL A   1      44.069  32.784  29.012  1.00  0.00     0.034 A 
ATOM     45  C   UNL A   1      44.793  39.564  31.993  1.00  0.00     0.034 A 
ATOM     46  C   UNL A   1      44.352  33.138  30.415  1.00  0.00     0.049 A 
ATOM     47  C   UNL A   1      44.094  38.456  32.797  1.00  0.00     0.074 A 
ATOM     48  C   UNL A   1      45.537  33.315  31.109  1.00  0.00     0.029 A 
ATOM     49  N   UNL A   1      43.370  33.788  31.162  1.00  0.00    -0.354 N 
ATOM     50  N   UNL A   1      44.151  37.167  32.552  1.00  0.00    -0.248 NA
ATOM     51  C   UNL A   1      43.234  38.751  33.929  1.00  0.00     0.031 C 
ATOM     52  C   UNL A   1      45.265  34.135  32.245  1.00  0.00     0.029 A 
ATOM     53  C   UNL A   1      43.904  34.404  32.291  1.00  0.00     0.049 A 
ATOM     54  H   UNL A   1      42.416  33.809  30.921  1.00  0.00     0.167 HD
ATOM     55  C   UNL A   1      43.287  36.476  33.380  1.00  0.00     0.074 A 
ATOM     56  C   UNL A   1      42.763  37.533  34.236  1.00  0.00     0.031 C 
ATOM     57  C   UNL A   1      43.039  35.121  33.246  1.00  0.00     0.034 A 
BRANCH  44  58
ATOM     58  C   UNL A   1      44.161  31.372  28.424  1.00  0.00     0.023 A 
ATOM     59  C   UNL A   1      43.293  30.404  28.973  1.00  0.00     0.012 A 
ATOM     60  C   UNL A   1      45.091  30.873  27.468  1.00  0.00     0.148 A 
ATOM     61  C   UNL A   1      43.401  29.036  28.673  1.00  0.00     0.002 A 
ATOM     62  C   UNL A   1      45.227  29.505  27.195  1.00  0.00     0.091 A 
ATOM     63  F   UNL A   1      45.846  31.705  26.758  1.00  0.00    -0.205 F 
ATOM     64  C   UNL A   1      44.386  28.580  27.807  1.00  0.00     0.022 A 
BRANCH  62  65
ATOM     65  S   UNL A   1      46.506  28.845  26.097  1.00  0.00     0.127 S 
ATOM     66  O   UNL A   1      45.987  27.510  25.794  1.00  0.00    -0.237 OA
ATOM     67  O   UNL A   1      46.469  29.779  24.972  1.00  0.00    -0.237 OA
ATOM     68  O   UNL A   1      47.752  28.849  26.854  1.00  0.00    -0.744 OA
ENDBRANCH  62  65
ENDBRANCH  44  58
BRANCH  45  69
ATOM     69  C   UNL A   1      44.161  40.903  31.588  1.00  0.00     0.023 A 
ATOM     70  C   UNL A   1      42.989  40.839  30.793  1.00  0.00     0.012 A 
ATOM     71  C   UNL A   1      44.465  42.160  32.162  1.00  0.00     0.148 A 
ATOM     72  C   UNL A   1      42.031  41.861  30.811  1.00  0.00     0.002 A 
ATOM     73  C   UNL A   1      43.475  43.156  32.232  1.00  0.00     0.091 A 
ATOM     74  F   UNL A   1      45.637  42.330  32.786  1.00  0.00    -0.205 F 
ATOM     75  C   UNL A   1      42.248  42.994  31.579  1.00  0.00     0.022 A 
BRANCH  73  76
ATOM     76  S   UNL A   1      43.572  44.549  33.390  1.00  0.00     0.127 S 
ATOM     77  O   UNL A   1      42.434  45.370  32.976  1.00  0.00    -0.237 OA
ATOM     78  O   UNL A   1      43.390  43.888  34.682  1.00  0.00    -0.237 OA
ATOM     79  O   UNL A   1      44.874  45.157  33.154  1.00  0.00    -0.744 OA
ENDBRANCH  73  76
ENDBRANCH  45  69
BRANCH  57  80
ATOM     80  C   UNL A   1      41.956  34.310  34.004  1.00  0.00     0.023 A 
ATOM     81  C   UNL A   1      42.207  33.621  35.204  1.00  0.00     0.012 A 
ATOM     82  C   UNL A   1      40.607  34.222  33.545  1.00  0.00     0.148 A 
ATOM     83  C   UNL A   1      41.218  32.948  35.934  1.00  0.00     0.002 A 
ATOM     84  C   UNL A   1      39.609  33.586  34.290  1.00  0.00     0.091 A 
ATOM     85  F   UNL A   1      40.270  34.710  32.347  1.00  0.00    -0.205 F 
ATOM     86  C   UNL A   1      39.911  32.949  35.490  1.00  0.00     0.022 A 
BRANCH  84  87
ATOM     87  S   UNL A   1      37.881  33.576  33.788  1.00  0.00     0.127 S 
ATOM     88  O   UNL A   1      37.577  35.005  33.748  1.00  0.00    -0.237 OA
ATOM     89  O   UNL A   1      37.952  32.930  32.476  1.00  0.00    -0.237 OA
ATOM     90  O   UNL A   1      37.173  32.806  34.800  1.00  0.00    -0.744 OA
ENDBRANCH  84  87
ENDBRANCH  57  80
ENDBRANCH  31  32
ENDBRANCH  24  26
ENDBRANCH  23  24
ENDBRANCH   1  23
TORSDOF 17
ENDMDL
MODEL 3
REMARK VINA RESULT:     -12.4      2.163      2.961
REMARK SMILES Cc1ccccc1[C@@H](Cc1c(Cl)cccc1Cl)C(=O)OCCOC(=O)c1ccc(-c2c3nc(c(-c4cccc(S(=O)(=O)[O-])c4F)c4ccc([nH]4)c(-c4cccc(S(=O)(=O)[O-])c4F)c4nc(c(-c5cccc(S(=O)(=O)[O-])c5F)c5ccc2[nH]5)C=C4)C=C3)cc1
REMARK SMILES IDX 22 1 21 2 20 3 18 4 19 5 8 6 7 7 1 8 2 9 3 10 4 11 6 12 5 13
REMARK SMILES IDX 9 14 10 15 11 16 16 17 12 18 13 19 15 20 17 21 14 22 23 23
REMARK SMILES IDX 24 24 25 25 26 26 27 27 88 28 28 29 87 30 29 31 30 32 31 33
REMARK SMILES IDX 81 34 32 35 86 36 80 37 82 38 33 39 85 40 79 41 78 42 34 44
REMARK SMILES IDX 66 45 46 46 65 47 47 48 50 49 64 50 83 51 48 52 49 53 63 55
REMARK SMILES IDX 84 56 51 57 35 58 36 59 44 60 37 61 39 62 45 63 38 64 40 65
REMARK SMILES IDX 41 66 42 67 43 68 67 69 68 70 76 71 69 72 71 73 77 74 70 75
REMARK SMILES IDX 72 76 73 77 74 78 75 79 52 80 53 81 61 82 54 83 56 84 62 85
REMARK SMILES IDX 55 86 57 87 58 88 59 89 60 90
REMARK H PARENT 82 43 50 54
REMARK Flexibility Score: inf
ROOT
ATOM      1  C   UNL A   1      38.534  21.468  25.376  1.00  0.00     0.275 C 
ENDROOT
BRANCH   1   2
ATOM      2  C   UNL A   1      37.014  21.642  25.480  1.00  0.00     0.274 C 
BRANCH   2   3
ATOM      3  O   UNL A   1      36.687  22.882  24.855  1.00  0.00    -0.462 OA
BRANCH   3   4
ATOM      4  C   UNL A   1      35.867  22.779  23.657  1.00  0.00     0.313 C 
ATOM      5  O   UNL A   1      36.662  23.109  22.723  1.00  0.00    -0.252 OA
BRANCH   4   6
ATOM      6  C   UNL A   1      33.716  22.312  23.631  1.00  0.00     0.134 C 
BRANCH   6   7
ATOM      7  C   UNL A   1      32.922  20.764  23.992  1.00  0.00    -0.031 A 
ATOM      8  C   UNL A   1      31.831  20.515  21.634  1.00  0.00     0.044 C 
ATOM      9  C   UNL A   1      32.321  19.986  22.957  1.00  0.00    -0.047 A 
ATOM     10  C   UNL A   1      32.159  18.601  23.159  1.00  0.00     0.004 A 
ATOM     11  C   UNL A   1      32.445  18.013  24.387  1.00  0.00     0.000 A 
ATOM     12  C   UNL A   1      32.978  20.196  25.289  1.00  0.00     0.005 A 
ATOM     13  C   UNL A   1      32.790  18.819  25.465  1.00  0.00     0.000 A 
ENDBRANCH   6   7
BRANCH   6  14
ATOM     14  C   UNL A   1      32.219  23.472  23.859  1.00  0.00     0.058 C 
BRANCH  14  15
ATOM     15  C   UNL A   1      31.640  24.986  23.543  1.00  0.00    -0.010 A 
ATOM     16  C   UNL A   1      30.812  25.606  24.530  1.00  0.00     0.045 A 
ATOM     17  C   UNL A   1      31.746  25.855  22.424  1.00  0.00     0.045 A 
ATOM     18  Cl  UNL A   1      30.315  24.769  25.966  1.00  0.00    -0.084 Cl
ATOM     19  C   UNL A   1      30.286  26.940  24.433  1.00  0.00     0.021 A 
ATOM     20  C   UNL A   1      31.251  27.190  22.339  1.00  0.00     0.021 A 
ATOM     21  Cl  UNL A   1      32.398  25.561  20.919  1.00  0.00    -0.084 Cl
ATOM     22  C   UNL A   1      30.524  27.749  23.342  1.00  0.00     0.003 A 
ENDBRANCH  14  15
ENDBRANCH   6  14
ENDBRANCH   4   6
ENDBRANCH   3   4
ENDBRANCH   2   3
ENDBRANCH   1   2
BRANCH   1  23
ATOM     23  O   UNL A   1      39.335  21.924  26.519  1.00  0.00    -0.458 OA
BRANCH  23  24
ATOM     24  C   UNL A   1      39.568  23.222  26.908  1.00  0.00     0.338 C 
ATOM     25  O   UNL A   1      38.683  24.067  26.916  1.00  0.00    -0.246 OA
BRANCH  24  26
ATOM     26  C   UNL A   1      41.008  23.638  26.971  1.00  0.00     0.060 A 
ATOM     27  C   UNL A   1      41.844  23.058  28.421  1.00  0.00     0.016 A 
ATOM     28  C   UNL A   1      41.326  25.248  26.322  1.00  0.00     0.016 A 
ATOM     29  C   UNL A   1      42.864  24.227  29.379  1.00  0.00     0.010 A 
ATOM     30  C   UNL A   1      42.399  26.402  27.172  1.00  0.00     0.010 A 
ATOM     31  C   UNL A   1      43.052  25.965  28.800  1.00  0.00    -0.014 A 
BRANCH  31  32
ATOM     32  C   UNL A   1      43.201  27.183  29.599  1.00  0.00     0.031 A 
ATOM     33  C   UNL A   1      41.974  27.968  29.900  1.00  0.00     0.074 A 
ATOM     34  C   UNL A   1      44.423  27.529  30.066  1.00  0.00     0.049 A 
ATOM     35  N   UNL A   1      41.978  29.237  30.118  1.00  0.00    -0.248 NA
ATOM     36  C   UNL A   1      40.617  27.425  29.817  1.00  0.00     0.031 C 
ATOM     37  C   UNL A   1      44.742  28.622  30.970  1.00  0.00     0.029 A 
ATOM     38  N   UNL A   1      45.678  27.086  29.638  1.00  0.00    -0.354 N 
ATOM     39  C   UNL A   1      40.672  29.648  30.305  1.00  0.00     0.074 A 
ATOM     40  C   UNL A   1      39.868  28.504  30.012  1.00  0.00     0.031 C 
ATOM     41  C   UNL A   1      46.022  28.979  30.755  1.00  0.00     0.029 A 
ATOM     42  C   UNL A   1      46.524  28.197  29.629  1.00  0.00     0.049 A 
ATOM     43  H   UNL A   1      45.921  26.165  29.391  1.00  0.00     0.167 HD
ATOM     44  C   UNL A   1      40.424  30.901  30.766  1.00  0.00     0.034 A 
ATOM     45  C   UNL A   1      47.161  28.680  28.516  1.00  0.00     0.034 A 
ATOM     46  C   UNL A   1      41.688  31.658  30.788  1.00  0.00     0.049 A 
ATOM     47  C   UNL A   1      46.721  30.131  28.265  1.00  0.00     0.074 A 
ATOM     48  C   UNL A   1      42.671  31.802  31.753  1.00  0.00     0.029 A 
ATOM     49  N   UNL A   1      42.283  32.020  29.579  1.00  0.00    -0.354 N 
ATOM     50  N   UNL A   1      45.720  30.750  28.849  1.00  0.00    -0.248 NA
ATOM     51  C   UNL A   1      47.377  30.976  27.285  1.00  0.00     0.031 C 
ATOM     52  C   UNL A   1      43.879  32.189  31.099  1.00  0.00     0.029 A 
ATOM     53  C   UNL A   1      43.625  32.354  29.745  1.00  0.00     0.049 A 
ATOM     54  H   UNL A   1      41.812  32.038  28.716  1.00  0.00     0.167 HD
ATOM     55  C   UNL A   1      45.518  31.991  28.279  1.00  0.00     0.074 A 
ATOM     56  C   UNL A   1      46.612  32.078  27.320  1.00  0.00     0.031 C 
ATOM     57  C   UNL A   1      44.443  32.802  28.602  1.00  0.00     0.034 A 
BRANCH  44  58
ATOM     58  C   UNL A   1      39.125  31.333  31.454  1.00  0.00     0.023 A 
ATOM     59  C   UNL A   1      38.985  30.979  32.813  1.00  0.00     0.012 A 
ATOM     60  C   UNL A   1      37.981  31.951  30.873  1.00  0.00     0.148 A 
ATOM     61  C   UNL A   1      37.778  31.134  33.515  1.00  0.00     0.002 A 
ATOM     62  C   UNL A   1      36.764  32.072  31.558  1.00  0.00     0.091 A 
ATOM     63  F   UNL A   1      38.042  32.481  29.657  1.00  0.00    -0.205 F 
ATOM     64  C   UNL A   1      36.658  31.654  32.880  1.00  0.00     0.022 A 
BRANCH  62  65
ATOM     65  S   UNL A   1      35.262  32.718  30.781  1.00  0.00     0.127 S 
ATOM     66  O   UNL A   1      34.293  32.631  31.874  1.00  0.00    -0.237 OA
ATOM     67  O   UNL A   1      35.650  34.081  30.423  1.00  0.00    -0.237 OA
ATOM     68  O   UNL A   1      34.969  31.848  29.647  1.00  0.00    -0.744 OA
ENDBRANCH  62  65
ENDBRANCH  44  58
BRANCH  45  69
ATOM     69  C   UNL A   1      47.568  27.673  27.432  1.00  0.00     0.023 A 
ATOM     70  C   UNL A   1      48.905  27.204  27.468  1.00  0.00     0.012 A 
ATOM     71  C   UNL A   1      46.674  26.963  26.596  1.00  0.00     0.148 A 
ATOM     72  C   UNL A   1      49.260  25.951  26.951  1.00  0.00     0.002 A 
ATOM     73  C   UNL A   1      47.014  25.680  26.136  1.00  0.00     0.091 A 
ATOM     74  F   UNL A   1      45.443  27.449  26.390  1.00  0.00    -0.205 F 
ATOM     75  C   UNL A   1      48.299  25.163  26.337  1.00  0.00     0.022 A 
BRANCH  73  76
ATOM     76  S   UNL A   1      45.775  24.496  25.539  1.00  0.00     0.127 S 
ATOM     77  O   UNL A   1      44.950  25.332  24.666  1.00  0.00    -0.237 OA
ATOM     78  O   UNL A   1      46.600  23.523  24.824  1.00  0.00    -0.237 OA
ATOM     79  O   UNL A   1      45.096  24.013  26.733  1.00  0.00    -0.744 OA
ENDBRANCH  73  76
ENDBRANCH  45  69
BRANCH  57  80
ATOM     80  C   UNL A   1      44.040  34.116  27.885  1.00  0.00     0.023 A 
ATOM     81  C   UNL A   1      43.403  34.148  26.632  1.00  0.00     0.012 A 
ATOM     82  C   UNL A   1      44.268  35.402  28.463  1.00  0.00     0.148 A 
ATOM     83  C   UNL A   1      42.969  35.328  26.011  1.00  0.00     0.002 A 
ATOM     84  C   UNL A   1      43.801  36.578  27.866  1.00  0.00     0.091 A 
ATOM     85  F   UNL A   1      44.991  35.520  29.581  1.00  0.00    -0.205 F 
ATOM     86  C   UNL A   1      43.146  36.544  26.639  1.00  0.00     0.022 A 
BRANCH  84  87
ATOM     87  S   UNL A   1      43.969  38.192  28.643  1.00  0.00     0.127 S 
ATOM     88  O   UNL A   1      45.402  38.441  28.502  1.00  0.00    -0.237 OA
ATOM     89  O   UNL A   1      43.117  39.027  27.793  1.00  0.00    -0.237 OA
ATOM     90  O   UNL A   1      43.485  38.034  30.007  1.00  0.00    -0.744 OA
ENDBRANCH  84  87
ENDBRANCH  57  80
ENDBRANCH  31  32
ENDBRANCH  24  26
ENDBRANCH  23  24
ENDBRANCH   1  23
TORSDOF 17
ENDMDL
