MODEL 1
REMARK VINA RESULT:     -11.5      0.000      0.000
REMARK SMILES NNS(=O)(=O)c1ccc(O)c(C(=O)OCCOC(=O)c2ccc(-c3c4nc(c(-c5cccc(S(=O)(=O)[O-])c5F)c5ccc([nH]5)c(-c5cccc(S(=O)(=O)[O-])c5F)c5nc(c(-c6cccc(S(=O)(=O)[O-])c6F)c6ccc3[nH]6)C=C5)C=C4)cc2)c1
REMARK SMILES IDX 15 1 14 2 12 3 13 4 11 5 6 6 7 7 83 8 8 9 9 10 3 11 4 12
REMARK SMILES IDX 5 13 2 14 1 16 10 19 16 21 17 22 18 23 19 24 20 25 21 26
REMARK SMILES IDX 82 27 22 28 81 29 23 30 24 31 25 32 75 33 26 34 80 35 74 36
REMARK SMILES IDX 76 37 27 38 79 39 73 40 72 41 28 43 60 44 40 45 59 46 41 47
REMARK SMILES IDX 44 48 58 49 77 50 42 51 43 52 57 54 78 55 45 56 29 57 30 58
REMARK SMILES IDX 38 59 31 60 33 61 39 62 32 63 34 64 35 65 36 66 37 67 61 68
REMARK SMILES IDX 62 69 70 70 63 71 65 72 71 73 64 74 66 75 67 76 68 77 69 78
REMARK SMILES IDX 46 79 47 80 55 81 48 82 50 83 56 84 49 85 51 86 52 87 53 88
REMARK SMILES IDX 54 89
REMARK H PARENT 2 15 1 17 1 18 10 20 76 42 44 53
REMARK Flexibility Score: inf
ROOT
ATOM      1  C   UNL A   1      35.565  21.385  25.385  1.00  0.00     0.275 C 
ENDROOT
BRANCH   1   2
ATOM      2  O   UNL A   1      34.642  21.523  24.285  1.00  0.00    -0.458 OA
BRANCH   2   3
ATOM      3  C   UNL A   1      34.712  22.676  23.575  1.00  0.00     0.342 C 
ATOM      4  O   UNL A   1      35.650  23.057  22.893  1.00  0.00    -0.246 OA
BRANCH   3   5
ATOM      5  C   UNL A   1      33.427  23.410  23.618  1.00  0.00     0.103 A 
ATOM      6  C   UNL A   1      31.598  24.284  24.952  1.00  0.00     0.084 A 
ATOM      7  C   UNL A   1      30.967  24.753  23.800  1.00  0.00     0.025 A 
ATOM      8  C   UNL A   1      32.806  23.591  24.863  1.00  0.00     0.041 A 
ATOM      9  C   UNL A   1      31.560  24.537  22.554  1.00  0.00     0.048 A 
ATOM     10  C   UNL A   1      32.791  23.877  22.464  1.00  0.00     0.130 A 
BRANCH   6  11
ATOM     11  S   UNL A   1      30.892  24.610  26.553  1.00  0.00     0.253 S 
ATOM     12  O   UNL A   1      30.372  25.964  26.546  1.00  0.00    -0.206 OA
ATOM     13  O   UNL A   1      31.849  24.171  27.539  1.00  0.00    -0.206 OA
BRANCH  11  14
ATOM     14  N   UNL A   1      29.579  23.483  26.589  1.00  0.00    -0.150 NA
ATOM     15  H   UNL A   1      28.701  24.002  26.579  1.00  0.00     0.160 HD
BRANCH  14  16
ATOM     16  N   UNL A   1      29.609  22.665  27.737  1.00  0.00    -0.257 NA
ATOM     17  H   UNL A   1      30.572  22.559  28.055  1.00  0.00     0.138 HD
ATOM     18  H   UNL A   1      29.224  21.748  27.511  1.00  0.00     0.138 HD
ENDBRANCH  14  16
ENDBRANCH  11  14
ENDBRANCH   6  11
BRANCH  10  19
ATOM     19  O   UNL A   1      33.338  23.654  21.233  1.00  0.00    -0.507 OA
ATOM     20  H   UNL A   1      33.125  24.219  20.516  1.00  0.00     0.293 HD
ENDBRANCH  10  19
ENDBRANCH   3   5
ENDBRANCH   2   3
ENDBRANCH   1   2
BRANCH   1  21
ATOM     21  C   UNL A   1      36.831  20.647  24.951  1.00  0.00     0.275 C 
BRANCH  21  22
ATOM     22  O   UNL A   1      37.964  21.530  25.010  1.00  0.00    -0.458 OA
BRANCH  22  23
ATOM     23  C   UNL A   1      38.946  21.141  25.853  1.00  0.00     0.338 C 
ATOM     24  O   UNL A   1      39.393  20.017  26.007  1.00  0.00    -0.246 OA
BRANCH  23  25
ATOM     25  C   UNL A   1      39.512  22.318  26.520  1.00  0.00     0.060 A 
ATOM     26  C   UNL A   1      39.107  23.569  26.072  1.00  0.00     0.016 A 
ATOM     27  C   UNL A   1      40.540  22.203  27.449  1.00  0.00     0.016 A 
ATOM     28  C   UNL A   1      39.821  24.704  26.434  1.00  0.00     0.010 A 
ATOM     29  C   UNL A   1      41.159  23.366  27.926  1.00  0.00     0.010 A 
ATOM     30  C   UNL A   1      40.834  24.630  27.396  1.00  0.00    -0.014 A 
BRANCH  30  31
ATOM     31  C   UNL A   1      41.532  25.867  27.855  1.00  0.00     0.031 A 
ATOM     32  C   UNL A   1      40.797  26.907  28.663  1.00  0.00     0.074 A 
ATOM     33  C   UNL A   1      42.823  26.078  27.519  1.00  0.00     0.049 A 
ATOM     34  N   UNL A   1      41.154  28.132  28.954  1.00  0.00    -0.248 NA
ATOM     35  C   UNL A   1      39.477  26.529  29.196  1.00  0.00     0.031 C 
ATOM     36  C   UNL A   1      43.666  25.151  26.761  1.00  0.00     0.029 A 
ATOM     37  N   UNL A   1      43.650  27.152  27.751  1.00  0.00    -0.354 N 
ATOM     38  C   UNL A   1      40.076  28.696  29.629  1.00  0.00     0.074 A 
ATOM     39  C   UNL A   1      39.053  27.675  29.713  1.00  0.00     0.031 C 
ATOM     40  C   UNL A   1      44.887  25.679  26.606  1.00  0.00     0.029 A 
ATOM     41  C   UNL A   1      44.884  27.030  27.150  1.00  0.00     0.049 A 
ATOM     42  H   UNL A   1      43.388  27.930  28.293  1.00  0.00     0.167 HD
ATOM     43  C   UNL A   1      39.954  29.947  30.135  1.00  0.00     0.034 A 
ATOM     44  C   UNL A   1      45.880  27.921  26.983  1.00  0.00     0.034 A 
ATOM     45  C   UNL A   1      41.004  30.931  30.105  1.00  0.00     0.049 A 
ATOM     46  C   UNL A   1      45.708  29.310  27.526  1.00  0.00     0.074 A 
ATOM     47  C   UNL A   1      41.001  32.207  30.641  1.00  0.00     0.029 A 
ATOM     48  N   UNL A   1      42.244  30.751  29.512  1.00  0.00    -0.354 N 
ATOM     49  N   UNL A   1      44.704  29.810  28.202  1.00  0.00    -0.248 NA
ATOM     50  C   UNL A   1      46.806  30.256  27.289  1.00  0.00     0.031 C 
ATOM     51  C   UNL A   1      42.225  32.812  30.337  1.00  0.00     0.029 A 
ATOM     52  C   UNL A   1      43.007  31.899  29.650  1.00  0.00     0.049 A 
ATOM     53  H   UNL A   1      42.540  29.927  29.059  1.00  0.00     0.167 HD
ATOM     54  C   UNL A   1      45.056  31.121  28.492  1.00  0.00     0.074 A 
ATOM     55  C   UNL A   1      46.381  31.328  27.942  1.00  0.00     0.031 C 
ATOM     56  C   UNL A   1      44.342  32.074  29.139  1.00  0.00     0.034 A 
BRANCH  43  57
ATOM     57  C   UNL A   1      38.642  30.334  30.773  1.00  0.00     0.023 A 
ATOM     58  C   UNL A   1      38.417  30.079  32.140  1.00  0.00     0.012 A 
ATOM     59  C   UNL A   1      37.660  31.021  30.028  1.00  0.00     0.148 A 
ATOM     60  C   UNL A   1      37.223  30.470  32.748  1.00  0.00     0.002 A 
ATOM     61  C   UNL A   1      36.494  31.449  30.653  1.00  0.00     0.091 A 
ATOM     62  F   UNL A   1      37.886  31.243  28.726  1.00  0.00    -0.205 F 
ATOM     63  C   UNL A   1      36.269  31.164  32.008  1.00  0.00     0.022 A 
BRANCH  61  64
ATOM     64  S   UNL A   1      35.241  32.423  29.809  1.00  0.00     0.127 S 
ATOM     65  O   UNL A   1      36.018  33.577  29.357  1.00  0.00    -0.237 OA
ATOM     66  O   UNL A   1      34.817  31.518  28.741  1.00  0.00    -0.237 OA
ATOM     67  O   UNL A   1      34.217  32.714  30.803  1.00  0.00    -0.744 OA
ENDBRANCH  61  64
ENDBRANCH  43  57
BRANCH  44  68
ATOM     68  C   UNL A   1      47.116  27.529  26.248  1.00  0.00     0.023 A 
ATOM     69  C   UNL A   1      48.130  26.821  26.920  1.00  0.00     0.012 A 
ATOM     70  C   UNL A   1      47.279  27.824  24.878  1.00  0.00     0.148 A 
ATOM     71  C   UNL A   1      49.293  26.437  26.251  1.00  0.00     0.002 A 
ATOM     72  C   UNL A   1      48.409  27.381  24.203  1.00  0.00     0.091 A 
ATOM     73  F   UNL A   1      46.311  28.513  24.257  1.00  0.00    -0.205 F 
ATOM     74  C   UNL A   1      49.427  26.705  24.891  1.00  0.00     0.022 A 
BRANCH  72  75
ATOM     75  S   UNL A   1      48.598  27.554  22.425  1.00  0.00     0.127 S 
ATOM     76  O   UNL A   1      48.621  26.160  21.989  1.00  0.00    -0.237 OA
ATOM     77  O   UNL A   1      47.388  28.293  22.064  1.00  0.00    -0.237 OA
ATOM     78  O   UNL A   1      49.836  28.298  22.231  1.00  0.00    -0.744 OA
ENDBRANCH  72  75
ENDBRANCH  44  68
BRANCH  56  79
ATOM     79  C   UNL A   1      44.989  33.420  29.325  1.00  0.00     0.023 A 
ATOM     80  C   UNL A   1      45.733  33.686  30.493  1.00  0.00     0.012 A 
ATOM     81  C   UNL A   1      44.926  34.391  28.308  1.00  0.00     0.148 A 
ATOM     82  C   UNL A   1      46.379  34.909  30.656  1.00  0.00     0.002 A 
ATOM     83  C   UNL A   1      45.614  35.588  28.455  1.00  0.00     0.091 A 
ATOM     84  F   UNL A   1      44.199  34.122  27.214  1.00  0.00    -0.205 F 
ATOM     85  C   UNL A   1      46.332  35.854  29.633  1.00  0.00     0.022 A 
BRANCH  83  86
ATOM     86  S   UNL A   1      45.691  36.827  27.157  1.00  0.00     0.127 S 
ATOM     87  O   UNL A   1      44.283  37.197  27.016  1.00  0.00    -0.237 OA
ATOM     88  O   UNL A   1      46.535  37.856  27.763  1.00  0.00    -0.237 OA
ATOM     89  O   UNL A   1      46.275  36.164  25.998  1.00  0.00    -0.744 OA
ENDBRANCH  83  86
ENDBRANCH  56  79
ENDBRANCH  30  31
ENDBRANCH  23  25
ENDBRANCH  22  23
ENDBRANCH  21  22
ENDBRANCH   1  21
TORSDOF 18
ENDMDL
MODEL 2
REMARK VINA RESULT:     -11.4      5.339     10.025
REMARK SMILES NNS(=O)(=O)c1ccc(O)c(C(=O)OCCOC(=O)c2ccc(-c3c4nc(c(-c5cccc(S(=O)(=O)[O-])c5F)c5ccc([nH]5)c(-c5cccc(S(=O)(=O)[O-])c5F)c5nc(c(-c6cccc(S(=O)(=O)[O-])c6F)c6ccc3[nH]6)C=C5)C=C4)cc2)c1
REMARK SMILES IDX 15 1 14 2 12 3 13 4 11 5 6 6 7 7 83 8 8 9 9 10 3 11 4 12
REMARK SMILES IDX 5 13 2 14 1 16 10 19 16 21 17 22 18 23 19 24 20 25 21 26
REMARK SMILES IDX 82 27 22 28 81 29 23 30 24 31 25 32 75 33 26 34 80 35 74 36
REMARK SMILES IDX 76 37 27 38 79 39 73 40 72 41 28 43 60 44 40 45 59 46 41 47
REMARK SMILES IDX 44 48 58 49 77 50 42 51 43 52 57 54 78 55 45 56 29 57 30 58
REMARK SMILES IDX 38 59 31 60 33 61 39 62 32 63 34 64 35 65 36 66 37 67 61 68
REMARK SMILES IDX 62 69 70 70 63 71 65 72 71 73 64 74 66 75 67 76 68 77 69 78
REMARK SMILES IDX 46 79 47 80 55 81 48 82 50 83 56 84 49 85 51 86 52 87 53 88
REMARK SMILES IDX 54 89
REMARK H PARENT 2 15 1 17 1 18 10 20 76 42 44 53
REMARK Flexibility Score: inf
ROOT
ATOM      1  C   UNL A   1      31.259  29.037  24.329  1.00  0.00     0.275 C 
ENDROOT
BRANCH   1   2
ATOM      2  O   UNL A   1      31.836  27.764  24.684  1.00  0.00    -0.458 OA
BRANCH   2   3
ATOM      3  C   UNL A   1      32.884  27.341  23.935  1.00  0.00     0.342 C 
ATOM      4  O   UNL A   1      33.785  28.031  23.486  1.00  0.00    -0.246 OA
BRANCH   3   5
ATOM      5  C   UNL A   1      32.889  25.866  23.807  1.00  0.00     0.103 A 
ATOM      6  C   UNL A   1      32.545  23.706  24.857  1.00  0.00     0.084 A 
ATOM      7  C   UNL A   1      32.912  23.061  23.676  1.00  0.00     0.025 A 
ATOM      8  C   UNL A   1      32.561  25.100  24.935  1.00  0.00     0.041 A 
ATOM      9  C   UNL A   1      33.283  23.820  22.564  1.00  0.00     0.048 A 
ATOM     10  C   UNL A   1      33.261  25.218  22.626  1.00  0.00     0.130 A 
BRANCH   6  11
ATOM     11  S   UNL A   1      32.004  22.757  26.262  1.00  0.00     0.253 S 
ATOM     12  O   UNL A   1      33.093  22.712  27.219  1.00  0.00    -0.206 OA
ATOM     13  O   UNL A   1      31.392  21.553  25.754  1.00  0.00    -0.206 OA
BRANCH  11  14
ATOM     14  N   UNL A   1      30.727  23.748  26.880  1.00  0.00    -0.150 NA
ATOM     15  H   UNL A   1      31.128  24.452  27.499  1.00  0.00     0.160 HD
BRANCH  14  16
ATOM     16  N   UNL A   1      29.772  23.002  27.600  1.00  0.00    -0.257 NA
ATOM     17  H   UNL A   1      30.178  22.690  28.483  1.00  0.00     0.138 HD
ATOM     18  H   UNL A   1      29.489  22.190  27.051  1.00  0.00     0.138 HD
ENDBRANCH  14  16
ENDBRANCH  11  14
ENDBRANCH   6  11
BRANCH  10  19
ATOM     19  O   UNL A   1      33.653  25.938  21.533  1.00  0.00    -0.507 OA
ATOM     20  H   UNL A   1      34.540  25.891  21.235  1.00  0.00     0.293 HD
ENDBRANCH  10  19
ENDBRANCH   3   5
ENDBRANCH   2   3
ENDBRANCH   1   2
BRANCH   1  21
ATOM     21  C   UNL A   1      31.405  30.045  25.468  1.00  0.00     0.275 C 
BRANCH  21  22
ATOM     22  O   UNL A   1      32.761  30.062  25.944  1.00  0.00    -0.458 OA
BRANCH  22  23
ATOM     23  C   UNL A   1      33.041  31.042  26.832  1.00  0.00     0.338 C 
ATOM     24  O   UNL A   1      32.292  31.913  27.241  1.00  0.00    -0.246 OA
BRANCH  23  25
ATOM     25  C   UNL A   1      34.401  30.857  27.350  1.00  0.00     0.060 A 
ATOM     26  C   UNL A   1      34.806  29.563  27.648  1.00  0.00     0.016 A 
ATOM     27  C   UNL A   1      35.201  31.941  27.694  1.00  0.00     0.016 A 
ATOM     28  C   UNL A   1      35.940  29.348  28.422  1.00  0.00     0.010 A 
ATOM     29  C   UNL A   1      36.420  31.708  28.343  1.00  0.00     0.010 A 
ATOM     30  C   UNL A   1      36.788  30.410  28.750  1.00  0.00    -0.014 A 
BRANCH  30  31
ATOM     31  C   UNL A   1      38.057  30.162  29.497  1.00  0.00     0.031 A 
ATOM     32  C   UNL A   1      39.117  29.254  28.924  1.00  0.00     0.074 A 
ATOM     33  C   UNL A   1      38.248  30.725  30.709  1.00  0.00     0.049 A 
ATOM     34  N   UNL A   1      40.167  28.738  29.511  1.00  0.00    -0.248 NA
ATOM     35  C   UNL A   1      38.966  28.855  27.515  1.00  0.00     0.031 C 
ATOM     36  C   UNL A   1      37.321  31.641  31.377  1.00  0.00     0.029 A 
ATOM     37  N   UNL A   1      39.278  30.592  31.611  1.00  0.00    -0.354 N 
ATOM     38  C   UNL A   1      40.754  27.894  28.574  1.00  0.00     0.074 A 
ATOM     39  C   UNL A   1      39.947  27.974  27.374  1.00  0.00     0.031 C 
ATOM     40  C   UNL A   1      37.824  32.002  32.564  1.00  0.00     0.029 A 
ATOM     41  C   UNL A   1      39.053  31.257  32.797  1.00  0.00     0.049 A 
ATOM     42  H   UNL A   1      40.095  30.075  31.428  1.00  0.00     0.167 HD
ATOM     43  C   UNL A   1      41.865  27.128  28.702  1.00  0.00     0.034 A 
ATOM     44  C   UNL A   1      39.712  31.222  33.971  1.00  0.00     0.034 A 
ATOM     45  C   UNL A   1      42.697  27.110  29.876  1.00  0.00     0.049 A 
ATOM     46  C   UNL A   1      40.922  30.342  34.096  1.00  0.00     0.074 A 
ATOM     47  C   UNL A   1      43.875  26.413  30.084  1.00  0.00     0.029 A 
ATOM     48  N   UNL A   1      42.445  27.822  31.039  1.00  0.00    -0.354 N 
ATOM     49  N   UNL A   1      41.490  29.589  33.186  1.00  0.00    -0.248 NA
ATOM     50  C   UNL A   1      41.586  30.310  35.406  1.00  0.00     0.031 C 
ATOM     51  C   UNL A   1      44.313  26.673  31.386  1.00  0.00     0.029 A 
ATOM     52  C   UNL A   1      43.432  27.565  31.975  1.00  0.00     0.049 A 
ATOM     53  H   UNL A   1      41.676  28.422  31.178  1.00  0.00     0.167 HD
ATOM     54  C   UNL A   1      42.590  29.010  33.805  1.00  0.00     0.074 A 
ATOM     55  C   UNL A   1      42.625  29.524  35.159  1.00  0.00     0.031 C 
ATOM     56  C   UNL A   1      43.480  28.121  33.303  1.00  0.00     0.034 A 
BRANCH  43  57
ATOM     57  C   UNL A   1      42.259  26.244  27.544  1.00  0.00     0.023 A 
ATOM     58  C   UNL A   1      43.108  26.736  26.533  1.00  0.00     0.012 A 
ATOM     59  C   UNL A   1      41.845  24.896  27.500  1.00  0.00     0.148 A 
ATOM     60  C   UNL A   1      43.510  25.914  25.480  1.00  0.00     0.002 A 
ATOM     61  C   UNL A   1      42.289  24.070  26.474  1.00  0.00     0.091 A 
ATOM     62  F   UNL A   1      41.026  24.448  28.463  1.00  0.00    -0.205 F 
ATOM     63  C   UNL A   1      43.110  24.580  25.457  1.00  0.00     0.022 A 
BRANCH  61  64
ATOM     64  S   UNL A   1      41.899  22.317  26.399  1.00  0.00     0.127 S 
ATOM     65  O   UNL A   1      40.447  22.344  26.222  1.00  0.00    -0.237 OA
ATOM     66  O   UNL A   1      42.648  21.885  25.220  1.00  0.00    -0.237 OA
ATOM     67  O   UNL A   1      42.360  21.745  27.657  1.00  0.00    -0.744 OA
ENDBRANCH  61  64
ENDBRANCH  43  57
BRANCH  44  68
ATOM     68  C   UNL A   1      39.223  32.028  35.126  1.00  0.00     0.023 A 
ATOM     69  C   UNL A   1      38.272  31.476  36.005  1.00  0.00     0.012 A 
ATOM     70  C   UNL A   1      39.718  33.324  35.377  1.00  0.00     0.148 A 
ATOM     71  C   UNL A   1      37.804  32.209  37.097  1.00  0.00     0.002 A 
ATOM     72  C   UNL A   1      39.298  34.021  36.502  1.00  0.00     0.091 A 
ATOM     73  F   UNL A   1      40.611  33.841  34.520  1.00  0.00    -0.205 F 
ATOM     74  C   UNL A   1      38.327  33.473  37.353  1.00  0.00     0.022 A 
BRANCH  72  75
ATOM     75  S   UNL A   1      40.021  35.592  36.989  1.00  0.00     0.127 S 
ATOM     76  O   UNL A   1      39.649  36.452  35.869  1.00  0.00    -0.237 OA
ATOM     77  O   UNL A   1      39.319  35.871  38.242  1.00  0.00    -0.237 OA
ATOM     78  O   UNL A   1      41.448  35.337  37.145  1.00  0.00    -0.744 OA
ENDBRANCH  72  75
ENDBRANCH  44  68
BRANCH  56  79
ATOM     79  C   UNL A   1      44.596  27.671  34.207  1.00  0.00     0.023 A 
ATOM     80  C   UNL A   1      45.809  28.388  34.236  1.00  0.00     0.012 A 
ATOM     81  C   UNL A   1      44.412  26.585  35.085  1.00  0.00     0.148 A 
ATOM     82  C   UNL A   1      46.832  28.012  35.105  1.00  0.00     0.002 A 
ATOM     83  C   UNL A   1      45.416  26.249  35.983  1.00  0.00     0.091 A 
ATOM     84  F   UNL A   1      43.256  25.908  35.028  1.00  0.00    -0.205 F 
ATOM     85  C   UNL A   1      46.631  26.953  35.987  1.00  0.00     0.022 A 
BRANCH  83  86
ATOM     86  S   UNL A   1      45.216  24.962  37.221  1.00  0.00     0.127 S 
ATOM     87  O   UNL A   1      45.443  23.753  36.432  1.00  0.00    -0.237 OA
ATOM     88  O   UNL A   1      46.282  25.281  38.170  1.00  0.00    -0.237 OA
ATOM     89  O   UNL A   1      43.865  25.113  37.748  1.00  0.00    -0.744 OA
ENDBRANCH  83  86
ENDBRANCH  56  79
ENDBRANCH  30  31
ENDBRANCH  23  25
ENDBRANCH  22  23
ENDBRANCH  21  22
ENDBRANCH   1  21
TORSDOF 18
ENDMDL
MODEL 3
REMARK VINA RESULT:     -11.4      2.756      3.278
REMARK SMILES NNS(=O)(=O)c1ccc(O)c(C(=O)OCCOC(=O)c2ccc(-c3c4nc(c(-c5cccc(S(=O)(=O)[O-])c5F)c5ccc([nH]5)c(-c5cccc(S(=O)(=O)[O-])c5F)c5nc(c(-c6cccc(S(=O)(=O)[O-])c6F)c6ccc3[nH]6)C=C5)C=C4)cc2)c1
REMARK SMILES IDX 15 1 14 2 12 3 13 4 11 5 6 6 7 7 83 8 8 9 9 10 3 11 4 12
REMARK SMILES IDX 5 13 2 14 1 16 10 19 16 21 17 22 18 23 19 24 20 25 21 26
REMARK SMILES IDX 82 27 22 28 81 29 23 30 24 31 25 32 75 33 26 34 80 35 74 36
REMARK SMILES IDX 76 37 27 38 79 39 73 40 72 41 28 43 60 44 40 45 59 46 41 47
REMARK SMILES IDX 44 48 58 49 77 50 42 51 43 52 57 54 78 55 45 56 29 57 30 58
REMARK SMILES IDX 38 59 31 60 33 61 39 62 32 63 34 64 35 65 36 66 37 67 61 68
REMARK SMILES IDX 62 69 70 70 63 71 65 72 71 73 64 74 66 75 67 76 68 77 69 78
REMARK SMILES IDX 46 79 47 80 55 81 48 82 50 83 56 84 49 85 51 86 52 87 53 88
REMARK SMILES IDX 54 89
REMARK H PARENT 2 15 1 17 1 18 10 20 76 42 44 53
REMARK Flexibility Score: inf
ROOT
ATOM      1  C   UNL A   1      34.726  22.541  24.871  1.00  0.00     0.275 C 
ENDROOT
BRANCH   1   2
ATOM      2  O   UNL A   1      33.724  22.270  23.870  1.00  0.00    -0.458 OA
BRANCH   2   3
ATOM      3  C   UNL A   1      32.618  21.604  24.282  1.00  0.00     0.342 C 
ATOM      4  O   UNL A   1      31.702  22.055  24.951  1.00  0.00    -0.246 OA
BRANCH   3   5
ATOM      5  C   UNL A   1      32.574  20.237  23.714  1.00  0.00     0.103 A 
ATOM      6  C   UNL A   1      32.950  17.862  24.031  1.00  0.00     0.084 A 
ATOM      7  C   UNL A   1      32.564  17.613  22.714  1.00  0.00     0.025 A 
ATOM      8  C   UNL A   1      32.983  19.167  24.523  1.00  0.00     0.041 A 
ATOM      9  C   UNL A   1      32.198  18.681  21.890  1.00  0.00     0.048 A 
ATOM     10  C   UNL A   1      32.192  19.987  22.392  1.00  0.00     0.130 A 
BRANCH   6  11
ATOM     11  S   UNL A   1      33.353  16.507  25.113  1.00  0.00     0.253 S 
ATOM     12  O   UNL A   1      32.992  15.274  24.442  1.00  0.00    -0.206 OA
ATOM     13  O   UNL A   1      32.838  16.837  26.420  1.00  0.00    -0.206 OA
BRANCH  11  14
ATOM     14  N   UNL A   1      35.076  16.638  25.204  1.00  0.00    -0.150 NA
ATOM     15  H   UNL A   1      35.417  17.083  24.352  1.00  0.00     0.160 HD
BRANCH  14  16
ATOM     16  N   UNL A   1      35.702  15.381  25.340  1.00  0.00    -0.257 NA
ATOM     17  H   UNL A   1      36.493  15.323  24.698  1.00  0.00     0.138 HD
ATOM     18  H   UNL A   1      35.033  14.643  25.121  1.00  0.00     0.138 HD
ENDBRANCH  14  16
ENDBRANCH  11  14
ENDBRANCH   6  11
BRANCH  10  19
ATOM     19  O   UNL A   1      31.856  21.018  21.561  1.00  0.00    -0.507 OA
ATOM     20  H   UNL A   1      32.522  21.576  21.214  1.00  0.00     0.293 HD
ENDBRANCH  10  19
ENDBRANCH   3   5
ENDBRANCH   2   3
ENDBRANCH   1   2
BRANCH   1  21
ATOM     21  C   UNL A   1      36.008  21.756  24.594  1.00  0.00     0.275 C 
BRANCH  21  22
ATOM     22  O   UNL A   1      36.721  21.522  25.820  1.00  0.00    -0.458 OA
BRANCH  22  23
ATOM     23  C   UNL A   1      38.055  21.354  25.679  1.00  0.00     0.338 C 
ATOM     24  O   UNL A   1      38.634  20.511  25.017  1.00  0.00    -0.246 OA
BRANCH  23  25
ATOM     25  C   UNL A   1      38.759  22.436  26.377  1.00  0.00     0.060 A 
ATOM     26  C   UNL A   1      38.312  23.734  26.169  1.00  0.00     0.016 A 
ATOM     27  C   UNL A   1      39.933  22.201  27.085  1.00  0.00     0.016 A 
ATOM     28  C   UNL A   1      39.107  24.813  26.537  1.00  0.00     0.010 A 
ATOM     29  C   UNL A   1      40.654  23.292  27.586  1.00  0.00     0.010 A 
ATOM     30  C   UNL A   1      40.272  24.615  27.286  1.00  0.00    -0.014 A 
BRANCH  30  31
ATOM     31  C   UNL A   1      41.071  25.781  27.764  1.00  0.00     0.031 A 
ATOM     32  C   UNL A   1      40.418  26.879  28.567  1.00  0.00     0.074 A 
ATOM     33  C   UNL A   1      42.381  25.877  27.451  1.00  0.00     0.049 A 
ATOM     34  N   UNL A   1      40.879  28.065  28.871  1.00  0.00    -0.248 NA
ATOM     35  C   UNL A   1      39.061  26.619  29.075  1.00  0.00     0.031 C 
ATOM     36  C   UNL A   1      43.150  24.881  26.700  1.00  0.00     0.029 A 
ATOM     37  N   UNL A   1      43.297  26.871  27.703  1.00  0.00    -0.354 N 
ATOM     38  C   UNL A   1      39.845  28.720  29.532  1.00  0.00     0.074 A 
ATOM     39  C   UNL A   1      38.734  27.795  29.594  1.00  0.00     0.031 C 
ATOM     40  C   UNL A   1      44.415  25.299  26.568  1.00  0.00     0.029 A 
ATOM     41  C   UNL A   1      44.525  26.641  27.121  1.00  0.00     0.049 A 
ATOM     42  H   UNL A   1      43.096  27.666  28.246  1.00  0.00     0.167 HD
ATOM     43  C   UNL A   1      39.828  29.975  30.045  1.00  0.00     0.034 A 
ATOM     44  C   UNL A   1      45.599  27.439  26.976  1.00  0.00     0.034 A 
ATOM     45  C   UNL A   1      40.963  30.861  30.039  1.00  0.00     0.049 A 
ATOM     46  C   UNL A   1      45.544  28.836  27.525  1.00  0.00     0.074 A 
ATOM     47  C   UNL A   1      41.065  32.129  30.582  1.00  0.00     0.029 A 
ATOM     48  N   UNL A   1      42.191  30.573  29.465  1.00  0.00    -0.354 N 
ATOM     49  N   UNL A   1      44.577  29.421  28.189  1.00  0.00    -0.248 NA
ATOM     50  C   UNL A   1      46.727  29.680  27.313  1.00  0.00     0.031 C 
ATOM     51  C   UNL A   1      42.343  32.623  30.303  1.00  0.00     0.029 A 
ATOM     52  C   UNL A   1      43.051  31.647  29.622  1.00  0.00     0.049 A 
ATOM     53  H   UNL A   1      42.419  29.728  29.011  1.00  0.00     0.167 HD
ATOM     54  C   UNL A   1      45.042  30.693  28.493  1.00  0.00     0.074 A 
ATOM     55  C   UNL A   1      46.389  30.783  27.966  1.00  0.00     0.031 C 
ATOM     56  C   UNL A   1      44.405  31.703  29.134  1.00  0.00     0.034 A 
BRANCH  43  57
ATOM     57  C   UNL A   1      38.545  30.475  30.664  1.00  0.00     0.023 A 
ATOM     58  C   UNL A   1      38.344  30.374  32.055  1.00  0.00     0.012 A 
ATOM     59  C   UNL A   1      37.571  31.115  29.870  1.00  0.00     0.148 A 
ATOM     60  C   UNL A   1      37.179  30.871  32.641  1.00  0.00     0.002 A 
ATOM     61  C   UNL A   1      36.435  31.650  30.469  1.00  0.00     0.091 A 
ATOM     62  F   UNL A   1      37.773  31.191  28.547  1.00  0.00    -0.205 F 
ATOM     63  C   UNL A   1      36.232  31.518  31.851  1.00  0.00     0.022 A 
BRANCH  61  64
ATOM     64  S   UNL A   1      35.197  32.574  29.551  1.00  0.00     0.127 S 
ATOM     65  O   UNL A   1      34.616  31.532  28.705  1.00  0.00    -0.237 OA
ATOM     66  O   UNL A   1      34.317  33.051  30.618  1.00  0.00    -0.237 OA
ATOM     67  O   UNL A   1      35.916  33.622  28.841  1.00  0.00    -0.744 OA
ENDBRANCH  61  64
ENDBRANCH  43  57
BRANCH  44  68
ATOM     68  C   UNL A   1      46.808  26.942  26.258  1.00  0.00     0.023 A 
ATOM     69  C   UNL A   1      46.906  27.109  24.864  1.00  0.00     0.012 A 
ATOM     70  C   UNL A   1      47.874  26.333  26.953  1.00  0.00     0.148 A 
ATOM     71  C   UNL A   1      48.031  26.659  24.172  1.00  0.00     0.002 A 
ATOM     72  C   UNL A   1      49.018  25.947  26.267  1.00  0.00     0.091 A 
ATOM     73  F   UNL A   1      47.757  26.166  28.278  1.00  0.00    -0.205 F 
ATOM     74  C   UNL A   1      49.091  26.090  24.873  1.00  0.00     0.022 A 
BRANCH  72  75
ATOM     75  S   UNL A   1      50.486  25.340  27.105  1.00  0.00     0.127 S 
ATOM     76  O   UNL A   1      51.340  24.967  25.981  1.00  0.00    -0.237 OA
ATOM     77  O   UNL A   1      50.922  26.526  27.844  1.00  0.00    -0.237 OA
ATOM     78  O   UNL A   1      50.033  24.241  27.948  1.00  0.00    -0.744 OA
ENDBRANCH  72  75
ENDBRANCH  44  68
BRANCH  56  79
ATOM     79  C   UNL A   1      45.168  32.984  29.340  1.00  0.00     0.023 A 
ATOM     80  C   UNL A   1      45.998  33.134  30.469  1.00  0.00     0.012 A 
ATOM     81  C   UNL A   1      45.122  34.007  28.373  1.00  0.00     0.148 A 
ATOM     82  C   UNL A   1      46.748  34.295  30.646  1.00  0.00     0.002 A 
ATOM     83  C   UNL A   1      45.911  35.139  28.531  1.00  0.00     0.091 A 
ATOM     84  F   UNL A   1      44.312  33.850  27.316  1.00  0.00    -0.205 F 
ATOM     85  C   UNL A   1      46.716  35.290  29.672  1.00  0.00     0.022 A 
BRANCH  83  86
ATOM     86  S   UNL A   1      46.009  36.431  27.287  1.00  0.00     0.127 S 
ATOM     87  O   UNL A   1      44.651  36.972  27.313  1.00  0.00    -0.237 OA
ATOM     88  O   UNL A   1      47.030  37.318  27.845  1.00  0.00    -0.237 OA
ATOM     89  O   UNL A   1      46.388  35.771  26.045  1.00  0.00    -0.744 OA
ENDBRANCH  83  86
ENDBRANCH  56  79
ENDBRANCH  30  31
ENDBRANCH  23  25
ENDBRANCH  22  23
ENDBRANCH  21  22
ENDBRANCH   1  21
TORSDOF 18
ENDMDL
