MODEL 1
REMARK VINA RESULT:     -11.7      0.000      0.000
REMARK SMILES [NH3+][C@]1(C(=O)OCCOC(=O)c2ccc(-c3c4nc(c(-c5cccc(S(=O)(=O)[O-])c5F)c5ccc([nH]5)c(-c5cccc(S(=O)(=O)[O-])c5F)c5nc(c(-c6cccc(S(=O)(=O)[O-])c6F)c6ccc3[nH]6)C=C5)C=C4)cc2)CC[C@@H]([NH+]2CCC(C(F)(F)F)CC2)C1
REMARK SMILES IDX 7 1 6 2 5 3 3 4 4 5 2 6 74 7 87 8 75 9 76 10 1 11 77 15
REMARK SMILES IDX 78 16 86 17 79 19 85 20 80 21 81 22 82 23 83 24 84 25 8 26
REMARK SMILES IDX 9 27 10 28 11 29 12 30 73 31 13 32 72 33 14 34 15 35 16 36
REMARK SMILES IDX 66 37 17 38 71 39 65 40 67 41 18 42 70 43 64 44 63 45 19 47
REMARK SMILES IDX 51 48 31 49 50 50 32 51 35 52 49 53 68 54 33 55 34 56 48 58
REMARK SMILES IDX 69 59 36 60 20 61 21 62 29 63 22 64 24 65 30 66 23 67 25 68
REMARK SMILES IDX 26 69 27 70 28 71 52 72 53 73 61 74 54 75 56 76 62 77 55 78
REMARK SMILES IDX 57 79 58 80 59 81 60 82 37 83 38 84 46 85 39 86 41 87 47 88
REMARK SMILES IDX 40 89 42 90 43 91 44 92 45 93
REMARK H PARENT 1 12 1 13 1 14 77 18 67 46 35 57
REMARK Flexibility Score: inf
ROOT
ATOM      1  C   UNL A   1      36.309  20.359  24.985  1.00  0.00     0.275 C 
ENDROOT
BRANCH   1   2
ATOM      2  C   UNL A   1      34.825  20.559  25.273  1.00  0.00     0.274 C 
BRANCH   2   3
ATOM      3  O   UNL A   1      34.256  21.528  24.370  1.00  0.00    -0.457 OA
BRANCH   3   4
ATOM      4  C   UNL A   1      32.962  21.325  23.998  1.00  0.00     0.368 C 
ATOM      5  O   UNL A   1      32.323  20.300  24.221  1.00  0.00    -0.245 OA
BRANCH   4   6
ATOM      6  C   UNL A   1      32.394  22.497  23.164  1.00  0.00     0.198 C 
ATOM      7  C   UNL A   1      31.052  22.964  23.749  1.00  0.00     0.087 C 
ATOM      8  C   UNL A   1      33.240  23.777  23.230  1.00  0.00     0.145 C 
ATOM      9  C   UNL A   1      30.845  24.367  23.204  1.00  0.00     0.072 C 
ATOM     10  C   UNL A   1      32.259  24.967  23.109  1.00  0.00     0.191 C 
BRANCH   6  11
ATOM     11  N   UNL A   1      32.217  22.041  21.764  1.00  0.00    -0.343 N 
ATOM     12  H   UNL A   1      32.751  22.644  21.139  1.00  0.00     0.345 HD
ATOM     13  H   UNL A   1      31.229  22.082  21.515  1.00  0.00     0.345 HD
ATOM     14  H   UNL A   1      32.550  21.080  21.674  1.00  0.00     0.345 HD
ENDBRANCH   6  11
BRANCH  10  15
ATOM     15  N   UNL A   1      32.495  26.095  24.034  1.00  0.00    -0.332 N 
ATOM     16  C   UNL A   1      32.588  25.719  25.456  1.00  0.00     0.263 C 
ATOM     17  C   UNL A   1      33.651  26.893  23.606  1.00  0.00     0.263 C 
ATOM     18  H   UNL A   1      31.655  26.670  23.976  1.00  0.00     0.348 HD
ATOM     19  C   UNL A   1      32.727  26.949  26.355  1.00  0.00     0.074 C 
ATOM     20  C   UNL A   1      33.802  28.155  24.451  1.00  0.00     0.074 C 
ATOM     21  C   UNL A   1      33.924  27.805  25.937  1.00  0.00     0.106 C 
BRANCH  21  22
ATOM     22  C   UNL A   1      34.036  29.058  26.782  1.00  0.00     0.392 C 
ATOM     23  F   UNL A   1      33.668  30.151  26.082  1.00  0.00    -0.171 F 
ATOM     24  F   UNL A   1      33.224  28.977  27.862  1.00  0.00    -0.171 F 
ATOM     25  F   UNL A   1      35.294  29.253  27.232  1.00  0.00    -0.171 F 
ENDBRANCH  21  22
ENDBRANCH  10  15
ENDBRANCH   4   6
ENDBRANCH   3   4
ENDBRANCH   2   3
ENDBRANCH   1   2
BRANCH   1  26
ATOM     26  O   UNL A   1      37.059  21.461  25.518  1.00  0.00    -0.458 OA
BRANCH  26  27
ATOM     27  C   UNL A   1      38.368  21.222  25.758  1.00  0.00     0.338 C 
ATOM     28  O   UNL A   1      39.008  20.226  25.473  1.00  0.00    -0.246 OA
BRANCH  27  29
ATOM     29  C   UNL A   1      38.969  22.395  26.410  1.00  0.00     0.060 A 
ATOM     30  C   UNL A   1      38.474  23.667  26.129  1.00  0.00     0.016 A 
ATOM     31  C   UNL A   1      40.112  22.242  27.191  1.00  0.00     0.016 A 
ATOM     32  C   UNL A   1      39.187  24.796  26.528  1.00  0.00     0.010 A 
ATOM     33  C   UNL A   1      40.762  23.377  27.685  1.00  0.00     0.010 A 
ATOM     34  C   UNL A   1      40.339  24.668  27.318  1.00  0.00    -0.014 A 
BRANCH  34  35
ATOM     35  C   UNL A   1      41.130  25.861  27.736  1.00  0.00     0.031 A 
ATOM     36  C   UNL A   1      40.487  26.930  28.585  1.00  0.00     0.074 A 
ATOM     37  C   UNL A   1      42.407  26.019  27.332  1.00  0.00     0.049 A 
ATOM     38  N   UNL A   1      40.914  28.135  28.862  1.00  0.00    -0.248 NA
ATOM     39  C   UNL A   1      39.181  26.608  29.183  1.00  0.00     0.031 C 
ATOM     40  C   UNL A   1      43.165  25.066  26.520  1.00  0.00     0.029 A 
ATOM     41  N   UNL A   1      43.288  27.055  27.534  1.00  0.00    -0.354 N 
ATOM     42  C   UNL A   1      39.893  28.744  29.584  1.00  0.00     0.074 A 
ATOM     43  C   UNL A   1      38.834  27.769  29.722  1.00  0.00     0.031 C 
ATOM     44  C   UNL A   1      44.398  25.551  26.307  1.00  0.00     0.029 A 
ATOM     45  C   UNL A   1      44.496  26.880  26.897  1.00  0.00     0.049 A 
ATOM     46  H   UNL A   1      43.076  27.845  28.081  1.00  0.00     0.167 HD
ATOM     47  C   UNL A   1      39.845  29.999  30.092  1.00  0.00     0.034 A 
ATOM     48  C   UNL A   1      45.551  27.709  26.764  1.00  0.00     0.034 A 
ATOM     49  C   UNL A   1      40.936  30.935  30.042  1.00  0.00     0.049 A 
ATOM     50  C   UNL A   1      45.493  29.079  27.380  1.00  0.00     0.074 A 
ATOM     51  C   UNL A   1      40.997  32.214  30.566  1.00  0.00     0.029 A 
ATOM     52  N   UNL A   1      42.166  30.684  29.455  1.00  0.00    -0.354 N 
ATOM     53  N   UNL A   1      44.532  29.624  28.086  1.00  0.00    -0.248 NA
ATOM     54  C   UNL A   1      46.665  29.945  27.190  1.00  0.00     0.031 C 
ATOM     55  C   UNL A   1      42.269  32.734  30.303  1.00  0.00     0.029 A 
ATOM     56  C   UNL A   1      42.998  31.778  29.615  1.00  0.00     0.049 A 
ATOM     57  H   UNL A   1      42.412  29.850  28.993  1.00  0.00     0.167 HD
ATOM     58  C   UNL A   1      44.988  30.889  28.437  1.00  0.00     0.074 A 
ATOM     59  C   UNL A   1      46.324  31.019  27.891  1.00  0.00     0.031 C 
ATOM     60  C   UNL A   1      44.348  31.867  29.123  1.00  0.00     0.034 A 
BRANCH  47  61
ATOM     61  C   UNL A   1      38.579  30.427  30.785  1.00  0.00     0.023 A 
ATOM     62  C   UNL A   1      38.410  30.162  32.158  1.00  0.00     0.012 A 
ATOM     63  C   UNL A   1      37.583  31.142  30.091  1.00  0.00     0.148 A 
ATOM     64  C   UNL A   1      37.259  30.581  32.824  1.00  0.00     0.002 A 
ATOM     65  C   UNL A   1      36.455  31.589  30.769  1.00  0.00     0.091 A 
ATOM     66  F   UNL A   1      37.747  31.360  28.777  1.00  0.00    -0.205 F 
ATOM     67  C   UNL A   1      36.287  31.302  32.134  1.00  0.00     0.022 A 
BRANCH  65  68
ATOM     68  S   UNL A   1      35.193  32.589  29.970  1.00  0.00     0.127 S 
ATOM     69  O   UNL A   1      34.278  32.855  31.078  1.00  0.00    -0.237 OA
ATOM     70  O   UNL A   1      35.954  33.754  29.517  1.00  0.00    -0.237 OA
ATOM     71  O   UNL A   1      34.662  31.764  28.894  1.00  0.00    -0.744 OA
ENDBRANCH  65  68
ENDBRANCH  47  61
BRANCH  48  72
ATOM     72  C   UNL A   1      46.765  27.244  26.035  1.00  0.00     0.023 A 
ATOM     73  C   UNL A   1      46.887  27.519  24.659  1.00  0.00     0.012 A 
ATOM     74  C   UNL A   1      47.821  26.592  26.699  1.00  0.00     0.148 A 
ATOM     75  C   UNL A   1      48.033  27.144  23.957  1.00  0.00     0.002 A 
ATOM     76  C   UNL A   1      48.986  26.276  26.007  1.00  0.00     0.091 A 
ATOM     77  F   UNL A   1      47.678  26.310  28.002  1.00  0.00    -0.205 F 
ATOM     78  C   UNL A   1      49.089  26.538  24.635  1.00  0.00     0.022 A 
BRANCH  76  79
ATOM     79  S   UNL A   1      50.440  25.639  26.850  1.00  0.00     0.127 S 
ATOM     80  O   UNL A   1      50.729  26.706  27.803  1.00  0.00    -0.237 OA
ATOM     81  O   UNL A   1      49.936  24.401  27.447  1.00  0.00    -0.237 OA
ATOM     82  O   UNL A   1      51.428  25.429  25.799  1.00  0.00    -0.744 OA
ENDBRANCH  76  79
ENDBRANCH  48  72
BRANCH  60  83
ATOM     83  C   UNL A   1      45.086  33.157  29.348  1.00  0.00     0.023 A 
ATOM     84  C   UNL A   1      45.919  33.288  30.477  1.00  0.00     0.012 A 
ATOM     85  C   UNL A   1      45.020  34.204  28.410  1.00  0.00     0.148 A 
ATOM     86  C   UNL A   1      46.661  34.450  30.679  1.00  0.00     0.002 A 
ATOM     87  C   UNL A   1      45.790  35.347  28.599  1.00  0.00     0.091 A 
ATOM     88  F   UNL A   1      44.202  34.070  27.356  1.00  0.00    -0.205 F 
ATOM     89  C   UNL A   1      46.606  35.473  29.735  1.00  0.00     0.022 A 
BRANCH  87  90
ATOM     90  S   UNL A   1      45.834  36.674  27.389  1.00  0.00     0.127 S 
ATOM     91  O   UNL A   1      46.667  37.667  28.066  1.00  0.00    -0.237 OA
ATOM     92  O   UNL A   1      46.467  36.032  26.236  1.00  0.00    -0.237 OA
ATOM     93  O   UNL A   1      44.444  37.056  27.173  1.00  0.00    -0.744 OA
ENDBRANCH  87  90
ENDBRANCH  60  83
ENDBRANCH  34  35
ENDBRANCH  27  29
ENDBRANCH  26  27
ENDBRANCH   1  26
TORSDOF 17
ENDMDL
MODEL 2
REMARK VINA RESULT:     -11.7      1.480      2.026
REMARK SMILES [NH3+][C@]1(C(=O)OCCOC(=O)c2ccc(-c3c4nc(c(-c5cccc(S(=O)(=O)[O-])c5F)c5ccc([nH]5)c(-c5cccc(S(=O)(=O)[O-])c5F)c5nc(c(-c6cccc(S(=O)(=O)[O-])c6F)c6ccc3[nH]6)C=C5)C=C4)cc2)CC[C@@H]([NH+]2CCC(C(F)(F)F)CC2)C1
REMARK SMILES IDX 7 1 6 2 5 3 3 4 4 5 2 6 74 7 87 8 75 9 76 10 1 11 77 15
REMARK SMILES IDX 78 16 86 17 79 19 85 20 80 21 81 22 82 23 83 24 84 25 8 26
REMARK SMILES IDX 9 27 10 28 11 29 12 30 73 31 13 32 72 33 14 34 15 35 16 36
REMARK SMILES IDX 66 37 17 38 71 39 65 40 67 41 18 42 70 43 64 44 63 45 19 47
REMARK SMILES IDX 51 48 31 49 50 50 32 51 35 52 49 53 68 54 33 55 34 56 48 58
REMARK SMILES IDX 69 59 36 60 20 61 21 62 29 63 22 64 24 65 30 66 23 67 25 68
REMARK SMILES IDX 26 69 27 70 28 71 52 72 53 73 61 74 54 75 56 76 62 77 55 78
REMARK SMILES IDX 57 79 58 80 59 81 60 82 37 83 38 84 46 85 39 86 41 87 47 88
REMARK SMILES IDX 40 89 42 90 43 91 44 92 45 93
REMARK H PARENT 1 12 1 13 1 14 77 18 67 46 35 57
REMARK Flexibility Score: inf
ROOT
ATOM      1  C   UNL A   1      36.471  20.416  24.698  1.00  0.00     0.275 C 
ENDROOT
BRANCH   1   2
ATOM      2  C   UNL A   1      35.005  20.283  25.099  1.00  0.00     0.274 C 
BRANCH   2   3
ATOM      3  O   UNL A   1      34.229  21.372  24.562  1.00  0.00    -0.457 OA
BRANCH   3   4
ATOM      4  C   UNL A   1      33.345  21.966  25.411  1.00  0.00     0.368 C 
ATOM      5  O   UNL A   1      32.233  21.523  25.683  1.00  0.00    -0.245 OA
BRANCH   4   6
ATOM      6  C   UNL A   1      33.851  23.331  25.934  1.00  0.00     0.198 C 
ATOM      7  C   UNL A   1      34.467  24.144  24.786  1.00  0.00     0.087 C 
ATOM      8  C   UNL A   1      32.736  24.262  26.430  1.00  0.00     0.145 C 
ATOM      9  C   UNL A   1      34.464  25.584  25.269  1.00  0.00     0.072 C 
ATOM     10  C   UNL A   1      33.197  25.708  26.134  1.00  0.00     0.191 C 
BRANCH   6  11
ATOM     11  N   UNL A   1      34.859  23.087  26.995  1.00  0.00    -0.343 N 
ATOM     12  H   UNL A   1      34.757  22.137  27.350  1.00  0.00     0.345 HD
ATOM     13  H   UNL A   1      34.720  23.752  27.755  1.00  0.00     0.345 HD
ATOM     14  H   UNL A   1      35.796  23.205  26.607  1.00  0.00     0.345 HD
ENDBRANCH   6  11
BRANCH  10  15
ATOM     15  N   UNL A   1      32.172  26.610  25.569  1.00  0.00    -0.332 N 
ATOM     16  C   UNL A   1      32.605  28.008  25.402  1.00  0.00     0.263 C 
ATOM     17  C   UNL A   1      31.616  26.060  24.325  1.00  0.00     0.263 C 
ATOM     18  H   UNL A   1      31.435  26.653  26.271  1.00  0.00     0.348 HD
ATOM     19  C   UNL A   1      31.460  28.898  24.911  1.00  0.00     0.074 C 
ATOM     20  C   UNL A   1      30.440  26.895  23.823  1.00  0.00     0.074 C 
ATOM     21  C   UNL A   1      30.856  28.353  23.615  1.00  0.00     0.106 C 
BRANCH  21  22
ATOM     22  C   UNL A   1      29.681  29.192  23.153  1.00  0.00     0.392 C 
ATOM     23  F   UNL A   1      29.608  30.349  23.845  1.00  0.00    -0.171 F 
ATOM     24  F   UNL A   1      29.810  29.510  21.844  1.00  0.00    -0.171 F 
ATOM     25  F   UNL A   1      28.508  28.541  23.300  1.00  0.00    -0.171 F 
ENDBRANCH  21  22
ENDBRANCH  10  15
ENDBRANCH   4   6
ENDBRANCH   3   4
ENDBRANCH   2   3
ENDBRANCH   1   2
BRANCH   1  26
ATOM     26  O   UNL A   1      37.120  21.376  25.546  1.00  0.00    -0.458 OA
BRANCH  26  27
ATOM     27  C   UNL A   1      38.427  21.146  25.803  1.00  0.00     0.338 C 
ATOM     28  O   UNL A   1      39.074  20.147  25.541  1.00  0.00    -0.246 OA
BRANCH  27  29
ATOM     29  C   UNL A   1      39.018  22.331  26.442  1.00  0.00     0.060 A 
ATOM     30  C   UNL A   1      38.510  23.595  26.147  1.00  0.00     0.016 A 
ATOM     31  C   UNL A   1      40.162  22.197  27.224  1.00  0.00     0.016 A 
ATOM     32  C   UNL A   1      39.212  24.735  26.534  1.00  0.00     0.010 A 
ATOM     33  C   UNL A   1      40.801  23.344  27.705  1.00  0.00     0.010 A 
ATOM     34  C   UNL A   1      40.366  24.627  27.324  1.00  0.00    -0.014 A 
BRANCH  34  35
ATOM     35  C   UNL A   1      41.146  25.832  27.729  1.00  0.00     0.031 A 
ATOM     36  C   UNL A   1      40.495  26.901  28.572  1.00  0.00     0.074 A 
ATOM     37  C   UNL A   1      42.419  26.000  27.318  1.00  0.00     0.049 A 
ATOM     38  N   UNL A   1      40.909  28.113  28.837  1.00  0.00    -0.248 NA
ATOM     39  C   UNL A   1      39.194  26.570  29.178  1.00  0.00     0.031 C 
ATOM     40  C   UNL A   1      43.184  25.049  26.511  1.00  0.00     0.029 A 
ATOM     41  N   UNL A   1      43.290  27.048  27.507  1.00  0.00    -0.354 N 
ATOM     42  C   UNL A   1      39.885  28.717  29.559  1.00  0.00     0.074 A 
ATOM     43  C   UNL A   1      38.837  27.732  29.709  1.00  0.00     0.031 C 
ATOM     44  C   UNL A   1      44.411  25.545  26.288  1.00  0.00     0.029 A 
ATOM     45  C   UNL A   1      44.497  26.881  26.867  1.00  0.00     0.049 A 
ATOM     46  H   UNL A   1      43.072  27.840  28.049  1.00  0.00     0.167 HD
ATOM     47  C   UNL A   1      39.826  29.975  30.056  1.00  0.00     0.034 A 
ATOM     48  C   UNL A   1      45.542  27.719  26.723  1.00  0.00     0.034 A 
ATOM     49  C   UNL A   1      40.906  30.922  29.994  1.00  0.00     0.049 A 
ATOM     50  C   UNL A   1      45.472  29.094  27.327  1.00  0.00     0.074 A 
ATOM     51  C   UNL A   1      40.955  32.207  30.507  1.00  0.00     0.029 A 
ATOM     52  N   UNL A   1      42.137  30.680  29.403  1.00  0.00    -0.354 N 
ATOM     53  N   UNL A   1      44.507  29.635  28.033  1.00  0.00    -0.248 NA
ATOM     54  C   UNL A   1      46.633  29.971  27.125  1.00  0.00     0.031 C 
ATOM     55  C   UNL A   1      42.221  32.739  30.234  1.00  0.00     0.029 A 
ATOM     56  C   UNL A   1      42.957  31.785  29.551  1.00  0.00     0.049 A 
ATOM     57  H   UNL A   1      42.389  29.845  28.947  1.00  0.00     0.167 HD
ATOM     58  C   UNL A   1      44.952  30.907  28.371  1.00  0.00     0.074 A 
ATOM     59  C   UNL A   1      46.284  31.047  27.819  1.00  0.00     0.031 C 
ATOM     60  C   UNL A   1      44.304  31.884  29.052  1.00  0.00     0.034 A 
BRANCH  47  61
ATOM     61  C   UNL A   1      38.558  30.395  30.751  1.00  0.00     0.023 A 
ATOM     62  C   UNL A   1      38.379  30.102  32.117  1.00  0.00     0.012 A 
ATOM     63  C   UNL A   1      37.570  31.131  30.067  1.00  0.00     0.148 A 
ATOM     64  C   UNL A   1      37.227  30.513  32.785  1.00  0.00     0.002 A 
ATOM     65  C   UNL A   1      36.440  31.569  30.748  1.00  0.00     0.091 A 
ATOM     66  F   UNL A   1      37.743  31.376  28.759  1.00  0.00    -0.205 F 
ATOM     67  C   UNL A   1      36.263  31.254  32.105  1.00  0.00     0.022 A 
BRANCH  65  68
ATOM     68  S   UNL A   1      35.188  32.594  29.964  1.00  0.00     0.127 S 
ATOM     69  O   UNL A   1      34.699  31.710  28.907  1.00  0.00    -0.237 OA
ATOM     70  O   UNL A   1      34.239  32.822  31.054  1.00  0.00    -0.237 OA
ATOM     71  O   UNL A   1      35.887  33.790  29.515  1.00  0.00    -0.744 OA
ENDBRANCH  65  68
ENDBRANCH  47  61
BRANCH  48  72
ATOM     72  C   UNL A   1      46.758  27.262  25.992  1.00  0.00     0.023 A 
ATOM     73  C   UNL A   1      46.886  27.555  24.621  1.00  0.00     0.012 A 
ATOM     74  C   UNL A   1      47.810  26.598  26.652  1.00  0.00     0.148 A 
ATOM     75  C   UNL A   1      48.034  27.187  23.918  1.00  0.00     0.002 A 
ATOM     76  C   UNL A   1      48.976  26.289  25.960  1.00  0.00     0.091 A 
ATOM     77  F   UNL A   1      47.660  26.299  27.950  1.00  0.00    -0.205 F 
ATOM     78  C   UNL A   1      49.086  26.569  24.592  1.00  0.00     0.022 A 
BRANCH  76  79
ATOM     79  S   UNL A   1      50.426  25.637  26.800  1.00  0.00     0.127 S 
ATOM     80  O   UNL A   1      51.359  25.455  25.694  1.00  0.00    -0.237 OA
ATOM     81  O   UNL A   1      50.766  26.724  27.720  1.00  0.00    -0.237 OA
ATOM     82  O   UNL A   1      49.968  24.423  27.463  1.00  0.00    -0.744 OA
ENDBRANCH  76  79
ENDBRANCH  48  72
BRANCH  60  83
ATOM     83  C   UNL A   1      45.029  33.184  29.263  1.00  0.00     0.023 A 
ATOM     84  C   UNL A   1      45.879  33.326  30.378  1.00  0.00     0.012 A 
ATOM     85  C   UNL A   1      44.933  34.229  28.325  1.00  0.00     0.148 A 
ATOM     86  C   UNL A   1      46.609  34.499  30.565  1.00  0.00     0.002 A 
ATOM     87  C   UNL A   1      45.691  35.381  28.500  1.00  0.00     0.091 A 
ATOM     88  F   UNL A   1      44.099  34.083  27.285  1.00  0.00    -0.205 F 
ATOM     89  C   UNL A   1      46.525  35.520  29.621  1.00  0.00     0.022 A 
BRANCH  87  90
ATOM     90  S   UNL A   1      45.697  36.707  27.288  1.00  0.00     0.127 S 
ATOM     91  O   UNL A   1      46.482  37.734  27.973  1.00  0.00    -0.237 OA
ATOM     92  O   UNL A   1      46.369  36.089  26.144  1.00  0.00    -0.237 OA
ATOM     93  O   UNL A   1      44.297  37.034  27.054  1.00  0.00    -0.744 OA
ENDBRANCH  87  90
ENDBRANCH  60  83
ENDBRANCH  34  35
ENDBRANCH  27  29
ENDBRANCH  26  27
ENDBRANCH   1  26
TORSDOF 17
ENDMDL
MODEL 3
REMARK VINA RESULT:     -11.6      5.247     10.149
REMARK SMILES [NH3+][C@]1(C(=O)OCCOC(=O)c2ccc(-c3c4nc(c(-c5cccc(S(=O)(=O)[O-])c5F)c5ccc([nH]5)c(-c5cccc(S(=O)(=O)[O-])c5F)c5nc(c(-c6cccc(S(=O)(=O)[O-])c6F)c6ccc3[nH]6)C=C5)C=C4)cc2)CC[C@@H]([NH+]2CCC(C(F)(F)F)CC2)C1
REMARK SMILES IDX 7 1 6 2 5 3 3 4 4 5 2 6 74 7 87 8 75 9 76 10 1 11 77 15
REMARK SMILES IDX 78 16 86 17 79 19 85 20 80 21 81 22 82 23 83 24 84 25 8 26
REMARK SMILES IDX 9 27 10 28 11 29 12 30 73 31 13 32 72 33 14 34 15 35 16 36
REMARK SMILES IDX 66 37 17 38 71 39 65 40 67 41 18 42 70 43 64 44 63 45 19 47
REMARK SMILES IDX 51 48 31 49 50 50 32 51 35 52 49 53 68 54 33 55 34 56 48 58
REMARK SMILES IDX 69 59 36 60 20 61 21 62 29 63 22 64 24 65 30 66 23 67 25 68
REMARK SMILES IDX 26 69 27 70 28 71 52 72 53 73 61 74 54 75 56 76 62 77 55 78
REMARK SMILES IDX 57 79 58 80 59 81 60 82 37 83 38 84 46 85 39 86 41 87 47 88
REMARK SMILES IDX 40 89 42 90 43 91 44 92 45 93
REMARK H PARENT 1 12 1 13 1 14 77 18 67 46 35 57
REMARK Flexibility Score: inf
ROOT
ATOM      1  C   UNL A   1      31.396  30.264  25.479  1.00  0.00     0.275 C 
ENDROOT
BRANCH   1   2
ATOM      2  C   UNL A   1      31.246  29.281  24.323  1.00  0.00     0.274 C 
BRANCH   2   3
ATOM      3  O   UNL A   1      32.309  28.308  24.340  1.00  0.00    -0.457 OA
BRANCH   3   4
ATOM      4  C   UNL A   1      31.939  27.002  24.223  1.00  0.00     0.368 C 
ATOM      5  O   UNL A   1      31.227  26.555  23.328  1.00  0.00    -0.245 OA
BRANCH   4   6
ATOM      6  C   UNL A   1      32.434  26.137  25.406  1.00  0.00     0.198 C 
ATOM      7  C   UNL A   1      31.299  25.236  25.916  1.00  0.00     0.087 C 
ATOM      8  C   UNL A   1      33.514  25.116  25.024  1.00  0.00     0.145 C 
ATOM      9  C   UNL A   1      31.989  24.125  26.690  1.00  0.00     0.072 C 
ATOM     10  C   UNL A   1      33.316  23.891  25.946  1.00  0.00     0.191 C 
BRANCH   6  11
ATOM     11  N   UNL A   1      32.904  27.039  26.487  1.00  0.00    -0.343 N 
ATOM     12  H   UNL A   1      32.411  26.818  27.352  1.00  0.00     0.345 HD
ATOM     13  H   UNL A   1      32.719  28.007  26.227  1.00  0.00     0.345 HD
ATOM     14  H   UNL A   1      33.907  26.910  26.625  1.00  0.00     0.345 HD
ENDBRANCH   6  11
BRANCH  10  15
ATOM     15  N   UNL A   1      33.411  22.568  25.294  1.00  0.00    -0.332 N 
ATOM     16  C   UNL A   1      34.488  21.703  25.804  1.00  0.00     0.263 C 
ATOM     17  C   UNL A   1      32.112  21.882  25.305  1.00  0.00     0.263 C 
ATOM     18  H   UNL A   1      33.675  22.763  24.329  1.00  0.00     0.348 HD
ATOM     19  C   UNL A   1      34.588  20.398  25.011  1.00  0.00     0.074 C 
ATOM     20  C   UNL A   1      32.154  20.594  24.487  1.00  0.00     0.074 C 
ATOM     21  C   UNL A   1      33.249  19.657  25.002  1.00  0.00     0.106 C 
BRANCH  21  22
ATOM     22  C   UNL A   1      33.319  18.393  24.168  1.00  0.00     0.392 C 
ATOM     23  F   UNL A   1      32.601  17.399  24.731  1.00  0.00    -0.171 F 
ATOM     24  F   UNL A   1      32.810  18.610  22.933  1.00  0.00    -0.171 F 
ATOM     25  F   UNL A   1      34.588  17.958  24.015  1.00  0.00    -0.171 F 
ENDBRANCH  21  22
ENDBRANCH  10  15
ENDBRANCH   4   6
ENDBRANCH   3   4
ENDBRANCH   2   3
ENDBRANCH   1   2
BRANCH   1  26
ATOM     26  O   UNL A   1      32.723  30.177  26.020  1.00  0.00    -0.458 OA
BRANCH  26  27
ATOM     27  C   UNL A   1      33.074  31.157  26.882  1.00  0.00     0.338 C 
ATOM     28  O   UNL A   1      32.406  32.112  27.236  1.00  0.00    -0.246 OA
BRANCH  27  29
ATOM     29  C   UNL A   1      34.425  30.895  27.400  1.00  0.00     0.060 A 
ATOM     30  C   UNL A   1      34.831  29.582  27.626  1.00  0.00     0.016 A 
ATOM     31  C   UNL A   1      35.235  31.960  27.789  1.00  0.00     0.016 A 
ATOM     32  C   UNL A   1      35.995  29.328  28.351  1.00  0.00     0.010 A 
ATOM     33  C   UNL A   1      36.456  31.698  28.416  1.00  0.00     0.010 A 
ATOM     34  C   UNL A   1      36.829  30.383  28.752  1.00  0.00    -0.014 A 
BRANCH  34  35
ATOM     35  C   UNL A   1      38.065  30.135  29.548  1.00  0.00     0.031 A 
ATOM     36  C   UNL A   1      39.157  29.257  28.988  1.00  0.00     0.074 A 
ATOM     37  C   UNL A   1      38.205  30.655  30.784  1.00  0.00     0.049 A 
ATOM     38  N   UNL A   1      40.192  28.735  29.594  1.00  0.00    -0.248 NA
ATOM     39  C   UNL A   1      39.061  28.903  27.562  1.00  0.00     0.031 C 
ATOM     40  C   UNL A   1      37.242  31.531  31.452  1.00  0.00     0.029 A 
ATOM     41  N   UNL A   1      39.210  30.504  31.711  1.00  0.00    -0.354 N 
ATOM     42  C   UNL A   1      40.813  27.920  28.654  1.00  0.00     0.074 A 
ATOM     43  C   UNL A   1      40.053  28.034  27.429  1.00  0.00     0.031 C 
ATOM     44  C   UNL A   1      37.706  31.851  32.670  1.00  0.00     0.029 A 
ATOM     45  C   UNL A   1      38.960  31.145  32.902  1.00  0.00     0.049 A 
ATOM     46  H   UNL A   1      40.030  29.987  31.538  1.00  0.00     0.167 HD
ATOM     47  C   UNL A   1      41.920  27.153  28.796  1.00  0.00     0.034 A 
ATOM     48  C   UNL A   1      39.637  31.137  34.068  1.00  0.00     0.034 A 
ATOM     49  C   UNL A   1      42.733  27.115  29.981  1.00  0.00     0.049 A 
ATOM     50  C   UNL A   1      40.891  30.315  34.185  1.00  0.00     0.074 A 
ATOM     51  C   UNL A   1      43.897  26.401  30.205  1.00  0.00     0.029 A 
ATOM     52  N   UNL A   1      42.482  27.842  31.135  1.00  0.00    -0.354 N 
ATOM     53  N   UNL A   1      41.479  29.577  33.274  1.00  0.00    -0.248 NA
ATOM     54  C   UNL A   1      41.579  30.331  35.483  1.00  0.00     0.031 C 
ATOM     55  C   UNL A   1      44.355  26.703  31.492  1.00  0.00     0.029 A 
ATOM     56  C   UNL A   1      43.476  27.605  32.069  1.00  0.00     0.049 A 
ATOM     57  H   UNL A   1      41.711  28.439  31.270  1.00  0.00     0.167 HD
ATOM     58  C   UNL A   1      42.613  29.054  33.884  1.00  0.00     0.074 A 
ATOM     59  C   UNL A   1      42.646  29.582  35.233  1.00  0.00     0.031 C 
ATOM     60  C   UNL A   1      43.529  28.189  33.383  1.00  0.00     0.034 A 
BRANCH  47  61
ATOM     61  C   UNL A   1      42.345  26.311  27.622  1.00  0.00     0.023 A 
ATOM     62  C   UNL A   1      43.219  26.848  26.657  1.00  0.00     0.012 A 
ATOM     63  C   UNL A   1      41.925  24.971  27.506  1.00  0.00     0.148 A 
ATOM     64  C   UNL A   1      43.651  26.073  25.582  1.00  0.00     0.002 A 
ATOM     65  C   UNL A   1      42.388  24.192  26.451  1.00  0.00     0.091 A 
ATOM     66  F   UNL A   1      41.070  24.485  28.417  1.00  0.00    -0.205 F 
ATOM     67  C   UNL A   1      43.244  24.744  25.483  1.00  0.00     0.022 A 
BRANCH  65  68
ATOM     68  S   UNL A   1      41.973  22.450  26.294  1.00  0.00     0.127 S 
ATOM     69  O   UNL A   1      42.654  22.092  25.052  1.00  0.00    -0.237 OA
ATOM     70  O   UNL A   1      42.566  21.875  27.502  1.00  0.00    -0.237 OA
ATOM     71  O   UNL A   1      40.517  22.397  26.257  1.00  0.00    -0.744 OA
ENDBRANCH  65  68
ENDBRANCH  47  61
BRANCH  48  72
ATOM     72  C   UNL A   1      39.148  31.961  35.210  1.00  0.00     0.023 A 
ATOM     73  C   UNL A   1      38.245  31.393  36.129  1.00  0.00     0.012 A 
ATOM     74  C   UNL A   1      39.614  33.271  35.427  1.00  0.00     0.148 A 
ATOM     75  C   UNL A   1      37.807  32.120  37.237  1.00  0.00     0.002 A 
ATOM     76  C   UNL A   1      39.222  33.967  36.566  1.00  0.00     0.091 A 
ATOM     77  F   UNL A   1      40.450  33.808  34.527  1.00  0.00    -0.205 F 
ATOM     78  C   UNL A   1      38.309  33.399  37.465  1.00  0.00     0.022 A 
BRANCH  76  79
ATOM     79  S   UNL A   1      39.950  35.551  37.000  1.00  0.00     0.127 S 
ATOM     80  O   UNL A   1      39.278  35.858  38.259  1.00  0.00    -0.237 OA
ATOM     81  O   UNL A   1      41.370  35.217  37.126  1.00  0.00    -0.237 OA
ATOM     82  O   UNL A   1      39.647  36.431  35.878  1.00  0.00    -0.744 OA
ENDBRANCH  76  79
ENDBRANCH  48  72
BRANCH  60  83
ATOM     83  C   UNL A   1      44.660  27.775  34.282  1.00  0.00     0.023 A 
ATOM     84  C   UNL A   1      45.791  28.609  34.398  1.00  0.00     0.012 A 
ATOM     85  C   UNL A   1      44.573  26.611  35.069  1.00  0.00     0.148 A 
ATOM     86  C   UNL A   1      46.827  28.279  35.269  1.00  0.00     0.002 A 
ATOM     87  C   UNL A   1      45.595  26.306  35.961  1.00  0.00     0.091 A 
ATOM     88  F   UNL A   1      43.501  25.819  34.925  1.00  0.00    -0.205 F 
ATOM     89  C   UNL A   1      46.724  27.136  36.059  1.00  0.00     0.022 A 
BRANCH  87  90
ATOM     90  S   UNL A   1      45.499  24.896  37.069  1.00  0.00     0.127 S 
ATOM     91  O   UNL A   1      45.374  23.784  36.127  1.00  0.00    -0.237 OA
ATOM     92  O   UNL A   1      46.781  24.956  37.773  1.00  0.00    -0.237 OA
ATOM     93  O   UNL A   1      44.339  25.139  37.918  1.00  0.00    -0.744 OA
ENDBRANCH  87  90
ENDBRANCH  60  83
ENDBRANCH  34  35
ENDBRANCH  27  29
ENDBRANCH  26  27
ENDBRANCH   1  26
TORSDOF 17
ENDMDL
