MODEL 1
REMARK VINA RESULT:     -11.4      0.000      0.000
REMARK SMILES COc1ccc2cc([C@@H](C)C(=O)OCCOC(=O)c3ccc(-c4c5nc(c(-c6cccc(S(=O)(=O)[O-])c6F)c6ccc([nH]6)c(-c6cccc(S(=O)(=O)[O-])c6F)c6nc(c(-c7cccc(S(=O)(=O)[O-])c7F)c7ccc4[nH]7)C=C6)C=C5)cc3)ccc2c1
REMARK SMILES IDX 15 1 14 2 13 3 11 4 12 5 9 6 10 7 8 8 3 9 4 10 85 11 5 12
REMARK SMILES IDX 84 13 6 14 83 15 7 16 82 17 2 18 1 19 16 20 17 21 18 22
REMARK SMILES IDX 19 23 20 24 81 25 21 26 80 27 22 28 23 29 24 30 74 31 25 32
REMARK SMILES IDX 79 33 73 34 75 35 26 36 78 37 72 38 71 39 27 41 59 42 39 43
REMARK SMILES IDX 58 44 40 45 43 46 57 47 76 48 41 49 42 50 56 52 77 53 44 54
REMARK SMILES IDX 28 55 29 56 37 57 30 58 32 59 38 60 31 61 33 62 34 63 35 64
REMARK SMILES IDX 36 65 60 66 61 67 69 68 62 69 64 70 70 71 63 72 65 73 66 74
REMARK SMILES IDX 67 75 68 76 45 77 46 78 54 79 47 80 49 81 55 82 48 83 50 84
REMARK SMILES IDX 51 85 52 86 53 87
REMARK H PARENT 75 40 43 51
REMARK Flexibility Score: inf
ROOT
ATOM      1  C   UNL A   1      37.411  19.879  25.022  1.00  0.00     0.275 C 
ENDROOT
BRANCH   1   2
ATOM      2  C   UNL A   1      35.899  20.114  25.005  1.00  0.00     0.274 C 
BRANCH   2   3
ATOM      3  O   UNL A   1      35.585  21.520  25.031  1.00  0.00    -0.462 OA
BRANCH   3   4
ATOM      4  C   UNL A   1      34.550  21.930  24.253  1.00  0.00     0.313 C 
ATOM      5  O   UNL A   1      33.454  21.380  24.221  1.00  0.00    -0.252 OA
BRANCH   4   6
ATOM      6  C   UNL A   1      34.882  23.115  23.353  1.00  0.00     0.126 C 
ATOM      7  C   UNL A   1      36.397  23.296  23.279  1.00  0.00     0.025 C 
BRANCH   6   8
ATOM      8  C   UNL A   1      34.163  24.422  23.659  1.00  0.00    -0.033 A 
ATOM      9  C   UNL A   1      31.108  28.482  23.765  1.00  0.00     0.119 A 
ATOM     10  C   UNL A   1      30.832  27.821  22.571  1.00  0.00     0.047 A 
ATOM     11  C   UNL A   1      32.113  28.006  24.607  1.00  0.00     0.055 A 
ATOM     12  C   UNL A   1      31.523  26.652  22.245  1.00  0.00     0.012 A 
ATOM     13  C   UNL A   1      32.809  26.827  24.298  1.00  0.00    -0.015 A 
ATOM     14  C   UNL A   1      32.501  26.134  23.107  1.00  0.00    -0.018 A 
ATOM     15  C   UNL A   1      33.801  26.316  25.146  1.00  0.00     0.009 A 
ATOM     16  C   UNL A   1      33.179  24.941  22.804  1.00  0.00     0.013 A 
ATOM     17  C   UNL A   1      34.468  25.129  24.831  1.00  0.00     0.005 A 
BRANCH   9  18
ATOM     18  O   UNL A   1      30.473  29.625  24.170  1.00  0.00    -0.497 OA
ATOM     19  C   UNL A   1      29.517  30.111  23.232  1.00  0.00     0.278 C 
ENDBRANCH   9  18
ENDBRANCH   6   8
ENDBRANCH   4   6
ENDBRANCH   3   4
ENDBRANCH   2   3
ENDBRANCH   1   2
BRANCH   1  20
ATOM     20  O   UNL A   1      38.124  21.085  25.348  1.00  0.00    -0.458 OA
BRANCH  20  21
ATOM     21  C   UNL A   1      39.251  20.899  26.074  1.00  0.00     0.338 C 
ATOM     22  O   UNL A   1      39.876  19.864  26.217  1.00  0.00    -0.246 OA
BRANCH  21  23
ATOM     23  C   UNL A   1      39.717  22.189  26.602  1.00  0.00     0.060 A 
ATOM     24  C   UNL A   1      39.139  23.353  26.091  1.00  0.00     0.016 A 
ATOM     25  C   UNL A   1      40.772  22.257  27.510  1.00  0.00     0.016 A 
ATOM     26  C   UNL A   1      39.630  24.599  26.466  1.00  0.00     0.010 A 
ATOM     27  C   UNL A   1      41.261  23.509  27.894  1.00  0.00     0.010 A 
ATOM     28  C   UNL A   1      40.707  24.686  27.356  1.00  0.00    -0.014 A 
BRANCH  28  29
ATOM     29  C   UNL A   1      41.292  26.009  27.675  1.00  0.00     0.031 A 
ATOM     30  C   UNL A   1      42.698  26.323  27.249  1.00  0.00     0.074 A 
ATOM     31  C   UNL A   1      40.562  26.920  28.345  1.00  0.00     0.049 A 
ATOM     32  N   UNL A   1      43.407  27.396  27.477  1.00  0.00    -0.248 NA
ATOM     33  C   UNL A   1      43.398  25.293  26.465  1.00  0.00     0.031 C 
ATOM     34  C   UNL A   1      39.186  26.726  28.803  1.00  0.00     0.029 A 
ATOM     35  N   UNL A   1      40.885  28.183  28.772  1.00  0.00    -0.354 N 
ATOM     36  C   UNL A   1      44.649  27.158  26.902  1.00  0.00     0.074 A 
ATOM     37  C   UNL A   1      44.598  25.837  26.315  1.00  0.00     0.031 C 
ATOM     38  C   UNL A   1      38.787  27.825  29.462  1.00  0.00     0.029 A 
ATOM     39  C   UNL A   1      39.887  28.787  29.499  1.00  0.00     0.049 A 
ATOM     40  H   UNL A   1      41.747  28.615  28.576  1.00  0.00     0.167 HD
ATOM     41  C   UNL A   1      45.730  27.974  26.856  1.00  0.00     0.034 A 
ATOM     42  C   UNL A   1      39.869  29.973  30.138  1.00  0.00     0.034 A 
ATOM     43  C   UNL A   1      45.763  29.302  27.406  1.00  0.00     0.049 A 
ATOM     44  C   UNL A   1      41.082  30.861  30.064  1.00  0.00     0.074 A 
ATOM     45  C   UNL A   1      46.798  30.221  27.375  1.00  0.00     0.029 A 
ATOM     46  N   UNL A   1      44.714  29.902  28.084  1.00  0.00    -0.354 N 
ATOM     47  N   UNL A   1      42.213  30.662  29.431  1.00  0.00    -0.248 NA
ATOM     48  C   UNL A   1      41.007  32.150  30.768  1.00  0.00     0.031 C 
ATOM     49  C   UNL A   1      46.375  31.376  28.042  1.00  0.00     0.029 A 
ATOM     50  C   UNL A   1      45.074  31.180  28.479  1.00  0.00     0.049 A 
ATOM     51  H   UNL A   1      43.840  29.483  28.259  1.00  0.00     0.167 HD
ATOM     52  C   UNL A   1      42.972  31.808  29.636  1.00  0.00     0.074 A 
ATOM     53  C   UNL A   1      42.164  32.708  30.434  1.00  0.00     0.031 C 
ATOM     54  C   UNL A   1      44.232  32.084  29.219  1.00  0.00     0.034 A 
BRANCH  41  55
ATOM     55  C   UNL A   1      46.958  27.463  26.153  1.00  0.00     0.023 A 
ATOM     56  C   UNL A   1      47.128  27.727  24.778  1.00  0.00     0.012 A 
ATOM     57  C   UNL A   1      47.963  26.772  26.855  1.00  0.00     0.148 A 
ATOM     58  C   UNL A   1      48.270  27.288  24.108  1.00  0.00     0.002 A 
ATOM     59  C   UNL A   1      49.114  26.368  26.188  1.00  0.00     0.091 A 
ATOM     60  F   UNL A   1      47.770  26.506  28.155  1.00  0.00    -0.205 F 
ATOM     61  C   UNL A   1      49.266  26.619  24.815  1.00  0.00     0.022 A 
BRANCH  59  62
ATOM     62  S   UNL A   1      50.480  25.558  27.030  1.00  0.00     0.127 S 
ATOM     63  O   UNL A   1      50.850  26.562  28.026  1.00  0.00    -0.237 OA
ATOM     64  O   UNL A   1      49.843  24.361  27.578  1.00  0.00    -0.237 OA
ATOM     65  O   UNL A   1      51.478  25.293  26.002  1.00  0.00    -0.744 OA
ENDBRANCH  59  62
ENDBRANCH  41  55
BRANCH  42  66
ATOM     66  C   UNL A   1      38.640  30.406  30.860  1.00  0.00     0.023 A 
ATOM     67  C   UNL A   1      38.523  30.148  32.239  1.00  0.00     0.012 A 
ATOM     68  C   UNL A   1      37.609  31.103  30.201  1.00  0.00     0.148 A 
ATOM     69  C   UNL A   1      37.391  30.558  32.945  1.00  0.00     0.002 A 
ATOM     70  C   UNL A   1      36.509  31.555  30.921  1.00  0.00     0.091 A 
ATOM     71  F   UNL A   1      37.726  31.317  28.882  1.00  0.00    -0.205 F 
ATOM     72  C   UNL A   1      36.391  31.272  32.290  1.00  0.00     0.022 A 
BRANCH  70  73
ATOM     73  S   UNL A   1      35.245  32.593  30.177  1.00  0.00     0.127 S 
ATOM     74  O   UNL A   1      34.775  31.754  29.079  1.00  0.00    -0.237 OA
ATOM     75  O   UNL A   1      34.293  32.757  31.277  1.00  0.00    -0.237 OA
ATOM     76  O   UNL A   1      35.929  33.822  29.796  1.00  0.00    -0.744 OA
ENDBRANCH  70  73
ENDBRANCH  42  66
BRANCH  54  77
ATOM     77  C   UNL A   1      44.813  33.421  29.594  1.00  0.00     0.023 A 
ATOM     78  C   UNL A   1      45.575  33.540  30.773  1.00  0.00     0.012 A 
ATOM     79  C   UNL A   1      44.675  34.535  28.743  1.00  0.00     0.148 A 
ATOM     80  C   UNL A   1      46.171  34.755  31.112  1.00  0.00     0.002 A 
ATOM     81  C   UNL A   1      45.304  35.732  29.067  1.00  0.00     0.091 A 
ATOM     82  F   UNL A   1      43.926  34.408  27.638  1.00  0.00    -0.205 F 
ATOM     83  C   UNL A   1      46.045  35.846  30.254  1.00  0.00     0.022 A 
BRANCH  81  84
ATOM     84  S   UNL A   1      45.264  37.155  27.971  1.00  0.00     0.127 S 
ATOM     85  O   UNL A   1      46.061  38.128  28.715  1.00  0.00    -0.237 OA
ATOM     86  O   UNL A   1      45.907  36.640  26.760  1.00  0.00    -0.237 OA
ATOM     87  O   UNL A   1      43.855  37.485  27.805  1.00  0.00    -0.744 OA
ENDBRANCH  81  84
ENDBRANCH  54  77
ENDBRANCH  28  29
ENDBRANCH  21  23
ENDBRANCH  20  21
ENDBRANCH   1  20
TORSDOF 16
ENDMDL
MODEL 2
REMARK VINA RESULT:     -11.3      1.677      7.938
REMARK SMILES COc1ccc2cc([C@@H](C)C(=O)OCCOC(=O)c3ccc(-c4c5nc(c(-c6cccc(S(=O)(=O)[O-])c6F)c6ccc([nH]6)c(-c6cccc(S(=O)(=O)[O-])c6F)c6nc(c(-c7cccc(S(=O)(=O)[O-])c7F)c7ccc4[nH]7)C=C6)C=C5)cc3)ccc2c1
REMARK SMILES IDX 15 1 14 2 13 3 11 4 12 5 9 6 10 7 8 8 3 9 4 10 85 11 5 12
REMARK SMILES IDX 84 13 6 14 83 15 7 16 82 17 2 18 1 19 16 20 17 21 18 22
REMARK SMILES IDX 19 23 20 24 81 25 21 26 80 27 22 28 23 29 24 30 74 31 25 32
REMARK SMILES IDX 79 33 73 34 75 35 26 36 78 37 72 38 71 39 27 41 59 42 39 43
REMARK SMILES IDX 58 44 40 45 43 46 57 47 76 48 41 49 42 50 56 52 77 53 44 54
REMARK SMILES IDX 28 55 29 56 37 57 30 58 32 59 38 60 31 61 33 62 34 63 35 64
REMARK SMILES IDX 36 65 60 66 61 67 69 68 62 69 64 70 70 71 63 72 65 73 66 74
REMARK SMILES IDX 67 75 68 76 45 77 46 78 54 79 47 80 49 81 55 82 48 83 50 84
REMARK SMILES IDX 51 85 52 86 53 87
REMARK H PARENT 75 40 43 51
REMARK Flexibility Score: inf
ROOT
ATOM      1  C   UNL A   1      37.283  20.107  24.907  1.00  0.00     0.275 C 
ENDROOT
BRANCH   1   2
ATOM      2  C   UNL A   1      35.758  20.199  24.994  1.00  0.00     0.274 C 
BRANCH   2   3
ATOM      3  O   UNL A   1      35.285  21.490  24.560  1.00  0.00    -0.462 OA
BRANCH   3   4
ATOM      4  C   UNL A   1      34.112  21.921  25.092  1.00  0.00     0.313 C 
ATOM      5  O   UNL A   1      33.007  21.643  24.636  1.00  0.00    -0.252 OA
BRANCH   4   6
ATOM      6  C   UNL A   1      34.277  22.854  26.287  1.00  0.00     0.126 C 
ATOM      7  C   UNL A   1      33.973  22.096  27.577  1.00  0.00     0.025 C 
BRANCH   6   8
ATOM      8  C   UNL A   1      33.540  24.184  26.216  1.00  0.00    -0.033 A 
ATOM      9  C   UNL A   1      32.054  28.984  25.451  1.00  0.00     0.119 A 
ATOM     10  C   UNL A   1      33.410  28.944  25.137  1.00  0.00     0.047 A 
ATOM     11  C   UNL A   1      31.418  27.840  25.933  1.00  0.00     0.055 A 
ATOM     12  C   UNL A   1      34.117  27.746  25.252  1.00  0.00     0.012 A 
ATOM     13  C   UNL A   1      32.113  26.625  26.044  1.00  0.00    -0.015 A 
ATOM     14  C   UNL A   1      33.478  26.574  25.687  1.00  0.00    -0.018 A 
ATOM     15  C   UNL A   1      31.484  25.458  26.497  1.00  0.00     0.009 A 
ATOM     16  C   UNL A   1      34.172  25.357  25.775  1.00  0.00     0.013 A 
ATOM     17  C   UNL A   1      32.188  24.254  26.580  1.00  0.00     0.005 A 
BRANCH   9  18
ATOM     18  O   UNL A   1      31.282  30.110  25.357  1.00  0.00    -0.497 OA
ATOM     19  C   UNL A   1      31.570  31.086  26.355  1.00  0.00     0.278 C 
ENDBRANCH   9  18
ENDBRANCH   6   8
ENDBRANCH   4   6
ENDBRANCH   3   4
ENDBRANCH   2   3
ENDBRANCH   1   2
BRANCH   1  20
ATOM     20  O   UNL A   1      37.911  21.271  25.471  1.00  0.00    -0.458 OA
BRANCH  20  21
ATOM     21  C   UNL A   1      39.117  21.045  26.044  1.00  0.00     0.338 C 
ATOM     22  O   UNL A   1      39.754  20.007  26.039  1.00  0.00    -0.246 OA
BRANCH  21  23
ATOM     23  C   UNL A   1      39.643  22.299  26.600  1.00  0.00     0.060 A 
ATOM     24  C   UNL A   1      39.139  23.501  26.097  1.00  0.00     0.016 A 
ATOM     25  C   UNL A   1      40.682  22.295  27.528  1.00  0.00     0.016 A 
ATOM     26  C   UNL A   1      39.692  24.712  26.501  1.00  0.00     0.010 A 
ATOM     27  C   UNL A   1      41.232  23.513  27.940  1.00  0.00     0.010 A 
ATOM     28  C   UNL A   1      40.755  24.726  27.411  1.00  0.00    -0.014 A 
BRANCH  28  29
ATOM     29  C   UNL A   1      41.405  26.010  27.762  1.00  0.00     0.031 A 
ATOM     30  C   UNL A   1      40.626  27.062  28.497  1.00  0.00     0.074 A 
ATOM     31  C   UNL A   1      42.689  26.226  27.420  1.00  0.00     0.049 A 
ATOM     32  N   UNL A   1      40.993  28.266  28.847  1.00  0.00    -0.248 NA
ATOM     33  C   UNL A   1      39.250  26.715  28.889  1.00  0.00     0.031 C 
ATOM     34  C   UNL A   1      43.544  25.274  26.710  1.00  0.00     0.029 A 
ATOM     35  N   UNL A   1      43.490  27.324  27.607  1.00  0.00    -0.354 N 
ATOM     36  C   UNL A   1      39.886  28.837  29.463  1.00  0.00     0.074 A 
ATOM     37  C   UNL A   1      38.832  27.846  29.439  1.00  0.00     0.031 C 
ATOM     38  C   UNL A   1      44.746  25.835  26.507  1.00  0.00     0.029 A 
ATOM     39  C   UNL A   1      44.737  27.195  27.045  1.00  0.00     0.049 A 
ATOM     40  H   UNL A   1      43.200  28.126  28.098  1.00  0.00     0.167 HD
ATOM     41  C   UNL A   1      39.765  30.069  30.012  1.00  0.00     0.034 A 
ATOM     42  C   UNL A   1      45.750  28.078  26.956  1.00  0.00     0.034 A 
ATOM     43  C   UNL A   1      40.829  31.034  30.070  1.00  0.00     0.049 A 
ATOM     44  C   UNL A   1      45.589  29.439  27.580  1.00  0.00     0.074 A 
ATOM     45  C   UNL A   1      40.816  32.295  30.640  1.00  0.00     0.029 A 
ATOM     46  N   UNL A   1      42.096  30.847  29.541  1.00  0.00    -0.354 N 
ATOM     47  N   UNL A   1      44.570  29.925  28.246  1.00  0.00    -0.248 NA
ATOM     48  C   UNL A   1      46.728  30.362  27.466  1.00  0.00     0.031 C 
ATOM     49  C   UNL A   1      42.076  32.873  30.449  1.00  0.00     0.029 A 
ATOM     50  C   UNL A   1      42.876  31.968  29.769  1.00  0.00     0.049 A 
ATOM     51  H   UNL A   1      42.398  30.035  29.072  1.00  0.00     0.167 HD
ATOM     52  C   UNL A   1      44.953  31.197  28.655  1.00  0.00     0.074 A 
ATOM     53  C   UNL A   1      46.307  31.398  28.180  1.00  0.00     0.031 C 
ATOM     54  C   UNL A   1      44.242  32.124  29.343  1.00  0.00     0.034 A 
BRANCH  41  55
ATOM     55  C   UNL A   1      38.441  30.429  30.628  1.00  0.00     0.023 A 
ATOM     56  C   UNL A   1      38.168  30.045  31.957  1.00  0.00     0.012 A 
ATOM     57  C   UNL A   1      37.491  31.188  29.919  1.00  0.00     0.148 A 
ATOM     58  C   UNL A   1      36.960  30.389  32.561  1.00  0.00     0.002 A 
ATOM     59  C   UNL A   1      36.303  31.557  30.540  1.00  0.00     0.091 A 
ATOM     60  F   UNL A   1      37.757  31.520  28.647  1.00  0.00    -0.205 F 
ATOM     61  C   UNL A   1      36.033  31.153  31.857  1.00  0.00     0.022 A 
BRANCH  59  62
ATOM     62  S   UNL A   1      35.079  32.597  29.733  1.00  0.00     0.127 S 
ATOM     63  O   UNL A   1      34.442  31.650  28.820  1.00  0.00    -0.237 OA
ATOM     64  O   UNL A   1      34.240  33.020  30.855  1.00  0.00    -0.237 OA
ATOM     65  O   UNL A   1      35.829  33.675  29.102  1.00  0.00    -0.744 OA
ENDBRANCH  59  62
ENDBRANCH  41  55
BRANCH  42  66
ATOM     66  C   UNL A   1      47.022  27.682  26.290  1.00  0.00     0.023 A 
ATOM     67  C   UNL A   1      48.034  27.063  27.049  1.00  0.00     0.012 A 
ATOM     68  C   UNL A   1      47.220  27.877  24.910  1.00  0.00     0.148 A 
ATOM     69  C   UNL A   1      49.229  26.665  26.448  1.00  0.00     0.002 A 
ATOM     70  C   UNL A   1      48.391  27.430  24.308  1.00  0.00     0.091 A 
ATOM     71  F   UNL A   1      46.256  28.491  24.208  1.00  0.00    -0.205 F 
ATOM     72  C   UNL A   1      49.403  26.836  25.077  1.00  0.00     0.022 A 
BRANCH  70  73
ATOM     73  S   UNL A   1      48.632  27.495  22.528  1.00  0.00     0.127 S 
ATOM     74  O   UNL A   1      47.464  28.256  22.095  1.00  0.00    -0.237 OA
ATOM     75  O   UNL A   1      49.907  28.206  22.416  1.00  0.00    -0.237 OA
ATOM     76  O   UNL A   1      48.688  26.105  22.095  1.00  0.00    -0.744 OA
ENDBRANCH  70  73
ENDBRANCH  42  66
BRANCH  54  77
ATOM     77  C   UNL A   1      44.918  33.434  29.649  1.00  0.00     0.023 A 
ATOM     78  C   UNL A   1      45.661  33.570  30.837  1.00  0.00     0.012 A 
ATOM     79  C   UNL A   1      44.885  34.498  28.726  1.00  0.00     0.148 A 
ATOM     80  C   UNL A   1      46.342  34.755  31.116  1.00  0.00     0.002 A 
ATOM     81  C   UNL A   1      45.600  35.662  28.991  1.00  0.00     0.091 A 
ATOM     82  F   UNL A   1      44.153  34.359  27.612  1.00  0.00    -0.205 F 
ATOM     83  C   UNL A   1      46.321  35.795  30.188  1.00  0.00     0.022 A 
BRANCH  81  84
ATOM     84  S   UNL A   1      45.695  37.010  27.808  1.00  0.00     0.127 S 
ATOM     85  O   UNL A   1      46.260  36.341  26.637  1.00  0.00    -0.237 OA
ATOM     86  O   UNL A   1      44.292  37.405  27.665  1.00  0.00    -0.237 OA
ATOM     87  O   UNL A   1      46.541  38.021  28.429  1.00  0.00    -0.744 OA
ENDBRANCH  81  84
ENDBRANCH  54  77
ENDBRANCH  28  29
ENDBRANCH  21  23
ENDBRANCH  20  21
ENDBRANCH   1  20
TORSDOF 16
ENDMDL
MODEL 3
REMARK VINA RESULT:     -11.3      5.358      8.478
REMARK SMILES COc1ccc2cc([C@@H](C)C(=O)OCCOC(=O)c3ccc(-c4c5nc(c(-c6cccc(S(=O)(=O)[O-])c6F)c6ccc([nH]6)c(-c6cccc(S(=O)(=O)[O-])c6F)c6nc(c(-c7cccc(S(=O)(=O)[O-])c7F)c7ccc4[nH]7)C=C6)C=C5)cc3)ccc2c1
REMARK SMILES IDX 15 1 14 2 13 3 11 4 12 5 9 6 10 7 8 8 3 9 4 10 85 11 5 12
REMARK SMILES IDX 84 13 6 14 83 15 7 16 82 17 2 18 1 19 16 20 17 21 18 22
REMARK SMILES IDX 19 23 20 24 81 25 21 26 80 27 22 28 23 29 24 30 74 31 25 32
REMARK SMILES IDX 79 33 73 34 75 35 26 36 78 37 72 38 71 39 27 41 59 42 39 43
REMARK SMILES IDX 58 44 40 45 43 46 57 47 76 48 41 49 42 50 56 52 77 53 44 54
REMARK SMILES IDX 28 55 29 56 37 57 30 58 32 59 38 60 31 61 33 62 34 63 35 64
REMARK SMILES IDX 36 65 60 66 61 67 69 68 62 69 64 70 70 71 63 72 65 73 66 74
REMARK SMILES IDX 67 75 68 76 45 77 46 78 54 79 47 80 49 81 55 82 48 83 50 84
REMARK SMILES IDX 51 85 52 86 53 87
REMARK H PARENT 75 40 43 51
REMARK Flexibility Score: inf
ROOT
ATOM      1  C   UNL A   1      31.583  32.386  26.660  1.00  0.00     0.275 C 
ENDROOT
BRANCH   1   2
ATOM      2  C   UNL A   1      31.692  30.869  26.833  1.00  0.00     0.274 C 
BRANCH   2   3
ATOM      3  O   UNL A   1      31.604  30.188  25.566  1.00  0.00    -0.462 OA
BRANCH   3   4
ATOM      4  C   UNL A   1      32.639  29.373  25.237  1.00  0.00     0.313 C 
ATOM      5  O   UNL A   1      33.131  29.305  24.115  1.00  0.00    -0.252 OA
BRANCH   4   6
ATOM      6  C   UNL A   1      33.111  28.477  26.377  1.00  0.00     0.126 C 
ATOM      7  C   UNL A   1      34.501  28.917  26.834  1.00  0.00     0.025 C 
BRANCH   6   8
ATOM      8  C   UNL A   1      33.035  26.976  26.137  1.00  0.00    -0.033 A 
ATOM      9  C   UNL A   1      31.651  22.118  25.576  1.00  0.00     0.119 A 
ATOM     10  C   UNL A   1      30.557  22.770  26.138  1.00  0.00     0.047 A 
ATOM     11  C   UNL A   1      32.837  22.818  25.349  1.00  0.00     0.055 A 
ATOM     12  C   UNL A   1      30.628  24.135  26.420  1.00  0.00     0.012 A 
ATOM     13  C   UNL A   1      32.920  24.193  25.618  1.00  0.00    -0.015 A 
ATOM     14  C   UNL A   1      31.796  24.864  26.149  1.00  0.00    -0.018 A 
ATOM     15  C   UNL A   1      34.091  24.921  25.368  1.00  0.00     0.009 A 
ATOM     16  C   UNL A   1      31.867  26.244  26.399  1.00  0.00     0.013 A 
ATOM     17  C   UNL A   1      34.147  26.294  25.622  1.00  0.00     0.005 A 
BRANCH   9  18
ATOM     18  O   UNL A   1      31.667  20.787  25.257  1.00  0.00    -0.497 OA
ATOM     19  C   UNL A   1      32.963  20.197  25.325  1.00  0.00     0.278 C 
ENDBRANCH   9  18
ENDBRANCH   6   8
ENDBRANCH   4   6
ENDBRANCH   3   4
ENDBRANCH   2   3
ENDBRANCH   1   2
BRANCH   1  20
ATOM     20  O   UNL A   1      32.880  33.006  26.643  1.00  0.00    -0.458 OA
BRANCH  20  21
ATOM     21  C   UNL A   1      33.238  33.606  27.803  1.00  0.00     0.338 C 
ATOM     22  O   UNL A   1      32.618  34.454  28.418  1.00  0.00    -0.246 OA
BRANCH  21  23
ATOM     23  C   UNL A   1      34.473  32.996  28.315  1.00  0.00     0.060 A 
ATOM     24  C   UNL A   1      34.373  31.767  28.971  1.00  0.00     0.016 A 
ATOM     25  C   UNL A   1      35.693  33.665  28.237  1.00  0.00     0.016 A 
ATOM     26  C   UNL A   1      35.492  31.209  29.581  1.00  0.00     0.010 A 
ATOM     27  C   UNL A   1      36.819  33.101  28.843  1.00  0.00     0.010 A 
ATOM     28  C   UNL A   1      36.719  31.881  29.537  1.00  0.00    -0.014 A 
BRANCH  28  29
ATOM     29  C   UNL A   1      37.883  31.334  30.272  1.00  0.00     0.031 A 
ATOM     30  C   UNL A   1      38.762  30.309  29.615  1.00  0.00     0.074 A 
ATOM     31  C   UNL A   1      38.145  31.757  31.523  1.00  0.00     0.049 A 
ATOM     32  N   UNL A   1      39.792  29.670  30.104  1.00  0.00    -0.248 NA
ATOM     33  C   UNL A   1      38.439  29.953  28.223  1.00  0.00     0.031 C 
ATOM     34  C   UNL A   1      37.364  32.752  32.257  1.00  0.00     0.029 A 
ATOM     35  N   UNL A   1      39.132  31.387  32.402  1.00  0.00    -0.354 N 
ATOM     36  C   UNL A   1      40.216  28.809  29.101  1.00  0.00     0.074 A 
ATOM     37  C   UNL A   1      39.332  29.006  27.972  1.00  0.00     0.031 C 
ATOM     38  C   UNL A   1      37.891  32.902  33.483  1.00  0.00     0.029 A 
ATOM     39  C   UNL A   1      39.027  31.995  33.629  1.00  0.00     0.049 A 
ATOM     40  H   UNL A   1      39.846  30.749  32.174  1.00  0.00     0.167 HD
ATOM     41  C   UNL A   1      41.258  27.943  29.113  1.00  0.00     0.034 A 
ATOM     42  C   UNL A   1      39.753  31.824  34.751  1.00  0.00     0.034 A 
ATOM     43  C   UNL A   1      42.159  27.781  30.222  1.00  0.00     0.049 A 
ATOM     44  C   UNL A   1      40.909  30.860  34.735  1.00  0.00     0.074 A 
ATOM     45  C   UNL A   1      43.267  26.958  30.317  1.00  0.00     0.029 A 
ATOM     46  N   UNL A   1      42.056  28.455  31.429  1.00  0.00    -0.354 N 
ATOM     47  N   UNL A   1      41.357  30.127  33.744  1.00  0.00    -0.248 NA
ATOM     48  C   UNL A   1      41.676  30.719  35.981  1.00  0.00     0.031 C 
ATOM     49  C   UNL A   1      43.831  27.131  31.586  1.00  0.00     0.029 A 
ATOM     50  C   UNL A   1      43.080  28.068  32.277  1.00  0.00     0.049 A 
ATOM     51  H   UNL A   1      41.358  29.114  31.651  1.00  0.00     0.167 HD
ATOM     52  C   UNL A   1      42.473  29.462  34.237  1.00  0.00     0.074 A 
ATOM     53  C   UNL A   1      42.646  29.894  35.609  1.00  0.00     0.031 C 
ATOM     54  C   UNL A   1      43.272  28.558  33.617  1.00  0.00     0.034 A 
BRANCH  41  55
ATOM     55  C   UNL A   1      41.502  27.129  27.872  1.00  0.00     0.023 A 
ATOM     56  C   UNL A   1      42.062  27.750  26.736  1.00  0.00     0.012 A 
ATOM     57  C   UNL A   1      41.229  25.749  27.843  1.00  0.00     0.148 A 
ATOM     58  C   UNL A   1      42.323  27.013  25.582  1.00  0.00     0.002 A 
ATOM     59  C   UNL A   1      41.525  25.014  26.700  1.00  0.00     0.091 A 
ATOM     60  F   UNL A   1      40.671  25.183  28.922  1.00  0.00    -0.205 F 
ATOM     61  C   UNL A   1      42.064  25.644  25.568  1.00  0.00     0.022 A 
BRANCH  59  62
ATOM     62  S   UNL A   1      41.287  23.234  26.613  1.00  0.00     0.127 S 
ATOM     63  O   UNL A   1      42.067  22.890  25.425  1.00  0.00    -0.237 OA
ATOM     64  O   UNL A   1      41.867  22.780  27.876  1.00  0.00    -0.237 OA
ATOM     65  O   UNL A   1      39.849  23.031  26.503  1.00  0.00    -0.744 OA
ENDBRANCH  59  62
ENDBRANCH  41  55
BRANCH  42  66
ATOM     66  C   UNL A   1      39.434  32.624  35.968  1.00  0.00     0.023 A 
ATOM     67  C   UNL A   1      39.996  33.906  36.117  1.00  0.00     0.012 A 
ATOM     68  C   UNL A   1      38.553  32.140  36.954  1.00  0.00     0.148 A 
ATOM     69  C   UNL A   1      39.701  34.684  37.238  1.00  0.00     0.002 A 
ATOM     70  C   UNL A   1      38.222  32.942  38.040  1.00  0.00     0.091 A 
ATOM     71  F   UNL A   1      38.047  30.907  36.807  1.00  0.00    -0.205 F 
ATOM     72  C   UNL A   1      38.805  34.209  38.192  1.00  0.00     0.022 A 
BRANCH  70  73
ATOM     73  S   UNL A   1      36.976  32.454  39.240  1.00  0.00     0.127 S 
ATOM     74  O   UNL A   1      37.350  31.069  39.514  1.00  0.00    -0.237 OA
ATOM     75  O   UNL A   1      37.225  33.388  40.340  1.00  0.00    -0.237 OA
ATOM     76  O   UNL A   1      35.697  32.652  38.571  1.00  0.00    -0.744 OA
ENDBRANCH  70  73
ENDBRANCH  42  66
BRANCH  54  77
ATOM     77  C   UNL A   1      44.422  27.990  34.404  1.00  0.00     0.023 A 
ATOM     78  C   UNL A   1      45.647  28.684  34.440  1.00  0.00     0.012 A 
ATOM     79  C   UNL A   1      44.267  26.818  35.171  1.00  0.00     0.148 A 
ATOM     80  C   UNL A   1      46.710  28.207  35.208  1.00  0.00     0.002 A 
ATOM     81  C   UNL A   1      45.317  26.371  35.965  1.00  0.00     0.091 A 
ATOM     82  F   UNL A   1      43.101  26.159  35.105  1.00  0.00    -0.205 F 
ATOM     83  C   UNL A   1      46.541  27.058  35.979  1.00  0.00     0.022 A 
BRANCH  81  84
ATOM     84  S   UNL A   1      45.149  24.951  37.053  1.00  0.00     0.127 S 
ATOM     85  O   UNL A   1      44.952  23.863  36.097  1.00  0.00    -0.237 OA
ATOM     86  O   UNL A   1      46.439  24.928  37.746  1.00  0.00    -0.237 OA
ATOM     87  O   UNL A   1      44.012  25.248  37.915  1.00  0.00    -0.744 OA
ENDBRANCH  81  84
ENDBRANCH  54  77
ENDBRANCH  28  29
ENDBRANCH  21  23
ENDBRANCH  20  21
ENDBRANCH   1  20
TORSDOF 16
ENDMDL
