MODEL 1
REMARK VINA RESULT:     -12.2      0.000      0.000
REMARK SMILES Cc1cc(=O)n2nc(C)c(C(=O)OCCOC(=O)c3ccc(-c4c5nc(c(-c6cccc(S(=O)(=O)[O-])c6F)c6ccc([nH]6)c(-c6cccc(S(=O)(=O)[O-])c6F)c6nc(c(-c7cccc(S(=O)(=O)[O-])c7F)c7ccc4[nH]7)C=C6)C=C5)cc3)c2[nH]1
REMARK SMILES IDX 16 1 15 2 14 3 13 4 11 5 12 6 10 7 1 8 2 9 3 10 83 11 4 12
REMARK SMILES IDX 82 13 5 15 6 16 7 17 8 18 9 19 17 20 18 21 19 22 20 23 81 24
REMARK SMILES IDX 21 25 80 26 22 27 23 28 24 29 74 30 25 31 79 32 73 33 75 34
REMARK SMILES IDX 26 35 78 36 72 37 71 38 27 40 59 41 39 42 58 43 40 44 43 45
REMARK SMILES IDX 57 46 76 47 41 48 42 49 56 51 77 52 44 53 28 54 29 55 37 56
REMARK SMILES IDX 30 57 32 58 38 59 31 60 33 61 34 62 35 63 36 64 60 65 61 66
REMARK SMILES IDX 69 67 62 68 64 69 70 70 63 71 65 72 66 73 67 74 68 75 45 76
REMARK SMILES IDX 46 77 54 78 47 79 49 80 55 81 48 82 50 83 51 84 52 85 53 86
REMARK H PARENT 83 14 75 39 43 50
REMARK Flexibility Score: inf
ROOT
ATOM      1  O   UNL A   1      34.993  30.744  27.327  1.00  0.00    -0.458 OA
ENDROOT
BRANCH   1   2
ATOM      2  C   UNL A   1      33.587  30.921  27.490  1.00  0.00     0.275 C 
BRANCH   2   3
ATOM      3  C   UNL A   1      32.805  29.794  26.824  1.00  0.00     0.275 C 
BRANCH   3   4
ATOM      4  O   UNL A   1      32.356  30.167  25.508  1.00  0.00    -0.458 OA
BRANCH   4   5
ATOM      5  C   UNL A   1      32.334  29.185  24.558  1.00  0.00     0.343 C 
ATOM      6  O   UNL A   1      33.335  28.615  24.133  1.00  0.00    -0.246 OA
BRANCH   5   7
ATOM      7  C   UNL A   1      30.990  28.843  24.128  1.00  0.00     0.125 A 
ATOM      8  C   UNL A   1      28.835  33.209  23.009  1.00  0.00     0.064 C 
ATOM      9  C   UNL A   1      28.785  31.716  23.185  1.00  0.00     0.019 A 
ATOM     10  C   UNL A   1      27.676  31.019  22.868  1.00  0.00     0.095 A 
ATOM     11  N   UNL A   1      29.925  31.086  23.665  1.00  0.00    -0.343 N 
ATOM     12  C   UNL A   1      27.662  29.537  23.008  1.00  0.00     0.274 A 
ATOM     13  C   UNL A   1      29.998  29.735  23.772  1.00  0.00     0.152 A 
ATOM     14  H   UNL A   1      30.698  31.632  23.934  1.00  0.00     0.168 HD
ATOM     15  O   UNL A   1      26.675  28.846  22.783  1.00  0.00    -0.267 OA
ATOM     16  N   UNL A   1      28.886  28.991  23.429  1.00  0.00    -0.179 N 
ATOM     17  N   UNL A   1      29.109  27.657  23.531  1.00  0.00    -0.168 NA
ATOM     18  C   UNL A   1      30.403  27.569  23.873  1.00  0.00     0.077 A 
ATOM     19  C   UNL A   1      31.050  26.232  23.918  1.00  0.00     0.070 C 
ENDBRANCH   5   7
ENDBRANCH   4   5
ENDBRANCH   3   4
ENDBRANCH   2   3
ENDBRANCH   1   2
BRANCH   1  20
ATOM     20  C   UNL A   1      35.754  31.660  27.965  1.00  0.00     0.338 C 
ATOM     21  O   UNL A   1      35.626  32.872  27.944  1.00  0.00    -0.246 OA
BRANCH  20  22
ATOM     22  C   UNL A   1      36.864  30.985  28.630  1.00  0.00     0.060 A 
ATOM     23  C   UNL A   1      37.912  31.766  29.129  1.00  0.00     0.016 A 
ATOM     24  C   UNL A   1      36.949  29.591  28.535  1.00  0.00     0.016 A 
ATOM     25  C   UNL A   1      39.112  31.150  29.419  1.00  0.00     0.010 A 
ATOM     26  C   UNL A   1      38.146  28.981  28.820  1.00  0.00     0.010 A 
ATOM     27  C   UNL A   1      39.232  29.776  29.193  1.00  0.00    -0.014 A 
BRANCH  27  28
ATOM     28  C   UNL A   1      40.530  29.155  29.369  1.00  0.00     0.031 A 
ATOM     29  C   UNL A   1      40.890  28.843  30.775  1.00  0.00     0.074 A 
ATOM     30  C   UNL A   1      41.231  28.727  28.299  1.00  0.00     0.049 A 
ATOM     31  N   UNL A   1      41.958  29.174  31.425  1.00  0.00    -0.248 NA
ATOM     32  C   UNL A   1      39.876  28.154  31.590  1.00  0.00     0.031 C 
ATOM     33  C   UNL A   1      40.782  28.692  26.900  1.00  0.00     0.029 A 
ATOM     34  N   UNL A   1      42.414  28.057  28.262  1.00  0.00    -0.354 N 
ATOM     35  C   UNL A   1      41.838  28.553  32.668  1.00  0.00     0.074 A 
ATOM     36  C   UNL A   1      40.482  28.085  32.773  1.00  0.00     0.031 C 
ATOM     37  C   UNL A   1      41.538  27.803  26.221  1.00  0.00     0.029 A 
ATOM     38  C   UNL A   1      42.588  27.316  27.097  1.00  0.00     0.049 A 
ATOM     39  H   UNL A   1      43.080  28.092  28.987  1.00  0.00     0.167 HD
ATOM     40  C   UNL A   1      42.918  28.257  33.438  1.00  0.00     0.034 A 
ATOM     41  C   UNL A   1      43.457  26.294  26.924  1.00  0.00     0.034 A 
ATOM     42  C   UNL A   1      44.080  29.009  33.063  1.00  0.00     0.049 A 
ATOM     43  C   UNL A   1      44.473  26.388  27.998  1.00  0.00     0.074 A 
ATOM     44  C   UNL A   1      44.399  30.350  33.009  1.00  0.00     0.029 A 
ATOM     45  N   UNL A   1      45.039  28.361  32.327  1.00  0.00    -0.354 N 
ATOM     46  N   UNL A   1      45.341  27.353  28.105  1.00  0.00    -0.248 NA
ATOM     47  C   UNL A   1      44.281  25.582  29.192  1.00  0.00     0.031 C 
ATOM     48  C   UNL A   1      45.255  30.481  31.877  1.00  0.00     0.029 A 
ATOM     49  C   UNL A   1      45.428  29.210  31.324  1.00  0.00     0.049 A 
ATOM     50  H   UNL A   1      45.385  27.453  32.489  1.00  0.00     0.167 HD
ATOM     51  C   UNL A   1      45.480  27.548  29.472  1.00  0.00     0.074 A 
ATOM     52  C   UNL A   1      44.910  26.350  30.083  1.00  0.00     0.031 C 
ATOM     53  C   UNL A   1      45.775  28.780  29.986  1.00  0.00     0.034 A 
BRANCH  40  54
ATOM     54  C   UNL A   1      42.996  27.049  34.337  1.00  0.00     0.023 A 
ATOM     55  C   UNL A   1      42.619  27.202  35.688  1.00  0.00     0.012 A 
ATOM     56  C   UNL A   1      43.641  25.842  33.982  1.00  0.00     0.148 A 
ATOM     57  C   UNL A   1      42.881  26.207  36.636  1.00  0.00     0.002 A 
ATOM     58  C   UNL A   1      43.810  24.818  34.905  1.00  0.00     0.091 A 
ATOM     59  F   UNL A   1      44.220  25.721  32.781  1.00  0.00    -0.205 F 
ATOM     60  C   UNL A   1      43.459  25.005  36.241  1.00  0.00     0.022 A 
BRANCH  58  61
ATOM     61  S   UNL A   1      44.466  23.220  34.411  1.00  0.00     0.127 S 
ATOM     62  O   UNL A   1      43.447  22.758  33.473  1.00  0.00    -0.237 OA
ATOM     63  O   UNL A   1      45.745  23.594  33.802  1.00  0.00    -0.237 OA
ATOM     64  O   UNL A   1      44.599  22.465  35.651  1.00  0.00    -0.744 OA
ENDBRANCH  58  61
ENDBRANCH  40  54
BRANCH  41  65
ATOM     65  C   UNL A   1      43.305  25.063  26.110  1.00  0.00     0.023 A 
ATOM     66  C   UNL A   1      44.245  24.799  25.094  1.00  0.00     0.012 A 
ATOM     67  C   UNL A   1      42.437  24.020  26.504  1.00  0.00     0.148 A 
ATOM     68  C   UNL A   1      44.350  23.527  24.522  1.00  0.00     0.002 A 
ATOM     69  C   UNL A   1      42.536  22.760  25.922  1.00  0.00     0.091 A 
ATOM     70  F   UNL A   1      41.585  24.230  27.515  1.00  0.00    -0.205 F 
ATOM     71  C   UNL A   1      43.503  22.504  24.941  1.00  0.00     0.022 A 
BRANCH  69  72
ATOM     72  S   UNL A   1      41.488  21.390  26.432  1.00  0.00     0.127 S 
ATOM     73  O   UNL A   1      41.754  21.319  27.870  1.00  0.00    -0.237 OA
ATOM     74  O   UNL A   1      40.159  21.880  26.078  1.00  0.00    -0.237 OA
ATOM     75  O   UNL A   1      41.961  20.232  25.682  1.00  0.00    -0.744 OA
ENDBRANCH  69  72
ENDBRANCH  41  65
BRANCH  53  76
ATOM     76  C   UNL A   1      46.202  29.869  29.028  1.00  0.00     0.023 A 
ATOM     77  C   UNL A   1      47.549  30.038  28.644  1.00  0.00     0.012 A 
ATOM     78  C   UNL A   1      45.211  30.604  28.353  1.00  0.00     0.148 A 
ATOM     79  C   UNL A   1      47.903  30.933  27.631  1.00  0.00     0.002 A 
ATOM     80  C   UNL A   1      45.561  31.456  27.311  1.00  0.00     0.091 A 
ATOM     81  F   UNL A   1      43.932  30.431  28.721  1.00  0.00    -0.205 F 
ATOM     82  C   UNL A   1      46.907  31.632  26.954  1.00  0.00     0.022 A 
BRANCH  80  83
ATOM     83  S   UNL A   1      44.318  32.273  26.306  1.00  0.00     0.127 S 
ATOM     84  O   UNL A   1      43.405  31.176  25.994  1.00  0.00    -0.237 OA
ATOM     85  O   UNL A   1      43.777  33.276  27.226  1.00  0.00    -0.237 OA
ATOM     86  O   UNL A   1      45.035  32.839  25.170  1.00  0.00    -0.744 OA
ENDBRANCH  80  83
ENDBRANCH  53  76
ENDBRANCH  27  28
ENDBRANCH  20  22
ENDBRANCH   1  20
TORSDOF 14
ENDMDL
MODEL 2
REMARK VINA RESULT:     -12.1      3.434      5.364
REMARK SMILES Cc1cc(=O)n2nc(C)c(C(=O)OCCOC(=O)c3ccc(-c4c5nc(c(-c6cccc(S(=O)(=O)[O-])c6F)c6ccc([nH]6)c(-c6cccc(S(=O)(=O)[O-])c6F)c6nc(c(-c7cccc(S(=O)(=O)[O-])c7F)c7ccc4[nH]7)C=C6)C=C5)cc3)c2[nH]1
REMARK SMILES IDX 16 1 15 2 14 3 13 4 11 5 12 6 10 7 1 8 2 9 3 10 83 11 4 12
REMARK SMILES IDX 82 13 5 15 6 16 7 17 8 18 9 19 17 20 18 21 19 22 20 23 81 24
REMARK SMILES IDX 21 25 80 26 22 27 23 28 24 29 74 30 25 31 79 32 73 33 75 34
REMARK SMILES IDX 26 35 78 36 72 37 71 38 27 40 59 41 39 42 58 43 40 44 43 45
REMARK SMILES IDX 57 46 76 47 41 48 42 49 56 51 77 52 44 53 28 54 29 55 37 56
REMARK SMILES IDX 30 57 32 58 38 59 31 60 33 61 34 62 35 63 36 64 60 65 61 66
REMARK SMILES IDX 69 67 62 68 64 69 70 70 63 71 65 72 66 73 67 74 68 75 45 76
REMARK SMILES IDX 46 77 54 78 47 79 49 80 55 81 48 82 50 83 51 84 52 85 53 86
REMARK H PARENT 83 14 75 39 43 50
REMARK Flexibility Score: inf
ROOT
ATOM      1  O   UNL A   1      35.534  32.584  27.701  1.00  0.00    -0.458 OA
ENDROOT
BRANCH   1   2
ATOM      2  C   UNL A   1      34.253  33.212  27.719  1.00  0.00     0.275 C 
BRANCH   2   3
ATOM      3  C   UNL A   1      34.349  34.654  28.208  1.00  0.00     0.275 C 
BRANCH   3   4
ATOM      4  O   UNL A   1      34.805  34.721  29.572  1.00  0.00    -0.458 OA
BRANCH   4   5
ATOM      5  C   UNL A   1      33.856  34.922  30.534  1.00  0.00     0.343 C 
ATOM      6  O   UNL A   1      32.662  35.088  30.301  1.00  0.00    -0.246 OA
BRANCH   5   7
ATOM      7  C   UNL A   1      34.396  34.874  31.881  1.00  0.00     0.125 A 
ATOM      8  C   UNL A   1      36.870  30.541  32.137  1.00  0.00     0.064 C 
ATOM      9  C   UNL A   1      36.345  31.803  32.764  1.00  0.00     0.019 A 
ATOM     10  C   UNL A   1      36.653  32.124  34.036  1.00  0.00     0.095 A 
ATOM     11  N   UNL A   1      35.553  32.631  31.980  1.00  0.00    -0.343 N 
ATOM     12  C   UNL A   1      36.160  33.399  34.624  1.00  0.00     0.274 A 
ATOM     13  C   UNL A   1      35.110  33.831  32.435  1.00  0.00     0.152 A 
ATOM     14  H   UNL A   1      35.307  32.341  31.072  1.00  0.00     0.168 HD
ATOM     15  O   UNL A   1      36.362  33.730  35.786  1.00  0.00    -0.267 OA
ATOM     16  N   UNL A   1      35.432  34.198  33.726  1.00  0.00    -0.179 N 
ATOM     17  N   UNL A   1      34.974  35.437  34.038  1.00  0.00    -0.168 NA
ATOM     18  C   UNL A   1      34.421  35.874  32.897  1.00  0.00     0.077 A 
ATOM     19  C   UNL A   1      33.951  37.282  32.814  1.00  0.00     0.070 C 
ENDBRANCH   5   7
ENDBRANCH   4   5
ENDBRANCH   3   4
ENDBRANCH   2   3
ENDBRANCH   1   2
BRANCH   1  20
ATOM     20  C   UNL A   1      35.498  31.234  27.680  1.00  0.00     0.338 C 
ATOM     21  O   UNL A   1      34.620  30.523  27.219  1.00  0.00    -0.246 OA
BRANCH  20  22
ATOM     22  C   UNL A   1      36.649  30.710  28.409  1.00  0.00     0.060 A 
ATOM     23  C   UNL A   1      37.673  31.597  28.759  1.00  0.00     0.016 A 
ATOM     24  C   UNL A   1      36.791  29.321  28.518  1.00  0.00     0.016 A 
ATOM     25  C   UNL A   1      38.903  31.078  29.106  1.00  0.00     0.010 A 
ATOM     26  C   UNL A   1      38.018  28.808  28.859  1.00  0.00     0.010 A 
ATOM     27  C   UNL A   1      39.077  29.691  29.082  1.00  0.00    -0.014 A 
BRANCH  27  28
ATOM     28  C   UNL A   1      40.404  29.155  29.314  1.00  0.00     0.031 A 
ATOM     29  C   UNL A   1      40.722  28.862  30.734  1.00  0.00     0.074 A 
ATOM     30  C   UNL A   1      41.176  28.776  28.275  1.00  0.00     0.049 A 
ATOM     31  N   UNL A   1      41.737  29.259  31.430  1.00  0.00    -0.248 NA
ATOM     32  C   UNL A   1      39.720  28.107  31.504  1.00  0.00     0.031 C 
ATOM     33  C   UNL A   1      40.792  28.717  26.858  1.00  0.00     0.029 A 
ATOM     34  N   UNL A   1      42.400  28.184  28.289  1.00  0.00    -0.354 N 
ATOM     35  C   UNL A   1      41.604  28.628  32.666  1.00  0.00     0.074 A 
ATOM     36  C   UNL A   1      40.278  28.074  32.712  1.00  0.00     0.031 C 
ATOM     37  C   UNL A   1      41.632  27.880  26.212  1.00  0.00     0.029 A 
ATOM     38  C   UNL A   1      42.672  27.459  27.133  1.00  0.00     0.049 A 
ATOM     39  H   UNL A   1      43.031  28.260  29.042  1.00  0.00     0.167 HD
ATOM     40  C   UNL A   1      42.666  28.400  33.482  1.00  0.00     0.034 A 
ATOM     41  C   UNL A   1      43.612  26.496  26.997  1.00  0.00     0.034 A 
ATOM     42  C   UNL A   1      43.793  29.227  33.158  1.00  0.00     0.049 A 
ATOM     43  C   UNL A   1      44.572  26.652  28.114  1.00  0.00     0.074 A 
ATOM     44  C   UNL A   1      44.026  30.586  33.118  1.00  0.00     0.029 A 
ATOM     45  N   UNL A   1      44.823  28.644  32.465  1.00  0.00    -0.354 N 
ATOM     46  N   UNL A   1      45.371  27.671  28.259  1.00  0.00    -0.248 NA
ATOM     47  C   UNL A   1      44.381  25.832  29.299  1.00  0.00     0.031 C 
ATOM     48  C   UNL A   1      44.920  30.775  32.024  1.00  0.00     0.029 A 
ATOM     49  C   UNL A   1      45.199  29.519  31.480  1.00  0.00     0.049 A 
ATOM     50  H   UNL A   1      45.219  27.760  32.641  1.00  0.00     0.167 HD
ATOM     51  C   UNL A   1      45.438  27.870  29.631  1.00  0.00     0.074 A 
ATOM     52  C   UNL A   1      44.920  26.636  30.216  1.00  0.00     0.031 C 
ATOM     53  C   UNL A   1      45.631  29.116  30.157  1.00  0.00     0.034 A 
BRANCH  40  54
ATOM     54  C   UNL A   1      42.783  27.197  34.384  1.00  0.00     0.023 A 
ATOM     55  C   UNL A   1      42.409  27.342  35.736  1.00  0.00     0.012 A 
ATOM     56  C   UNL A   1      43.460  26.008  34.028  1.00  0.00     0.148 A 
ATOM     57  C   UNL A   1      42.704  26.357  36.684  1.00  0.00     0.002 A 
ATOM     58  C   UNL A   1      43.663  24.991  34.952  1.00  0.00     0.091 A 
ATOM     59  F   UNL A   1      44.037  25.901  32.824  1.00  0.00    -0.205 F 
ATOM     60  C   UNL A   1      43.313  25.171  36.290  1.00  0.00     0.022 A 
BRANCH  58  61
ATOM     61  S   UNL A   1      44.362  23.412  34.458  1.00  0.00     0.127 S 
ATOM     62  O   UNL A   1      44.290  22.653  35.702  1.00  0.00    -0.237 OA
ATOM     63  O   UNL A   1      43.428  22.982  33.414  1.00  0.00    -0.237 OA
ATOM     64  O   UNL A   1      45.697  23.726  33.963  1.00  0.00    -0.744 OA
ENDBRANCH  58  61
ENDBRANCH  40  54
BRANCH  41  65
ATOM     65  C   UNL A   1      43.575  25.260  26.177  1.00  0.00     0.023 A 
ATOM     66  C   UNL A   1      44.575  25.060  25.204  1.00  0.00     0.012 A 
ATOM     67  C   UNL A   1      42.758  24.164  26.531  1.00  0.00     0.148 A 
ATOM     68  C   UNL A   1      44.786  23.798  24.637  1.00  0.00     0.002 A 
ATOM     69  C   UNL A   1      42.963  22.914  25.954  1.00  0.00     0.091 A 
ATOM     70  F   UNL A   1      41.850  24.316  27.503  1.00  0.00    -0.205 F 
ATOM     71  C   UNL A   1      43.987  22.722  25.018  1.00  0.00     0.022 A 
BRANCH  69  72
ATOM     72  S   UNL A   1      41.982  21.478  26.416  1.00  0.00     0.127 S 
ATOM     73  O   UNL A   1      40.622  21.924  26.104  1.00  0.00    -0.237 OA
ATOM     74  O   UNL A   1      42.510  20.452  25.523  1.00  0.00    -0.237 OA
ATOM     75  O   UNL A   1      42.229  21.274  27.838  1.00  0.00    -0.744 OA
ENDBRANCH  69  72
ENDBRANCH  41  65
BRANCH  53  76
ATOM     76  C   UNL A   1      46.027  30.234  29.219  1.00  0.00     0.023 A 
ATOM     77  C   UNL A   1      47.378  30.553  28.970  1.00  0.00     0.012 A 
ATOM     78  C   UNL A   1      45.034  30.838  28.428  1.00  0.00     0.148 A 
ATOM     79  C   UNL A   1      47.732  31.469  27.975  1.00  0.00     0.002 A 
ATOM     80  C   UNL A   1      45.391  31.710  27.404  1.00  0.00     0.091 A 
ATOM     81  F   UNL A   1      43.752  30.522  28.667  1.00  0.00    -0.205 F 
ATOM     82  C   UNL A   1      46.738  32.036  27.181  1.00  0.00     0.022 A 
BRANCH  80  83
ATOM     83  S   UNL A   1      44.175  32.361  26.256  1.00  0.00     0.127 S 
ATOM     84  O   UNL A   1      43.269  31.226  26.092  1.00  0.00    -0.237 OA
ATOM     85  O   UNL A   1      43.611  33.490  26.999  1.00  0.00    -0.237 OA
ATOM     86  O   UNL A   1      44.920  32.750  25.065  1.00  0.00    -0.744 OA
ENDBRANCH  80  83
ENDBRANCH  53  76
ENDBRANCH  27  28
ENDBRANCH  20  22
ENDBRANCH   1  20
TORSDOF 14
ENDMDL
MODEL 3
REMARK VINA RESULT:     -12.0      1.445      2.765
REMARK SMILES Cc1cc(=O)n2nc(C)c(C(=O)OCCOC(=O)c3ccc(-c4c5nc(c(-c6cccc(S(=O)(=O)[O-])c6F)c6ccc([nH]6)c(-c6cccc(S(=O)(=O)[O-])c6F)c6nc(c(-c7cccc(S(=O)(=O)[O-])c7F)c7ccc4[nH]7)C=C6)C=C5)cc3)c2[nH]1
REMARK SMILES IDX 16 1 15 2 14 3 13 4 11 5 12 6 10 7 1 8 2 9 3 10 83 11 4 12
REMARK SMILES IDX 82 13 5 15 6 16 7 17 8 18 9 19 17 20 18 21 19 22 20 23 81 24
REMARK SMILES IDX 21 25 80 26 22 27 23 28 24 29 74 30 25 31 79 32 73 33 75 34
REMARK SMILES IDX 26 35 78 36 72 37 71 38 27 40 59 41 39 42 58 43 40 44 43 45
REMARK SMILES IDX 57 46 76 47 41 48 42 49 56 51 77 52 44 53 28 54 29 55 37 56
REMARK SMILES IDX 30 57 32 58 38 59 31 60 33 61 34 62 35 63 36 64 60 65 61 66
REMARK SMILES IDX 69 67 62 68 64 69 70 70 63 71 65 72 66 73 67 74 68 75 45 76
REMARK SMILES IDX 46 77 54 78 47 79 49 80 55 81 48 82 50 83 51 84 52 85 53 86
REMARK H PARENT 83 14 75 39 43 50
REMARK Flexibility Score: inf
ROOT
ATOM      1  O   UNL A   1      34.758  30.961  27.713  1.00  0.00    -0.458 OA
ENDROOT
BRANCH   1   2
ATOM      2  C   UNL A   1      33.502  31.570  27.421  1.00  0.00     0.275 C 
BRANCH   2   3
ATOM      3  C   UNL A   1      32.444  30.526  27.082  1.00  0.00     0.275 C 
BRANCH   3   4
ATOM      4  O   UNL A   1      32.984  29.192  27.124  1.00  0.00    -0.458 OA
BRANCH   4   5
ATOM      5  C   UNL A   1      32.145  28.172  26.776  1.00  0.00     0.343 C 
ATOM      6  O   UNL A   1      31.271  27.717  27.509  1.00  0.00    -0.246 OA
BRANCH   5   7
ATOM      7  C   UNL A   1      32.358  27.701  25.420  1.00  0.00     0.125 A 
ATOM      8  C   UNL A   1      35.289  23.682  25.885  1.00  0.00     0.064 C 
ATOM      9  C   UNL A   1      34.558  24.696  25.049  1.00  0.00     0.019 A 
ATOM     10  C   UNL A   1      34.516  24.584  23.706  1.00  0.00     0.095 A 
ATOM     11  N   UNL A   1      33.913  25.732  25.710  1.00  0.00    -0.343 N 
ATOM     12  C   UNL A   1      33.750  25.572  22.900  1.00  0.00     0.274 A 
ATOM     13  C   UNL A   1      33.157  26.640  25.043  1.00  0.00     0.152 A 
ATOM     14  H   UNL A   1      34.008  25.810  26.687  1.00  0.00     0.168 HD
ATOM     15  O   UNL A   1      33.708  25.559  21.675  1.00  0.00    -0.267 OA
ATOM     16  N   UNL A   1      33.074  26.536  23.668  1.00  0.00    -0.179 N 
ATOM     17  N   UNL A   1      32.249  27.470  23.131  1.00  0.00    -0.168 NA
ATOM     18  C   UNL A   1      31.755  28.117  24.196  1.00  0.00     0.077 A 
ATOM     19  C   UNL A   1      30.675  29.119  23.997  1.00  0.00     0.070 C 
ENDBRANCH   5   7
ENDBRANCH   4   5
ENDBRANCH   3   4
ENDBRANCH   2   3
ENDBRANCH   1   2
BRANCH   1  20
ATOM     20  C   UNL A   1      35.764  31.830  27.949  1.00  0.00     0.338 C 
ATOM     21  O   UNL A   1      35.835  32.995  27.595  1.00  0.00    -0.246 OA
BRANCH  20  22
ATOM     22  C   UNL A   1      36.855  31.134  28.624  1.00  0.00     0.060 A 
ATOM     23  C   UNL A   1      37.902  31.895  29.154  1.00  0.00     0.016 A 
ATOM     24  C   UNL A   1      36.926  29.740  28.509  1.00  0.00     0.016 A 
ATOM     25  C   UNL A   1      39.089  31.261  29.456  1.00  0.00     0.010 A 
ATOM     26  C   UNL A   1      38.111  29.112  28.807  1.00  0.00     0.010 A 
ATOM     27  C   UNL A   1      39.198  29.889  29.212  1.00  0.00    -0.014 A 
BRANCH  27  28
ATOM     28  C   UNL A   1      40.487  29.252  29.402  1.00  0.00     0.031 A 
ATOM     29  C   UNL A   1      40.826  28.933  30.811  1.00  0.00     0.074 A 
ATOM     30  C   UNL A   1      41.194  28.816  28.340  1.00  0.00     0.049 A 
ATOM     31  N   UNL A   1      41.890  29.249  31.475  1.00  0.00    -0.248 NA
ATOM     32  C   UNL A   1      39.793  28.255  31.613  1.00  0.00     0.031 C 
ATOM     33  C   UNL A   1      40.762  28.789  26.936  1.00  0.00     0.029 A 
ATOM     34  N   UNL A   1      42.369  28.131  28.315  1.00  0.00    -0.354 N 
ATOM     35  C   UNL A   1      41.748  28.628  32.715  1.00  0.00     0.074 A 
ATOM     36  C   UNL A   1      40.385  28.177  32.803  1.00  0.00     0.031 C 
ATOM     37  C   UNL A   1      41.514  27.892  26.264  1.00  0.00     0.029 A 
ATOM     38  C   UNL A   1      42.547  27.390  27.151  1.00  0.00     0.049 A 
ATOM     39  H   UNL A   1      43.027  28.157  29.048  1.00  0.00     0.167 HD
ATOM     40  C   UNL A   1      42.814  28.316  33.497  1.00  0.00     0.034 A 
ATOM     41  C   UNL A   1      43.405  26.356  26.986  1.00  0.00     0.034 A 
ATOM     42  C   UNL A   1      43.991  29.054  33.137  1.00  0.00     0.049 A 
ATOM     43  C   UNL A   1      44.409  26.436  28.072  1.00  0.00     0.074 A 
ATOM     44  C   UNL A   1      44.327  30.391  33.089  1.00  0.00     0.029 A 
ATOM     45  N   UNL A   1      44.950  28.395  32.412  1.00  0.00    -0.354 N 
ATOM     46  N   UNL A   1      45.288  27.390  28.192  1.00  0.00    -0.248 NA
ATOM     47  C   UNL A   1      44.193  25.630  29.263  1.00  0.00     0.031 C 
ATOM     48  C   UNL A   1      45.198  30.512  31.967  1.00  0.00     0.029 A 
ATOM     49  C   UNL A   1      45.362  29.240  31.415  1.00  0.00     0.049 A 
ATOM     50  H   UNL A   1      45.282  27.482  32.576  1.00  0.00     0.167 HD
ATOM     51  C   UNL A   1      45.414  27.581  29.561  1.00  0.00     0.074 A 
ATOM     52  C   UNL A   1      44.821  26.389  30.163  1.00  0.00     0.031 C 
ATOM     53  C   UNL A   1      45.719  28.807  30.079  1.00  0.00     0.034 A 
BRANCH  40  54
ATOM     54  C   UNL A   1      42.866  27.106  34.395  1.00  0.00     0.023 A 
ATOM     55  C   UNL A   1      42.492  27.265  35.745  1.00  0.00     0.012 A 
ATOM     56  C   UNL A   1      43.485  25.886  34.039  1.00  0.00     0.148 A 
ATOM     57  C   UNL A   1      42.732  26.264  36.693  1.00  0.00     0.002 A 
ATOM     58  C   UNL A   1      43.632  24.858  34.961  1.00  0.00     0.091 A 
ATOM     59  F   UNL A   1      44.063  25.754  32.838  1.00  0.00    -0.205 F 
ATOM     60  C   UNL A   1      43.284  25.051  36.297  1.00  0.00     0.022 A 
BRANCH  58  61
ATOM     61  S   UNL A   1      44.254  23.247  34.465  1.00  0.00     0.127 S 
ATOM     62  O   UNL A   1      44.497  22.612  35.756  1.00  0.00    -0.237 OA
ATOM     63  O   UNL A   1      43.122  22.705  33.711  1.00  0.00    -0.237 OA
ATOM     64  O   UNL A   1      45.428  23.529  33.647  1.00  0.00    -0.744 OA
ENDBRANCH  58  61
ENDBRANCH  40  54
BRANCH  41  65
ATOM     65  C   UNL A   1      43.247  25.129  26.168  1.00  0.00     0.023 A 
ATOM     66  C   UNL A   1      44.200  24.850  25.170  1.00  0.00     0.012 A 
ATOM     67  C   UNL A   1      42.354  24.101  26.545  1.00  0.00     0.148 A 
ATOM     68  C   UNL A   1      44.294  23.576  24.598  1.00  0.00     0.002 A 
ATOM     69  C   UNL A   1      42.442  22.840  25.965  1.00  0.00     0.091 A 
ATOM     70  F   UNL A   1      41.487  24.325  27.541  1.00  0.00    -0.205 F 
ATOM     71  C   UNL A   1      43.422  22.568  25.001  1.00  0.00     0.022 A 
BRANCH  69  72
ATOM     72  S   UNL A   1      41.361  21.487  26.454  1.00  0.00     0.127 S 
ATOM     73  O   UNL A   1      40.046  21.984  26.045  1.00  0.00    -0.237 OA
ATOM     74  O   UNL A   1      41.877  20.383  25.649  1.00  0.00    -0.237 OA
ATOM     75  O   UNL A   1      41.525  21.355  27.896  1.00  0.00    -0.744 OA
ENDBRANCH  69  72
ENDBRANCH  41  65
BRANCH  53  76
ATOM     76  C   UNL A   1      46.171  29.892  29.129  1.00  0.00     0.023 A 
ATOM     77  C   UNL A   1      47.528  30.063  28.783  1.00  0.00     0.012 A 
ATOM     78  C   UNL A   1      45.199  30.621  28.421  1.00  0.00     0.148 A 
ATOM     79  C   UNL A   1      47.910  30.954  27.777  1.00  0.00     0.002 A 
ATOM     80  C   UNL A   1      45.577  31.469  27.385  1.00  0.00     0.091 A 
ATOM     81  F   UNL A   1      43.909  30.447  28.752  1.00  0.00    -0.205 F 
ATOM     82  C   UNL A   1      46.933  31.646  27.067  1.00  0.00     0.022 A 
BRANCH  80  83
ATOM     83  S   UNL A   1      44.362  32.277  26.340  1.00  0.00     0.127 S 
ATOM     84  O   UNL A   1      43.819  33.298  27.232  1.00  0.00    -0.237 OA
ATOM     85  O   UNL A   1      45.183  32.797  25.244  1.00  0.00    -0.237 OA
ATOM     86  O   UNL A   1      43.429  31.232  25.934  1.00  0.00    -0.744 OA
ENDBRANCH  80  83
ENDBRANCH  53  76
ENDBRANCH  27  28
ENDBRANCH  20  22
ENDBRANCH   1  20
TORSDOF 14
ENDMDL
