MODEL 1
REMARK VINA RESULT:     -12.6      0.000      0.000
REMARK SMILES Cc1cc2c(c(C)c1Br)C=C(C(=O)OCCOC(=O)c1ccc(-c3c4nc(c(-c5cccc(S(=O)(=O)[O-])c5F)c5ccc([nH]5)c(-c5cccc(S(=O)(=O)[O-])c5F)c5nc(c(-c6cccc(S(=O)(=O)[O-])c6F)c6ccc3[nH]6)C=C5)C=C4)cc1)[C@@H](C(F)(F)F)O2
REMARK SMILES IDX 16 1 15 2 14 3 12 4 13 5 11 6 1 7 2 8 3 9 8 10 4 11 6 12
REMARK SMILES IDX 9 13 5 14 88 15 7 16 10 17 83 18 84 19 85 20 86 21 87 22
REMARK SMILES IDX 17 23 18 24 19 25 20 26 21 27 82 28 22 29 81 30 23 31 24 32
REMARK SMILES IDX 25 33 75 34 26 35 80 36 74 37 76 38 27 39 79 40 73 41 72 42
REMARK SMILES IDX 28 44 60 45 40 46 59 47 41 48 44 49 58 50 77 51 42 52 43 53
REMARK SMILES IDX 57 55 78 56 45 57 29 58 30 59 38 60 31 61 33 62 39 63 32 64
REMARK SMILES IDX 34 65 35 66 36 67 37 68 61 69 62 70 70 71 63 72 65 73 71 74
REMARK SMILES IDX 64 75 66 76 67 77 68 78 69 79 46 80 47 81 55 82 48 83 50 84
REMARK SMILES IDX 56 85 49 86 51 87 52 88 53 89 54 90
REMARK H PARENT 76 43 44 54
REMARK Flexibility Score: inf
ROOT
ATOM      1  C   UNL A   1      36.159  20.791  25.086  1.00  0.00     0.275 C 
ENDROOT
BRANCH   1   2
ATOM      2  C   UNL A   1      34.903  21.525  24.616  1.00  0.00     0.275 C 
BRANCH   2   3
ATOM      3  O   UNL A   1      35.014  22.953  24.808  1.00  0.00    -0.459 OA
BRANCH   3   4
ATOM      4  C   UNL A   1      34.127  23.490  25.678  1.00  0.00     0.338 C 
ATOM      5  O   UNL A   1      33.896  23.100  26.813  1.00  0.00    -0.246 OA
BRANCH   4   6
ATOM      6  C   UNL A   1      33.431  24.646  25.078  1.00  0.00     0.087 C 
ATOM      7  C   UNL A   1      29.985  29.991  23.815  1.00  0.00     0.046 C 
ATOM      8  C   UNL A   1      30.952  28.978  24.366  1.00  0.00    -0.033 A 
ATOM      9  C   UNL A   1      31.055  27.757  23.680  1.00  0.00     0.051 A 
ATOM     10  C   UNL A   1      31.777  29.201  25.488  1.00  0.00     0.024 A 
ATOM     11  C   UNL A   1      31.904  26.748  24.124  1.00  0.00     0.128 A 
ATOM     12  C   UNL A   1      32.630  28.179  25.969  1.00  0.00    -0.026 A 
ATOM     13  Br  UNL A   1      31.739  30.916  26.340  1.00  0.00    -0.050 Br
ATOM     14  C   UNL A   1      32.676  26.939  25.272  1.00  0.00     0.021 A 
ATOM     15  O   UNL A   1      31.922  25.614  23.358  1.00  0.00    -0.475 OA
ATOM     16  C   UNL A   1      33.505  28.378  27.188  1.00  0.00     0.046 C 
ATOM     17  C   UNL A   1      33.488  25.815  25.725  1.00  0.00     0.027 C 
ATOM     18  C   UNL A   1      32.573  24.423  23.873  1.00  0.00     0.316 C 
BRANCH  18  19
ATOM     19  C   UNL A   1      31.505  23.347  24.131  1.00  0.00     0.430 C 
ATOM     20  F   UNL A   1      30.395  23.570  23.385  1.00  0.00    -0.167 F 
ATOM     21  F   UNL A   1      31.946  22.110  23.797  1.00  0.00    -0.167 F 
ATOM     22  F   UNL A   1      31.118  23.304  25.426  1.00  0.00    -0.167 F 
ENDBRANCH  18  19
ENDBRANCH   4   6
ENDBRANCH   3   4
ENDBRANCH   2   3
ENDBRANCH   1   2
BRANCH   1  23
ATOM     23  O   UNL A   1      37.329  21.605  24.891  1.00  0.00    -0.458 OA
BRANCH  23  24
ATOM     24  C   UNL A   1      38.421  21.201  25.579  1.00  0.00     0.338 C 
ATOM     25  O   UNL A   1      38.961  20.109  25.533  1.00  0.00    -0.246 OA
BRANCH  24  26
ATOM     26  C   UNL A   1      38.976  22.316  26.357  1.00  0.00     0.060 A 
ATOM     27  C   UNL A   1      38.454  23.583  26.139  1.00  0.00     0.016 A 
ATOM     28  C   UNL A   1      40.136  22.161  27.110  1.00  0.00     0.016 A 
ATOM     29  C   UNL A   1      39.182  24.704  26.516  1.00  0.00     0.010 A 
ATOM     30  C   UNL A   1      40.782  23.295  27.623  1.00  0.00     0.010 A 
ATOM     31  C   UNL A   1      40.350  24.588  27.280  1.00  0.00    -0.014 A 
BRANCH  31  32
ATOM     32  C   UNL A   1      41.115  25.809  27.689  1.00  0.00     0.031 A 
ATOM     33  C   UNL A   1      40.471  26.865  28.558  1.00  0.00     0.074 A 
ATOM     34  C   UNL A   1      42.399  25.975  27.300  1.00  0.00     0.049 A 
ATOM     35  N   UNL A   1      40.886  28.077  28.830  1.00  0.00    -0.248 NA
ATOM     36  C   UNL A   1      39.186  26.524  29.193  1.00  0.00     0.031 C 
ATOM     37  C   UNL A   1      43.175  25.022  26.502  1.00  0.00     0.029 A 
ATOM     38  N   UNL A   1      43.284  27.003  27.524  1.00  0.00    -0.354 N 
ATOM     39  C   UNL A   1      39.881  28.667  29.589  1.00  0.00     0.074 A 
ATOM     40  C   UNL A   1      38.838  27.678  29.749  1.00  0.00     0.031 C 
ATOM     41  C   UNL A   1      44.426  25.476  26.354  1.00  0.00     0.029 A 
ATOM     42  C   UNL A   1      44.507  26.816  26.917  1.00  0.00     0.049 A 
ATOM     43  H   UNL A   1      43.065  27.796  28.065  1.00  0.00     0.167 HD
ATOM     44  C   UNL A   1      39.834  29.919  30.108  1.00  0.00     0.034 A 
ATOM     45  C   UNL A   1      45.559  27.643  26.762  1.00  0.00     0.034 A 
ATOM     46  C   UNL A   1      40.912  30.870  30.008  1.00  0.00     0.049 A 
ATOM     47  C   UNL A   1      45.473  29.032  27.321  1.00  0.00     0.074 A 
ATOM     48  C   UNL A   1      40.968  32.160  30.508  1.00  0.00     0.029 A 
ATOM     49  N   UNL A   1      42.130  30.630  29.390  1.00  0.00    -0.354 N 
ATOM     50  N   UNL A   1      44.503  29.584  28.007  1.00  0.00    -0.248 NA
ATOM     51  C   UNL A   1      46.626  29.913  27.088  1.00  0.00     0.031 C 
ATOM     52  C   UNL A   1      42.208  32.708  30.168  1.00  0.00     0.029 A 
ATOM     53  C   UNL A   1      42.943  31.747  29.495  1.00  0.00     0.049 A 
ATOM     54  H   UNL A   1      42.379  29.790  28.941  1.00  0.00     0.167 HD
ATOM     55  C   UNL A   1      44.937  30.867  28.315  1.00  0.00     0.074 A 
ATOM     56  C   UNL A   1      46.269  31.001  27.757  1.00  0.00     0.031 C 
ATOM     57  C   UNL A   1      44.285  31.849  28.983  1.00  0.00     0.034 A 
BRANCH  44  58
ATOM     58  C   UNL A   1      38.590  30.349  30.849  1.00  0.00     0.023 A 
ATOM     59  C   UNL A   1      38.501  30.173  32.244  1.00  0.00     0.012 A 
ATOM     60  C   UNL A   1      37.551  31.026  30.175  1.00  0.00     0.148 A 
ATOM     61  C   UNL A   1      37.393  30.643  32.951  1.00  0.00     0.002 A 
ATOM     62  C   UNL A   1      36.475  31.536  30.893  1.00  0.00     0.091 A 
ATOM     63  F   UNL A   1      37.643  31.171  28.844  1.00  0.00    -0.205 F 
ATOM     64  C   UNL A   1      36.390  31.337  32.279  1.00  0.00     0.022 A 
BRANCH  62  65
ATOM     65  S   UNL A   1      35.179  32.526  30.134  1.00  0.00     0.127 S 
ATOM     66  O   UNL A   1      34.266  32.728  31.259  1.00  0.00    -0.237 OA
ATOM     67  O   UNL A   1      35.910  33.723  29.720  1.00  0.00    -0.237 OA
ATOM     68  O   UNL A   1      34.648  31.726  29.039  1.00  0.00    -0.744 OA
ENDBRANCH  62  65
ENDBRANCH  44  58
BRANCH  45  69
ATOM     69  C   UNL A   1      46.776  27.164  26.042  1.00  0.00     0.023 A 
ATOM     70  C   UNL A   1      46.933  27.463  24.675  1.00  0.00     0.012 A 
ATOM     71  C   UNL A   1      47.811  26.488  26.719  1.00  0.00     0.148 A 
ATOM     72  C   UNL A   1      48.095  27.092  23.996  1.00  0.00     0.002 A 
ATOM     73  C   UNL A   1      48.995  26.189  26.056  1.00  0.00     0.091 A 
ATOM     74  F   UNL A   1      47.635  26.189  28.013  1.00  0.00    -0.205 F 
ATOM     75  C   UNL A   1      49.132  26.474  24.689  1.00  0.00     0.022 A 
BRANCH  73  76
ATOM     76  S   UNL A   1      50.444  25.554  26.910  1.00  0.00     0.127 S 
ATOM     77  O   UNL A   1      51.377  25.350  25.805  1.00  0.00    -0.237 OA
ATOM     78  O   UNL A   1      50.777  26.663  27.804  1.00  0.00    -0.237 OA
ATOM     79  O   UNL A   1      50.000  24.346  27.593  1.00  0.00    -0.744 OA
ENDBRANCH  73  76
ENDBRANCH  45  69
BRANCH  57  80
ATOM     80  C   UNL A   1      45.014  33.149  29.200  1.00  0.00     0.023 A 
ATOM     81  C   UNL A   1      45.837  33.317  30.330  1.00  0.00     0.012 A 
ATOM     82  C   UNL A   1      44.946  34.173  28.234  1.00  0.00     0.148 A 
ATOM     83  C   UNL A   1      46.555  34.497  30.513  1.00  0.00     0.002 A 
ATOM     84  C   UNL A   1      45.709  35.323  28.394  1.00  0.00     0.091 A 
ATOM     85  F   UNL A   1      44.142  34.001  27.174  1.00  0.00    -0.205 F 
ATOM     86  C   UNL A   1      46.503  35.493  29.540  1.00  0.00     0.022 A 
BRANCH  84  87
ATOM     87  S   UNL A   1      45.790  36.608  27.141  1.00  0.00     0.127 S 
ATOM     88  O   UNL A   1      46.287  35.864  25.985  1.00  0.00    -0.237 OA
ATOM     89  O   UNL A   1      44.392  37.029  27.040  1.00  0.00    -0.237 OA
ATOM     90  O   UNL A   1      46.691  37.624  27.665  1.00  0.00    -0.744 OA
ENDBRANCH  84  87
ENDBRANCH  57  80
ENDBRANCH  31  32
ENDBRANCH  24  26
ENDBRANCH  23  24
ENDBRANCH   1  23
TORSDOF 15
ENDMDL
MODEL 2
REMARK VINA RESULT:     -12.5      4.865      9.988
REMARK SMILES Cc1cc2c(c(C)c1Br)C=C(C(=O)OCCOC(=O)c1ccc(-c3c4nc(c(-c5cccc(S(=O)(=O)[O-])c5F)c5ccc([nH]5)c(-c5cccc(S(=O)(=O)[O-])c5F)c5nc(c(-c6cccc(S(=O)(=O)[O-])c6F)c6ccc3[nH]6)C=C5)C=C4)cc1)[C@@H](C(F)(F)F)O2
REMARK SMILES IDX 16 1 15 2 14 3 12 4 13 5 11 6 1 7 2 8 3 9 8 10 4 11 6 12
REMARK SMILES IDX 9 13 5 14 88 15 7 16 10 17 83 18 84 19 85 20 86 21 87 22
REMARK SMILES IDX 17 23 18 24 19 25 20 26 21 27 82 28 22 29 81 30 23 31 24 32
REMARK SMILES IDX 25 33 75 34 26 35 80 36 74 37 76 38 27 39 79 40 73 41 72 42
REMARK SMILES IDX 28 44 60 45 40 46 59 47 41 48 44 49 58 50 77 51 42 52 43 53
REMARK SMILES IDX 57 55 78 56 45 57 29 58 30 59 38 60 31 61 33 62 39 63 32 64
REMARK SMILES IDX 34 65 35 66 36 67 37 68 61 69 62 70 70 71 63 72 65 73 71 74
REMARK SMILES IDX 64 75 66 76 67 77 68 78 69 79 46 80 47 81 55 82 48 83 50 84
REMARK SMILES IDX 56 85 49 86 51 87 52 88 53 89 54 90
REMARK H PARENT 76 43 44 54
REMARK Flexibility Score: inf
ROOT
ATOM      1  C   UNL A   1      31.457  30.199  25.686  1.00  0.00     0.275 C 
ENDROOT
BRANCH   1   2
ATOM      2  C   UNL A   1      31.935  29.272  24.568  1.00  0.00     0.275 C 
BRANCH   2   3
ATOM      3  O   UNL A   1      32.379  27.998  25.084  1.00  0.00    -0.459 OA
BRANCH   3   4
ATOM      4  C   UNL A   1      33.263  27.334  24.303  1.00  0.00     0.338 C 
ATOM      5  O   UNL A   1      34.029  27.830  23.491  1.00  0.00    -0.246 OA
BRANCH   4   6
ATOM      6  C   UNL A   1      33.193  25.879  24.542  1.00  0.00     0.087 C 
ATOM      7  C   UNL A   1      34.005  19.447  24.674  1.00  0.00     0.046 C 
ATOM      8  C   UNL A   1      34.191  20.940  24.719  1.00  0.00    -0.033 A 
ATOM      9  C   UNL A   1      33.029  21.728  24.695  1.00  0.00     0.051 A 
ATOM     10  C   UNL A   1      35.444  21.577  24.826  1.00  0.00     0.024 A 
ATOM     11  C   UNL A   1      33.098  23.118  24.710  1.00  0.00     0.128 A 
ATOM     12  C   UNL A   1      35.538  22.990  24.820  1.00  0.00    -0.026 A 
ATOM     13  Br  UNL A   1      37.019  20.501  25.001  1.00  0.00    -0.050 Br
ATOM     14  C   UNL A   1      34.339  23.755  24.751  1.00  0.00     0.021 A 
ATOM     15  O   UNL A   1      31.893  23.767  24.698  1.00  0.00    -0.475 OA
ATOM     16  C   UNL A   1      36.870  23.702  24.903  1.00  0.00     0.046 C 
ATOM     17  C   UNL A   1      34.344  25.213  24.689  1.00  0.00     0.027 C 
ATOM     18  C   UNL A   1      31.864  25.198  24.455  1.00  0.00     0.316 C 
BRANCH  18  19
ATOM     19  C   UNL A   1      31.185  25.457  23.100  1.00  0.00     0.430 C 
ATOM     20  F   UNL A   1      30.380  24.424  22.751  1.00  0.00    -0.167 F 
ATOM     21  F   UNL A   1      30.396  26.559  23.135  1.00  0.00    -0.167 F 
ATOM     22  F   UNL A   1      32.078  25.629  22.100  1.00  0.00    -0.167 F 
ENDBRANCH  18  19
ENDBRANCH   4   6
ENDBRANCH   3   4
ENDBRANCH   2   3
ENDBRANCH   1   2
BRANCH   1  23
ATOM     23  O   UNL A   1      32.323  30.109  26.830  1.00  0.00    -0.458 OA
BRANCH  23  24
ATOM     24  C   UNL A   1      32.943  31.264  27.163  1.00  0.00     0.338 C 
ATOM     25  O   UNL A   1      32.444  32.373  27.243  1.00  0.00    -0.246 OA
BRANCH  24  26
ATOM     26  C   UNL A   1      34.340  31.004  27.536  1.00  0.00     0.060 A 
ATOM     27  C   UNL A   1      34.714  29.691  27.780  1.00  0.00     0.016 A 
ATOM     28  C   UNL A   1      35.203  32.047  27.862  1.00  0.00     0.016 A 
ATOM     29  C   UNL A   1      35.864  29.425  28.513  1.00  0.00     0.010 A 
ATOM     30  C   UNL A   1      36.437  31.758  28.462  1.00  0.00     0.010 A 
ATOM     31  C   UNL A   1      36.759  30.447  28.855  1.00  0.00    -0.014 A 
BRANCH  31  32
ATOM     32  C   UNL A   1      38.001  30.140  29.634  1.00  0.00     0.031 A 
ATOM     33  C   UNL A   1      39.088  29.273  29.038  1.00  0.00     0.074 A 
ATOM     34  C   UNL A   1      38.175  30.648  30.873  1.00  0.00     0.049 A 
ATOM     35  N   UNL A   1      40.118  28.720  29.627  1.00  0.00    -0.248 NA
ATOM     36  C   UNL A   1      38.999  28.975  27.598  1.00  0.00     0.031 C 
ATOM     37  C   UNL A   1      37.241  31.541  31.565  1.00  0.00     0.029 A 
ATOM     38  N   UNL A   1      39.200  30.492  31.778  1.00  0.00    -0.354 N 
ATOM     39  C   UNL A   1      40.746  27.945  28.657  1.00  0.00     0.074 A 
ATOM     40  C   UNL A   1      39.990  28.107  27.434  1.00  0.00     0.031 C 
ATOM     41  C   UNL A   1      37.756  31.899  32.747  1.00  0.00     0.029 A 
ATOM     42  C   UNL A   1      38.985  31.151  32.968  1.00  0.00     0.049 A 
ATOM     43  H   UNL A   1      40.008  29.961  31.592  1.00  0.00     0.167 HD
ATOM     44  C   UNL A   1      41.854  27.172  28.775  1.00  0.00     0.034 A 
ATOM     45  C   UNL A   1      39.653  31.115  34.137  1.00  0.00     0.034 A 
ATOM     46  C   UNL A   1      42.643  27.078  29.977  1.00  0.00     0.049 A 
ATOM     47  C   UNL A   1      40.859  30.231  34.253  1.00  0.00     0.074 A 
ATOM     48  C   UNL A   1      43.787  26.331  30.196  1.00  0.00     0.029 A 
ATOM     49  N   UNL A   1      42.387  27.769  31.152  1.00  0.00    -0.354 N 
ATOM     50  N   UNL A   1      41.419  29.481  33.336  1.00  0.00    -0.248 NA
ATOM     51  C   UNL A   1      41.528  30.189  35.560  1.00  0.00     0.031 C 
ATOM     52  C   UNL A   1      44.208  26.549  31.512  1.00  0.00     0.029 A 
ATOM     53  C   UNL A   1      43.352  27.465  32.099  1.00  0.00     0.049 A 
ATOM     54  H   UNL A   1      41.632  28.383  31.292  1.00  0.00     0.167 HD
ATOM     55  C   UNL A   1      42.524  28.898  33.945  1.00  0.00     0.074 A 
ATOM     56  C   UNL A   1      42.565  29.402  35.303  1.00  0.00     0.031 C 
ATOM     57  C   UNL A   1      43.412  28.015  33.429  1.00  0.00     0.034 A 
BRANCH  44  58
ATOM     58  C   UNL A   1      42.304  26.367  27.579  1.00  0.00     0.023 A 
ATOM     59  C   UNL A   1      43.208  26.923  26.652  1.00  0.00     0.012 A 
ATOM     60  C   UNL A   1      41.914  25.018  27.433  1.00  0.00     0.148 A 
ATOM     61  C   UNL A   1      43.697  26.160  25.590  1.00  0.00     0.002 A 
ATOM     62  C   UNL A   1      42.445  24.250  26.403  1.00  0.00     0.091 A 
ATOM     63  F   UNL A   1      41.040  24.508  28.314  1.00  0.00    -0.205 F 
ATOM     64  C   UNL A   1      43.328  24.822  25.475  1.00  0.00     0.022 A 
BRANCH  62  65
ATOM     65  S   UNL A   1      42.107  22.493  26.224  1.00  0.00     0.127 S 
ATOM     66  O   UNL A   1      42.845  22.173  25.002  1.00  0.00    -0.237 OA
ATOM     67  O   UNL A   1      42.688  21.942  27.449  1.00  0.00    -0.237 OA
ATOM     68  O   UNL A   1      40.659  22.367  26.126  1.00  0.00    -0.744 OA
ENDBRANCH  62  65
ENDBRANCH  44  58
BRANCH  45  69
ATOM     69  C   UNL A   1      39.181  31.947  35.284  1.00  0.00     0.023 A 
ATOM     70  C   UNL A   1      38.357  31.366  36.267  1.00  0.00     0.012 A 
ATOM     71  C   UNL A   1      39.609  33.280  35.449  1.00  0.00     0.148 A 
ATOM     72  C   UNL A   1      37.963  32.100  37.387  1.00  0.00     0.002 A 
ATOM     73  C   UNL A   1      39.276  33.979  36.603  1.00  0.00     0.091 A 
ATOM     74  F   UNL A   1      40.373  33.825  34.492  1.00  0.00    -0.205 F 
ATOM     75  C   UNL A   1      38.437  33.397  37.565  1.00  0.00     0.022 A 
BRANCH  73  76
ATOM     76  S   UNL A   1      39.982  35.584  36.995  1.00  0.00     0.127 S 
ATOM     77  O   UNL A   1      39.315  35.906  38.254  1.00  0.00    -0.237 OA
ATOM     78  O   UNL A   1      41.405  35.266  37.114  1.00  0.00    -0.237 OA
ATOM     79  O   UNL A   1      39.653  36.446  35.867  1.00  0.00    -0.744 OA
ENDBRANCH  73  76
ENDBRANCH  45  69
BRANCH  57  80
ATOM     80  C   UNL A   1      44.543  27.564  34.316  1.00  0.00     0.023 A 
ATOM     81  C   UNL A   1      45.724  28.327  34.396  1.00  0.00     0.012 A 
ATOM     82  C   UNL A   1      44.397  26.425  35.133  1.00  0.00     0.148 A 
ATOM     83  C   UNL A   1      46.756  27.946  35.252  1.00  0.00     0.002 A 
ATOM     84  C   UNL A   1      45.406  26.084  36.025  1.00  0.00     0.091 A 
ATOM     85  F   UNL A   1      43.273  25.702  35.028  1.00  0.00    -0.205 F 
ATOM     86  C   UNL A   1      46.592  26.834  36.076  1.00  0.00     0.022 A 
BRANCH  84  87
ATOM     87  S   UNL A   1      45.236  24.736  37.201  1.00  0.00     0.127 S 
ATOM     88  O   UNL A   1      44.797  23.642  36.336  1.00  0.00    -0.237 OA
ATOM     89  O   UNL A   1      46.600  24.599  37.713  1.00  0.00    -0.237 OA
ATOM     90  O   UNL A   1      44.262  25.182  38.187  1.00  0.00    -0.744 OA
ENDBRANCH  84  87
ENDBRANCH  57  80
ENDBRANCH  31  32
ENDBRANCH  24  26
ENDBRANCH  23  24
ENDBRANCH   1  23
TORSDOF 15
ENDMDL
MODEL 3
REMARK VINA RESULT:     -12.5      1.292      1.552
REMARK SMILES Cc1cc2c(c(C)c1Br)C=C(C(=O)OCCOC(=O)c1ccc(-c3c4nc(c(-c5cccc(S(=O)(=O)[O-])c5F)c5ccc([nH]5)c(-c5cccc(S(=O)(=O)[O-])c5F)c5nc(c(-c6cccc(S(=O)(=O)[O-])c6F)c6ccc3[nH]6)C=C5)C=C4)cc1)[C@@H](C(F)(F)F)O2
REMARK SMILES IDX 16 1 15 2 14 3 12 4 13 5 11 6 1 7 2 8 3 9 8 10 4 11 6 12
REMARK SMILES IDX 9 13 5 14 88 15 7 16 10 17 83 18 84 19 85 20 86 21 87 22
REMARK SMILES IDX 17 23 18 24 19 25 20 26 21 27 82 28 22 29 81 30 23 31 24 32
REMARK SMILES IDX 25 33 75 34 26 35 80 36 74 37 76 38 27 39 79 40 73 41 72 42
REMARK SMILES IDX 28 44 60 45 40 46 59 47 41 48 44 49 58 50 77 51 42 52 43 53
REMARK SMILES IDX 57 55 78 56 45 57 29 58 30 59 38 60 31 61 33 62 39 63 32 64
REMARK SMILES IDX 34 65 35 66 36 67 37 68 61 69 62 70 70 71 63 72 65 73 71 74
REMARK SMILES IDX 64 75 66 76 67 77 68 78 69 79 46 80 47 81 55 82 48 83 50 84
REMARK SMILES IDX 56 85 49 86 51 87 52 88 53 89 54 90
REMARK H PARENT 76 43 44 54
REMARK Flexibility Score: inf
ROOT
ATOM      1  C   UNL A   1      36.690  20.760  25.005  1.00  0.00     0.275 C 
ENDROOT
BRANCH   1   2
ATOM      2  C   UNL A   1      35.324  21.406  24.774  1.00  0.00     0.275 C 
BRANCH   2   3
ATOM      3  O   UNL A   1      35.395  22.848  24.845  1.00  0.00    -0.459 OA
BRANCH   3   4
ATOM      4  C   UNL A   1      34.544  23.427  25.724  1.00  0.00     0.338 C 
ATOM      5  O   UNL A   1      34.385  23.113  26.893  1.00  0.00    -0.246 OA
BRANCH   4   6
ATOM      6  C   UNL A   1      33.788  24.523  25.085  1.00  0.00     0.087 C 
ATOM      7  C   UNL A   1      30.070  29.635  23.643  1.00  0.00     0.046 C 
ATOM      8  C   UNL A   1      31.089  28.693  24.226  1.00  0.00    -0.033 A 
ATOM      9  C   UNL A   1      31.255  27.456  23.584  1.00  0.00     0.051 A 
ATOM     10  C   UNL A   1      31.902  28.998  25.337  1.00  0.00     0.024 A 
ATOM     11  C   UNL A   1      32.155  26.508  24.061  1.00  0.00     0.128 A 
ATOM     12  C   UNL A   1      32.807  28.040  25.852  1.00  0.00    -0.026 A 
ATOM     13  Br  UNL A   1      31.776  30.738  26.128  1.00  0.00    -0.050 Br
ATOM     14  C   UNL A   1      32.916  26.780  25.199  1.00  0.00     0.021 A 
ATOM     15  O   UNL A   1      32.230  25.350  23.335  1.00  0.00    -0.475 OA
ATOM     16  C   UNL A   1      33.671  28.326  27.061  1.00  0.00     0.046 C 
ATOM     17  C   UNL A   1      33.786  25.716  25.690  1.00  0.00     0.027 C 
ATOM     18  C   UNL A   1      32.943  24.213  23.891  1.00  0.00     0.316 C 
BRANCH  18  19
ATOM     19  C   UNL A   1      31.932  23.094  24.189  1.00  0.00     0.430 C 
ATOM     20  F   UNL A   1      30.787  23.266  23.483  1.00  0.00    -0.167 F 
ATOM     21  F   UNL A   1      32.413  21.875  23.842  1.00  0.00    -0.167 F 
ATOM     22  F   UNL A   1      31.595  23.039  25.498  1.00  0.00    -0.167 F 
ENDBRANCH  18  19
ENDBRANCH   4   6
ENDBRANCH   3   4
ENDBRANCH   2   3
ENDBRANCH   1   2
BRANCH   1  23
ATOM     23  O   UNL A   1      37.731  21.753  25.015  1.00  0.00    -0.458 OA
BRANCH  23  24
ATOM     24  C   UNL A   1      38.817  21.428  25.751  1.00  0.00     0.338 C 
ATOM     25  O   UNL A   1      39.420  20.368  25.748  1.00  0.00    -0.246 OA
BRANCH  24  26
ATOM     26  C   UNL A   1      39.278  22.589  26.524  1.00  0.00     0.060 A 
ATOM     27  C   UNL A   1      38.752  23.832  26.204  1.00  0.00     0.016 A 
ATOM     28  C   UNL A   1      40.368  22.494  27.384  1.00  0.00     0.016 A 
ATOM     29  C   UNL A   1      39.421  24.986  26.593  1.00  0.00     0.010 A 
ATOM     30  C   UNL A   1      40.943  23.664  27.900  1.00  0.00     0.010 A 
ATOM     31  C   UNL A   1      40.518  24.931  27.462  1.00  0.00    -0.014 A 
BRANCH  31  32
ATOM     32  C   UNL A   1      41.219  26.186  27.881  1.00  0.00     0.031 A 
ATOM     33  C   UNL A   1      40.493  27.239  28.689  1.00  0.00     0.074 A 
ATOM     34  C   UNL A   1      42.515  26.387  27.558  1.00  0.00     0.049 A 
ATOM     35  N   UNL A   1      40.852  28.469  28.953  1.00  0.00    -0.248 NA
ATOM     36  C   UNL A   1      39.187  26.868  29.262  1.00  0.00     0.031 C 
ATOM     37  C   UNL A   1      43.365  25.444  26.827  1.00  0.00     0.029 A 
ATOM     38  N   UNL A   1      43.353  27.450  27.804  1.00  0.00    -0.354 N 
ATOM     39  C   UNL A   1      39.788  29.042  29.643  1.00  0.00     0.074 A 
ATOM     40  C   UNL A   1      38.771  28.021  29.771  1.00  0.00     0.031 C 
ATOM     41  C   UNL A   1      44.606  25.937  26.735  1.00  0.00     0.029 A 
ATOM     42  C   UNL A   1      44.612  27.291  27.270  1.00  0.00     0.049 A 
ATOM     43  H   UNL A   1      43.078  28.247  28.314  1.00  0.00     0.167 HD
ATOM     44  C   UNL A   1      39.672  30.303  30.128  1.00  0.00     0.034 A 
ATOM     45  C   UNL A   1      45.643  28.150  27.152  1.00  0.00     0.034 A 
ATOM     46  C   UNL A   1      40.721  31.288  30.063  1.00  0.00     0.049 A 
ATOM     47  C   UNL A   1      45.481  29.548  27.671  1.00  0.00     0.074 A 
ATOM     48  C   UNL A   1      40.707  32.589  30.534  1.00  0.00     0.029 A 
ATOM     49  N   UNL A   1      41.978  31.076  29.517  1.00  0.00    -0.354 N 
ATOM     50  N   UNL A   1      44.457  30.082  28.290  1.00  0.00    -0.248 NA
ATOM     51  C   UNL A   1      46.615  30.463  27.479  1.00  0.00     0.031 C 
ATOM     52  C   UNL A   1      41.945  33.173  30.248  1.00  0.00     0.029 A 
ATOM     53  C   UNL A   1      42.747  32.222  29.639  1.00  0.00     0.049 A 
ATOM     54  H   UNL A   1      42.280  30.236  29.103  1.00  0.00     0.167 HD
ATOM     55  C   UNL A   1      44.831  31.385  28.589  1.00  0.00     0.074 A 
ATOM     56  C   UNL A   1      46.186  31.552  28.101  1.00  0.00     0.031 C 
ATOM     57  C   UNL A   1      44.111  32.358  29.197  1.00  0.00     0.034 A 
BRANCH  44  58
ATOM     58  C   UNL A   1      38.376  30.706  30.790  1.00  0.00     0.023 A 
ATOM     59  C   UNL A   1      38.207  30.536  32.179  1.00  0.00     0.012 A 
ATOM     60  C   UNL A   1      37.363  31.354  30.050  1.00  0.00     0.148 A 
ATOM     61  C   UNL A   1      37.048  30.983  32.815  1.00  0.00     0.002 A 
ATOM     62  C   UNL A   1      36.234  31.841  30.699  1.00  0.00     0.091 A 
ATOM     63  F   UNL A   1      37.530  31.493  28.726  1.00  0.00    -0.205 F 
ATOM     64  C   UNL A   1      36.070  31.647  32.079  1.00  0.00     0.022 A 
BRANCH  62  65
ATOM     65  S   UNL A   1      34.962  32.794  29.857  1.00  0.00     0.127 S 
ATOM     66  O   UNL A   1      34.045  33.097  30.956  1.00  0.00    -0.237 OA
ATOM     67  O   UNL A   1      35.718  33.944  29.360  1.00  0.00    -0.237 OA
ATOM     68  O   UNL A   1      34.423  31.924  28.821  1.00  0.00    -0.744 OA
ENDBRANCH  62  65
ENDBRANCH  44  58
BRANCH  45  69
ATOM     69  C   UNL A   1      46.913  27.697  26.509  1.00  0.00     0.023 A 
ATOM     70  C   UNL A   1      47.832  26.936  27.255  1.00  0.00     0.012 A 
ATOM     71  C   UNL A   1      47.174  27.945  25.146  1.00  0.00     0.148 A 
ATOM     72  C   UNL A   1      48.991  26.437  26.658  1.00  0.00     0.002 A 
ATOM     73  C   UNL A   1      48.290  27.383  24.540  1.00  0.00     0.091 A 
ATOM     74  F   UNL A   1      46.301  28.692  24.457  1.00  0.00    -0.205 F 
ATOM     75  C   UNL A   1      49.211  26.643  25.298  1.00  0.00     0.022 A 
BRANCH  73  76
ATOM     76  S   UNL A   1      48.559  27.450  22.764  1.00  0.00     0.127 S 
ATOM     77  O   UNL A   1      49.817  28.186  22.679  1.00  0.00    -0.237 OA
ATOM     78  O   UNL A   1      48.648  26.031  22.419  1.00  0.00    -0.237 OA
ATOM     79  O   UNL A   1      47.392  28.128  22.215  1.00  0.00    -0.744 OA
ENDBRANCH  73  76
ENDBRANCH  45  69
BRANCH  57  80
ATOM     80  C   UNL A   1      44.784  33.688  29.421  1.00  0.00     0.023 A 
ATOM     81  C   UNL A   1      45.517  33.917  30.601  1.00  0.00     0.012 A 
ATOM     82  C   UNL A   1      44.755  34.678  28.419  1.00  0.00     0.148 A 
ATOM     83  C   UNL A   1      46.186  35.125  30.795  1.00  0.00     0.002 A 
ATOM     84  C   UNL A   1      45.469  35.856  28.595  1.00  0.00     0.091 A 
ATOM     85  F   UNL A   1      44.035  34.447  27.311  1.00  0.00    -0.205 F 
ATOM     86  C   UNL A   1      46.174  36.088  29.788  1.00  0.00     0.022 A 
BRANCH  84  87
ATOM     87  S   UNL A   1      45.602  37.103  27.308  1.00  0.00     0.127 S 
ATOM     88  O   UNL A   1      44.212  37.536  27.170  1.00  0.00    -0.237 OA
ATOM     89  O   UNL A   1      46.489  38.090  27.924  1.00  0.00    -0.237 OA
ATOM     90  O   UNL A   1      46.163  36.426  26.148  1.00  0.00    -0.744 OA
ENDBRANCH  84  87
ENDBRANCH  57  80
ENDBRANCH  31  32
ENDBRANCH  24  26
ENDBRANCH  23  24
ENDBRANCH   1  23
TORSDOF 15
ENDMDL
