MODEL 1
REMARK VINA RESULT:     -11.1      0.000      0.000
REMARK SMILES CC(C)C[C@H](NC(N)=O)C(=O)N[C@@H](C(=O)OCCOC(=O)c1ccc(-c2c3nc(c(-c4cccc(S(=O)(=O)[O-])c4F)c4ccc([nH]4)c(-c4cccc(S(=O)(=O)[O-])c4F)c4nc(c(-c5cccc(S(=O)(=O)[O-])c5F)c5ccc2[nH]5)C=C4)C=C3)cc1)C(C)C
REMARK SMILES IDX 17 1 16 2 14 3 15 4 13 5 12 6 10 7 11 8 5 10 4 11 2 12 1 13
REMARK SMILES IDX 3 14 6 15 7 16 8 18 9 19 85 22 86 23 87 24 18 25 19 26 20 27
REMARK SMILES IDX 21 28 22 29 23 30 84 31 24 32 83 33 25 34 26 35 27 36 77 37
REMARK SMILES IDX 28 38 82 39 76 40 78 41 29 42 81 43 75 44 74 45 30 47 62 48
REMARK SMILES IDX 42 49 61 50 43 51 46 52 60 53 79 54 44 55 45 56 59 58 80 59
REMARK SMILES IDX 47 60 31 61 32 62 40 63 33 64 35 65 41 66 34 67 36 68 37 69
REMARK SMILES IDX 38 70 39 71 63 72 64 73 72 74 65 75 67 76 73 77 66 78 68 79
REMARK SMILES IDX 69 80 70 81 71 82 48 83 49 84 57 85 50 86 52 87 58 88 51 89
REMARK SMILES IDX 53 90 54 91 55 92 56 93
REMARK H PARENT 12 9 6 17 8 20 8 21 78 46 46 57
REMARK Flexibility Score: inf
ROOT
ATOM      1  C   UNL A   1      31.628  28.166  26.542  1.00  0.00     0.274 C 
ENDROOT
BRANCH   1   2
ATOM      2  O   UNL A   1      31.773  27.470  25.283  1.00  0.00    -0.461 OA
BRANCH   2   3
ATOM      3  C   UNL A   1      31.151  26.260  25.176  1.00  0.00     0.329 C 
ATOM      4  O   UNL A   1      30.909  25.537  26.135  1.00  0.00    -0.250 OA
BRANCH   3   5
ATOM      5  C   UNL A   1      30.804  25.876  23.706  1.00  0.00     0.194 C 
BRANCH   5   6
ATOM      6  N   UNL A   1      31.925  26.188  22.810  1.00  0.00    -0.341 N 
ATOM      7  C   UNL A   1      33.017  25.451  22.457  1.00  0.00     0.243 C 
ATOM      8  O   UNL A   1      33.798  25.937  21.635  1.00  0.00    -0.273 OA
ATOM      9  H   UNL A   1      31.881  27.079  22.394  1.00  0.00     0.164 HD
BRANCH   7  10
ATOM     10  C   UNL A   1      33.265  24.042  23.039  1.00  0.00     0.173 C 
BRANCH  10  11
ATOM     11  C   UNL A   1      34.751  23.745  23.326  1.00  0.00     0.038 C 
BRANCH  11  12
ATOM     12  C   UNL A   1      35.097  23.488  24.808  1.00  0.00    -0.015 C 
ATOM     13  C   UNL A   1      36.607  23.517  25.045  1.00  0.00     0.007 C 
ATOM     14  C   UNL A   1      34.438  24.542  25.708  1.00  0.00     0.007 C 
ENDBRANCH  11  12
ENDBRANCH  10  11
BRANCH  10  15
ATOM     15  N   UNL A   1      32.665  23.060  22.129  1.00  0.00    -0.327 N 
ATOM     16  C   UNL A   1      32.191  21.862  22.565  1.00  0.00     0.312 C 
ATOM     17  H   UNL A   1      32.602  23.275  21.171  1.00  0.00     0.166 HD
ATOM     18  N   UNL A   1      31.738  21.083  21.557  1.00  0.00    -0.352 N 
ATOM     19  O   UNL A   1      32.174  21.483  23.723  1.00  0.00    -0.249 OA
ATOM     20  H   UNL A   1      31.763  21.412  20.630  1.00  0.00     0.161 HD
ATOM     21  H   UNL A   1      31.382  20.185  21.750  1.00  0.00     0.161 HD
ENDBRANCH  10  15
ENDBRANCH   7  10
ENDBRANCH   5   6
BRANCH   5  22
ATOM     22  C   UNL A   1      29.510  26.582  23.227  1.00  0.00     0.017 C 
ATOM     23  C   UNL A   1      28.293  26.446  24.141  1.00  0.00     0.010 C 
ATOM     24  C   UNL A   1      29.726  28.084  22.985  1.00  0.00     0.010 C 
ENDBRANCH   5  22
ENDBRANCH   3   5
ENDBRANCH   2   3
ENDBRANCH   1   2
BRANCH   1  25
ATOM     25  C   UNL A   1      31.862  29.669  26.378  1.00  0.00     0.275 C 
BRANCH  25  26
ATOM     26  O   UNL A   1      32.431  30.232  27.576  1.00  0.00    -0.458 OA
BRANCH  26  27
ATOM     27  C   UNL A   1      33.106  31.387  27.381  1.00  0.00     0.338 C 
ATOM     28  O   UNL A   1      32.628  32.505  27.272  1.00  0.00    -0.246 OA
BRANCH  27  29
ATOM     29  C   UNL A   1      34.558  31.181  27.489  1.00  0.00     0.060 A 
ATOM     30  C   UNL A   1      34.984  29.867  27.573  1.00  0.00     0.016 A 
ATOM     31  C   UNL A   1      35.418  32.209  27.860  1.00  0.00     0.016 A 
ATOM     32  C   UNL A   1      36.143  29.562  28.284  1.00  0.00     0.010 A 
ATOM     33  C   UNL A   1      36.681  31.894  28.388  1.00  0.00     0.010 A 
ATOM     34  C   UNL A   1      37.022  30.566  28.712  1.00  0.00    -0.014 A 
BRANCH  34  35
ATOM     35  C   UNL A   1      38.223  30.230  29.555  1.00  0.00     0.031 A 
ATOM     36  C   UNL A   1      39.330  29.348  29.004  1.00  0.00     0.074 A 
ATOM     37  C   UNL A   1      38.372  30.725  30.806  1.00  0.00     0.049 A 
ATOM     38  N   UNL A   1      40.331  28.780  29.631  1.00  0.00    -0.248 NA
ATOM     39  C   UNL A   1      39.296  29.048  27.563  1.00  0.00     0.031 C 
ATOM     40  C   UNL A   1      37.436  31.620  31.490  1.00  0.00     0.029 A 
ATOM     41  N   UNL A   1      39.375  30.544  31.732  1.00  0.00    -0.354 N 
ATOM     42  C   UNL A   1      40.972  27.977  28.691  1.00  0.00     0.074 A 
ATOM     43  C   UNL A   1      40.254  28.139  27.447  1.00  0.00     0.031 C 
ATOM     44  C   UNL A   1      37.926  31.948  32.693  1.00  0.00     0.029 A 
ATOM     45  C   UNL A   1      39.149  31.193  32.926  1.00  0.00     0.049 A 
ATOM     46  H   UNL A   1      40.178  30.002  31.557  1.00  0.00     0.167 HD
ATOM     47  C   UNL A   1      42.063  27.183  28.839  1.00  0.00     0.034 A 
ATOM     48  C   UNL A   1      39.804  31.150  34.104  1.00  0.00     0.034 A 
ATOM     49  C   UNL A   1      42.848  27.098  30.043  1.00  0.00     0.049 A 
ATOM     50  C   UNL A   1      41.016  30.272  34.241  1.00  0.00     0.074 A 
ATOM     51  C   UNL A   1      43.987  26.345  30.276  1.00  0.00     0.029 A 
ATOM     52  N   UNL A   1      42.595  27.804  31.207  1.00  0.00    -0.354 N 
ATOM     53  N   UNL A   1      41.597  29.520  33.341  1.00  0.00    -0.248 NA
ATOM     54  C   UNL A   1      41.671  30.251  35.557  1.00  0.00     0.031 C 
ATOM     55  C   UNL A   1      44.411  26.582  31.588  1.00  0.00     0.029 A 
ATOM     56  C   UNL A   1      43.558  27.510  32.159  1.00  0.00     0.049 A 
ATOM     57  H   UNL A   1      41.842  28.424  31.339  1.00  0.00     0.167 HD
ATOM     58  C   UNL A   1      42.705  28.963  33.970  1.00  0.00     0.074 A 
ATOM     59  C   UNL A   1      42.728  29.487  35.319  1.00  0.00     0.031 C 
ATOM     60  C   UNL A   1      43.612  28.082  33.479  1.00  0.00     0.034 A 
BRANCH  47  61
ATOM     61  C   UNL A   1      42.483  26.337  27.661  1.00  0.00     0.023 A 
ATOM     62  C   UNL A   1      43.351  26.858  26.681  1.00  0.00     0.012 A 
ATOM     63  C   UNL A   1      42.052  24.997  27.557  1.00  0.00     0.148 A 
ATOM     64  C   UNL A   1      43.746  26.078  25.594  1.00  0.00     0.002 A 
ATOM     65  C   UNL A   1      42.491  24.210  26.497  1.00  0.00     0.091 A 
ATOM     66  F   UNL A   1      41.216  24.520  28.490  1.00  0.00    -0.205 F 
ATOM     67  C   UNL A   1      43.324  24.753  25.507  1.00  0.00     0.022 A 
BRANCH  65  68
ATOM     68  S   UNL A   1      42.072  22.470  26.345  1.00  0.00     0.127 S 
ATOM     69  O   UNL A   1      42.735  22.115  25.090  1.00  0.00    -0.237 OA
ATOM     70  O   UNL A   1      42.689  21.898  27.542  1.00  0.00    -0.237 OA
ATOM     71  O   UNL A   1      40.617  22.405  26.322  1.00  0.00    -0.744 OA
ENDBRANCH  65  68
ENDBRANCH  47  61
BRANCH  48  72
ATOM     72  C   UNL A   1      39.318  31.956  35.263  1.00  0.00     0.023 A 
ATOM     73  C   UNL A   1      38.411  31.385  36.177  1.00  0.00     0.012 A 
ATOM     74  C   UNL A   1      39.755  33.280  35.469  1.00  0.00     0.148 A 
ATOM     75  C   UNL A   1      37.922  32.127  37.253  1.00  0.00     0.002 A 
ATOM     76  C   UNL A   1      39.318  33.990  36.580  1.00  0.00     0.091 A 
ATOM     77  F   UNL A   1      40.602  33.815  34.579  1.00  0.00    -0.205 F 
ATOM     78  C   UNL A   1      38.385  33.424  37.461  1.00  0.00     0.022 A 
BRANCH  76  79
ATOM     79  S   UNL A   1      39.975  35.606  37.005  1.00  0.00     0.127 S 
ATOM     80  O   UNL A   1      39.277  35.894  38.255  1.00  0.00    -0.237 OA
ATOM     81  O   UNL A   1      41.404  35.323  37.147  1.00  0.00    -0.237 OA
ATOM     82  O   UNL A   1      39.647  36.472  35.881  1.00  0.00    -0.744 OA
ENDBRANCH  76  79
ENDBRANCH  48  72
BRANCH  60  83
ATOM     83  C   UNL A   1      44.749  27.681  34.383  1.00  0.00     0.023 A 
ATOM     84  C   UNL A   1      45.921  28.460  34.437  1.00  0.00     0.012 A 
ATOM     85  C   UNL A   1      44.638  26.544  35.207  1.00  0.00     0.148 A 
ATOM     86  C   UNL A   1      46.984  28.087  35.261  1.00  0.00     0.002 A 
ATOM     87  C   UNL A   1      45.678  26.208  36.065  1.00  0.00     0.091 A 
ATOM     88  F   UNL A   1      43.524  25.800  35.127  1.00  0.00    -0.205 F 
ATOM     89  C   UNL A   1      46.858  26.969  36.082  1.00  0.00     0.022 A 
BRANCH  87  90
ATOM     90  S   UNL A   1      45.556  24.843  37.225  1.00  0.00     0.127 S 
ATOM     91  O   UNL A   1      46.954  24.647  37.604  1.00  0.00    -0.237 OA
ATOM     92  O   UNL A   1      44.711  25.403  38.280  1.00  0.00    -0.237 OA
ATOM     93  O   UNL A   1      44.945  23.747  36.485  1.00  0.00    -0.744 OA
ENDBRANCH  87  90
ENDBRANCH  60  83
ENDBRANCH  34  35
ENDBRANCH  27  29
ENDBRANCH  26  27
ENDBRANCH  25  26
ENDBRANCH   1  25
TORSDOF 20
ENDMDL
MODEL 2
REMARK VINA RESULT:     -10.7      1.404      7.780
REMARK SMILES CC(C)C[C@H](NC(N)=O)C(=O)N[C@@H](C(=O)OCCOC(=O)c1ccc(-c2c3nc(c(-c4cccc(S(=O)(=O)[O-])c4F)c4ccc([nH]4)c(-c4cccc(S(=O)(=O)[O-])c4F)c4nc(c(-c5cccc(S(=O)(=O)[O-])c5F)c5ccc2[nH]5)C=C4)C=C3)cc1)C(C)C
REMARK SMILES IDX 17 1 16 2 14 3 15 4 13 5 12 6 10 7 11 8 5 10 4 11 2 12 1 13
REMARK SMILES IDX 3 14 6 15 7 16 8 18 9 19 85 22 86 23 87 24 18 25 19 26 20 27
REMARK SMILES IDX 21 28 22 29 23 30 84 31 24 32 83 33 25 34 26 35 27 36 77 37
REMARK SMILES IDX 28 38 82 39 76 40 78 41 29 42 81 43 75 44 74 45 30 47 62 48
REMARK SMILES IDX 42 49 61 50 43 51 46 52 60 53 79 54 44 55 45 56 59 58 80 59
REMARK SMILES IDX 47 60 31 61 32 62 40 63 33 64 35 65 41 66 34 67 36 68 37 69
REMARK SMILES IDX 38 70 39 71 63 72 64 73 72 74 65 75 67 76 73 77 66 78 68 79
REMARK SMILES IDX 69 80 70 81 71 82 48 83 49 84 57 85 50 86 52 87 58 88 51 89
REMARK SMILES IDX 53 90 54 91 55 92 56 93
REMARK H PARENT 12 9 6 17 8 20 8 21 78 46 46 57
REMARK Flexibility Score: inf
ROOT
ATOM      1  C   UNL A   1      32.268  29.078  26.061  1.00  0.00     0.274 C 
ENDROOT
BRANCH   1   2
ATOM      2  O   UNL A   1      31.079  28.697  25.332  1.00  0.00    -0.461 OA
BRANCH   2   3
ATOM      3  C   UNL A   1      31.250  28.322  24.032  1.00  0.00     0.329 C 
ATOM      4  O   UNL A   1      31.066  29.073  23.081  1.00  0.00    -0.250 OA
BRANCH   3   5
ATOM      5  C   UNL A   1      31.677  26.832  23.873  1.00  0.00     0.194 C 
BRANCH   5   6
ATOM      6  N   UNL A   1      32.270  26.601  22.549  1.00  0.00    -0.341 N 
ATOM      7  C   UNL A   1      32.901  25.507  22.033  1.00  0.00     0.243 C 
ATOM      8  O   UNL A   1      33.271  25.558  20.857  1.00  0.00    -0.273 OA
ATOM      9  H   UNL A   1      32.200  27.363  21.931  1.00  0.00     0.164 HD
BRANCH   7  10
ATOM     10  C   UNL A   1      33.129  24.231  22.874  1.00  0.00     0.173 C 
BRANCH  10  11
ATOM     11  C   UNL A   1      34.597  24.026  23.300  1.00  0.00     0.038 C 
BRANCH  11  12
ATOM     12  C   UNL A   1      34.831  23.907  24.821  1.00  0.00    -0.015 C 
ATOM     13  C   UNL A   1      36.320  23.792  25.152  1.00  0.00     0.007 C 
ATOM     14  C   UNL A   1      34.257  25.127  25.553  1.00  0.00     0.007 C 
ENDBRANCH  11  12
ENDBRANCH  10  11
BRANCH  10  15
ATOM     15  N   UNL A   1      32.599  23.088  22.123  1.00  0.00    -0.327 N 
ATOM     16  C   UNL A   1      32.108  21.980  22.738  1.00  0.00     0.312 C 
ATOM     17  H   UNL A   1      32.599  23.125  21.139  1.00  0.00     0.166 HD
ATOM     18  N   UNL A   1      31.731  21.021  21.862  1.00  0.00    -0.352 N 
ATOM     19  O   UNL A   1      32.017  21.817  23.943  1.00  0.00    -0.249 OA
ATOM     20  H   UNL A   1      31.816  21.178  20.894  1.00  0.00     0.161 HD
ATOM     21  H   UNL A   1      31.371  20.167  22.192  1.00  0.00     0.161 HD
ENDBRANCH  10  15
ENDBRANCH   7  10
ENDBRANCH   5   6
BRANCH   5  22
ATOM     22  C   UNL A   1      30.482  25.873  24.110  1.00  0.00     0.017 C 
ATOM     23  C   UNL A   1      30.307  25.359  25.538  1.00  0.00     0.010 C 
ATOM     24  C   UNL A   1      29.144  26.500  23.689  1.00  0.00     0.010 C 
ENDBRANCH   5  22
ENDBRANCH   3   5
ENDBRANCH   2   3
ENDBRANCH   1   2
BRANCH   1  25
ATOM     25  C   UNL A   1      32.309  30.586  26.314  1.00  0.00     0.275 C 
BRANCH  25  26
ATOM     26  O   UNL A   1      32.816  30.870  27.632  1.00  0.00    -0.458 OA
BRANCH  26  27
ATOM     27  C   UNL A   1      33.671  31.916  27.685  1.00  0.00     0.338 C 
ATOM     28  O   UNL A   1      33.381  33.093  27.834  1.00  0.00    -0.246 OA
BRANCH  27  29
ATOM     29  C   UNL A   1      35.069  31.460  27.719  1.00  0.00     0.060 A 
ATOM     30  C   UNL A   1      35.263  30.091  27.760  1.00  0.00     0.016 A 
ATOM     31  C   UNL A   1      36.109  32.315  28.065  1.00  0.00     0.016 A 
ATOM     32  C   UNL A   1      36.382  29.573  28.409  1.00  0.00     0.010 A 
ATOM     33  C   UNL A   1      37.321  31.773  28.526  1.00  0.00     0.010 A 
ATOM     34  C   UNL A   1      37.441  30.399  28.810  1.00  0.00    -0.014 A 
BRANCH  34  35
ATOM     35  C   UNL A   1      38.601  29.840  29.589  1.00  0.00     0.031 A 
ATOM     36  C   UNL A   1      38.857  30.285  31.018  1.00  0.00     0.074 A 
ATOM     37  C   UNL A   1      39.426  28.906  29.060  1.00  0.00     0.049 A 
ATOM     38  N   UNL A   1      39.907  30.084  31.777  1.00  0.00    -0.248 NA
ATOM     39  C   UNL A   1      37.805  31.079  31.673  1.00  0.00     0.031 C 
ATOM     40  C   UNL A   1      39.315  28.325  27.720  1.00  0.00     0.029 A 
ATOM     41  N   UNL A   1      40.529  28.275  29.591  1.00  0.00    -0.354 N 
ATOM     42  C   UNL A   1      39.687  30.811  32.944  1.00  0.00     0.074 A 
ATOM     43  C   UNL A   1      38.399  31.451  32.799  1.00  0.00     0.031 C 
ATOM     44  C   UNL A   1      40.267  27.398  27.552  1.00  0.00     0.029 A 
ATOM     45  C   UNL A   1      41.139  27.399  28.719  1.00  0.00     0.049 A 
ATOM     46  H   UNL A   1      40.852  28.435  30.507  1.00  0.00     0.167 HD
ATOM     47  C   UNL A   1      40.474  30.933  34.042  1.00  0.00     0.034 A 
ATOM     48  C   UNL A   1      42.296  26.714  28.805  1.00  0.00     0.034 A 
ATOM     49  C   UNL A   1      41.707  30.217  34.242  1.00  0.00     0.049 A 
ATOM     50  C   UNL A   1      43.146  26.856  30.036  1.00  0.00     0.074 A 
ATOM     51  C   UNL A   1      42.556  30.253  35.336  1.00  0.00     0.029 A 
ATOM     52  N   UNL A   1      42.256  29.317  33.344  1.00  0.00    -0.354 N 
ATOM     53  N   UNL A   1      42.920  27.553  31.121  1.00  0.00    -0.248 NA
ATOM     54  C   UNL A   1      44.408  26.102  30.058  1.00  0.00     0.031 C 
ATOM     55  C   UNL A   1      43.628  29.388  35.090  1.00  0.00     0.029 A 
ATOM     56  C   UNL A   1      43.428  28.786  33.860  1.00  0.00     0.049 A 
ATOM     57  H   UNL A   1      41.870  29.086  32.468  1.00  0.00     0.167 HD
ATOM     58  C   UNL A   1      43.991  27.295  31.968  1.00  0.00     0.074 A 
ATOM     59  C   UNL A   1      44.851  26.356  31.281  1.00  0.00     0.031 C 
ATOM     60  C   UNL A   1      44.248  27.805  33.198  1.00  0.00     0.034 A 
BRANCH  47  61
ATOM     61  C   UNL A   1      40.026  31.881  35.129  1.00  0.00     0.023 A 
ATOM     62  C   UNL A   1      40.426  33.232  35.108  1.00  0.00     0.012 A 
ATOM     63  C   UNL A   1      39.159  31.436  36.150  1.00  0.00     0.148 A 
ATOM     64  C   UNL A   1      40.010  34.112  36.107  1.00  0.00     0.002 A 
ATOM     65  C   UNL A   1      38.708  32.331  37.113  1.00  0.00     0.091 A 
ATOM     66  F   UNL A   1      38.798  30.145  36.163  1.00  0.00    -0.205 F 
ATOM     67  C   UNL A   1      39.144  33.665  37.103  1.00  0.00     0.022 A 
BRANCH  65  68
ATOM     68  S   UNL A   1      37.524  31.872  38.385  1.00  0.00     0.127 S 
ATOM     69  O   UNL A   1      38.332  31.994  39.598  1.00  0.00    -0.237 OA
ATOM     70  O   UNL A   1      36.494  32.899  38.233  1.00  0.00    -0.237 OA
ATOM     71  O   UNL A   1      37.087  30.521  38.060  1.00  0.00    -0.744 OA
ENDBRANCH  65  68
ENDBRANCH  47  61
BRANCH  48  72
ATOM     72  C   UNL A   1      42.734  25.835  27.680  1.00  0.00     0.023 A 
ATOM     73  C   UNL A   1      43.697  26.302  26.765  1.00  0.00     0.012 A 
ATOM     74  C   UNL A   1      42.207  24.538  27.516  1.00  0.00     0.148 A 
ATOM     75  C   UNL A   1      44.102  25.510  25.690  1.00  0.00     0.002 A 
ATOM     76  C   UNL A   1      42.666  23.727  26.485  1.00  0.00     0.091 A 
ATOM     77  F   UNL A   1      41.277  24.115  28.384  1.00  0.00    -0.205 F 
ATOM     78  C   UNL A   1      43.597  24.219  25.558  1.00  0.00     0.022 A 
BRANCH  76  79
ATOM     79  S   UNL A   1      42.180  22.006  26.329  1.00  0.00     0.127 S 
ATOM     80  O   UNL A   1      42.968  21.576  25.177  1.00  0.00    -0.237 OA
ATOM     81  O   UNL A   1      42.612  21.454  27.614  1.00  0.00    -0.237 OA
ATOM     82  O   UNL A   1      40.736  22.021  26.141  1.00  0.00    -0.744 OA
ENDBRANCH  76  79
ENDBRANCH  48  72
BRANCH  60  83
ATOM     83  C   UNL A   1      45.476  27.305  33.914  1.00  0.00     0.023 A 
ATOM     84  C   UNL A   1      46.708  27.970  33.757  1.00  0.00     0.012 A 
ATOM     85  C   UNL A   1      45.397  26.193  34.775  1.00  0.00     0.148 A 
ATOM     86  C   UNL A   1      47.853  27.505  34.406  1.00  0.00     0.002 A 
ATOM     87  C   UNL A   1      46.529  25.768  35.461  1.00  0.00     0.091 A 
ATOM     88  F   UNL A   1      44.221  25.559  34.896  1.00  0.00    -0.205 F 
ATOM     89  C   UNL A   1      47.760  26.412  35.266  1.00  0.00     0.022 A 
BRANCH  87  90
ATOM     90  S   UNL A   1      46.473  24.433  36.660  1.00  0.00     0.127 S 
ATOM     91  O   UNL A   1      47.824  23.885  36.560  1.00  0.00    -0.237 OA
ATOM     92  O   UNL A   1      46.194  25.144  37.908  1.00  0.00    -0.237 OA
ATOM     93  O   UNL A   1      45.400  23.549  36.220  1.00  0.00    -0.744 OA
ENDBRANCH  87  90
ENDBRANCH  60  83
ENDBRANCH  34  35
ENDBRANCH  27  29
ENDBRANCH  26  27
ENDBRANCH  25  26
ENDBRANCH   1  25
TORSDOF 20
ENDMDL
MODEL 3
REMARK VINA RESULT:     -10.7      1.782      2.383
REMARK SMILES CC(C)C[C@H](NC(N)=O)C(=O)N[C@@H](C(=O)OCCOC(=O)c1ccc(-c2c3nc(c(-c4cccc(S(=O)(=O)[O-])c4F)c4ccc([nH]4)c(-c4cccc(S(=O)(=O)[O-])c4F)c4nc(c(-c5cccc(S(=O)(=O)[O-])c5F)c5ccc2[nH]5)C=C4)C=C3)cc1)C(C)C
REMARK SMILES IDX 17 1 16 2 14 3 15 4 13 5 12 6 10 7 11 8 5 10 4 11 2 12 1 13
REMARK SMILES IDX 3 14 6 15 7 16 8 18 9 19 85 22 86 23 87 24 18 25 19 26 20 27
REMARK SMILES IDX 21 28 22 29 23 30 84 31 24 32 83 33 25 34 26 35 27 36 77 37
REMARK SMILES IDX 28 38 82 39 76 40 78 41 29 42 81 43 75 44 74 45 30 47 62 48
REMARK SMILES IDX 42 49 61 50 43 51 46 52 60 53 79 54 44 55 45 56 59 58 80 59
REMARK SMILES IDX 47 60 31 61 32 62 40 63 33 64 35 65 41 66 34 67 36 68 37 69
REMARK SMILES IDX 38 70 39 71 63 72 64 73 72 74 65 75 67 76 73 77 66 78 68 79
REMARK SMILES IDX 69 80 70 81 71 82 48 83 49 84 57 85 50 86 52 87 58 88 51 89
REMARK SMILES IDX 53 90 54 91 55 92 56 93
REMARK H PARENT 12 9 6 17 8 20 8 21 78 46 46 57
REMARK Flexibility Score: inf
ROOT
ATOM      1  C   UNL A   1      32.124  29.489  25.391  1.00  0.00     0.274 C 
ENDROOT
BRANCH   1   2
ATOM      2  O   UNL A   1      32.549  28.113  25.524  1.00  0.00    -0.461 OA
BRANCH   2   3
ATOM      3  C   UNL A   1      31.729  27.164  24.989  1.00  0.00     0.329 C 
ATOM      4  O   UNL A   1      30.535  27.074  25.252  1.00  0.00    -0.250 OA
BRANCH   3   5
ATOM      5  C   UNL A   1      32.468  26.184  24.028  1.00  0.00     0.194 C 
BRANCH   5   6
ATOM      6  N   UNL A   1      33.772  25.797  24.585  1.00  0.00    -0.341 N 
ATOM      7  C   UNL A   1      34.225  24.595  25.041  1.00  0.00     0.243 C 
ATOM      8  O   UNL A   1      35.398  24.529  25.419  1.00  0.00    -0.273 OA
ATOM      9  H   UNL A   1      34.428  26.529  24.637  1.00  0.00     0.164 HD
BRANCH   7  10
ATOM     10  C   UNL A   1      33.320  23.343  25.064  1.00  0.00     0.173 C 
BRANCH  10  11
ATOM     11  C   UNL A   1      33.430  22.478  23.792  1.00  0.00     0.038 C 
BRANCH  11  12
ATOM     12  C   UNL A   1      32.382  21.353  23.668  1.00  0.00    -0.015 C 
ATOM     13  C   UNL A   1      31.922  21.170  22.221  1.00  0.00     0.007 C 
ATOM     14  C   UNL A   1      32.956  20.022  24.172  1.00  0.00     0.007 C 
ENDBRANCH  11  12
ENDBRANCH  10  11
BRANCH  10  15
ATOM     15  N   UNL A   1      31.944  23.779  25.327  1.00  0.00    -0.327 N 
ATOM     16  C   UNL A   1      31.380  23.696  26.561  1.00  0.00     0.312 C 
ATOM     17  H   UNL A   1      31.411  24.145  24.586  1.00  0.00     0.166 HD
ATOM     18  N   UNL A   1      30.087  24.091  26.571  1.00  0.00    -0.352 N 
ATOM     19  O   UNL A   1      31.935  23.298  27.571  1.00  0.00    -0.249 OA
ATOM     20  H   UNL A   1      29.662  24.407  25.742  1.00  0.00     0.161 HD
ATOM     21  H   UNL A   1      29.570  24.062  27.408  1.00  0.00     0.161 HD
ENDBRANCH  10  15
ENDBRANCH   7  10
ENDBRANCH   5   6
BRANCH   5  22
ATOM     22  C   UNL A   1      32.638  26.798  22.615  1.00  0.00     0.017 C 
ATOM     23  C   UNL A   1      33.824  27.744  22.434  1.00  0.00     0.010 C 
ATOM     24  C   UNL A   1      32.751  25.719  21.526  1.00  0.00     0.010 C 
ENDBRANCH   5  22
ENDBRANCH   3   5
ENDBRANCH   2   3
ENDBRANCH   1   2
BRANCH   1  25
ATOM     25  C   UNL A   1      31.772  30.098  26.749  1.00  0.00     0.275 C 
BRANCH  25  26
ATOM     26  O   UNL A   1      32.931  30.146  27.604  1.00  0.00    -0.458 OA
BRANCH  26  27
ATOM     27  C   UNL A   1      33.608  31.315  27.556  1.00  0.00     0.338 C 
ATOM     28  O   UNL A   1      33.135  32.439  27.618  1.00  0.00    -0.246 OA
BRANCH  27  29
ATOM     29  C   UNL A   1      35.061  31.092  27.599  1.00  0.00     0.060 A 
ATOM     30  C   UNL A   1      35.477  29.772  27.599  1.00  0.00     0.016 A 
ATOM     31  C   UNL A   1      35.944  32.093  27.988  1.00  0.00     0.016 A 
ATOM     32  C   UNL A   1      36.658  29.421  28.248  1.00  0.00     0.010 A 
ATOM     33  C   UNL A   1      37.224  31.740  28.451  1.00  0.00     0.010 A 
ATOM     34  C   UNL A   1      37.563  30.395  28.693  1.00  0.00    -0.014 A 
BRANCH  34  35
ATOM     35  C   UNL A   1      38.792  30.006  29.471  1.00  0.00     0.031 A 
ATOM     36  C   UNL A   1      39.802  29.036  28.884  1.00  0.00     0.074 A 
ATOM     37  C   UNL A   1      39.052  30.529  30.692  1.00  0.00     0.049 A 
ATOM     38  N   UNL A   1      40.802  28.423  29.467  1.00  0.00    -0.248 NA
ATOM     39  C   UNL A   1      39.656  28.694  27.459  1.00  0.00     0.031 C 
ATOM     40  C   UNL A   1      38.222  31.506  31.401  1.00  0.00     0.029 A 
ATOM     41  N   UNL A   1      40.099  30.311  31.560  1.00  0.00    -0.354 N 
ATOM     42  C   UNL A   1      41.329  27.550  28.518  1.00  0.00     0.074 A 
ATOM     43  C   UNL A   1      40.544  27.720  27.316  1.00  0.00     0.031 C 
ATOM     44  C   UNL A   1      38.809  31.838  32.559  1.00  0.00     0.029 A 
ATOM     45  C   UNL A   1      39.993  31.010  32.742  1.00  0.00     0.049 A 
ATOM     46  H   UNL A   1      40.853  29.711  31.354  1.00  0.00     0.167 HD
ATOM     47  C   UNL A   1      42.373  26.690  28.626  1.00  0.00     0.034 A 
ATOM     48  C   UNL A   1      40.718  30.961  33.877  1.00  0.00     0.034 A 
ATOM     49  C   UNL A   1      43.227  26.590  29.781  1.00  0.00     0.049 A 
ATOM     50  C   UNL A   1      41.878  30.009  33.970  1.00  0.00     0.074 A 
ATOM     51  C   UNL A   1      44.328  25.770  29.969  1.00  0.00     0.029 A 
ATOM     52  N   UNL A   1      43.095  27.347  30.933  1.00  0.00    -0.354 N 
ATOM     53  N   UNL A   1      42.350  29.192  33.063  1.00  0.00    -0.248 NA
ATOM     54  C   UNL A   1      42.613  29.985  35.242  1.00  0.00     0.031 C 
ATOM     55  C   UNL A   1      44.850  26.020  31.243  1.00  0.00     0.029 A 
ATOM     56  C   UNL A   1      44.097  27.020  31.833  1.00  0.00     0.049 A 
ATOM     57  H   UNL A   1      42.394  28.020  31.089  1.00  0.00     0.167 HD
ATOM     58  C   UNL A   1      43.458  28.582  33.641  1.00  0.00     0.074 A 
ATOM     59  C   UNL A   1      43.601  29.146  34.966  1.00  0.00     0.031 C 
ATOM     60  C   UNL A   1      44.272  27.628  33.127  1.00  0.00     0.034 A 
BRANCH  47  61
ATOM     61  C   UNL A   1      42.661  25.781  27.455  1.00  0.00     0.023 A 
ATOM     62  C   UNL A   1      43.475  26.221  26.393  1.00  0.00     0.012 A 
ATOM     63  C   UNL A   1      42.160  24.462  27.437  1.00  0.00     0.148 A 
ATOM     64  C   UNL A   1      43.749  25.384  25.312  1.00  0.00     0.002 A 
ATOM     65  C   UNL A   1      42.479  23.616  26.380  1.00  0.00     0.091 A 
ATOM     66  F   UNL A   1      41.376  24.062  28.448  1.00  0.00    -0.205 F 
ATOM     67  C   UNL A   1      43.259  24.079  25.310  1.00  0.00     0.022 A 
BRANCH  65  68
ATOM     68  S   UNL A   1      41.967  21.894  26.330  1.00  0.00     0.127 S 
ATOM     69  O   UNL A   1      42.337  21.436  27.668  1.00  0.00    -0.237 OA
ATOM     70  O   UNL A   1      40.527  22.007  26.100  1.00  0.00    -0.237 OA
ATOM     71  O   UNL A   1      42.710  21.285  25.235  1.00  0.00    -0.744 OA
ENDBRANCH  65  68
ENDBRANCH  47  61
BRANCH  48  72
ATOM     72  C   UNL A   1      40.361  31.833  35.035  1.00  0.00     0.023 A 
ATOM     73  C   UNL A   1      41.038  33.053  35.223  1.00  0.00     0.012 A 
ATOM     74  C   UNL A   1      39.349  31.465  35.945  1.00  0.00     0.148 A 
ATOM     75  C   UNL A   1      40.740  33.873  36.313  1.00  0.00     0.002 A 
ATOM     76  C   UNL A   1      39.009  32.317  36.987  1.00  0.00     0.091 A 
ATOM     77  F   UNL A   1      38.727  30.291  35.763  1.00  0.00    -0.205 F 
ATOM     78  C   UNL A   1      39.718  33.511  37.187  1.00  0.00     0.022 A 
BRANCH  76  79
ATOM     79  S   UNL A   1      37.610  32.002  38.068  1.00  0.00     0.127 S 
ATOM     80  O   UNL A   1      37.345  30.590  37.811  1.00  0.00    -0.237 OA
ATOM     81  O   UNL A   1      38.177  32.294  39.386  1.00  0.00    -0.237 OA
ATOM     82  O   UNL A   1      36.571  32.931  37.646  1.00  0.00    -0.744 OA
ENDBRANCH  76  79
ENDBRANCH  48  72
BRANCH  60  83
ATOM     83  C   UNL A   1      45.437  27.180  33.971  1.00  0.00     0.023 A 
ATOM     84  C   UNL A   1      46.672  27.854  33.891  1.00  0.00     0.012 A 
ATOM     85  C   UNL A   1      45.293  26.109  34.873  1.00  0.00     0.148 A 
ATOM     86  C   UNL A   1      47.759  27.436  34.660  1.00  0.00     0.002 A 
ATOM     87  C   UNL A   1      46.364  25.732  35.676  1.00  0.00     0.091 A 
ATOM     88  F   UNL A   1      44.118  25.464  34.921  1.00  0.00    -0.205 F 
ATOM     89  C   UNL A   1      47.601  26.384  35.559  1.00  0.00     0.022 A 
BRANCH  87  90
ATOM     90  S   UNL A   1      46.215  24.453  36.927  1.00  0.00     0.127 S 
ATOM     91  O   UNL A   1      45.996  23.260  36.112  1.00  0.00    -0.237 OA
ATOM     92  O   UNL A   1      47.521  24.508  37.587  1.00  0.00    -0.237 OA
ATOM     93  O   UNL A   1      45.098  24.853  37.773  1.00  0.00    -0.744 OA
ENDBRANCH  87  90
ENDBRANCH  60  83
ENDBRANCH  34  35
ENDBRANCH  27  29
ENDBRANCH  26  27
ENDBRANCH  25  26
ENDBRANCH   1  25
TORSDOF 20
ENDMDL
