MODEL 1
REMARK VINA RESULT:     -12.0      0.000      0.000
REMARK SMILES O=C(Cc1cccn1-c1ccc2c(c1)OCCO2)OCCOC(=O)c1ccc(-c2c3nc(c(-c4cccc(S(=O)(=O)[O-])c4F)c4ccc([nH]4)c(-c4cccc(S(=O)(=O)[O-])c4F)c4nc(c(-c5cccc(S(=O)(=O)[O-])c5F)c5ccc2[nH]5)C=C4)C=C3)cc1
REMARK SMILES IDX 21 1 20 2 19 3 2 4 1 5 3 6 4 7 5 8 8 9 6 10 7 11 9 12 10 13
REMARK SMILES IDX 14 14 11 15 13 16 12 17 15 18 18 19 16 20 17 21 22 22 23 23
REMARK SMILES IDX 24 24 25 25 26 26 87 27 27 28 86 29 28 30 29 31 30 32 80 33
REMARK SMILES IDX 31 34 85 35 79 36 81 37 32 38 84 39 78 40 77 41 33 43 65 44
REMARK SMILES IDX 45 45 64 46 46 47 49 48 63 49 82 50 47 51 48 52 62 54 83 55
REMARK SMILES IDX 50 56 34 57 35 58 43 59 36 60 38 61 44 62 37 63 39 64 40 65
REMARK SMILES IDX 41 66 42 67 66 68 67 69 75 70 68 71 70 72 76 73 69 74 71 75
REMARK SMILES IDX 72 76 73 77 74 78 51 79 52 80 60 81 53 82 55 83 61 84 54 85
REMARK SMILES IDX 56 86 57 87 58 88 59 89
REMARK H PARENT 81 42 49 53
REMARK Flexibility Score: inf
ROOT
ATOM      1  C   UNL A   1      35.080  31.518  27.666  1.00  0.00     0.275 C 
ENDROOT
BRANCH   1   2
ATOM      2  C   UNL A   1      33.615  31.113  27.636  1.00  0.00     0.274 C 
BRANCH   2   3
ATOM      3  O   UNL A   1      33.379  29.714  27.388  1.00  0.00    -0.462 OA
BRANCH   3   4
ATOM      4  C   UNL A   1      32.929  29.164  26.232  1.00  0.00     0.311 C 
ATOM      5  O   UNL A   1      33.626  29.266  25.221  1.00  0.00    -0.252 OA
BRANCH   4   6
ATOM      6  C   UNL A   1      31.578  28.473  26.182  1.00  0.00     0.177 C 
BRANCH   6   7
ATOM      7  C   UNL A   1      31.194  27.977  24.822  1.00  0.00     0.034 A 
ATOM      8  C   UNL A   1      30.655  28.723  23.782  1.00  0.00     0.024 A 
ATOM      9  N   UNL A   1      31.590  26.756  24.288  1.00  0.00    -0.320 N 
ATOM     10  C   UNL A   1      30.626  27.926  22.627  1.00  0.00     0.020 A 
ATOM     11  C   UNL A   1      31.214  26.731  22.958  1.00  0.00     0.091 A 
BRANCH   9  12
ATOM     12  C   UNL A   1      32.394  25.764  24.901  1.00  0.00     0.049 A 
ATOM     13  C   UNL A   1      33.769  25.751  24.625  1.00  0.00     0.031 A 
ATOM     14  C   UNL A   1      31.844  24.845  25.797  1.00  0.00     0.077 A 
ATOM     15  C   UNL A   1      34.597  24.832  25.271  1.00  0.00     0.052 A 
ATOM     16  C   UNL A   1      32.676  23.924  26.431  1.00  0.00     0.163 A 
ATOM     17  C   UNL A   1      34.048  23.907  26.156  1.00  0.00     0.161 A 
ATOM     18  O   UNL A   1      32.075  23.052  27.305  1.00  0.00    -0.486 OA
ATOM     19  O   UNL A   1      34.915  23.007  26.720  1.00  0.00    -0.486 OA
ATOM     20  C   UNL A   1      33.041  22.402  28.137  1.00  0.00     0.271 C 
ATOM     21  C   UNL A   1      34.208  21.906  27.301  1.00  0.00     0.271 C 
ENDBRANCH   9  12
ENDBRANCH   6   7
ENDBRANCH   4   6
ENDBRANCH   3   4
ENDBRANCH   2   3
ENDBRANCH   1   2
BRANCH   1  22
ATOM     22  O   UNL A   1      35.916  30.388  27.828  1.00  0.00    -0.458 OA
BRANCH  22  23
ATOM     23  C   UNL A   1      37.099  30.632  28.444  1.00  0.00     0.338 C 
ATOM     24  O   UNL A   1      37.477  31.676  28.926  1.00  0.00    -0.246 OA
BRANCH  23  25
ATOM     25  C   UNL A   1      37.930  29.433  28.322  1.00  0.00     0.060 A 
ATOM     26  C   UNL A   1      38.113  28.691  29.491  1.00  0.00     0.016 A 
ATOM     27  C   UNL A   1      38.802  29.367  27.235  1.00  0.00     0.016 A 
ATOM     28  C   UNL A   1      39.330  28.082  29.676  1.00  0.00     0.010 A 
ATOM     29  C   UNL A   1      40.048  28.861  27.467  1.00  0.00     0.010 A 
ATOM     30  C   UNL A   1      40.311  28.257  28.695  1.00  0.00    -0.014 A 
BRANCH  30  31
ATOM     31  C   UNL A   1      41.607  27.617  28.881  1.00  0.00     0.031 A 
ATOM     32  C   UNL A   1      41.445  26.120  28.469  1.00  0.00     0.074 A 
ATOM     33  C   UNL A   1      42.579  28.450  29.395  1.00  0.00     0.049 A 
ATOM     34  N   UNL A   1      41.959  25.050  28.991  1.00  0.00    -0.248 NA
ATOM     35  C   UNL A   1      40.442  25.729  27.422  1.00  0.00     0.031 C 
ATOM     36  C   UNL A   1      42.446  29.919  29.635  1.00  0.00     0.029 A 
ATOM     37  N   UNL A   1      43.878  28.267  29.813  1.00  0.00    -0.354 N 
ATOM     38  C   UNL A   1      41.612  23.961  28.147  1.00  0.00     0.074 A 
ATOM     39  C   UNL A   1      40.527  24.401  27.340  1.00  0.00     0.031 C 
ATOM     40  C   UNL A   1      43.543  30.430  30.250  1.00  0.00     0.029 A 
ATOM     41  C   UNL A   1      44.520  29.375  30.447  1.00  0.00     0.049 A 
ATOM     42  H   UNL A   1      44.343  27.411  29.681  1.00  0.00     0.167 HD
ATOM     43  C   UNL A   1      42.405  22.856  28.014  1.00  0.00     0.034 A 
ATOM     44  C   UNL A   1      45.729  29.388  31.110  1.00  0.00     0.034 A 
ATOM     45  C   UNL A   1      43.553  23.036  28.840  1.00  0.00     0.049 A 
ATOM     46  C   UNL A   1      46.290  28.064  30.817  1.00  0.00     0.074 A 
ATOM     47  C   UNL A   1      43.704  23.058  30.202  1.00  0.00     0.029 A 
ATOM     48  N   UNL A   1      44.592  23.709  28.235  1.00  0.00    -0.354 N 
ATOM     49  N   UNL A   1      46.720  27.695  29.647  1.00  0.00    -0.248 NA
ATOM     50  C   UNL A   1      46.198  27.024  31.847  1.00  0.00     0.031 C 
ATOM     51  C   UNL A   1      44.514  24.194  30.382  1.00  0.00     0.029 A 
ATOM     52  C   UNL A   1      45.098  24.573  29.164  1.00  0.00     0.049 A 
ATOM     53  H   UNL A   1      44.907  23.591  27.310  1.00  0.00     0.167 HD
ATOM     54  C   UNL A   1      46.565  26.335  29.710  1.00  0.00     0.074 A 
ATOM     55  C   UNL A   1      46.588  25.983  31.118  1.00  0.00     0.031 C 
ATOM     56  C   UNL A   1      45.898  25.682  28.717  1.00  0.00     0.034 A 
BRANCH  43  57
ATOM     57  C   UNL A   1      42.509  21.730  27.011  1.00  0.00     0.023 A 
ATOM     58  C   UNL A   1      41.723  20.584  27.331  1.00  0.00     0.012 A 
ATOM     59  C   UNL A   1      43.522  21.570  26.051  1.00  0.00     0.148 A 
ATOM     60  C   UNL A   1      42.038  19.310  26.872  1.00  0.00     0.002 A 
ATOM     61  C   UNL A   1      43.793  20.295  25.542  1.00  0.00     0.091 A 
ATOM     62  F   UNL A   1      44.267  22.621  25.696  1.00  0.00    -0.205 F 
ATOM     63  C   UNL A   1      43.091  19.164  25.990  1.00  0.00     0.022 A 
BRANCH  61  64
ATOM     64  S   UNL A   1      45.059  19.975  24.308  1.00  0.00     0.127 S 
ATOM     65  O   UNL A   1      44.623  20.822  23.200  1.00  0.00    -0.237 OA
ATOM     66  O   UNL A   1      46.264  20.447  24.993  1.00  0.00    -0.237 OA
ATOM     67  O   UNL A   1      45.031  18.538  24.075  1.00  0.00    -0.744 OA
ENDBRANCH  61  64
ENDBRANCH  43  57
BRANCH  44  68
ATOM     68  C   UNL A   1      46.540  30.240  32.083  1.00  0.00     0.023 A 
ATOM     69  C   UNL A   1      46.111  30.645  33.353  1.00  0.00     0.012 A 
ATOM     70  C   UNL A   1      47.904  30.574  31.766  1.00  0.00     0.148 A 
ATOM     71  C   UNL A   1      47.010  31.237  34.276  1.00  0.00     0.002 A 
ATOM     72  C   UNL A   1      48.817  31.018  32.718  1.00  0.00     0.091 A 
ATOM     73  F   UNL A   1      48.329  30.501  30.500  1.00  0.00    -0.205 F 
ATOM     74  C   UNL A   1      48.369  31.369  33.984  1.00  0.00     0.022 A 
BRANCH  72  75
ATOM     75  S   UNL A   1      50.602  30.995  32.419  1.00  0.00     0.127 S 
ATOM     76  O   UNL A   1      50.767  32.035  31.406  1.00  0.00    -0.237 OA
ATOM     77  O   UNL A   1      51.125  31.339  33.742  1.00  0.00    -0.237 OA
ATOM     78  O   UNL A   1      50.927  29.645  31.976  1.00  0.00    -0.744 OA
ENDBRANCH  72  75
ENDBRANCH  44  68
BRANCH  56  79
ATOM     79  C   UNL A   1      45.876  26.378  27.343  1.00  0.00     0.023 A 
ATOM     80  C   UNL A   1      44.614  26.813  26.886  1.00  0.00     0.012 A 
ATOM     81  C   UNL A   1      46.963  26.556  26.446  1.00  0.00     0.148 A 
ATOM     82  C   UNL A   1      44.426  27.365  25.614  1.00  0.00     0.002 A 
ATOM     83  C   UNL A   1      46.771  27.087  25.157  1.00  0.00     0.091 A 
ATOM     84  F   UNL A   1      48.186  26.214  26.844  1.00  0.00    -0.205 F 
ATOM     85  C   UNL A   1      45.500  27.499  24.748  1.00  0.00     0.022 A 
BRANCH  83  86
ATOM     86  S   UNL A   1      48.065  27.238  23.901  1.00  0.00     0.127 S 
ATOM     87  O   UNL A   1      48.329  25.842  23.546  1.00  0.00    -0.237 OA
ATOM     88  O   UNL A   1      47.399  28.003  22.850  1.00  0.00    -0.237 OA
ATOM     89  O   UNL A   1      49.184  27.911  24.545  1.00  0.00    -0.744 OA
ENDBRANCH  83  86
ENDBRANCH  56  79
ENDBRANCH  30  31
ENDBRANCH  23  25
ENDBRANCH  22  23
ENDBRANCH   1  22
TORSDOF 16
ENDMDL
MODEL 2
REMARK VINA RESULT:     -11.8      1.676      2.061
REMARK SMILES O=C(Cc1cccn1-c1ccc2c(c1)OCCO2)OCCOC(=O)c1ccc(-c2c3nc(c(-c4cccc(S(=O)(=O)[O-])c4F)c4ccc([nH]4)c(-c4cccc(S(=O)(=O)[O-])c4F)c4nc(c(-c5cccc(S(=O)(=O)[O-])c5F)c5ccc2[nH]5)C=C4)C=C3)cc1
REMARK SMILES IDX 21 1 20 2 19 3 2 4 1 5 3 6 4 7 5 8 8 9 6 10 7 11 9 12 10 13
REMARK SMILES IDX 14 14 11 15 13 16 12 17 15 18 18 19 16 20 17 21 22 22 23 23
REMARK SMILES IDX 24 24 25 25 26 26 87 27 27 28 86 29 28 30 29 31 30 32 80 33
REMARK SMILES IDX 31 34 85 35 79 36 81 37 32 38 84 39 78 40 77 41 33 43 65 44
REMARK SMILES IDX 45 45 64 46 46 47 49 48 63 49 82 50 47 51 48 52 62 54 83 55
REMARK SMILES IDX 50 56 34 57 35 58 43 59 36 60 38 61 44 62 37 63 39 64 40 65
REMARK SMILES IDX 41 66 42 67 66 68 67 69 75 70 68 71 70 72 76 73 69 74 71 75
REMARK SMILES IDX 72 76 73 77 74 78 51 79 52 80 60 81 53 82 55 83 61 84 54 85
REMARK SMILES IDX 56 86 57 87 58 88 59 89
REMARK H PARENT 81 42 49 53
REMARK Flexibility Score: inf
ROOT
ATOM      1  C   UNL A   1      35.361  31.925  27.709  1.00  0.00     0.275 C 
ENDROOT
BRANCH   1   2
ATOM      2  C   UNL A   1      33.983  31.379  28.046  1.00  0.00     0.274 C 
BRANCH   2   3
ATOM      3  O   UNL A   1      33.357  30.624  26.991  1.00  0.00    -0.462 OA
BRANCH   3   4
ATOM      4  C   UNL A   1      33.324  29.273  26.876  1.00  0.00     0.311 C 
ATOM      5  O   UNL A   1      32.491  28.646  27.533  1.00  0.00    -0.252 OA
BRANCH   4   6
ATOM      6  C   UNL A   1      34.320  28.550  25.985  1.00  0.00     0.177 C 
BRANCH   6   7
ATOM      7  C   UNL A   1      33.786  28.202  24.630  1.00  0.00     0.034 A 
ATOM      8  C   UNL A   1      33.917  28.944  23.464  1.00  0.00     0.024 A 
ATOM      9  N   UNL A   1      33.328  26.941  24.264  1.00  0.00    -0.320 N 
ATOM     10  C   UNL A   1      33.447  28.175  22.387  1.00  0.00     0.020 A 
ATOM     11  C   UNL A   1      33.102  26.950  22.901  1.00  0.00     0.091 A 
BRANCH   9  12
ATOM     12  C   UNL A   1      33.263  25.777  25.069  1.00  0.00     0.049 A 
ATOM     13  C   UNL A   1      32.078  25.512  25.770  1.00  0.00     0.031 A 
ATOM     14  C   UNL A   1      34.336  24.885  25.130  1.00  0.00     0.077 A 
ATOM     15  C   UNL A   1      31.959  24.336  26.511  1.00  0.00     0.052 A 
ATOM     16  C   UNL A   1      34.213  23.717  25.880  1.00  0.00     0.163 A 
ATOM     17  C   UNL A   1      33.032  23.451  26.583  1.00  0.00     0.161 A 
ATOM     18  O   UNL A   1      35.300  22.878  25.895  1.00  0.00    -0.486 OA
ATOM     19  O   UNL A   1      32.859  22.338  27.365  1.00  0.00    -0.486 OA
ATOM     20  C   UNL A   1      34.951  21.583  26.394  1.00  0.00     0.271 C 
ATOM     21  C   UNL A   1      34.114  21.712  27.655  1.00  0.00     0.271 C 
ENDBRANCH   9  12
ENDBRANCH   6   7
ENDBRANCH   4   6
ENDBRANCH   3   4
ENDBRANCH   2   3
ENDBRANCH   1   2
BRANCH   1  22
ATOM     22  O   UNL A   1      36.313  30.881  27.622  1.00  0.00    -0.458 OA
BRANCH  22  23
ATOM     23  C   UNL A   1      37.082  30.713  28.727  1.00  0.00     0.338 C 
ATOM     24  O   UNL A   1      37.185  31.459  29.674  1.00  0.00    -0.246 OA
BRANCH  23  25
ATOM     25  C   UNL A   1      37.893  29.509  28.534  1.00  0.00     0.060 A 
ATOM     26  C   UNL A   1      38.060  28.695  29.658  1.00  0.00     0.016 A 
ATOM     27  C   UNL A   1      38.767  29.493  27.448  1.00  0.00     0.016 A 
ATOM     28  C   UNL A   1      39.266  28.056  29.808  1.00  0.00     0.010 A 
ATOM     29  C   UNL A   1      40.004  28.953  27.651  1.00  0.00     0.010 A 
ATOM     30  C   UNL A   1      40.253  28.272  28.842  1.00  0.00    -0.014 A 
BRANCH  30  31
ATOM     31  C   UNL A   1      41.538  27.601  28.992  1.00  0.00     0.031 A 
ATOM     32  C   UNL A   1      41.342  26.123  28.528  1.00  0.00     0.074 A 
ATOM     33  C   UNL A   1      42.530  28.395  29.527  1.00  0.00     0.049 A 
ATOM     34  N   UNL A   1      41.838  25.025  29.005  1.00  0.00    -0.248 NA
ATOM     35  C   UNL A   1      40.322  25.791  27.476  1.00  0.00     0.031 C 
ATOM     36  C   UNL A   1      42.429  29.856  29.821  1.00  0.00     0.029 A 
ATOM     37  N   UNL A   1      43.829  28.172  29.925  1.00  0.00    -0.354 N 
ATOM     38  C   UNL A   1      41.463  23.975  28.125  1.00  0.00     0.074 A 
ATOM     39  C   UNL A   1      40.380  24.465  27.345  1.00  0.00     0.031 C 
ATOM     40  C   UNL A   1      43.542  30.323  30.444  1.00  0.00     0.029 A 
ATOM     41  C   UNL A   1      44.499  29.242  30.594  1.00  0.00     0.049 A 
ATOM     42  H   UNL A   1      44.276  27.311  29.758  1.00  0.00     0.167 HD
ATOM     43  C   UNL A   1      42.233  22.859  27.944  1.00  0.00     0.034 A 
ATOM     44  C   UNL A   1      45.714  29.207  31.245  1.00  0.00     0.034 A 
ATOM     45  C   UNL A   1      43.391  22.986  28.766  1.00  0.00     0.049 A 
ATOM     46  C   UNL A   1      46.245  27.884  30.898  1.00  0.00     0.074 A 
ATOM     47  C   UNL A   1      43.554  22.956  30.126  1.00  0.00     0.029 A 
ATOM     48  N   UNL A   1      44.437  23.661  28.176  1.00  0.00    -0.354 N 
ATOM     49  N   UNL A   1      46.658  27.550  29.712  1.00  0.00    -0.248 NA
ATOM     50  C   UNL A   1      46.141  26.810  31.891  1.00  0.00     0.031 C 
ATOM     51  C   UNL A   1      44.388  24.069  30.339  1.00  0.00     0.029 A 
ATOM     52  C   UNL A   1      44.969  24.480  29.130  1.00  0.00     0.049 A 
ATOM     53  H   UNL A   1      44.742  23.571  27.244  1.00  0.00     0.167 HD
ATOM     54  C   UNL A   1      46.476  26.191  29.727  1.00  0.00     0.074 A 
ATOM     55  C   UNL A   1      46.504  25.789  31.121  1.00  0.00     0.031 C 
ATOM     56  C   UNL A   1      45.788  25.589  28.717  1.00  0.00     0.034 A 
BRANCH  43  57
ATOM     57  C   UNL A   1      42.305  21.770  26.900  1.00  0.00     0.023 A 
ATOM     58  C   UNL A   1      41.322  20.748  27.049  1.00  0.00     0.012 A 
ATOM     59  C   UNL A   1      43.404  21.492  26.072  1.00  0.00     0.148 A 
ATOM     60  C   UNL A   1      41.505  19.458  26.562  1.00  0.00     0.002 A 
ATOM     61  C   UNL A   1      43.551  20.210  25.529  1.00  0.00     0.091 A 
ATOM     62  F   UNL A   1      44.337  22.428  25.877  1.00  0.00    -0.205 F 
ATOM     63  C   UNL A   1      42.635  19.185  25.817  1.00  0.00     0.022 A 
BRANCH  61  64
ATOM     64  S   UNL A   1      44.912  19.745  24.452  1.00  0.00     0.127 S 
ATOM     65  O   UNL A   1      46.033  20.462  25.054  1.00  0.00    -0.237 OA
ATOM     66  O   UNL A   1      44.952  18.292  24.640  1.00  0.00    -0.237 OA
ATOM     67  O   UNL A   1      44.519  20.161  23.114  1.00  0.00    -0.744 OA
ENDBRANCH  61  64
ENDBRANCH  43  57
BRANCH  44  68
ATOM     68  C   UNL A   1      46.550  30.007  32.240  1.00  0.00     0.023 A 
ATOM     69  C   UNL A   1      47.733  30.691  31.934  1.00  0.00     0.012 A 
ATOM     70  C   UNL A   1      46.061  30.206  33.579  1.00  0.00     0.148 A 
ATOM     71  C   UNL A   1      48.319  31.593  32.860  1.00  0.00     0.002 A 
ATOM     72  C   UNL A   1      46.551  31.195  34.427  1.00  0.00     0.091 A 
ATOM     73  F   UNL A   1      45.120  29.392  34.070  1.00  0.00    -0.205 F 
ATOM     74  C   UNL A   1      47.700  31.889  34.076  1.00  0.00     0.022 A 
BRANCH  72  75
ATOM     75  S   UNL A   1      45.645  31.731  35.900  1.00  0.00     0.127 S 
ATOM     76  O   UNL A   1      44.307  31.989  35.372  1.00  0.00    -0.237 OA
ATOM     77  O   UNL A   1      45.749  30.546  36.753  1.00  0.00    -0.237 OA
ATOM     78  O   UNL A   1      46.345  32.902  36.409  1.00  0.00    -0.744 OA
ENDBRANCH  72  75
ENDBRANCH  44  68
BRANCH  56  79
ATOM     79  C   UNL A   1      45.767  26.335  27.370  1.00  0.00     0.023 A 
ATOM     80  C   UNL A   1      44.515  26.835  26.954  1.00  0.00     0.012 A 
ATOM     81  C   UNL A   1      46.843  26.504  26.458  1.00  0.00     0.148 A 
ATOM     82  C   UNL A   1      44.325  27.440  25.706  1.00  0.00     0.002 A 
ATOM     83  C   UNL A   1      46.649  27.089  25.193  1.00  0.00     0.091 A 
ATOM     84  F   UNL A   1      48.059  26.101  26.819  1.00  0.00    -0.205 F 
ATOM     85  C   UNL A   1      45.388  27.563  24.824  1.00  0.00     0.022 A 
BRANCH  83  86
ATOM     86  S   UNL A   1      47.924  27.236  23.918  1.00  0.00     0.127 S 
ATOM     87  O   UNL A   1      49.006  27.924  24.627  1.00  0.00    -0.237 OA
ATOM     88  O   UNL A   1      48.216  25.841  23.598  1.00  0.00    -0.237 OA
ATOM     89  O   UNL A   1      47.333  28.012  22.836  1.00  0.00    -0.744 OA
ENDBRANCH  83  86
ENDBRANCH  56  79
ENDBRANCH  30  31
ENDBRANCH  23  25
ENDBRANCH  22  23
ENDBRANCH   1  22
TORSDOF 16
ENDMDL
MODEL 3
REMARK VINA RESULT:     -11.8      5.024     10.235
REMARK SMILES O=C(Cc1cccn1-c1ccc2c(c1)OCCO2)OCCOC(=O)c1ccc(-c2c3nc(c(-c4cccc(S(=O)(=O)[O-])c4F)c4ccc([nH]4)c(-c4cccc(S(=O)(=O)[O-])c4F)c4nc(c(-c5cccc(S(=O)(=O)[O-])c5F)c5ccc2[nH]5)C=C4)C=C3)cc1
REMARK SMILES IDX 21 1 20 2 19 3 2 4 1 5 3 6 4 7 5 8 8 9 6 10 7 11 9 12 10 13
REMARK SMILES IDX 14 14 11 15 13 16 12 17 15 18 18 19 16 20 17 21 22 22 23 23
REMARK SMILES IDX 24 24 25 25 26 26 87 27 27 28 86 29 28 30 29 31 30 32 80 33
REMARK SMILES IDX 31 34 85 35 79 36 81 37 32 38 84 39 78 40 77 41 33 43 65 44
REMARK SMILES IDX 45 45 64 46 46 47 49 48 63 49 82 50 47 51 48 52 62 54 83 55
REMARK SMILES IDX 50 56 34 57 35 58 43 59 36 60 38 61 44 62 37 63 39 64 40 65
REMARK SMILES IDX 41 66 42 67 66 68 67 69 75 70 68 71 70 72 76 73 69 74 71 75
REMARK SMILES IDX 72 76 73 77 74 78 51 79 52 80 60 81 53 82 55 83 61 84 54 85
REMARK SMILES IDX 56 86 57 87 58 88 59 89
REMARK H PARENT 81 42 49 53
REMARK Flexibility Score: inf
ROOT
ATOM      1  C   UNL A   1      38.867  23.342  26.395  1.00  0.00     0.275 C 
ENDROOT
BRANCH   1   2
ATOM      2  C   UNL A   1      37.473  23.863  26.084  1.00  0.00     0.274 C 
BRANCH   2   3
ATOM      3  O   UNL A   1      37.017  23.607  24.743  1.00  0.00    -0.462 OA
BRANCH   3   4
ATOM      4  C   UNL A   1      35.739  23.693  24.295  1.00  0.00     0.311 C 
ATOM      5  O   UNL A   1      35.397  22.982  23.348  1.00  0.00    -0.252 OA
BRANCH   4   6
ATOM      6  C   UNL A   1      34.766  24.675  24.924  1.00  0.00     0.177 C 
BRANCH   6   7
ATOM      7  C   UNL A   1      33.682  24.028  25.732  1.00  0.00     0.034 A 
ATOM      8  C   UNL A   1      33.797  22.902  26.535  1.00  0.00     0.024 A 
ATOM      9  N   UNL A   1      32.463  24.625  26.033  1.00  0.00    -0.320 N 
ATOM     10  C   UNL A   1      32.606  22.747  27.262  1.00  0.00     0.020 A 
ATOM     11  C   UNL A   1      31.810  23.819  26.947  1.00  0.00     0.091 A 
BRANCH   9  12
ATOM     12  C   UNL A   1      32.008  25.909  25.645  1.00  0.00     0.049 A 
ATOM     13  C   UNL A   1      32.248  26.992  26.502  1.00  0.00     0.031 A 
ATOM     14  C   UNL A   1      31.376  26.106  24.416  1.00  0.00     0.077 A 
ATOM     15  C   UNL A   1      31.877  28.280  26.113  1.00  0.00     0.052 A 
ATOM     16  C   UNL A   1      31.000  27.394  24.038  1.00  0.00     0.163 A 
ATOM     17  C   UNL A   1      31.235  28.477  24.893  1.00  0.00     0.161 A 
ATOM     18  O   UNL A   1      30.388  27.522  22.815  1.00  0.00    -0.486 OA
ATOM     19  O   UNL A   1      30.861  29.762  24.596  1.00  0.00    -0.486 OA
ATOM     20  C   UNL A   1      30.361  28.888  22.388  1.00  0.00     0.271 C 
ATOM     21  C   UNL A   1      29.910  29.787  23.526  1.00  0.00     0.271 C 
ENDBRANCH   9  12
ENDBRANCH   6   7
ENDBRANCH   4   6
ENDBRANCH   3   4
ENDBRANCH   2   3
ENDBRANCH   1   2
BRANCH   1  22
ATOM     22  O   UNL A   1      39.315  23.811  27.653  1.00  0.00    -0.458 OA
BRANCH  22  23
ATOM     23  C   UNL A   1      40.321  24.718  27.603  1.00  0.00     0.338 C 
ATOM     24  O   UNL A   1      41.502  24.501  27.448  1.00  0.00    -0.246 OA
BRANCH  23  25
ATOM     25  C   UNL A   1      39.758  26.037  27.901  1.00  0.00     0.060 A 
ATOM     26  C   UNL A   1      40.256  27.102  27.147  1.00  0.00     0.016 A 
ATOM     27  C   UNL A   1      39.147  26.205  29.144  1.00  0.00     0.016 A 
ATOM     28  C   UNL A   1      40.383  28.319  27.770  1.00  0.00     0.010 A 
ATOM     29  C   UNL A   1      39.380  27.380  29.798  1.00  0.00     0.010 A 
ATOM     30  C   UNL A   1      40.026  28.412  29.118  1.00  0.00    -0.014 A 
BRANCH  30  31
ATOM     31  C   UNL A   1      40.159  29.698  29.791  1.00  0.00     0.031 A 
ATOM     32  C   UNL A   1      38.922  30.560  29.385  1.00  0.00     0.074 A 
ATOM     33  C   UNL A   1      41.313  29.830  30.534  1.00  0.00     0.049 A 
ATOM     34  N   UNL A   1      38.836  31.827  29.128  1.00  0.00    -0.248 NA
ATOM     35  C   UNL A   1      37.614  29.897  29.059  1.00  0.00     0.031 C 
ATOM     36  C   UNL A   1      42.319  28.757  30.799  1.00  0.00     0.029 A 
ATOM     37  N   UNL A   1      41.891  30.863  31.236  1.00  0.00    -0.354 N 
ATOM     38  C   UNL A   1      37.458  32.130  28.957  1.00  0.00     0.074 A 
ATOM     39  C   UNL A   1      36.796  30.894  28.719  1.00  0.00     0.031 C 
ATOM     40  C   UNL A   1      43.397  29.234  31.474  1.00  0.00     0.029 A 
ATOM     41  C   UNL A   1      43.204  30.645  31.755  1.00  0.00     0.049 A 
ATOM     42  H   UNL A   1      41.420  31.716  31.373  1.00  0.00     0.167 HD
ATOM     43  C   UNL A   1      36.933  33.355  29.261  1.00  0.00     0.034 A 
ATOM     44  C   UNL A   1      44.057  31.569  32.320  1.00  0.00     0.034 A 
ATOM     45  C   UNL A   1      37.991  34.179  29.747  1.00  0.00     0.049 A 
ATOM     46  C   UNL A   1      43.217  32.763  32.461  1.00  0.00     0.074 A 
ATOM     47  C   UNL A   1      39.079  34.730  29.123  1.00  0.00     0.029 A 
ATOM     48  N   UNL A   1      38.221  34.071  31.101  1.00  0.00    -0.354 N 
ATOM     49  N   UNL A   1      42.235  32.871  33.306  1.00  0.00    -0.248 NA
ATOM     50  C   UNL A   1      43.362  33.837  31.473  1.00  0.00     0.031 C 
ATOM     51  C   UNL A   1      40.112  34.426  30.029  1.00  0.00     0.029 A 
ATOM     52  C   UNL A   1      39.576  34.057  31.272  1.00  0.00     0.049 A 
ATOM     53  H   UNL A   1      37.540  34.014  31.809  1.00  0.00     0.167 HD
ATOM     54  C   UNL A   1      41.441  33.804  32.691  1.00  0.00     0.074 A 
ATOM     55  C   UNL A   1      42.309  34.572  31.818  1.00  0.00     0.031 C 
ATOM     56  C   UNL A   1      40.115  33.547  32.504  1.00  0.00     0.034 A 
BRANCH  43  57
ATOM     57  C   UNL A   1      35.541  33.889  29.508  1.00  0.00     0.023 A 
ATOM     58  C   UNL A   1      34.926  34.476  28.364  1.00  0.00     0.012 A 
ATOM     59  C   UNL A   1      34.977  34.175  30.762  1.00  0.00     0.148 A 
ATOM     60  C   UNL A   1      33.929  35.440  28.463  1.00  0.00     0.002 A 
ATOM     61  C   UNL A   1      33.929  35.098  30.851  1.00  0.00     0.091 A 
ATOM     62  F   UNL A   1      35.500  33.626  31.862  1.00  0.00    -0.205 F 
ATOM     63  C   UNL A   1      33.444  35.767  29.715  1.00  0.00     0.022 A 
BRANCH  61  64
ATOM     64  S   UNL A   1      33.129  35.535  32.399  1.00  0.00     0.127 S 
ATOM     65  O   UNL A   1      34.219  36.170  33.135  1.00  0.00    -0.237 OA
ATOM     66  O   UNL A   1      32.088  36.459  31.943  1.00  0.00    -0.237 OA
ATOM     67  O   UNL A   1      32.617  34.287  32.947  1.00  0.00    -0.744 OA
ENDBRANCH  61  64
ENDBRANCH  43  57
BRANCH  44  68
ATOM     68  C   UNL A   1      45.525  31.754  32.696  1.00  0.00     0.023 A 
ATOM     69  C   UNL A   1      46.584  31.864  31.786  1.00  0.00     0.012 A 
ATOM     70  C   UNL A   1      45.883  31.963  34.074  1.00  0.00     0.148 A 
ATOM     71  C   UNL A   1      47.877  32.262  32.211  1.00  0.00     0.002 A 
ATOM     72  C   UNL A   1      47.108  32.492  34.469  1.00  0.00     0.091 A 
ATOM     73  F   UNL A   1      45.034  31.603  35.043  1.00  0.00    -0.205 F 
ATOM     74  C   UNL A   1      48.125  32.632  33.534  1.00  0.00     0.022 A 
BRANCH  72  75
ATOM     75  S   UNL A   1      47.373  33.167  36.127  1.00  0.00     0.127 S 
ATOM     76  O   UNL A   1      48.605  33.935  35.964  1.00  0.00    -0.237 OA
ATOM     77  O   UNL A   1      46.166  33.976  36.309  1.00  0.00    -0.237 OA
ATOM     78  O   UNL A   1      47.471  32.024  37.025  1.00  0.00    -0.744 OA
ENDBRANCH  72  75
ENDBRANCH  44  68
BRANCH  56  79
ATOM     79  C   UNL A   1      39.476  32.538  33.476  1.00  0.00     0.023 A 
ATOM     80  C   UNL A   1      39.034  31.323  32.912  1.00  0.00     0.012 A 
ATOM     81  C   UNL A   1      39.200  32.724  34.857  1.00  0.00     0.148 A 
ATOM     82  C   UNL A   1      38.341  30.359  33.652  1.00  0.00     0.002 A 
ATOM     83  C   UNL A   1      38.482  31.767  35.598  1.00  0.00     0.091 A 
ATOM     84  F   UNL A   1      39.641  33.827  35.457  1.00  0.00    -0.205 F 
ATOM     85  C   UNL A   1      38.060  30.581  34.991  1.00  0.00     0.022 A 
BRANCH  83  86
ATOM     86  S   UNL A   1      37.976  31.964  37.324  1.00  0.00     0.127 S 
ATOM     87  O   UNL A   1      36.948  33.005  37.237  1.00  0.00    -0.237 OA
ATOM     88  O   UNL A   1      37.454  30.641  37.656  1.00  0.00    -0.237 OA
ATOM     89  O   UNL A   1      39.168  32.365  38.056  1.00  0.00    -0.744 OA
ENDBRANCH  83  86
ENDBRANCH  56  79
ENDBRANCH  30  31
ENDBRANCH  23  25
ENDBRANCH  22  23
ENDBRANCH   1  22
TORSDOF 16
ENDMDL
