MODEL 1
REMARK VINA RESULT:     -11.9      0.000      0.000
REMARK SMILES O=C(OCCOC(=O)C1CC[NH+]([C@@H]2CCO[C@]3(CCOC3)C2)CC1)c1ccc(-c2c3nc(c(-c4cccc(S(=O)(=O)[O-])c4F)c4ccc([nH]4)c(-c4cccc(S(=O)(=O)[O-])c4F)c4nc(c(-c5cccc(S(=O)(=O)[O-])c5F)c5ccc2[nH]5)C=C4)C=C3)cc1
REMARK SMILES IDX 4 1 3 2 2 3 1 4 25 5 26 6 87 7 27 8 86 9 28 10 29 11 30 12
REMARK SMILES IDX 80 13 31 14 85 15 79 16 81 17 32 18 84 19 78 20 77 21 33 23
REMARK SMILES IDX 65 24 45 25 64 26 46 27 49 28 63 29 82 30 47 31 48 32 62 34
REMARK SMILES IDX 83 35 50 36 34 37 35 38 43 39 36 40 38 41 44 42 37 43 39 44
REMARK SMILES IDX 40 45 41 46 42 47 66 48 67 49 75 50 68 51 70 52 76 53 69 54
REMARK SMILES IDX 71 55 72 56 73 57 74 58 51 59 52 60 60 61 53 62 55 63 61 64
REMARK SMILES IDX 54 65 56 66 57 67 58 68 59 69 5 70 6 71 7 72 8 73 9 74 10 75
REMARK SMILES IDX 24 76 11 77 23 78 12 79 13 81 14 82 22 83 15 84 17 85 16 86
REMARK SMILES IDX 18 87 21 88 19 89 20 90
REMARK H PARENT 81 22 49 33 12 80
REMARK Flexibility Score: inf
ROOT
ATOM      1  C   UNL A   1      32.533  31.070  26.370  1.00  0.00     0.275 C 
ENDROOT
BRANCH   1   2
ATOM      2  O   UNL A   1      32.498  32.203  27.262  1.00  0.00    -0.458 OA
BRANCH   2   3
ATOM      3  C   UNL A   1      33.493  32.927  27.831  1.00  0.00     0.338 C 
ATOM      4  O   UNL A   1      33.437  34.155  27.778  1.00  0.00    -0.246 OA
BRANCH   3   5
ATOM      5  C   UNL A   1      34.736  32.310  28.393  1.00  0.00     0.060 A 
ATOM      6  C   UNL A   1      34.826  31.036  28.959  1.00  0.00     0.016 A 
ATOM      7  C   UNL A   1      35.923  33.055  28.264  1.00  0.00     0.016 A 
ATOM      8  C   UNL A   1      36.064  30.464  29.256  1.00  0.00     0.010 A 
ATOM      9  C   UNL A   1      37.170  32.486  28.543  1.00  0.00     0.010 A 
ATOM     10  C   UNL A   1      37.244  31.181  29.045  1.00  0.00    -0.014 A 
BRANCH  10  11
ATOM     11  C   UNL A   1      38.491  30.665  29.646  1.00  0.00     0.031 A 
ATOM     12  C   UNL A   1      38.774  31.123  31.046  1.00  0.00     0.074 A 
ATOM     13  C   UNL A   1      39.282  29.766  29.027  1.00  0.00     0.049 A 
ATOM     14  N   UNL A   1      39.710  30.746  31.868  1.00  0.00    -0.248 NA
ATOM     15  C   UNL A   1      37.864  32.149  31.596  1.00  0.00     0.031 C 
ATOM     16  C   UNL A   1      39.100  29.250  27.670  1.00  0.00     0.029 A 
ATOM     17  N   UNL A   1      40.409  29.120  29.473  1.00  0.00    -0.354 N 
ATOM     18  C   UNL A   1      39.511  31.501  33.016  1.00  0.00     0.074 A 
ATOM     19  C   UNL A   1      38.407  32.392  32.773  1.00  0.00     0.031 C 
ATOM     20  C   UNL A   1      40.083  28.374  27.393  1.00  0.00     0.029 A 
ATOM     21  C   UNL A   1      40.965  28.262  28.551  1.00  0.00     0.049 A 
ATOM     22  H   UNL A   1      40.786  29.258  30.373  1.00  0.00     0.167 HD
ATOM     23  C   UNL A   1      40.166  31.432  34.193  1.00  0.00     0.034 A 
ATOM     24  C   UNL A   1      42.058  27.475  28.647  1.00  0.00     0.034 A 
ATOM     25  C   UNL A   1      41.257  30.540  34.430  1.00  0.00     0.049 A 
ATOM     26  C   UNL A   1      42.796  27.438  29.964  1.00  0.00     0.074 A 
ATOM     27  C   UNL A   1      41.996  30.372  35.583  1.00  0.00     0.029 A 
ATOM     28  N   UNL A   1      41.777  29.677  33.477  1.00  0.00    -0.354 N 
ATOM     29  N   UNL A   1      42.519  28.065  31.084  1.00  0.00    -0.248 NA
ATOM     30  C   UNL A   1      43.970  26.556  30.050  1.00  0.00     0.031 C 
ATOM     31  C   UNL A   1      42.993  29.429  35.314  1.00  0.00     0.029 A 
ATOM     32  C   UNL A   1      42.841  28.979  34.010  1.00  0.00     0.049 A 
ATOM     33  H   UNL A   1      41.438  29.578  32.559  1.00  0.00     0.167 HD
ATOM     34  C   UNL A   1      43.455  27.626  32.013  1.00  0.00     0.074 A 
ATOM     35  C   UNL A   1      44.296  26.664  31.331  1.00  0.00     0.031 C 
ATOM     36  C   UNL A   1      43.617  27.988  33.310  1.00  0.00     0.034 A 
BRANCH  23  37
ATOM     37  C   UNL A   1      39.703  32.362  35.275  1.00  0.00     0.023 A 
ATOM     38  C   UNL A   1      38.695  31.953  36.175  1.00  0.00     0.012 A 
ATOM     39  C   UNL A   1      40.221  33.665  35.357  1.00  0.00     0.148 A 
ATOM     40  C   UNL A   1      38.174  32.847  37.107  1.00  0.00     0.002 A 
ATOM     41  C   UNL A   1      39.734  34.534  36.323  1.00  0.00     0.091 A 
ATOM     42  F   UNL A   1      41.149  34.040  34.466  1.00  0.00    -0.205 F 
ATOM     43  C   UNL A   1      38.698  34.135  37.185  1.00  0.00     0.022 A 
BRANCH  41  44
ATOM     44  S   UNL A   1      40.387  36.189  36.548  1.00  0.00     0.127 S 
ATOM     45  O   UNL A   1      39.981  36.839  35.303  1.00  0.00    -0.237 OA
ATOM     46  O   UNL A   1      39.663  36.638  37.737  1.00  0.00    -0.237 OA
ATOM     47  O   UNL A   1      41.824  36.036  36.728  1.00  0.00    -0.744 OA
ENDBRANCH  41  44
ENDBRANCH  23  37
BRANCH  24  48
ATOM     48  C   UNL A   1      42.501  26.624  27.499  1.00  0.00     0.023 A 
ATOM     49  C   UNL A   1      43.290  27.180  26.472  1.00  0.00     0.012 A 
ATOM     50  C   UNL A   1      42.121  25.271  27.406  1.00  0.00     0.148 A 
ATOM     51  C   UNL A   1      43.655  26.420  25.357  1.00  0.00     0.002 A 
ATOM     52  C   UNL A   1      42.530  24.505  26.318  1.00  0.00     0.091 A 
ATOM     53  F   UNL A   1      41.359  24.758  28.382  1.00  0.00    -0.205 F 
ATOM     54  C   UNL A   1      43.280  25.082  25.283  1.00  0.00     0.022 A 
BRANCH  52  55
ATOM     55  S   UNL A   1      42.189  22.745  26.189  1.00  0.00     0.127 S 
ATOM     56  O   UNL A   1      42.794  22.417  24.900  1.00  0.00    -0.237 OA
ATOM     57  O   UNL A   1      42.899  22.219  27.356  1.00  0.00    -0.237 OA
ATOM     58  O   UNL A   1      40.741  22.619  26.258  1.00  0.00    -0.744 OA
ENDBRANCH  52  55
ENDBRANCH  24  48
BRANCH  36  59
ATOM     59  C   UNL A   1      44.706  27.314  34.098  1.00  0.00     0.023 A 
ATOM     60  C   UNL A   1      46.003  27.861  34.119  1.00  0.00     0.012 A 
ATOM     61  C   UNL A   1      44.400  26.213  34.921  1.00  0.00     0.148 A 
ATOM     62  C   UNL A   1      46.989  27.304  34.931  1.00  0.00     0.002 A 
ATOM     63  C   UNL A   1      45.369  25.701  35.771  1.00  0.00     0.091 A 
ATOM     64  F   UNL A   1      43.160  25.702  34.871  1.00  0.00    -0.205 F 
ATOM     65  C   UNL A   1      46.667  26.237  35.769  1.00  0.00     0.022 A 
BRANCH  63  66
ATOM     66  S   UNL A   1      45.009  24.412  36.968  1.00  0.00     0.127 S 
ATOM     67  O   UNL A   1      44.745  23.266  36.100  1.00  0.00    -0.237 OA
ATOM     68  O   UNL A   1      46.260  24.332  37.723  1.00  0.00    -0.237 OA
ATOM     69  O   UNL A   1      43.868  24.886  37.739  1.00  0.00    -0.744 OA
ENDBRANCH  63  66
ENDBRANCH  36  59
ENDBRANCH  10  11
ENDBRANCH   3   5
ENDBRANCH   2   3
ENDBRANCH   1   2
BRANCH   1  70
ATOM     70  C   UNL A   1      32.084  29.720  26.944  1.00  0.00     0.274 C 
BRANCH  70  71
ATOM     71  O   UNL A   1      31.668  28.757  25.972  1.00  0.00    -0.462 OA
BRANCH  71  72
ATOM     72  C   UNL A   1      31.305  27.544  26.479  1.00  0.00     0.309 C 
ATOM     73  O   UNL A   1      31.243  27.294  27.680  1.00  0.00    -0.252 OA
BRANCH  72  74
ATOM     74  C   UNL A   1      31.055  26.543  25.363  1.00  0.00     0.110 C 
ATOM     75  C   UNL A   1      30.757  25.130  25.879  1.00  0.00     0.077 C 
ATOM     76  C   UNL A   1      32.269  26.513  24.468  1.00  0.00     0.077 C 
ATOM     77  C   UNL A   1      31.974  24.382  26.424  1.00  0.00     0.263 C 
ATOM     78  C   UNL A   1      33.401  25.944  25.297  1.00  0.00     0.263 C 
ATOM     79  N   UNL A   1      33.169  24.525  25.573  1.00  0.00    -0.332 N 
ATOM     80  H   UNL A   1      33.026  24.083  24.665  1.00  0.00     0.348 HD
BRANCH  79  81
ATOM     81  C   UNL A   1      34.315  23.804  26.167  1.00  0.00     0.189 C 
ATOM     82  C   UNL A   1      35.688  24.122  25.580  1.00  0.00     0.093 C 
ATOM     83  C   UNL A   1      34.156  22.274  26.167  1.00  0.00     0.103 C 
ATOM     84  C   UNL A   1      35.936  23.461  24.232  1.00  0.00     0.167 C 
ATOM     85  C   UNL A   1      34.319  21.633  24.785  1.00  0.00     0.099 C 
ATOM     86  O   UNL A   1      35.435  22.145  24.040  1.00  0.00    -0.372 OA
ATOM     87  C   UNL A   1      32.977  21.559  24.034  1.00  0.00     0.066 C 
ATOM     88  C   UNL A   1      34.607  20.130  24.886  1.00  0.00     0.195 C 
ATOM     89  C   UNL A   1      32.394  20.185  24.318  1.00  0.00     0.163 C 
ATOM     90  O   UNL A   1      33.365  19.462  25.078  1.00  0.00    -0.378 OA
ENDBRANCH  79  81
ENDBRANCH  72  74
ENDBRANCH  71  72
ENDBRANCH  70  71
ENDBRANCH   1  70
TORSDOF 15
ENDMDL
MODEL 2
REMARK VINA RESULT:     -11.8      4.934     10.310
REMARK SMILES O=C(OCCOC(=O)C1CC[NH+]([C@@H]2CCO[C@]3(CCOC3)C2)CC1)c1ccc(-c2c3nc(c(-c4cccc(S(=O)(=O)[O-])c4F)c4ccc([nH]4)c(-c4cccc(S(=O)(=O)[O-])c4F)c4nc(c(-c5cccc(S(=O)(=O)[O-])c5F)c5ccc2[nH]5)C=C4)C=C3)cc1
REMARK SMILES IDX 4 1 3 2 2 3 1 4 25 5 26 6 87 7 27 8 86 9 28 10 29 11 30 12
REMARK SMILES IDX 80 13 31 14 85 15 79 16 81 17 32 18 84 19 78 20 77 21 33 23
REMARK SMILES IDX 65 24 45 25 64 26 46 27 49 28 63 29 82 30 47 31 48 32 62 34
REMARK SMILES IDX 83 35 50 36 34 37 35 38 43 39 36 40 38 41 44 42 37 43 39 44
REMARK SMILES IDX 40 45 41 46 42 47 66 48 67 49 75 50 68 51 70 52 76 53 69 54
REMARK SMILES IDX 71 55 72 56 73 57 74 58 51 59 52 60 60 61 53 62 55 63 61 64
REMARK SMILES IDX 54 65 56 66 57 67 58 68 59 69 5 70 6 71 7 72 8 73 9 74 10 75
REMARK SMILES IDX 24 76 11 77 23 78 12 79 13 81 14 82 22 83 15 84 17 85 16 86
REMARK SMILES IDX 18 87 21 88 19 89 20 90
REMARK H PARENT 81 22 49 33 12 80
REMARK Flexibility Score: inf
ROOT
ATOM      1  C   UNL A   1      37.404  20.286  25.108  1.00  0.00     0.275 C 
ENDROOT
BRANCH   1   2
ATOM      2  O   UNL A   1      38.453  21.271  25.208  1.00  0.00    -0.458 OA
BRANCH   2   3
ATOM      3  C   UNL A   1      39.434  21.446  26.127  1.00  0.00     0.338 C 
ATOM      4  O   UNL A   1      39.897  20.458  26.696  1.00  0.00    -0.246 OA
BRANCH   3   5
ATOM      5  C   UNL A   1      39.884  22.794  26.597  1.00  0.00     0.060 A 
ATOM      6  C   UNL A   1      39.356  24.018  26.179  1.00  0.00     0.016 A 
ATOM      7  C   UNL A   1      40.871  22.815  27.600  1.00  0.00     0.016 A 
ATOM      8  C   UNL A   1      39.688  25.208  26.830  1.00  0.00     0.010 A 
ATOM      9  C   UNL A   1      41.199  23.999  28.270  1.00  0.00     0.010 A 
ATOM     10  C   UNL A   1      40.606  25.206  27.882  1.00  0.00    -0.014 A 
BRANCH  10  11
ATOM     11  C   UNL A   1      41.149  26.503  28.336  1.00  0.00     0.031 A 
ATOM     12  C   UNL A   1      42.569  26.784  27.941  1.00  0.00     0.074 A 
ATOM     13  C   UNL A   1      40.403  27.423  28.979  1.00  0.00     0.049 A 
ATOM     14  N   UNL A   1      43.268  27.872  28.081  1.00  0.00    -0.248 NA
ATOM     15  C   UNL A   1      43.299  25.678  27.288  1.00  0.00     0.031 C 
ATOM     16  C   UNL A   1      39.015  27.257  29.408  1.00  0.00     0.029 A 
ATOM     17  N   UNL A   1      40.719  28.698  29.381  1.00  0.00    -0.354 N 
ATOM     18  C   UNL A   1      44.517  27.573  27.554  1.00  0.00     0.074 A 
ATOM     19  C   UNL A   1      44.503  26.194  27.141  1.00  0.00     0.031 C 
ATOM     20  C   UNL A   1      38.601  28.383  30.018  1.00  0.00     0.029 A 
ATOM     21  C   UNL A   1      39.692  29.353  30.023  1.00  0.00     0.049 A 
ATOM     22  H   UNL A   1      41.601  29.107  29.224  1.00  0.00     0.167 HD
ATOM     23  C   UNL A   1      45.579  28.389  27.389  1.00  0.00     0.034 A 
ATOM     24  C   UNL A   1      39.649  30.598  30.544  1.00  0.00     0.034 A 
ATOM     25  C   UNL A   1      45.584  29.759  27.795  1.00  0.00     0.049 A 
ATOM     26  C   UNL A   1      40.861  31.483  30.376  1.00  0.00     0.074 A 
ATOM     27  C   UNL A   1      46.596  30.688  27.674  1.00  0.00     0.029 A 
ATOM     28  N   UNL A   1      44.520  30.387  28.426  1.00  0.00    -0.354 N 
ATOM     29  N   UNL A   1      41.993  31.226  29.762  1.00  0.00    -0.248 NA
ATOM     30  C   UNL A   1      40.781  32.842  30.932  1.00  0.00     0.031 C 
ATOM     31  C   UNL A   1      46.156  31.874  28.268  1.00  0.00     0.029 A 
ATOM     32  C   UNL A   1      44.854  31.693  28.714  1.00  0.00     0.049 A 
ATOM     33  H   UNL A   1      43.657  29.963  28.635  1.00  0.00     0.167 HD
ATOM     34  C   UNL A   1      42.739  32.396  29.823  1.00  0.00     0.074 A 
ATOM     35  C   UNL A   1      41.924  33.372  30.517  1.00  0.00     0.031 C 
ATOM     36  C   UNL A   1      43.989  32.648  29.359  1.00  0.00     0.034 A 
BRANCH  23  37
ATOM     37  C   UNL A   1      46.796  27.785  26.755  1.00  0.00     0.023 A 
ATOM     38  C   UNL A   1      47.797  27.199  27.561  1.00  0.00     0.012 A 
ATOM     39  C   UNL A   1      46.978  27.857  25.364  1.00  0.00     0.148 A 
ATOM     40  C   UNL A   1      48.984  26.742  26.994  1.00  0.00     0.002 A 
ATOM     41  C   UNL A   1      48.141  27.350  24.799  1.00  0.00     0.091 A 
ATOM     42  F   UNL A   1      46.031  28.452  24.626  1.00  0.00    -0.205 F 
ATOM     43  C   UNL A   1      49.152  26.812  25.613  1.00  0.00     0.022 A 
BRANCH  41  44
ATOM     44  S   UNL A   1      48.426  27.334  23.029  1.00  0.00     0.127 S 
ATOM     45  O   UNL A   1      49.795  27.840  22.945  1.00  0.00    -0.237 OA
ATOM     46  O   UNL A   1      48.278  25.913  22.716  1.00  0.00    -0.237 OA
ATOM     47  O   UNL A   1      47.408  28.198  22.448  1.00  0.00    -0.744 OA
ENDBRANCH  41  44
ENDBRANCH  23  37
BRANCH  24  48
ATOM     48  C   UNL A   1      38.419  31.108  31.225  1.00  0.00     0.023 A 
ATOM     49  C   UNL A   1      38.271  30.957  32.619  1.00  0.00     0.012 A 
ATOM     50  C   UNL A   1      37.381  31.720  30.494  1.00  0.00     0.148 A 
ATOM     51  C   UNL A   1      37.099  31.365  33.263  1.00  0.00     0.002 A 
ATOM     52  C   UNL A   1      36.239  32.170  31.149  1.00  0.00     0.091 A 
ATOM     53  F   UNL A   1      37.529  31.844  29.168  1.00  0.00    -0.205 F 
ATOM     54  C   UNL A   1      36.086  31.976  32.530  1.00  0.00     0.022 A 
BRANCH  52  55
ATOM     55  S   UNL A   1      34.929  33.067  30.306  1.00  0.00     0.127 S 
ATOM     56  O   UNL A   1      34.028  33.388  31.411  1.00  0.00    -0.237 OA
ATOM     57  O   UNL A   1      35.658  34.208  29.753  1.00  0.00    -0.237 OA
ATOM     58  O   UNL A   1      34.402  32.147  29.309  1.00  0.00    -0.744 OA
ENDBRANCH  52  55
ENDBRANCH  24  48
BRANCH  36  59
ATOM     59  C   UNL A   1      44.539  34.035  29.536  1.00  0.00     0.023 A 
ATOM     60  C   UNL A   1      45.192  34.388  30.732  1.00  0.00     0.012 A 
ATOM     61  C   UNL A   1      44.522  34.942  28.458  1.00  0.00     0.148 A 
ATOM     62  C   UNL A   1      45.798  35.636  30.862  1.00  0.00     0.002 A 
ATOM     63  C   UNL A   1      45.179  36.158  28.573  1.00  0.00     0.091 A 
ATOM     64  F   UNL A   1      43.881  34.586  27.334  1.00  0.00    -0.205 F 
ATOM     65  C   UNL A   1      45.807  36.512  29.777  1.00  0.00     0.022 A 
BRANCH  63  66
ATOM     66  S   UNL A   1      45.345  37.291  27.190  1.00  0.00     0.127 S 
ATOM     67  O   UNL A   1      43.947  37.588  26.880  1.00  0.00    -0.237 OA
ATOM     68  O   UNL A   1      46.088  38.401  27.786  1.00  0.00    -0.237 OA
ATOM     69  O   UNL A   1      46.072  36.563  26.158  1.00  0.00    -0.744 OA
ENDBRANCH  63  66
ENDBRANCH  36  59
ENDBRANCH  10  11
ENDBRANCH   3   5
ENDBRANCH   2   3
ENDBRANCH   1   2
BRANCH   1  70
ATOM     70  C   UNL A   1      35.982  20.808  24.869  1.00  0.00     0.274 C 
BRANCH  70  71
ATOM     71  O   UNL A   1      35.829  22.226  24.990  1.00  0.00    -0.462 OA
BRANCH  71  72
ATOM     72  C   UNL A   1      35.389  22.857  23.865  1.00  0.00     0.309 C 
ATOM     73  O   UNL A   1      36.128  23.254  22.967  1.00  0.00    -0.252 OA
BRANCH  72  74
ATOM     74  C   UNL A   1      33.882  23.053  23.908  1.00  0.00     0.110 C 
ATOM     75  C   UNL A   1      33.364  23.979  22.800  1.00  0.00     0.077 C 
ATOM     76  C   UNL A   1      33.513  23.618  25.257  1.00  0.00     0.077 C 
ATOM     77  C   UNL A   1      33.672  25.461  23.014  1.00  0.00     0.263 C 
ATOM     78  C   UNL A   1      34.119  25.003  25.324  1.00  0.00     0.263 C 
ATOM     79  N   UNL A   1      33.433  25.906  24.399  1.00  0.00    -0.332 N 
ATOM     80  H   UNL A   1      32.443  25.850  24.635  1.00  0.00     0.348 HD
BRANCH  79  81
ATOM     81  C   UNL A   1      33.775  27.337  24.547  1.00  0.00     0.189 C 
ATOM     82  C   UNL A   1      34.011  27.829  25.972  1.00  0.00     0.093 C 
ATOM     83  C   UNL A   1      32.761  28.291  23.892  1.00  0.00     0.103 C 
ATOM     84  C   UNL A   1      32.727  28.026  26.764  1.00  0.00     0.167 C 
ATOM     85  C   UNL A   1      31.436  28.407  24.654  1.00  0.00     0.099 C 
ATOM     86  O   UNL A   1      31.599  28.548  26.074  1.00  0.00    -0.372 OA
ATOM     87  C   UNL A   1      30.420  27.349  24.188  1.00  0.00     0.066 C 
ATOM     88  C   UNL A   1      30.657  29.665  24.250  1.00  0.00     0.195 C 
ATOM     89  C   UNL A   1      29.566  28.007  23.119  1.00  0.00     0.163 C 
ATOM     90  O   UNL A   1      29.965  29.377  23.041  1.00  0.00    -0.378 OA
ENDBRANCH  79  81
ENDBRANCH  72  74
ENDBRANCH  71  72
ENDBRANCH  70  71
ENDBRANCH   1  70
TORSDOF 15
ENDMDL
MODEL 3
REMARK VINA RESULT:     -11.8      4.701     10.261
REMARK SMILES O=C(OCCOC(=O)C1CC[NH+]([C@@H]2CCO[C@]3(CCOC3)C2)CC1)c1ccc(-c2c3nc(c(-c4cccc(S(=O)(=O)[O-])c4F)c4ccc([nH]4)c(-c4cccc(S(=O)(=O)[O-])c4F)c4nc(c(-c5cccc(S(=O)(=O)[O-])c5F)c5ccc2[nH]5)C=C4)C=C3)cc1
REMARK SMILES IDX 4 1 3 2 2 3 1 4 25 5 26 6 87 7 27 8 86 9 28 10 29 11 30 12
REMARK SMILES IDX 80 13 31 14 85 15 79 16 81 17 32 18 84 19 78 20 77 21 33 23
REMARK SMILES IDX 65 24 45 25 64 26 46 27 49 28 63 29 82 30 47 31 48 32 62 34
REMARK SMILES IDX 83 35 50 36 34 37 35 38 43 39 36 40 38 41 44 42 37 43 39 44
REMARK SMILES IDX 40 45 41 46 42 47 66 48 67 49 75 50 68 51 70 52 76 53 69 54
REMARK SMILES IDX 71 55 72 56 73 57 74 58 51 59 52 60 60 61 53 62 55 63 61 64
REMARK SMILES IDX 54 65 56 66 57 67 58 68 59 69 5 70 6 71 7 72 8 73 9 74 10 75
REMARK SMILES IDX 24 76 11 77 23 78 12 79 13 81 14 82 22 83 15 84 17 85 16 86
REMARK SMILES IDX 18 87 21 88 19 89 20 90
REMARK H PARENT 81 22 49 33 12 80
REMARK Flexibility Score: inf
ROOT
ATOM      1  C   UNL A   1      36.666  20.411  24.980  1.00  0.00     0.275 C 
ENDROOT
BRANCH   1   2
ATOM      2  O   UNL A   1      37.420  21.369  25.750  1.00  0.00    -0.458 OA
BRANCH   2   3
ATOM      3  C   UNL A   1      38.736  21.424  26.073  1.00  0.00     0.338 C 
ATOM      4  O   UNL A   1      39.396  20.386  26.052  1.00  0.00    -0.246 OA
BRANCH   3   5
ATOM      5  C   UNL A   1      39.397  22.659  26.601  1.00  0.00     0.060 A 
ATOM      6  C   UNL A   1      40.410  22.691  27.563  1.00  0.00     0.016 A 
ATOM      7  C   UNL A   1      39.012  23.880  26.014  1.00  0.00     0.016 A 
ATOM      8  C   UNL A   1      41.113  23.866  27.833  1.00  0.00     0.010 A 
ATOM      9  C   UNL A   1      39.721  25.060  26.265  1.00  0.00     0.010 A 
ATOM     10  C   UNL A   1      40.779  25.056  27.182  1.00  0.00    -0.014 A 
BRANCH  10  11
ATOM     11  C   UNL A   1      41.336  26.319  27.708  1.00  0.00     0.031 A 
ATOM     12  C   UNL A   1      42.749  26.621  27.304  1.00  0.00     0.074 A 
ATOM     13  C   UNL A   1      40.607  27.198  28.424  1.00  0.00     0.049 A 
ATOM     14  N   UNL A   1      43.455  27.697  27.501  1.00  0.00    -0.248 NA
ATOM     15  C   UNL A   1      43.462  25.558  26.566  1.00  0.00     0.031 C 
ATOM     16  C   UNL A   1      39.226  27.007  28.868  1.00  0.00     0.029 A 
ATOM     17  N   UNL A   1      40.935  28.442  28.902  1.00  0.00    -0.354 N 
ATOM     18  C   UNL A   1      44.692  27.429  26.932  1.00  0.00     0.074 A 
ATOM     19  C   UNL A   1      44.665  26.080  26.431  1.00  0.00     0.031 C 
ATOM     20  C   UNL A   1      38.829  28.092  29.559  1.00  0.00     0.029 A 
ATOM     21  C   UNL A   1      39.923  29.057  29.606  1.00  0.00     0.049 A 
ATOM     22  H   UNL A   1      41.815  28.858  28.755  1.00  0.00     0.167 HD
ATOM     23  C   UNL A   1      45.754  28.251  26.800  1.00  0.00     0.034 A 
ATOM     24  C   UNL A   1      39.895  30.265  30.207  1.00  0.00     0.034 A 
ATOM     25  C   UNL A   1      45.772  29.592  27.294  1.00  0.00     0.049 A 
ATOM     26  C   UNL A   1      41.107  31.156  30.073  1.00  0.00     0.074 A 
ATOM     27  C   UNL A   1      46.785  30.524  27.213  1.00  0.00     0.029 A 
ATOM     28  N   UNL A   1      44.723  30.180  27.984  1.00  0.00    -0.354 N 
ATOM     29  N   UNL A   1      42.226  30.937  29.422  1.00  0.00    -0.248 NA
ATOM     30  C   UNL A   1      41.042  32.476  30.718  1.00  0.00     0.031 C 
ATOM     31  C   UNL A   1      46.361  31.671  27.892  1.00  0.00     0.029 A 
ATOM     32  C   UNL A   1      45.067  31.464  28.350  1.00  0.00     0.049 A 
ATOM     33  H   UNL A   1      43.862  29.746  28.182  1.00  0.00     0.167 HD
ATOM     34  C   UNL A   1      42.977  32.099  29.543  1.00  0.00     0.074 A 
ATOM     35  C   UNL A   1      42.179  33.029  30.316  1.00  0.00     0.031 C 
ATOM     36  C   UNL A   1      44.219  32.377  29.073  1.00  0.00     0.034 A 
BRANCH  23  37
ATOM     37  C   UNL A   1      46.957  27.687  26.103  1.00  0.00     0.023 A 
ATOM     38  C   UNL A   1      47.075  27.790  24.700  1.00  0.00     0.012 A 
ATOM     39  C   UNL A   1      47.938  26.997  26.835  1.00  0.00     0.148 A 
ATOM     40  C   UNL A   1      48.126  27.167  24.031  1.00  0.00     0.002 A 
ATOM     41  C   UNL A   1      49.012  26.425  26.166  1.00  0.00     0.091 A 
ATOM     42  F   UNL A   1      47.782  26.880  28.161  1.00  0.00    -0.205 F 
ATOM     43  C   UNL A   1      49.097  26.491  24.765  1.00  0.00     0.022 A 
BRANCH  41  44
ATOM     44  S   UNL A   1      50.347  25.590  27.024  1.00  0.00     0.127 S 
ATOM     45  O   UNL A   1      50.771  26.613  27.978  1.00  0.00    -0.237 OA
ATOM     46  O   UNL A   1      49.652  24.449  27.620  1.00  0.00    -0.237 OA
ATOM     47  O   UNL A   1      51.329  25.246  26.006  1.00  0.00    -0.744 OA
ENDBRANCH  41  44
ENDBRANCH  23  37
BRANCH  24  48
ATOM     48  C   UNL A   1      38.680  30.734  30.943  1.00  0.00     0.023 A 
ATOM     49  C   UNL A   1      38.530  30.439  32.314  1.00  0.00     0.012 A 
ATOM     50  C   UNL A   1      37.659  31.447  30.287  1.00  0.00     0.148 A 
ATOM     51  C   UNL A   1      37.371  30.808  33.003  1.00  0.00     0.002 A 
ATOM     52  C   UNL A   1      36.530  31.856  30.990  1.00  0.00     0.091 A 
ATOM     53  F   UNL A   1      37.808  31.708  28.980  1.00  0.00    -0.205 F 
ATOM     54  C   UNL A   1      36.374  31.520  32.343  1.00  0.00     0.022 A 
BRANCH  52  55
ATOM     55  S   UNL A   1      35.244  32.873  30.253  1.00  0.00     0.127 S 
ATOM     56  O   UNL A   1      34.653  31.952  29.286  1.00  0.00    -0.237 OA
ATOM     57  O   UNL A   1      34.403  33.174  31.412  1.00  0.00    -0.237 OA
ATOM     58  O   UNL A   1      35.930  34.026  29.690  1.00  0.00    -0.744 OA
ENDBRANCH  52  55
ENDBRANCH  24  48
BRANCH  36  59
ATOM     59  C   UNL A   1      44.778  33.749  29.329  1.00  0.00     0.023 A 
ATOM     60  C   UNL A   1      45.494  34.009  30.512  1.00  0.00     0.012 A 
ATOM     61  C   UNL A   1      44.702  34.737  28.328  1.00  0.00     0.148 A 
ATOM     62  C   UNL A   1      46.107  35.245  30.707  1.00  0.00     0.002 A 
ATOM     63  C   UNL A   1      45.364  35.944  28.503  1.00  0.00     0.091 A 
ATOM     64  F   UNL A   1      44.001  34.469  27.216  1.00  0.00    -0.205 F 
ATOM     65  C   UNL A   1      46.057  36.205  29.696  1.00  0.00     0.022 A 
BRANCH  63  66
ATOM     66  S   UNL A   1      45.454  37.183  27.207  1.00  0.00     0.127 S 
ATOM     67  O   UNL A   1      46.041  36.420  26.107  1.00  0.00    -0.237 OA
ATOM     68  O   UNL A   1      44.048  37.542  27.022  1.00  0.00    -0.237 OA
ATOM     69  O   UNL A   1      46.286  38.257  27.735  1.00  0.00    -0.744 OA
ENDBRANCH  63  66
ENDBRANCH  36  59
ENDBRANCH  10  11
ENDBRANCH   3   5
ENDBRANCH   2   3
ENDBRANCH   1   2
BRANCH   1  70
ATOM     70  C   UNL A   1      35.142  20.421  25.160  1.00  0.00     0.274 C 
BRANCH  70  71
ATOM     71  O   UNL A   1      34.555  21.721  25.274  1.00  0.00    -0.462 OA
BRANCH  71  72
ATOM     72  C   UNL A   1      34.042  22.226  24.117  1.00  0.00     0.309 C 
ATOM     73  O   UNL A   1      33.262  21.617  23.388  1.00  0.00    -0.252 OA
BRANCH  72  74
ATOM     74  C   UNL A   1      34.614  23.604  23.826  1.00  0.00     0.110 C 
ATOM     75  C   UNL A   1      34.857  24.433  25.093  1.00  0.00     0.077 C 
ATOM     76  C   UNL A   1      33.660  24.334  22.915  1.00  0.00     0.077 C 
ATOM     77  C   UNL A   1      33.588  24.979  25.748  1.00  0.00     0.263 C 
ATOM     78  C   UNL A   1      32.394  24.565  23.712  1.00  0.00     0.263 C 
ATOM     79  N   UNL A   1      32.632  25.540  24.777  1.00  0.00    -0.332 N 
ATOM     80  H   UNL A   1      33.017  26.366  24.319  1.00  0.00     0.348 HD
BRANCH  79  81
ATOM     81  C   UNL A   1      31.418  26.025  25.468  1.00  0.00     0.189 C 
ATOM     82  C   UNL A   1      30.257  26.449  24.572  1.00  0.00     0.093 C 
ATOM     83  C   UNL A   1      31.681  27.173  26.458  1.00  0.00     0.103 C 
ATOM     84  C   UNL A   1      30.462  27.809  23.922  1.00  0.00     0.167 C 
ATOM     85  C   UNL A   1      31.977  28.518  25.784  1.00  0.00     0.099 C 
ATOM     86  O   UNL A   1      31.093  28.822  24.694  1.00  0.00    -0.372 OA
ATOM     87  C   UNL A   1      33.480  28.694  25.510  1.00  0.00     0.066 C 
ATOM     88  C   UNL A   1      31.782  29.692  26.751  1.00  0.00     0.195 C 
ATOM     89  C   UNL A   1      34.053  29.453  26.693  1.00  0.00     0.163 C 
ATOM     90  O   UNL A   1      32.959  29.801  27.544  1.00  0.00    -0.378 OA
ENDBRANCH  79  81
ENDBRANCH  72  74
ENDBRANCH  71  72
ENDBRANCH  70  71
ENDBRANCH   1  70
TORSDOF 15
ENDMDL
