MODEL 1
REMARK VINA RESULT:     -12.0      0.000      0.000
REMARK SMILES O=C(OCCOC(=O)c1c(F)cccc1N1CC[C@@H]([NH+]2CCCCC2)C1)c1ccc(-c2c3nc(c(-c4cccc(S(=O)(=O)[O-])c4F)c4ccc([nH]4)c(-c4cccc(S(=O)(=O)[O-])c4F)c4nc(c(-c5cccc(S(=O)(=O)[O-])c5F)c5ccc2[nH]5)C=C4)C=C3)cc1
REMARK SMILES IDX 4 1 3 2 2 3 1 4 27 5 28 6 89 7 29 8 88 9 30 10 31 11 32 12
REMARK SMILES IDX 82 13 33 14 87 15 81 16 83 17 34 18 86 19 80 20 79 21 35 23
REMARK SMILES IDX 67 24 47 25 66 26 48 27 51 28 65 29 84 30 49 31 50 32 64 34
REMARK SMILES IDX 85 35 52 36 36 37 37 38 45 39 38 40 40 41 46 42 39 43 41 44
REMARK SMILES IDX 42 45 43 46 44 47 68 48 69 49 77 50 70 51 72 52 78 53 71 54
REMARK SMILES IDX 73 55 74 56 75 57 76 58 53 59 54 60 62 61 55 62 57 63 63 64
REMARK SMILES IDX 56 65 58 66 59 67 60 68 61 69 5 70 6 71 7 72 8 73 9 74 10 75
REMARK SMILES IDX 15 76 11 77 12 78 14 79 13 80 16 81 17 82 26 83 18 84 19 85
REMARK SMILES IDX 20 86 21 87 25 88 22 90 24 91 23 92
REMARK H PARENT 83 22 51 33 20 89
REMARK Flexibility Score: inf
ROOT
ATOM      1  C   UNL A   1      32.107  30.391  26.757  1.00  0.00     0.275 C 
ENDROOT
BRANCH   1   2
ATOM      2  O   UNL A   1      33.503  30.651  26.603  1.00  0.00    -0.458 OA
BRANCH   2   3
ATOM      3  C   UNL A   1      33.970  31.649  27.393  1.00  0.00     0.338 C 
ATOM      4  O   UNL A   1      33.558  32.797  27.427  1.00  0.00    -0.246 OA
BRANCH   3   5
ATOM      5  C   UNL A   1      35.225  31.173  28.023  1.00  0.00     0.060 A 
ATOM      6  C   UNL A   1      36.370  31.979  28.035  1.00  0.00     0.016 A 
ATOM      7  C   UNL A   1      35.205  29.975  28.741  1.00  0.00     0.016 A 
ATOM      8  C   UNL A   1      37.488  31.584  28.749  1.00  0.00     0.010 A 
ATOM      9  C   UNL A   1      36.291  29.622  29.533  1.00  0.00     0.010 A 
ATOM     10  C   UNL A   1      37.454  30.403  29.494  1.00  0.00    -0.014 A 
BRANCH  10  11
ATOM     11  C   UNL A   1      38.714  29.878  30.048  1.00  0.00     0.031 A 
ATOM     12  C   UNL A   1      39.164  30.422  31.374  1.00  0.00     0.074 A 
ATOM     13  C   UNL A   1      39.389  28.907  29.408  1.00  0.00     0.049 A 
ATOM     14  N   UNL A   1      40.218  30.112  32.075  1.00  0.00    -0.248 NA
ATOM     15  C   UNL A   1      38.306  31.445  32.005  1.00  0.00     0.031 C 
ATOM     16  C   UNL A   1      38.993  28.292  28.140  1.00  0.00     0.029 A 
ATOM     17  N   UNL A   1      40.561  28.278  29.727  1.00  0.00    -0.354 N 
ATOM     18  C   UNL A   1      40.141  30.888  33.224  1.00  0.00     0.074 A 
ATOM     19  C   UNL A   1      38.989  31.748  33.096  1.00  0.00     0.031 C 
ATOM     20  C   UNL A   1      39.943  27.425  27.753  1.00  0.00     0.029 A 
ATOM     21  C   UNL A   1      40.999  27.409  28.756  1.00  0.00     0.049 A 
ATOM     22  H   UNL A   1      41.043  28.433  30.570  1.00  0.00     0.167 HD
ATOM     23  C   UNL A   1      40.920  30.832  34.326  1.00  0.00     0.034 A 
ATOM     24  C   UNL A   1      42.130  26.682  28.698  1.00  0.00     0.034 A 
ATOM     25  C   UNL A   1      42.022  29.926  34.453  1.00  0.00     0.049 A 
ATOM     26  C   UNL A   1      43.019  26.684  29.912  1.00  0.00     0.074 A 
ATOM     27  C   UNL A   1      42.866  29.742  35.530  1.00  0.00     0.029 A 
ATOM     28  N   UNL A   1      42.422  29.040  33.463  1.00  0.00    -0.354 N 
ATOM     29  N   UNL A   1      42.878  27.352  31.032  1.00  0.00    -0.248 NA
ATOM     30  C   UNL A   1      44.172  25.777  29.892  1.00  0.00     0.031 C 
ATOM     31  C   UNL A   1      43.782  28.743  35.188  1.00  0.00     0.029 A 
ATOM     32  C   UNL A   1      43.497  28.295  33.905  1.00  0.00     0.049 A 
ATOM     33  H   UNL A   1      42.002  28.955  32.577  1.00  0.00     0.167 HD
ATOM     34  C   UNL A   1      43.882  26.899  31.877  1.00  0.00     0.074 A 
ATOM     35  C   UNL A   1      44.624  25.899  31.132  1.00  0.00     0.031 C 
ATOM     36  C   UNL A   1      44.166  27.267  33.150  1.00  0.00     0.034 A 
BRANCH  23  37
ATOM     37  C   UNL A   1      40.540  31.701  35.493  1.00  0.00     0.023 A 
ATOM     38  C   UNL A   1      41.307  32.853  35.771  1.00  0.00     0.012 A 
ATOM     39  C   UNL A   1      39.416  31.410  36.288  1.00  0.00     0.148 A 
ATOM     40  C   UNL A   1      40.978  33.687  36.837  1.00  0.00     0.002 A 
ATOM     41  C   UNL A   1      39.070  32.269  37.323  1.00  0.00     0.091 A 
ATOM     42  F   UNL A   1      38.713  30.302  36.017  1.00  0.00    -0.205 F 
ATOM     43  C   UNL A   1      39.855  33.401  37.606  1.00  0.00     0.022 A 
BRANCH  41  44
ATOM     44  S   UNL A   1      37.610  32.031  38.342  1.00  0.00     0.127 S 
ATOM     45  O   UNL A   1      38.115  32.378  39.671  1.00  0.00    -0.237 OA
ATOM     46  O   UNL A   1      36.681  33.004  37.770  1.00  0.00    -0.237 OA
ATOM     47  O   UNL A   1      37.226  30.636  38.179  1.00  0.00    -0.744 OA
ENDBRANCH  41  44
ENDBRANCH  23  37
BRANCH  24  48
ATOM     48  C   UNL A   1      42.424  25.836  27.508  1.00  0.00     0.023 A 
ATOM     49  C   UNL A   1      43.086  26.395  26.400  1.00  0.00     0.012 A 
ATOM     50  C   UNL A   1      42.069  24.472  27.479  1.00  0.00     0.148 A 
ATOM     51  C   UNL A   1      43.355  25.624  25.267  1.00  0.00     0.002 A 
ATOM     52  C   UNL A   1      42.373  23.700  26.362  1.00  0.00     0.091 A 
ATOM     53  F   UNL A   1      41.437  23.956  28.543  1.00  0.00    -0.205 F 
ATOM     54  C   UNL A   1      43.004  24.276  25.250  1.00  0.00     0.022 A 
BRANCH  52  55
ATOM     55  S   UNL A   1      42.045  21.934  26.294  1.00  0.00     0.127 S 
ATOM     56  O   UNL A   1      42.409  21.510  27.643  1.00  0.00    -0.237 OA
ATOM     57  O   UNL A   1      40.611  21.901  26.003  1.00  0.00    -0.237 OA
ATOM     58  O   UNL A   1      42.886  21.425  25.219  1.00  0.00    -0.744 OA
ENDBRANCH  52  55
ENDBRANCH  24  48
BRANCH  36  59
ATOM     59  C   UNL A   1      45.295  26.553  33.836  1.00  0.00     0.023 A 
ATOM     60  C   UNL A   1      46.605  27.060  33.735  1.00  0.00     0.012 A 
ATOM     61  C   UNL A   1      45.036  25.441  34.659  1.00  0.00     0.148 A 
ATOM     62  C   UNL A   1      47.650  26.447  34.422  1.00  0.00     0.002 A 
ATOM     63  C   UNL A   1      46.074  24.871  35.385  1.00  0.00     0.091 A 
ATOM     64  F   UNL A   1      43.784  24.965  34.721  1.00  0.00    -0.205 F 
ATOM     65  C   UNL A   1      47.381  25.365  35.257  1.00  0.00     0.022 A 
BRANCH  63  66
ATOM     66  S   UNL A   1      45.791  23.553  36.570  1.00  0.00     0.127 S 
ATOM     67  O   UNL A   1      45.154  22.534  35.738  1.00  0.00    -0.237 OA
ATOM     68  O   UNL A   1      47.149  23.225  37.004  1.00  0.00    -0.237 OA
ATOM     69  O   UNL A   1      44.952  24.130  37.613  1.00  0.00    -0.744 OA
ENDBRANCH  63  66
ENDBRANCH  36  59
ENDBRANCH  10  11
ENDBRANCH   3   5
ENDBRANCH   2   3
ENDBRANCH   1   2
BRANCH   1  70
ATOM     70  C   UNL A   1      31.447  30.066  25.404  1.00  0.00     0.275 C 
BRANCH  70  71
ATOM     71  O   UNL A   1      32.344  29.444  24.458  1.00  0.00    -0.458 OA
BRANCH  71  72
ATOM     72  C   UNL A   1      31.804  28.996  23.287  1.00  0.00     0.343 C 
ATOM     73  O   UNL A   1      32.154  29.322  22.170  1.00  0.00    -0.246 OA
BRANCH  72  74
ATOM     74  C   UNL A   1      30.697  28.053  23.581  1.00  0.00     0.119 A 
ATOM     75  C   UNL A   1      29.411  28.540  23.338  1.00  0.00     0.139 A 
ATOM     76  C   UNL A   1      30.908  26.700  23.960  1.00  0.00     0.055 A 
ATOM     77  F   UNL A   1      29.224  29.820  22.980  1.00  0.00    -0.206 F 
ATOM     78  C   UNL A   1      28.302  27.713  23.458  1.00  0.00     0.040 A 
ATOM     79  C   UNL A   1      29.764  25.888  24.072  1.00  0.00     0.027 A 
ATOM     80  C   UNL A   1      28.476  26.388  23.836  1.00  0.00     0.005 A 
BRANCH  76  81
ATOM     81  N   UNL A   1      32.155  26.198  24.268  1.00  0.00    -0.365 N 
ATOM     82  C   UNL A   1      32.502  26.078  25.664  1.00  0.00     0.123 C 
ATOM     83  C   UNL A   1      32.968  25.234  23.513  1.00  0.00     0.181 C 
ATOM     84  C   UNL A   1      33.993  25.908  25.625  1.00  0.00     0.088 C 
ATOM     85  C   UNL A   1      34.218  24.955  24.449  1.00  0.00     0.205 C 
BRANCH  85  86
ATOM     86  N   UNL A   1      34.526  23.547  24.788  1.00  0.00    -0.331 N 
ATOM     87  C   UNL A   1      35.279  23.265  26.009  1.00  0.00     0.262 C 
ATOM     88  C   UNL A   1      35.013  22.738  23.661  1.00  0.00     0.262 C 
ATOM     89  H   UNL A   1      33.581  23.240  25.021  1.00  0.00     0.348 HD
ATOM     90  C   UNL A   1      36.802  23.329  25.881  1.00  0.00     0.062 C 
ATOM     91  C   UNL A   1      36.526  22.758  23.415  1.00  0.00     0.062 C 
ATOM     92  C   UNL A   1      37.340  22.552  24.688  1.00  0.00     0.012 C 
ENDBRANCH  85  86
ENDBRANCH  76  81
ENDBRANCH  72  74
ENDBRANCH  71  72
ENDBRANCH  70  71
ENDBRANCH   1  70
TORSDOF 16
ENDMDL
MODEL 2
REMARK VINA RESULT:     -12.0      5.328      9.990
REMARK SMILES O=C(OCCOC(=O)c1c(F)cccc1N1CC[C@@H]([NH+]2CCCCC2)C1)c1ccc(-c2c3nc(c(-c4cccc(S(=O)(=O)[O-])c4F)c4ccc([nH]4)c(-c4cccc(S(=O)(=O)[O-])c4F)c4nc(c(-c5cccc(S(=O)(=O)[O-])c5F)c5ccc2[nH]5)C=C4)C=C3)cc1
REMARK SMILES IDX 4 1 3 2 2 3 1 4 27 5 28 6 89 7 29 8 88 9 30 10 31 11 32 12
REMARK SMILES IDX 82 13 33 14 87 15 81 16 83 17 34 18 86 19 80 20 79 21 35 23
REMARK SMILES IDX 67 24 47 25 66 26 48 27 51 28 65 29 84 30 49 31 50 32 64 34
REMARK SMILES IDX 85 35 52 36 36 37 37 38 45 39 38 40 40 41 46 42 39 43 41 44
REMARK SMILES IDX 42 45 43 46 44 47 68 48 69 49 77 50 70 51 72 52 78 53 71 54
REMARK SMILES IDX 73 55 74 56 75 57 76 58 53 59 54 60 62 61 55 62 57 63 63 64
REMARK SMILES IDX 56 65 58 66 59 67 60 68 61 69 5 70 6 71 7 72 8 73 9 74 10 75
REMARK SMILES IDX 15 76 11 77 12 78 14 79 13 80 16 81 17 82 26 83 18 84 19 85
REMARK SMILES IDX 20 86 21 87 25 88 22 90 24 91 23 92
REMARK H PARENT 83 22 51 33 20 89
REMARK Flexibility Score: inf
ROOT
ATOM      1  C   UNL A   1      37.006  21.585  24.379  1.00  0.00     0.275 C 
ENDROOT
BRANCH   1   2
ATOM      2  O   UNL A   1      37.425  21.809  25.726  1.00  0.00    -0.458 OA
BRANCH   2   3
ATOM      3  C   UNL A   1      38.745  21.580  25.939  1.00  0.00     0.338 C 
ATOM      4  O   UNL A   1      39.299  20.493  25.940  1.00  0.00    -0.246 OA
BRANCH   3   5
ATOM      5  C   UNL A   1      39.347  22.847  26.418  1.00  0.00     0.060 A 
ATOM      6  C   UNL A   1      38.745  24.078  26.133  1.00  0.00     0.016 A 
ATOM      7  C   UNL A   1      40.437  22.786  27.289  1.00  0.00     0.016 A 
ATOM      8  C   UNL A   1      39.236  25.239  26.705  1.00  0.00     0.010 A 
ATOM      9  C   UNL A   1      40.873  23.935  27.937  1.00  0.00     0.010 A 
ATOM     10  C   UNL A   1      40.305  25.172  27.602  1.00  0.00    -0.014 A 
BRANCH  10  11
ATOM     11  C   UNL A   1      40.964  26.423  28.014  1.00  0.00     0.031 A 
ATOM     12  C   UNL A   1      42.407  26.600  27.636  1.00  0.00     0.074 A 
ATOM     13  C   UNL A   1      40.269  27.383  28.649  1.00  0.00     0.049 A 
ATOM     14  N   UNL A   1      43.199  27.610  27.864  1.00  0.00    -0.248 NA
ATOM     15  C   UNL A   1      43.045  25.497  26.889  1.00  0.00     0.031 C 
ATOM     16  C   UNL A   1      38.852  27.308  29.009  1.00  0.00     0.029 A 
ATOM     17  N   UNL A   1      40.664  28.605  29.121  1.00  0.00    -0.354 N 
ATOM     18  C   UNL A   1      44.413  27.268  27.281  1.00  0.00     0.074 A 
ATOM     19  C   UNL A   1      44.289  25.927  26.765  1.00  0.00     0.031 C 
ATOM     20  C   UNL A   1      38.514  28.404  29.709  1.00  0.00     0.029 A 
ATOM     21  C   UNL A   1      39.684  29.265  29.824  1.00  0.00     0.049 A 
ATOM     22  H   UNL A   1      41.563  28.975  28.970  1.00  0.00     0.167 HD
ATOM     23  C   UNL A   1      45.511  28.039  27.123  1.00  0.00     0.034 A 
ATOM     24  C   UNL A   1      39.737  30.438  30.481  1.00  0.00     0.034 A 
ATOM     25  C   UNL A   1      45.588  29.390  27.593  1.00  0.00     0.049 A 
ATOM     26  C   UNL A   1      40.995  31.252  30.345  1.00  0.00     0.074 A 
ATOM     27  C   UNL A   1      46.626  30.289  27.463  1.00  0.00     0.029 A 
ATOM     28  N   UNL A   1      44.568  30.037  28.276  1.00  0.00    -0.354 N 
ATOM     29  N   UNL A   1      42.102  30.954  29.707  1.00  0.00    -0.248 NA
ATOM     30  C   UNL A   1      40.988  32.591  30.945  1.00  0.00     0.031 C 
ATOM     31  C   UNL A   1      46.234  31.485  28.073  1.00  0.00     0.029 A 
ATOM     32  C   UNL A   1      44.945  31.332  28.568  1.00  0.00     0.049 A 
ATOM     33  H   UNL A   1      43.703  29.633  28.517  1.00  0.00     0.167 HD
ATOM     34  C   UNL A   1      42.897  32.090  29.768  1.00  0.00     0.074 A 
ATOM     35  C   UNL A   1      42.141  33.081  30.510  1.00  0.00     0.031 C 
ATOM     36  C   UNL A   1      44.134  32.302  29.257  1.00  0.00     0.034 A 
BRANCH  23  37
ATOM     37  C   UNL A   1      46.657  27.465  26.336  1.00  0.00     0.023 A 
ATOM     38  C   UNL A   1      46.656  27.588  24.930  1.00  0.00     0.012 A 
ATOM     39  C   UNL A   1      47.745  26.843  26.975  1.00  0.00     0.148 A 
ATOM     40  C   UNL A   1      47.706  27.078  24.170  1.00  0.00     0.002 A 
ATOM     41  C   UNL A   1      48.808  26.374  26.214  1.00  0.00     0.091 A 
ATOM     42  F   UNL A   1      47.716  26.721  28.310  1.00  0.00    -0.205 F 
ATOM     43  C   UNL A   1      48.786  26.481  24.812  1.00  0.00     0.022 A 
BRANCH  41  44
ATOM     44  S   UNL A   1      50.278  25.640  26.939  1.00  0.00     0.127 S 
ATOM     45  O   UNL A   1      50.718  26.694  27.853  1.00  0.00    -0.237 OA
ATOM     46  O   UNL A   1      49.731  24.453  27.594  1.00  0.00    -0.237 OA
ATOM     47  O   UNL A   1      51.186  25.373  25.831  1.00  0.00    -0.744 OA
ENDBRANCH  41  44
ENDBRANCH  23  37
BRANCH  24  48
ATOM     48  C   UNL A   1      38.551  30.941  31.226  1.00  0.00     0.023 A 
ATOM     49  C   UNL A   1      38.497  30.809  32.626  1.00  0.00     0.012 A 
ATOM     50  C   UNL A   1      37.482  31.570  30.556  1.00  0.00     0.148 A 
ATOM     51  C   UNL A   1      37.386  31.257  33.343  1.00  0.00     0.002 A 
ATOM     52  C   UNL A   1      36.394  32.049  31.280  1.00  0.00     0.091 A 
ATOM     53  F   UNL A   1      37.549  31.686  29.221  1.00  0.00    -0.205 F 
ATOM     54  C   UNL A   1      36.338  31.882  32.671  1.00  0.00     0.022 A 
BRANCH  52  55
ATOM     55  S   UNL A   1      35.046  32.952  30.507  1.00  0.00     0.127 S 
ATOM     56  O   UNL A   1      34.611  32.014  29.476  1.00  0.00    -0.237 OA
ATOM     57  O   UNL A   1      34.112  33.119  31.621  1.00  0.00    -0.237 OA
ATOM     58  O   UNL A   1      35.636  34.195  30.029  1.00  0.00    -0.744 OA
ENDBRANCH  52  55
ENDBRANCH  24  48
BRANCH  36  59
ATOM     59  C   UNL A   1      44.728  33.670  29.440  1.00  0.00     0.023 A 
ATOM     60  C   UNL A   1      45.475  33.957  30.598  1.00  0.00     0.012 A 
ATOM     61  C   UNL A   1      44.626  34.631  28.416  1.00  0.00     0.148 A 
ATOM     62  C   UNL A   1      46.088  35.198  30.749  1.00  0.00     0.002 A 
ATOM     63  C   UNL A   1      45.287  35.844  28.549  1.00  0.00     0.091 A 
ATOM     64  F   UNL A   1      43.892  34.341  27.333  1.00  0.00    -0.205 F 
ATOM     65  C   UNL A   1      46.008  36.133  29.719  1.00  0.00     0.022 A 
BRANCH  63  66
ATOM     66  S   UNL A   1      45.332  37.052  27.222  1.00  0.00     0.127 S 
ATOM     67  O   UNL A   1      46.053  38.159  27.850  1.00  0.00    -0.237 OA
ATOM     68  O   UNL A   1      46.081  36.348  26.182  1.00  0.00    -0.237 OA
ATOM     69  O   UNL A   1      43.940  37.320  26.882  1.00  0.00    -0.744 OA
ENDBRANCH  63  66
ENDBRANCH  36  59
ENDBRANCH  10  11
ENDBRANCH   3   5
ENDBRANCH   2   3
ENDBRANCH   1   2
BRANCH   1  70
ATOM     70  C   UNL A   1      36.874  22.913  23.608  1.00  0.00     0.275 C 
BRANCH  70  71
ATOM     71  O   UNL A   1      35.507  23.320  23.387  1.00  0.00    -0.458 OA
BRANCH  71  72
ATOM     72  C   UNL A   1      34.923  24.096  24.347  1.00  0.00     0.343 C 
ATOM     73  O   UNL A   1      35.475  24.549  25.330  1.00  0.00    -0.246 OA
BRANCH  72  74
ATOM     74  C   UNL A   1      33.488  24.291  24.022  1.00  0.00     0.119 A 
ATOM     75  C   UNL A   1      33.142  25.563  23.561  1.00  0.00     0.139 A 
ATOM     76  C   UNL A   1      32.536  23.237  24.046  1.00  0.00     0.055 A 
ATOM     77  F   UNL A   1      34.051  26.551  23.542  1.00  0.00    -0.206 F 
ATOM     78  C   UNL A   1      31.857  25.831  23.110  1.00  0.00     0.040 A 
ATOM     79  C   UNL A   1      31.243  23.541  23.582  1.00  0.00     0.027 A 
ATOM     80  C   UNL A   1      30.902  24.823  23.131  1.00  0.00     0.005 A 
BRANCH  76  81
ATOM     81  N   UNL A   1      32.822  21.986  24.551  1.00  0.00    -0.365 N 
ATOM     82  C   UNL A   1      32.079  21.545  25.708  1.00  0.00     0.123 C 
ATOM     83  C   UNL A   1      33.296  20.793  23.834  1.00  0.00     0.181 C 
ATOM     84  C   UNL A   1      32.894  20.388  26.210  1.00  0.00     0.088 C 
ATOM     85  C   UNL A   1      33.295  19.648  24.932  1.00  0.00     0.205 C 
BRANCH  85  86
ATOM     86  N   UNL A   1      32.556  18.402  24.629  1.00  0.00    -0.331 N 
ATOM     87  C   UNL A   1      32.533  17.336  25.631  1.00  0.00     0.262 C 
ATOM     88  C   UNL A   1      32.787  17.863  23.282  1.00  0.00     0.262 C 
ATOM     89  H   UNL A   1      31.608  18.778  24.669  1.00  0.00     0.348 HD
ATOM     90  C   UNL A   1      33.718  16.370  25.601  1.00  0.00     0.062 C 
ATOM     91  C   UNL A   1      33.977  16.910  23.126  1.00  0.00     0.062 C 
ATOM     92  C   UNL A   1      34.029  15.838  24.209  1.00  0.00     0.012 C 
ENDBRANCH  85  86
ENDBRANCH  76  81
ENDBRANCH  72  74
ENDBRANCH  71  72
ENDBRANCH  70  71
ENDBRANCH   1  70
TORSDOF 16
ENDMDL
MODEL 3
REMARK VINA RESULT:     -11.9      5.118     10.152
REMARK SMILES O=C(OCCOC(=O)c1c(F)cccc1N1CC[C@@H]([NH+]2CCCCC2)C1)c1ccc(-c2c3nc(c(-c4cccc(S(=O)(=O)[O-])c4F)c4ccc([nH]4)c(-c4cccc(S(=O)(=O)[O-])c4F)c4nc(c(-c5cccc(S(=O)(=O)[O-])c5F)c5ccc2[nH]5)C=C4)C=C3)cc1
REMARK SMILES IDX 4 1 3 2 2 3 1 4 27 5 28 6 89 7 29 8 88 9 30 10 31 11 32 12
REMARK SMILES IDX 82 13 33 14 87 15 81 16 83 17 34 18 86 19 80 20 79 21 35 23
REMARK SMILES IDX 67 24 47 25 66 26 48 27 51 28 65 29 84 30 49 31 50 32 64 34
REMARK SMILES IDX 85 35 52 36 36 37 37 38 45 39 38 40 40 41 46 42 39 43 41 44
REMARK SMILES IDX 42 45 43 46 44 47 68 48 69 49 77 50 70 51 72 52 78 53 71 54
REMARK SMILES IDX 73 55 74 56 75 57 76 58 53 59 54 60 62 61 55 62 57 63 63 64
REMARK SMILES IDX 56 65 58 66 59 67 60 68 61 69 5 70 6 71 7 72 8 73 9 74 10 75
REMARK SMILES IDX 15 76 11 77 12 78 14 79 13 80 16 81 17 82 26 83 18 84 19 85
REMARK SMILES IDX 20 86 21 87 25 88 22 90 24 91 23 92
REMARK H PARENT 83 22 51 33 20 89
REMARK Flexibility Score: inf
ROOT
ATOM      1  C   UNL A   1      37.366  20.861  24.927  1.00  0.00     0.275 C 
ENDROOT
BRANCH   1   2
ATOM      2  O   UNL A   1      37.975  21.384  26.108  1.00  0.00    -0.458 OA
BRANCH   2   3
ATOM      3  C   UNL A   1      39.326  21.275  26.128  1.00  0.00     0.338 C 
ATOM      4  O   UNL A   1      39.971  20.248  25.997  1.00  0.00    -0.246 OA
BRANCH   3   5
ATOM      5  C   UNL A   1      39.874  22.575  26.585  1.00  0.00     0.060 A 
ATOM      6  C   UNL A   1      39.353  23.781  26.100  1.00  0.00     0.016 A 
ATOM      7  C   UNL A   1      40.809  22.583  27.623  1.00  0.00     0.016 A 
ATOM      8  C   UNL A   1      39.773  24.984  26.641  1.00  0.00     0.010 A 
ATOM      9  C   UNL A   1      41.162  23.783  28.230  1.00  0.00     0.010 A 
ATOM     10  C   UNL A   1      40.683  24.989  27.701  1.00  0.00    -0.014 A 
BRANCH  10  11
ATOM     11  C   UNL A   1      41.297  26.266  28.103  1.00  0.00     0.031 A 
ATOM     12  C   UNL A   1      42.741  26.479  27.751  1.00  0.00     0.074 A 
ATOM     13  C   UNL A   1      40.560  27.217  28.705  1.00  0.00     0.049 A 
ATOM     14  N   UNL A   1      43.498  27.516  27.976  1.00  0.00    -0.248 NA
ATOM     15  C   UNL A   1      43.426  25.383  27.037  1.00  0.00     0.031 C 
ATOM     16  C   UNL A   1      39.139  27.105  29.038  1.00  0.00     0.029 A 
ATOM     17  N   UNL A   1      40.909  28.458  29.162  1.00  0.00    -0.354 N 
ATOM     18  C   UNL A   1      44.733  27.200  27.425  1.00  0.00     0.074 A 
ATOM     19  C   UNL A   1      44.659  25.847  26.931  1.00  0.00     0.031 C 
ATOM     20  C   UNL A   1      38.754  28.204  29.710  1.00  0.00     0.029 A 
ATOM     21  C   UNL A   1      39.896  29.101  29.833  1.00  0.00     0.049 A 
ATOM     22  H   UNL A   1      41.800  28.852  29.023  1.00  0.00     0.167 HD
ATOM     23  C   UNL A   1      45.811  28.000  27.274  1.00  0.00     0.034 A 
ATOM     24  C   UNL A   1      39.901  30.286  30.469  1.00  0.00     0.034 A 
ATOM     25  C   UNL A   1      45.839  29.361  27.720  1.00  0.00     0.049 A 
ATOM     26  C   UNL A   1      41.137  31.136  30.343  1.00  0.00     0.074 A 
ATOM     27  C   UNL A   1      46.853  30.288  27.595  1.00  0.00     0.029 A 
ATOM     28  N   UNL A   1      44.787  29.990  28.371  1.00  0.00    -0.354 N 
ATOM     29  N   UNL A   1      42.265  30.858  29.733  1.00  0.00    -0.248 NA
ATOM     30  C   UNL A   1      41.078  32.484  30.919  1.00  0.00     0.031 C 
ATOM     31  C   UNL A   1      46.413  31.482  28.175  1.00  0.00     0.029 A 
ATOM     32  C   UNL A   1      45.120  31.301  28.646  1.00  0.00     0.049 A 
ATOM     33  H   UNL A   1      43.929  29.565  28.601  1.00  0.00     0.167 HD
ATOM     34  C   UNL A   1      43.025  32.019  29.789  1.00  0.00     0.074 A 
ATOM     35  C   UNL A   1      42.225  33.000  30.498  1.00  0.00     0.031 C 
ATOM     36  C   UNL A   1      44.266  32.258  29.300  1.00  0.00     0.034 A 
BRANCH  23  37
ATOM     37  C   UNL A   1      46.990  27.446  26.522  1.00  0.00     0.023 A 
ATOM     38  C   UNL A   1      47.075  27.653  25.128  1.00  0.00     0.012 A 
ATOM     39  C   UNL A   1      48.025  26.761  27.184  1.00  0.00     0.148 A 
ATOM     40  C   UNL A   1      48.158  27.164  24.401  1.00  0.00     0.002 A 
ATOM     41  C   UNL A   1      49.122  26.312  26.459  1.00  0.00     0.091 A 
ATOM     42  F   UNL A   1      47.914  26.560  28.505  1.00  0.00    -0.205 F 
ATOM     43  C   UNL A   1      49.185  26.504  25.067  1.00  0.00     0.022 A 
BRANCH  41  44
ATOM     44  S   UNL A   1      50.530  25.501  27.221  1.00  0.00     0.127 S 
ATOM     45  O   UNL A   1      49.913  24.300  27.785  1.00  0.00    -0.237 OA
ATOM     46  O   UNL A   1      51.398  25.258  26.071  1.00  0.00    -0.237 OA
ATOM     47  O   UNL A   1      51.053  26.437  28.206  1.00  0.00    -0.744 OA
ENDBRANCH  41  44
ENDBRANCH  23  37
BRANCH  24  48
ATOM     48  C   UNL A   1      38.685  30.767  31.180  1.00  0.00     0.023 A 
ATOM     49  C   UNL A   1      38.581  30.605  32.574  1.00  0.00     0.012 A 
ATOM     50  C   UNL A   1      37.639  31.406  30.485  1.00  0.00     0.148 A 
ATOM     51  C   UNL A   1      37.441  31.032  33.258  1.00  0.00     0.002 A 
ATOM     52  C   UNL A   1      36.522  31.863  31.178  1.00  0.00     0.091 A 
ATOM     53  F   UNL A   1      37.753  31.551  29.156  1.00  0.00    -0.205 F 
ATOM     54  C   UNL A   1      36.415  31.666  32.562  1.00  0.00     0.022 A 
BRANCH  52  55
ATOM     55  S   UNL A   1      35.198  32.776  30.375  1.00  0.00     0.127 S 
ATOM     56  O   UNL A   1      34.270  32.991  31.482  1.00  0.00    -0.237 OA
ATOM     57  O   UNL A   1      35.892  33.978  29.912  1.00  0.00    -0.237 OA
ATOM     58  O   UNL A   1      34.722  31.910  29.305  1.00  0.00    -0.744 OA
ENDBRANCH  52  55
ENDBRANCH  24  48
BRANCH  36  59
ATOM     59  C   UNL A   1      44.816  33.646  29.470  1.00  0.00     0.023 A 
ATOM     60  C   UNL A   1      45.537  33.974  30.634  1.00  0.00     0.012 A 
ATOM     61  C   UNL A   1      44.700  34.588  28.430  1.00  0.00     0.148 A 
ATOM     62  C   UNL A   1      46.110  35.235  30.773  1.00  0.00     0.002 A 
ATOM     63  C   UNL A   1      45.322  35.823  28.553  1.00  0.00     0.091 A 
ATOM     64  F   UNL A   1      43.990  34.259  27.341  1.00  0.00    -0.205 F 
ATOM     65  C   UNL A   1      46.016  36.151  29.728  1.00  0.00     0.022 A 
BRANCH  63  66
ATOM     66  S   UNL A   1      45.349  37.011  27.208  1.00  0.00     0.127 S 
ATOM     67  O   UNL A   1      46.177  38.078  27.769  1.00  0.00    -0.237 OA
ATOM     68  O   UNL A   1      45.981  36.250  26.130  1.00  0.00    -0.237 OA
ATOM     69  O   UNL A   1      43.956  37.360  26.958  1.00  0.00    -0.744 OA
ENDBRANCH  63  66
ENDBRANCH  36  59
ENDBRANCH  10  11
ENDBRANCH   3   5
ENDBRANCH   2   3
ENDBRANCH   1   2
BRANCH   1  70
ATOM     70  C   UNL A   1      36.909  21.993  23.986  1.00  0.00     0.275 C 
BRANCH  70  71
ATOM     71  O   UNL A   1      35.552  22.428  24.222  1.00  0.00    -0.458 OA
BRANCH  71  72
ATOM     72  C   UNL A   1      35.365  23.420  25.140  1.00  0.00     0.343 C 
ATOM     73  O   UNL A   1      36.174  24.275  25.442  1.00  0.00    -0.246 OA
BRANCH  72  74
ATOM     74  C   UNL A   1      34.014  23.290  25.741  1.00  0.00     0.119 A 
ATOM     75  C   UNL A   1      33.938  22.490  26.883  1.00  0.00     0.139 A 
ATOM     76  C   UNL A   1      32.886  24.022  25.283  1.00  0.00     0.055 A 
ATOM     77  F   UNL A   1      35.012  21.804  27.307  1.00  0.00    -0.206 F 
ATOM     78  C   UNL A   1      32.756  22.390  27.604  1.00  0.00     0.040 A 
ATOM     79  C   UNL A   1      31.704  23.899  26.037  1.00  0.00     0.027 A 
ATOM     80  C   UNL A   1      31.633  23.086  27.175  1.00  0.00     0.005 A 
BRANCH  76  81
ATOM     81  N   UNL A   1      32.904  24.772  24.126  1.00  0.00    -0.365 N 
ATOM     82  C   UNL A   1      31.770  24.663  23.239  1.00  0.00     0.123 C 
ATOM     83  C   UNL A   1      33.545  26.074  23.887  1.00  0.00     0.181 C 
ATOM     84  C   UNL A   1      32.287  25.254  21.960  1.00  0.00     0.088 C 
ATOM     85  C   UNL A   1      33.087  26.474  22.422  1.00  0.00     0.205 C 
BRANCH  85  86
ATOM     86  N   UNL A   1      32.445  27.795  22.237  1.00  0.00    -0.331 N 
ATOM     87  C   UNL A   1      33.060  28.969  22.856  1.00  0.00     0.262 C 
ATOM     88  C   UNL A   1      30.986  27.799  22.415  1.00  0.00     0.262 C 
ATOM     89  H   UNL A   1      32.650  27.923  21.245  1.00  0.00     0.348 HD
ATOM     90  C   UNL A   1      32.666  29.236  24.310  1.00  0.00     0.062 C 
ATOM     91  C   UNL A   1      30.477  28.021  23.843  1.00  0.00     0.062 C 
ATOM     92  C   UNL A   1      31.163  29.187  24.547  1.00  0.00     0.012 C 
ENDBRANCH  85  86
ENDBRANCH  76  81
ENDBRANCH  72  74
ENDBRANCH  71  72
ENDBRANCH  70  71
ENDBRANCH   1  70
TORSDOF 16
ENDMDL
