MODEL 1
REMARK VINA RESULT:     -12.0      0.000      0.000
REMARK SMILES CC1(C)C[C@@](Cc2ccccc2)(C(=O)OCCOC(=O)c2ccc(-c3c4nc(c(-c5cccc(S(=O)(=O)[O-])c5F)c5ccc([nH]5)c(-c5cccc(S(=O)(=O)[O-])c5F)c5nc(c(-c6cccc(S(=O)(=O)[O-])c6F)c6ccc3[nH]6)C=C5)C=C4)cc2)CCO1
REMARK SMILES IDX 17 1 16 2 15 3 13 4 14 5 5 6 1 7 2 8 3 9 4 10 86 11 85 12
REMARK SMILES IDX 84 13 6 14 7 15 8 16 12 17 9 18 11 19 10 20 18 21 19 22
REMARK SMILES IDX 20 23 21 24 22 25 83 26 23 27 82 28 24 29 25 30 26 31 76 32
REMARK SMILES IDX 27 33 81 34 75 35 77 36 28 37 80 38 74 39 73 40 29 42 61 43
REMARK SMILES IDX 41 44 60 45 42 46 45 47 59 48 78 49 43 50 44 51 58 53 79 54
REMARK SMILES IDX 46 55 30 56 31 57 39 58 32 59 34 60 40 61 33 62 35 63 36 64
REMARK SMILES IDX 37 65 38 66 62 67 63 68 71 69 64 70 66 71 72 72 65 73 67 74
REMARK SMILES IDX 68 75 69 76 70 77 47 78 48 79 56 80 49 81 51 82 57 83 50 84
REMARK SMILES IDX 52 85 53 86 54 87 55 88
REMARK H PARENT 77 41 45 52
REMARK Flexibility Score: inf
ROOT
ATOM      1  C   UNL A   1      35.390  20.946  25.192  1.00  0.00     0.275 C 
ENDROOT
BRANCH   1   2
ATOM      2  C   UNL A   1      34.067  21.174  25.929  1.00  0.00     0.274 C 
BRANCH   2   3
ATOM      3  O   UNL A   1      33.895  22.591  26.118  1.00  0.00    -0.462 OA
BRANCH   3   4
ATOM      4  C   UNL A   1      32.773  23.158  25.597  1.00  0.00     0.312 C 
ATOM      5  O   UNL A   1      31.715  22.563  25.435  1.00  0.00    -0.252 OA
BRANCH   4   6
ATOM      6  C   UNL A   1      33.029  24.616  25.187  1.00  0.00     0.077 C 
ATOM      7  C   UNL A   1      32.976  22.909  22.316  1.00  0.00     0.042 C 
ATOM      8  C   UNL A   1      33.110  24.424  22.573  1.00  0.00     0.064 C 
ATOM      9  C   UNL A   1      32.545  25.205  21.373  1.00  0.00     0.042 C 
ATOM     10  C   UNL A   1      32.373  24.950  23.829  1.00  0.00     0.054 C 
ATOM     11  O   UNL A   1      34.496  24.777  22.649  1.00  0.00    -0.376 OA
ATOM     12  C   UNL A   1      35.164  24.293  23.809  1.00  0.00     0.162 C 
ATOM     13  C   UNL A   1      34.550  24.885  25.066  1.00  0.00     0.047 C 
BRANCH   6  14
ATOM     14  C   UNL A   1      32.497  25.527  26.343  1.00  0.00     0.054 C 
BRANCH  14  15
ATOM     15  C   UNL A   1      32.507  27.019  26.094  1.00  0.00    -0.047 A 
ATOM     16  C   UNL A   1      33.569  27.810  26.556  1.00  0.00     0.004 A 
ATOM     17  C   UNL A   1      31.483  27.629  25.358  1.00  0.00     0.004 A 
ATOM     18  C   UNL A   1      33.644  29.163  26.226  1.00  0.00     0.000 A 
ATOM     19  C   UNL A   1      31.557  28.984  25.031  1.00  0.00     0.000 A 
ATOM     20  C   UNL A   1      32.645  29.746  25.453  1.00  0.00     0.000 A 
ENDBRANCH  14  15
ENDBRANCH   6  14
ENDBRANCH   4   6
ENDBRANCH   3   4
ENDBRANCH   2   3
ENDBRANCH   1   2
BRANCH   1  21
ATOM     21  O   UNL A   1      36.405  21.716  25.858  1.00  0.00    -0.458 OA
BRANCH  21  22
ATOM     22  C   UNL A   1      37.700  21.375  25.636  1.00  0.00     0.338 C 
ATOM     23  O   UNL A   1      38.107  20.376  25.073  1.00  0.00    -0.246 OA
BRANCH  22  24
ATOM     24  C   UNL A   1      38.556  22.454  26.194  1.00  0.00     0.060 A 
ATOM     25  C   UNL A   1      38.141  23.776  26.056  1.00  0.00     0.016 A 
ATOM     26  C   UNL A   1      39.776  22.187  26.815  1.00  0.00     0.016 A 
ATOM     27  C   UNL A   1      38.919  24.823  26.535  1.00  0.00     0.010 A 
ATOM     28  C   UNL A   1      40.546  23.247  27.330  1.00  0.00     0.010 A 
ATOM     29  C   UNL A   1      40.129  24.584  27.185  1.00  0.00    -0.014 A 
BRANCH  29  30
ATOM     30  C   UNL A   1      40.969  25.750  27.584  1.00  0.00     0.031 A 
ATOM     31  C   UNL A   1      40.401  26.783  28.518  1.00  0.00     0.074 A 
ATOM     32  C   UNL A   1      42.266  25.848  27.225  1.00  0.00     0.049 A 
ATOM     33  N   UNL A   1      40.872  27.959  28.837  1.00  0.00    -0.248 NA
ATOM     34  C   UNL A   1      39.134  26.442  29.183  1.00  0.00     0.031 C 
ATOM     35  C   UNL A   1      43.000  24.861  26.433  1.00  0.00     0.029 A 
ATOM     36  N   UNL A   1      43.209  26.810  27.505  1.00  0.00    -0.354 N 
ATOM     37  C   UNL A   1      39.901  28.549  29.634  1.00  0.00     0.074 A 
ATOM     38  C   UNL A   1      38.848  27.572  29.811  1.00  0.00     0.031 C 
ATOM     39  C   UNL A   1      44.284  25.236  26.339  1.00  0.00     0.029 A 
ATOM     40  C   UNL A   1      44.442  26.553  26.949  1.00  0.00     0.049 A 
ATOM     41  H   UNL A   1      43.020  27.606  28.050  1.00  0.00     0.167 HD
ATOM     42  C   UNL A   1      39.879  29.803  30.142  1.00  0.00     0.034 A 
ATOM     43  C   UNL A   1      45.555  27.313  26.875  1.00  0.00     0.034 A 
ATOM     44  C   UNL A   1      40.970  30.733  30.034  1.00  0.00     0.049 A 
ATOM     45  C   UNL A   1      45.521  28.701  27.456  1.00  0.00     0.074 A 
ATOM     46  C   UNL A   1      41.039  32.041  30.478  1.00  0.00     0.029 A 
ATOM     47  N   UNL A   1      42.196  30.442  29.453  1.00  0.00    -0.354 N 
ATOM     48  N   UNL A   1      44.562  29.290  28.128  1.00  0.00    -0.248 NA
ATOM     49  C   UNL A   1      46.712  29.538  27.249  1.00  0.00     0.031 C 
ATOM     50  C   UNL A   1      42.303  32.546  30.151  1.00  0.00     0.029 A 
ATOM     51  C   UNL A   1      43.029  31.545  29.525  1.00  0.00     0.049 A 
ATOM     52  H   UNL A   1      42.438  29.578  29.049  1.00  0.00     0.167 HD
ATOM     53  C   UNL A   1      45.024  30.569  28.413  1.00  0.00     0.074 A 
ATOM     54  C   UNL A   1      46.369  30.654  27.882  1.00  0.00     0.031 C 
ATOM     55  C   UNL A   1      44.379  31.595  29.022  1.00  0.00     0.034 A 
BRANCH  42  56
ATOM     56  C   UNL A   1      38.598  30.256  30.790  1.00  0.00     0.023 A 
ATOM     57  C   UNL A   1      38.319  29.951  32.135  1.00  0.00     0.012 A 
ATOM     58  C   UNL A   1      37.657  30.985  30.034  1.00  0.00     0.148 A 
ATOM     59  C   UNL A   1      37.102  30.329  32.706  1.00  0.00     0.002 A 
ATOM     60  C   UNL A   1      36.467  31.393  30.621  1.00  0.00     0.091 A 
ATOM     61  F   UNL A   1      37.930  31.237  28.746  1.00  0.00    -0.205 F 
ATOM     62  C   UNL A   1      36.182  31.055  31.953  1.00  0.00     0.022 A 
BRANCH  60  63
ATOM     63  S   UNL A   1      35.256  32.384  29.740  1.00  0.00     0.127 S 
ATOM     64  O   UNL A   1      34.787  31.445  28.724  1.00  0.00    -0.237 OA
ATOM     65  O   UNL A   1      34.281  32.687  30.789  1.00  0.00    -0.237 OA
ATOM     66  O   UNL A   1      35.980  33.545  29.240  1.00  0.00    -0.744 OA
ENDBRANCH  60  63
ENDBRANCH  42  56
BRANCH  43  67
ATOM     67  C   UNL A   1      46.767  26.790  26.175  1.00  0.00     0.023 A 
ATOM     68  C   UNL A   1      46.917  26.977  24.788  1.00  0.00     0.012 A 
ATOM     69  C   UNL A   1      47.807  26.165  26.893  1.00  0.00     0.148 A 
ATOM     70  C   UNL A   1      48.079  26.555  24.134  1.00  0.00     0.002 A 
ATOM     71  C   UNL A   1      48.992  25.827  26.253  1.00  0.00     0.091 A 
ATOM     72  F   UNL A   1      47.629  25.941  28.203  1.00  0.00    -0.205 F 
ATOM     73  C   UNL A   1      49.126  26.004  24.870  1.00  0.00     0.022 A 
BRANCH  71  74
ATOM     74  S   UNL A   1      50.444  25.302  27.173  1.00  0.00     0.127 S 
ATOM     75  O   UNL A   1      51.390  25.004  26.101  1.00  0.00    -0.237 OA
ATOM     76  O   UNL A   1      50.758  26.496  27.959  1.00  0.00    -0.237 OA
ATOM     77  O   UNL A   1      50.005  24.166  27.973  1.00  0.00    -0.744 OA
ENDBRANCH  71  74
ENDBRANCH  43  67
BRANCH  55  78
ATOM     78  C   UNL A   1      45.117  32.900  29.149  1.00  0.00     0.023 A 
ATOM     79  C   UNL A   1      45.947  33.122  30.266  1.00  0.00     0.012 A 
ATOM     80  C   UNL A   1      45.055  33.867  28.128  1.00  0.00     0.148 A 
ATOM     81  C   UNL A   1      46.686  34.298  30.377  1.00  0.00     0.002 A 
ATOM     82  C   UNL A   1      45.826  35.019  28.225  1.00  0.00     0.091 A 
ATOM     83  F   UNL A   1      44.243  33.646  27.085  1.00  0.00    -0.205 F 
ATOM     84  C   UNL A   1      46.635  35.241  29.352  1.00  0.00     0.022 A 
BRANCH  82  85
ATOM     85  S   UNL A   1      45.891  36.241  26.910  1.00  0.00     0.127 S 
ATOM     86  O   UNL A   1      44.507  36.710  26.871  1.00  0.00    -0.237 OA
ATOM     87  O   UNL A   1      46.852  37.214  27.432  1.00  0.00    -0.237 OA
ATOM     88  O   UNL A   1      46.345  35.526  25.724  1.00  0.00    -0.744 OA
ENDBRANCH  82  85
ENDBRANCH  55  78
ENDBRANCH  29  30
ENDBRANCH  22  24
ENDBRANCH  21  22
ENDBRANCH   1  21
TORSDOF 16
ENDMDL
MODEL 2
REMARK VINA RESULT:     -11.9      4.841      9.778
REMARK SMILES CC1(C)C[C@@](Cc2ccccc2)(C(=O)OCCOC(=O)c2ccc(-c3c4nc(c(-c5cccc(S(=O)(=O)[O-])c5F)c5ccc([nH]5)c(-c5cccc(S(=O)(=O)[O-])c5F)c5nc(c(-c6cccc(S(=O)(=O)[O-])c6F)c6ccc3[nH]6)C=C5)C=C4)cc2)CCO1
REMARK SMILES IDX 17 1 16 2 15 3 13 4 14 5 5 6 1 7 2 8 3 9 4 10 86 11 85 12
REMARK SMILES IDX 84 13 6 14 7 15 8 16 12 17 9 18 11 19 10 20 18 21 19 22
REMARK SMILES IDX 20 23 21 24 22 25 83 26 23 27 82 28 24 29 25 30 26 31 76 32
REMARK SMILES IDX 27 33 81 34 75 35 77 36 28 37 80 38 74 39 73 40 29 42 61 43
REMARK SMILES IDX 41 44 60 45 42 46 45 47 59 48 78 49 43 50 44 51 58 53 79 54
REMARK SMILES IDX 46 55 30 56 31 57 39 58 32 59 34 60 40 61 33 62 35 63 36 64
REMARK SMILES IDX 37 65 38 66 62 67 63 68 71 69 64 70 66 71 72 72 65 73 67 74
REMARK SMILES IDX 68 75 69 76 70 77 47 78 48 79 56 80 49 81 51 82 57 83 50 84
REMARK SMILES IDX 52 85 53 86 54 87 55 88
REMARK H PARENT 77 41 45 52
REMARK Flexibility Score: inf
ROOT
ATOM      1  C   UNL A   1      31.660  29.520  24.931  1.00  0.00     0.275 C 
ENDROOT
BRANCH   1   2
ATOM      2  C   UNL A   1      31.963  28.919  23.554  1.00  0.00     0.274 C 
BRANCH   2   3
ATOM      3  O   UNL A   1      32.851  27.800  23.738  1.00  0.00    -0.462 OA
BRANCH   3   4
ATOM      4  C   UNL A   1      32.368  26.565  23.430  1.00  0.00     0.312 C 
ATOM      5  O   UNL A   1      31.510  26.355  22.582  1.00  0.00    -0.252 OA
BRANCH   4   6
ATOM      6  C   UNL A   1      32.997  25.486  24.325  1.00  0.00     0.077 C 
ATOM      7  C   UNL A   1      29.872  25.830  25.455  1.00  0.00     0.042 C 
ATOM      8  C   UNL A   1      30.984  24.849  25.880  1.00  0.00     0.064 C 
ATOM      9  C   UNL A   1      30.353  23.555  26.424  1.00  0.00     0.042 C 
ATOM     10  C   UNL A   1      31.960  24.426  24.755  1.00  0.00     0.054 C 
ATOM     11  O   UNL A   1      31.726  25.409  26.970  1.00  0.00    -0.376 OA
ATOM     12  C   UNL A   1      32.535  26.526  26.619  1.00  0.00     0.162 C 
ATOM     13  C   UNL A   1      33.592  26.124  25.606  1.00  0.00     0.047 C 
BRANCH   6  14
ATOM     14  C   UNL A   1      34.193  24.860  23.532  1.00  0.00     0.054 C 
BRANCH  14  15
ATOM     15  C   UNL A   1      35.001  23.798  24.245  1.00  0.00    -0.047 A 
ATOM     16  C   UNL A   1      35.843  24.143  25.312  1.00  0.00     0.004 A 
ATOM     17  C   UNL A   1      34.887  22.450  23.885  1.00  0.00     0.004 A 
ATOM     18  C   UNL A   1      36.497  23.156  26.049  1.00  0.00     0.000 A 
ATOM     19  C   UNL A   1      35.544  21.463  24.621  1.00  0.00     0.000 A 
ATOM     20  C   UNL A   1      36.337  21.816  25.712  1.00  0.00     0.000 A 
ENDBRANCH  14  15
ENDBRANCH   6  14
ENDBRANCH   4   6
ENDBRANCH   3   4
ENDBRANCH   2   3
ENDBRANCH   1   2
BRANCH   1  21
ATOM     21  O   UNL A   1      32.912  29.848  25.555  1.00  0.00    -0.458 OA
BRANCH  21  22
ATOM     22  C   UNL A   1      32.889  30.742  26.576  1.00  0.00     0.338 C 
ATOM     23  O   UNL A   1      31.974  31.485  26.878  1.00  0.00    -0.246 OA
BRANCH  22  24
ATOM     24  C   UNL A   1      34.191  30.652  27.287  1.00  0.00     0.060 A 
ATOM     25  C   UNL A   1      34.684  29.394  27.623  1.00  0.00     0.016 A 
ATOM     26  C   UNL A   1      34.912  31.786  27.663  1.00  0.00     0.016 A 
ATOM     27  C   UNL A   1      35.882  29.256  28.314  1.00  0.00     0.010 A 
ATOM     28  C   UNL A   1      36.142  31.643  28.333  1.00  0.00     0.010 A 
ATOM     29  C   UNL A   1      36.637  30.370  28.677  1.00  0.00    -0.014 A 
BRANCH  29  30
ATOM     30  C   UNL A   1      37.860  30.166  29.506  1.00  0.00     0.031 A 
ATOM     31  C   UNL A   1      39.021  29.403  28.933  1.00  0.00     0.074 A 
ATOM     32  C   UNL A   1      38.002  30.746  30.716  1.00  0.00     0.049 A 
ATOM     33  N   UNL A   1      40.088  28.944  29.533  1.00  0.00    -0.248 NA
ATOM     34  C   UNL A   1      38.976  29.123  27.490  1.00  0.00     0.031 C 
ATOM     35  C   UNL A   1      37.021  31.625  31.354  1.00  0.00     0.029 A 
ATOM     36  N   UNL A   1      39.042  30.710  31.617  1.00  0.00    -0.354 N 
ATOM     37  C   UNL A   1      40.772  28.213  28.573  1.00  0.00     0.074 A 
ATOM     38  C   UNL A   1      40.040  28.352  27.332  1.00  0.00     0.031 C 
ATOM     39  C   UNL A   1      37.525  32.089  32.507  1.00  0.00     0.029 A 
ATOM     40  C   UNL A   1      38.808  31.440  32.761  1.00  0.00     0.049 A 
ATOM     41  H   UNL A   1      39.874  30.209  31.459  1.00  0.00     0.167 HD
ATOM     42  C   UNL A   1      41.893  27.468  28.725  1.00  0.00     0.034 A 
ATOM     43  C   UNL A   1      39.507  31.529  33.911  1.00  0.00     0.034 A 
ATOM     44  C   UNL A   1      42.659  27.409  29.939  1.00  0.00     0.049 A 
ATOM     45  C   UNL A   1      40.758  30.706  34.063  1.00  0.00     0.074 A 
ATOM     46  C   UNL A   1      43.787  26.657  30.214  1.00  0.00     0.029 A 
ATOM     47  N   UNL A   1      42.385  28.151  31.079  1.00  0.00    -0.354 N 
ATOM     48  N   UNL A   1      41.351  29.939  33.180  1.00  0.00    -0.248 NA
ATOM     49  C   UNL A   1      41.423  30.739  35.374  1.00  0.00     0.031 C 
ATOM     50  C   UNL A   1      44.185  26.933  31.528  1.00  0.00     0.029 A 
ATOM     51  C   UNL A   1      43.320  27.875  32.061  1.00  0.00     0.049 A 
ATOM     52  H   UNL A   1      41.635  28.780  31.175  1.00  0.00     0.167 HD
ATOM     53  C   UNL A   1      42.449  29.387  33.829  1.00  0.00     0.074 A 
ATOM     54  C   UNL A   1      42.467  29.946  35.165  1.00  0.00     0.031 C 
ATOM     55  C   UNL A   1      43.339  28.471  33.374  1.00  0.00     0.034 A 
BRANCH  42  56
ATOM     56  C   UNL A   1      42.298  26.599  27.565  1.00  0.00     0.023 A 
ATOM     57  C   UNL A   1      43.059  27.120  26.501  1.00  0.00     0.012 A 
ATOM     58  C   UNL A   1      41.900  25.247  27.536  1.00  0.00     0.148 A 
ATOM     59  C   UNL A   1      43.380  26.317  25.405  1.00  0.00     0.002 A 
ATOM     60  C   UNL A   1      42.258  24.444  26.462  1.00  0.00     0.091 A 
ATOM     61  F   UNL A   1      41.149  24.780  28.544  1.00  0.00    -0.205 F 
ATOM     62  C   UNL A   1      42.987  24.980  25.389  1.00  0.00     0.022 A 
BRANCH  60  63
ATOM     63  S   UNL A   1      41.846  22.698  26.393  1.00  0.00     0.127 S 
ATOM     64  O   UNL A   1      42.486  22.291  25.143  1.00  0.00    -0.237 OA
ATOM     65  O   UNL A   1      42.486  22.180  27.603  1.00  0.00    -0.237 OA
ATOM     66  O   UNL A   1      40.391  22.631  26.407  1.00  0.00    -0.744 OA
ENDBRANCH  60  63
ENDBRANCH  42  56
BRANCH  43  67
ATOM     67  C   UNL A   1      39.001  32.389  35.024  1.00  0.00     0.023 A 
ATOM     68  C   UNL A   1      38.011  31.903  35.899  1.00  0.00     0.012 A 
ATOM     69  C   UNL A   1      39.548  33.667  35.260  1.00  0.00     0.148 A 
ATOM     70  C   UNL A   1      37.581  32.671  36.985  1.00  0.00     0.002 A 
ATOM     71  C   UNL A   1      39.179  34.387  36.388  1.00  0.00     0.091 A 
ATOM     72  F   UNL A   1      40.449  34.143  34.389  1.00  0.00    -0.205 F 
ATOM     73  C   UNL A   1      38.182  33.901  37.244  1.00  0.00     0.022 A 
BRANCH  71  74
ATOM     74  S   UNL A   1      40.054  35.877  36.885  1.00  0.00     0.127 S 
ATOM     75  O   UNL A   1      41.435  35.407  36.953  1.00  0.00    -0.237 OA
ATOM     76  O   UNL A   1      39.766  36.786  35.775  1.00  0.00    -0.237 OA
ATOM     77  O   UNL A   1      39.450  36.276  38.150  1.00  0.00    -0.744 OA
ENDBRANCH  71  74
ENDBRANCH  43  67
BRANCH  55  78
ATOM     78  C   UNL A   1      44.409  28.011  34.327  1.00  0.00     0.023 A 
ATOM     79  C   UNL A   1      45.693  28.587  34.258  1.00  0.00     0.012 A 
ATOM     80  C   UNL A   1      44.121  27.075  35.339  1.00  0.00     0.148 A 
ATOM     81  C   UNL A   1      46.684  28.220  35.168  1.00  0.00     0.002 A 
ATOM     82  C   UNL A   1      45.101  26.745  36.268  1.00  0.00     0.091 A 
ATOM     83  F   UNL A   1      42.900  26.524  35.372  1.00  0.00    -0.205 F 
ATOM     84  C   UNL A   1      46.385  27.309  36.179  1.00  0.00     0.022 A 
BRANCH  82  85
ATOM     85  S   UNL A   1      44.775  25.651  37.654  1.00  0.00     0.127 S 
ATOM     86  O   UNL A   1      46.077  25.612  38.316  1.00  0.00    -0.237 OA
ATOM     87  O   UNL A   1      43.737  26.377  38.389  1.00  0.00    -0.237 OA
ATOM     88  O   UNL A   1      44.329  24.392  37.072  1.00  0.00    -0.744 OA
ENDBRANCH  82  85
ENDBRANCH  55  78
ENDBRANCH  29  30
ENDBRANCH  22  24
ENDBRANCH  21  22
ENDBRANCH   1  21
TORSDOF 16
ENDMDL
MODEL 3
REMARK VINA RESULT:     -11.8      5.144      9.775
REMARK SMILES CC1(C)C[C@@](Cc2ccccc2)(C(=O)OCCOC(=O)c2ccc(-c3c4nc(c(-c5cccc(S(=O)(=O)[O-])c5F)c5ccc([nH]5)c(-c5cccc(S(=O)(=O)[O-])c5F)c5nc(c(-c6cccc(S(=O)(=O)[O-])c6F)c6ccc3[nH]6)C=C5)C=C4)cc2)CCO1
REMARK SMILES IDX 17 1 16 2 15 3 13 4 14 5 5 6 1 7 2 8 3 9 4 10 86 11 85 12
REMARK SMILES IDX 84 13 6 14 7 15 8 16 12 17 9 18 11 19 10 20 18 21 19 22
REMARK SMILES IDX 20 23 21 24 22 25 83 26 23 27 82 28 24 29 25 30 26 31 76 32
REMARK SMILES IDX 27 33 81 34 75 35 77 36 28 37 80 38 74 39 73 40 29 42 61 43
REMARK SMILES IDX 41 44 60 45 42 46 45 47 59 48 78 49 43 50 44 51 58 53 79 54
REMARK SMILES IDX 46 55 30 56 31 57 39 58 32 59 34 60 40 61 33 62 35 63 36 64
REMARK SMILES IDX 37 65 38 66 62 67 63 68 71 69 64 70 66 71 72 72 65 73 67 74
REMARK SMILES IDX 68 75 69 76 70 77 47 78 48 79 56 80 49 81 51 82 57 83 50 84
REMARK SMILES IDX 52 85 53 86 54 87 55 88
REMARK H PARENT 77 41 45 52
REMARK Flexibility Score: inf
ROOT
ATOM      1  C   UNL A   1      31.809  29.492  26.471  1.00  0.00     0.275 C 
ENDROOT
BRANCH   1   2
ATOM      2  C   UNL A   1      31.843  28.190  27.278  1.00  0.00     0.274 C 
BRANCH   2   3
ATOM      3  O   UNL A   1      32.414  27.161  26.447  1.00  0.00    -0.462 OA
BRANCH   3   4
ATOM      4  C   UNL A   1      31.627  26.090  26.155  1.00  0.00     0.312 C 
ATOM      5  O   UNL A   1      30.489  25.937  26.581  1.00  0.00    -0.252 OA
BRANCH   4   6
ATOM      6  C   UNL A   1      32.376  25.078  25.273  1.00  0.00     0.077 C 
ATOM      7  C   UNL A   1      31.362  27.469  23.172  1.00  0.00     0.042 C 
ATOM      8  C   UNL A   1      32.229  26.219  22.917  1.00  0.00     0.064 C 
ATOM      9  C   UNL A   1      33.183  26.483  21.737  1.00  0.00     0.042 C 
ATOM     10  C   UNL A   1      33.112  25.773  24.107  1.00  0.00     0.054 C 
ATOM     11  O   UNL A   1      31.394  25.131  22.507  1.00  0.00    -0.376 OA
ATOM     12  C   UNL A   1      30.554  24.615  23.533  1.00  0.00     0.162 C 
ATOM     13  C   UNL A   1      31.385  24.049  24.671  1.00  0.00     0.047 C 
BRANCH   6  14
ATOM     14  C   UNL A   1      33.351  24.281  26.202  1.00  0.00     0.054 C 
BRANCH  14  15
ATOM     15  C   UNL A   1      34.559  23.655  25.541  1.00  0.00    -0.047 A 
ATOM     16  C   UNL A   1      35.814  24.276  25.619  1.00  0.00     0.004 A 
ATOM     17  C   UNL A   1      34.457  22.423  24.882  1.00  0.00     0.004 A 
ATOM     18  C   UNL A   1      36.952  23.647  25.116  1.00  0.00     0.000 A 
ATOM     19  C   UNL A   1      35.596  21.795  24.376  1.00  0.00     0.000 A 
ATOM     20  C   UNL A   1      36.845  22.400  24.507  1.00  0.00     0.000 A 
ENDBRANCH  14  15
ENDBRANCH   6  14
ENDBRANCH   4   6
ENDBRANCH   3   4
ENDBRANCH   2   3
ENDBRANCH   1   2
BRANCH   1  21
ATOM     21  O   UNL A   1      33.155  29.987  26.374  1.00  0.00    -0.458 OA
BRANCH  21  22
ATOM     22  C   UNL A   1      33.471  31.093  27.094  1.00  0.00     0.338 C 
ATOM     23  O   UNL A   1      32.797  32.098  27.227  1.00  0.00    -0.246 OA
BRANCH  22  24
ATOM     24  C   UNL A   1      34.801  30.865  27.717  1.00  0.00     0.060 A 
ATOM     25  C   UNL A   1      35.108  29.592  28.189  1.00  0.00     0.016 A 
ATOM     26  C   UNL A   1      35.731  31.891  27.878  1.00  0.00     0.016 A 
ATOM     27  C   UNL A   1      36.326  29.332  28.807  1.00  0.00     0.010 A 
ATOM     28  C   UNL A   1      36.978  31.619  28.473  1.00  0.00     0.010 A 
ATOM     29  C   UNL A   1      37.286  30.332  28.955  1.00  0.00    -0.014 A 
BRANCH  29  30
ATOM     30  C   UNL A   1      38.530  30.021  29.717  1.00  0.00     0.031 A 
ATOM     31  C   UNL A   1      39.597  29.178  29.075  1.00  0.00     0.074 A 
ATOM     32  C   UNL A   1      38.780  30.570  30.924  1.00  0.00     0.049 A 
ATOM     33  N   UNL A   1      40.654  28.629  29.613  1.00  0.00    -0.248 NA
ATOM     34  C   UNL A   1      39.454  28.925  27.633  1.00  0.00     0.031 C 
ATOM     35  C   UNL A   1      37.905  31.512  31.622  1.00  0.00     0.029 A 
ATOM     36  N   UNL A   1      39.859  30.440  31.768  1.00  0.00    -0.354 N 
ATOM     37  C   UNL A   1      41.228  27.861  28.610  1.00  0.00     0.074 A 
ATOM     38  C   UNL A   1      40.446  28.075  27.411  1.00  0.00     0.031 C 
ATOM     39  C   UNL A   1      38.503  31.918  32.752  1.00  0.00     0.029 A 
ATOM     40  C   UNL A   1      39.743  31.168  32.930  1.00  0.00     0.049 A 
ATOM     41  H   UNL A   1      40.640  29.878  31.560  1.00  0.00     0.167 HD
ATOM     42  C   UNL A   1      42.293  27.029  28.694  1.00  0.00     0.034 A 
ATOM     43  C   UNL A   1      40.506  31.186  34.043  1.00  0.00     0.034 A 
ATOM     44  C   UNL A   1      43.114  26.892  29.865  1.00  0.00     0.049 A 
ATOM     45  C   UNL A   1      41.695  30.265  34.119  1.00  0.00     0.074 A 
ATOM     46  C   UNL A   1      44.193  26.051  30.072  1.00  0.00     0.029 A 
ATOM     47  N   UNL A   1      42.958  27.636  31.026  1.00  0.00    -0.354 N 
ATOM     48  N   UNL A   1      42.179  29.468  33.198  1.00  0.00    -0.248 NA
ATOM     49  C   UNL A   1      42.427  30.227  35.393  1.00  0.00     0.031 C 
ATOM     50  C   UNL A   1      44.679  26.276  31.366  1.00  0.00     0.029 A 
ATOM     51  C   UNL A   1      43.919  27.274  31.954  1.00  0.00     0.049 A 
ATOM     52  H   UNL A   1      42.266  28.320  31.169  1.00  0.00     0.167 HD
ATOM     53  C   UNL A   1      43.263  28.823  33.782  1.00  0.00     0.074 A 
ATOM     54  C   UNL A   1      43.393  29.358  35.121  1.00  0.00     0.031 C 
ATOM     55  C   UNL A   1      44.053  27.846  33.271  1.00  0.00     0.034 A 
BRANCH  42  56
ATOM     56  C   UNL A   1      42.568  26.148  27.505  1.00  0.00     0.023 A 
ATOM     57  C   UNL A   1      43.293  26.631  26.399  1.00  0.00     0.012 A 
ATOM     58  C   UNL A   1      42.081  24.826  27.492  1.00  0.00     0.148 A 
ATOM     59  C   UNL A   1      43.493  25.821  25.279  1.00  0.00     0.002 A 
ATOM     60  C   UNL A   1      42.319  24.013  26.391  1.00  0.00     0.091 A 
ATOM     61  F   UNL A   1      41.366  24.397  28.542  1.00  0.00    -0.205 F 
ATOM     62  C   UNL A   1      43.013  24.512  25.278  1.00  0.00     0.022 A 
BRANCH  60  63
ATOM     63  S   UNL A   1      41.791  22.298  26.336  1.00  0.00     0.127 S 
ATOM     64  O   UNL A   1      42.445  21.825  25.117  1.00  0.00    -0.237 OA
ATOM     65  O   UNL A   1      42.351  21.761  27.578  1.00  0.00    -0.237 OA
ATOM     66  O   UNL A   1      40.335  22.331  26.298  1.00  0.00    -0.744 OA
ENDBRANCH  60  63
ENDBRANCH  42  56
BRANCH  43  67
ATOM     67  C   UNL A   1      40.127  32.065  35.190  1.00  0.00     0.023 A 
ATOM     68  C   UNL A   1      40.567  33.402  35.231  1.00  0.00     0.012 A 
ATOM     69  C   UNL A   1      39.275  31.599  36.212  1.00  0.00     0.148 A 
ATOM     70  C   UNL A   1      40.161  34.254  36.262  1.00  0.00     0.002 A 
ATOM     71  C   UNL A   1      38.807  32.473  37.185  1.00  0.00     0.091 A 
ATOM     72  F   UNL A   1      38.908  30.310  36.195  1.00  0.00    -0.205 F 
ATOM     73  C   UNL A   1      39.262  33.798  37.224  1.00  0.00     0.022 A 
BRANCH  71  74
ATOM     74  S   UNL A   1      37.501  32.003  38.326  1.00  0.00     0.127 S 
ATOM     75  O   UNL A   1      36.451  32.962  37.994  1.00  0.00    -0.237 OA
ATOM     76  O   UNL A   1      37.225  30.623  37.925  1.00  0.00    -0.237 OA
ATOM     77  O   UNL A   1      38.085  32.128  39.655  1.00  0.00    -0.744 OA
ENDBRANCH  71  74
ENDBRANCH  43  67
BRANCH  55  78
ATOM     78  C   UNL A   1      45.131  27.291  34.161  1.00  0.00     0.023 A 
ATOM     79  C   UNL A   1      46.403  27.897  34.171  1.00  0.00     0.012 A 
ATOM     80  C   UNL A   1      44.863  26.227  35.043  1.00  0.00     0.148 A 
ATOM     81  C   UNL A   1      47.401  27.438  35.029  1.00  0.00     0.002 A 
ATOM     82  C   UNL A   1      45.849  25.801  35.925  1.00  0.00     0.091 A 
ATOM     83  F   UNL A   1      43.654  25.650  35.001  1.00  0.00    -0.205 F 
ATOM     84  C   UNL A   1      47.121  26.398  35.914  1.00  0.00     0.022 A 
BRANCH  82  85
ATOM     85  S   UNL A   1      45.544  24.531  37.159  1.00  0.00     0.127 S 
ATOM     86  O   UNL A   1      45.180  23.387  36.325  1.00  0.00    -0.237 OA
ATOM     87  O   UNL A   1      46.845  24.417  37.819  1.00  0.00    -0.237 OA
ATOM     88  O   UNL A   1      44.482  25.051  38.011  1.00  0.00    -0.744 OA
ENDBRANCH  82  85
ENDBRANCH  55  78
ENDBRANCH  29  30
ENDBRANCH  22  24
ENDBRANCH  21  22
ENDBRANCH   1  21
TORSDOF 16
ENDMDL
