MODEL 1
REMARK VINA RESULT:     -11.1      0.000      0.000
REMARK SMILES O=C(C[C@@H]1CN(C(=O)NCc2cccs2)CCO1)OCCOC(=O)c1ccc(-c2c3nc(c(-c4cccc(S(=O)(=O)[O-])c4F)c4ccc([nH]4)c(-c4cccc(S(=O)(=O)[O-])c4F)c4nc(c(-c5cccc(S(=O)(=O)[O-])c5F)c5ccc2[nH]5)C=C4)C=C3)cc1
REMARK SMILES IDX 20 1 19 2 2 3 1 4 3 5 4 6 5 7 18 8 6 9 17 10 16 11 7 12 8 13
REMARK SMILES IDX 9 14 10 16 11 17 12 18 15 19 13 20 14 21 21 22 22 23 23 24
REMARK SMILES IDX 24 25 25 26 26 27 87 28 27 29 86 30 28 31 29 32 30 33 80 34
REMARK SMILES IDX 31 35 85 36 79 37 81 38 32 39 84 40 78 41 77 42 33 44 65 45
REMARK SMILES IDX 45 46 64 47 46 48 49 49 63 50 82 51 47 52 48 53 62 55 83 56
REMARK SMILES IDX 50 57 34 58 35 59 43 60 36 61 38 62 44 63 37 64 39 65 40 66
REMARK SMILES IDX 41 67 42 68 66 69 67 70 75 71 68 72 70 73 76 74 69 75 71 76
REMARK SMILES IDX 72 77 73 78 74 79 51 80 52 81 60 82 53 83 55 84 61 85 54 86
REMARK SMILES IDX 56 87 57 88 58 89 59 90
REMARK H PARENT 9 15 81 43 49 54
REMARK Flexibility Score: inf
ROOT
ATOM      1  C   UNL A   1      36.019  20.662  25.311  1.00  0.00     0.274 C 
ENDROOT
BRANCH   1   2
ATOM      2  O   UNL A   1      35.778  21.898  24.601  1.00  0.00    -0.462 OA
BRANCH   2   3
ATOM      3  C   UNL A   1      35.538  23.091  25.188  1.00  0.00     0.308 C 
ATOM      4  O   UNL A   1      35.739  23.243  26.391  1.00  0.00    -0.252 OA
BRANCH   3   5
ATOM      5  C   UNL A   1      35.037  24.240  24.354  1.00  0.00     0.156 C 
BRANCH   5   6
ATOM      6  C   UNL A   1      33.538  24.419  24.462  1.00  0.00     0.149 C 
ATOM      7  C   UNL A   1      32.914  23.311  25.328  1.00  0.00     0.154 C 
ATOM      8  O   UNL A   1      32.993  24.327  23.115  1.00  0.00    -0.374 OA
ATOM      9  N   UNL A   1      31.485  23.569  25.380  1.00  0.00    -0.320 N 
ATOM     10  C   UNL A   1      31.552  24.411  23.099  1.00  0.00     0.182 C 
ATOM     11  C   UNL A   1      30.900  23.390  24.046  1.00  0.00     0.150 C 
BRANCH   9  12
ATOM     12  C   UNL A   1      30.759  24.263  26.297  1.00  0.00     0.317 C 
ATOM     13  O   UNL A   1      30.213  23.689  27.248  1.00  0.00    -0.249 OA
ATOM     14  N   UNL A   1      30.520  25.578  26.241  1.00  0.00    -0.333 N 
ATOM     15  H   UNL A   1      29.969  25.858  27.009  1.00  0.00     0.165 HD
BRANCH  14  16
ATOM     16  C   UNL A   1      30.821  26.716  25.398  1.00  0.00     0.164 C 
BRANCH  16  17
ATOM     17  C   UNL A   1      31.984  27.458  25.989  1.00  0.00     0.024 A 
ATOM     18  C   UNL A   1      33.238  27.672  25.452  1.00  0.00     0.017 A 
ATOM     19  S   UNL A   1      31.830  28.210  27.521  1.00  0.00    -0.147 S 
ATOM     20  C   UNL A   1      34.049  28.503  26.282  1.00  0.00     0.012 A 
ATOM     21  C   UNL A   1      33.391  28.889  27.427  1.00  0.00     0.065 A 
ENDBRANCH  16  17
ENDBRANCH  14  16
ENDBRANCH   9  12
ENDBRANCH   5   6
ENDBRANCH   3   5
ENDBRANCH   2   3
ENDBRANCH   1   2
BRANCH   1  22
ATOM     22  C   UNL A   1      37.410  20.103  25.000  1.00  0.00     0.275 C 
BRANCH  22  23
ATOM     23  O   UNL A   1      38.395  21.142  25.131  1.00  0.00    -0.458 OA
BRANCH  23  24
ATOM     24  C   UNL A   1      39.392  20.915  26.025  1.00  0.00     0.338 C 
ATOM     25  O   UNL A   1      39.973  19.860  26.208  1.00  0.00    -0.246 OA
BRANCH  24  26
ATOM     26  C   UNL A   1      39.826  22.214  26.600  1.00  0.00     0.060 A 
ATOM     27  C   UNL A   1      39.176  23.377  26.165  1.00  0.00     0.016 A 
ATOM     28  C   UNL A   1      40.795  22.295  27.608  1.00  0.00     0.016 A 
ATOM     29  C   UNL A   1      39.524  24.621  26.700  1.00  0.00     0.010 A 
ATOM     30  C   UNL A   1      41.142  23.539  28.144  1.00  0.00     0.010 A 
ATOM     31  C   UNL A   1      40.536  24.712  27.664  1.00  0.00    -0.014 A 
BRANCH  31  32
ATOM     32  C   UNL A   1      41.113  26.036  28.003  1.00  0.00     0.031 A 
ATOM     33  C   UNL A   1      42.524  26.321  27.564  1.00  0.00     0.074 A 
ATOM     34  C   UNL A   1      40.423  26.967  28.688  1.00  0.00     0.049 A 
ATOM     35  N   UNL A   1      43.225  27.418  27.684  1.00  0.00    -0.248 NA
ATOM     36  C   UNL A   1      43.243  25.217  26.905  1.00  0.00     0.031 C 
ATOM     37  C   UNL A   1      39.063  26.815  29.199  1.00  0.00     0.029 A 
ATOM     38  N   UNL A   1      40.795  28.228  29.087  1.00  0.00    -0.354 N 
ATOM     39  C   UNL A   1      44.463  27.136  27.122  1.00  0.00     0.074 A 
ATOM     40  C   UNL A   1      44.432  25.755  26.690  1.00  0.00     0.031 C 
ATOM     41  C   UNL A   1      38.719  27.937  29.859  1.00  0.00     0.029 A 
ATOM     42  C   UNL A   1      39.834  28.884  29.819  1.00  0.00     0.049 A 
ATOM     43  H   UNL A   1      41.669  28.625  28.869  1.00  0.00     0.167 HD
ATOM     44  C   UNL A   1      45.527  27.954  26.950  1.00  0.00     0.034 A 
ATOM     45  C   UNL A   1      39.853  30.109  30.384  1.00  0.00     0.034 A 
ATOM     46  C   UNL A   1      45.568  29.327  27.368  1.00  0.00     0.049 A 
ATOM     47  C   UNL A   1      41.063  30.995  30.203  1.00  0.00     0.074 A 
ATOM     48  C   UNL A   1      46.581  30.251  27.186  1.00  0.00     0.029 A 
ATOM     49  N   UNL A   1      44.559  29.968  28.067  1.00  0.00    -0.354 N 
ATOM     50  N   UNL A   1      42.156  30.774  29.512  1.00  0.00    -0.248 NA
ATOM     51  C   UNL A   1      41.021  32.318  30.846  1.00  0.00     0.031 C 
ATOM     52  C   UNL A   1      46.192  31.449  27.796  1.00  0.00     0.029 A 
ATOM     53  C   UNL A   1      44.929  31.273  28.340  1.00  0.00     0.049 A 
ATOM     54  H   UNL A   1      43.705  29.557  28.331  1.00  0.00     0.167 HD
ATOM     55  C   UNL A   1      42.908  31.943  29.601  1.00  0.00     0.074 A 
ATOM     56  C   UNL A   1      42.139  32.875  30.400  1.00  0.00     0.031 C 
ATOM     57  C   UNL A   1      44.129  32.217  29.077  1.00  0.00     0.034 A 
BRANCH  44  58
ATOM     58  C   UNL A   1      46.721  27.385  26.237  1.00  0.00     0.023 A 
ATOM     59  C   UNL A   1      46.817  27.520  24.838  1.00  0.00     0.012 A 
ATOM     60  C   UNL A   1      47.753  26.741  26.946  1.00  0.00     0.148 A 
ATOM     61  C   UNL A   1      47.907  26.996  24.147  1.00  0.00     0.002 A 
ATOM     62  C   UNL A   1      48.856  26.253  26.254  1.00  0.00     0.091 A 
ATOM     63  F   UNL A   1      47.626  26.593  28.271  1.00  0.00    -0.205 F 
ATOM     64  C   UNL A   1      48.931  26.371  24.856  1.00  0.00     0.022 A 
BRANCH  62  65
ATOM     65  S   UNL A   1      50.251  25.493  27.090  1.00  0.00     0.127 S 
ATOM     66  O   UNL A   1      51.185  25.293  25.984  1.00  0.00    -0.237 OA
ATOM     67  O   UNL A   1      50.647  26.531  28.043  1.00  0.00    -0.237 OA
ATOM     68  O   UNL A   1      49.731  24.278  27.704  1.00  0.00    -0.744 OA
ENDBRANCH  62  65
ENDBRANCH  44  58
BRANCH  45  69
ATOM     69  C   UNL A   1      38.661  30.616  31.122  1.00  0.00     0.023 A 
ATOM     70  C   UNL A   1      38.567  30.396  32.511  1.00  0.00     0.012 A 
ATOM     71  C   UNL A   1      37.618  31.293  30.463  1.00  0.00     0.148 A 
ATOM     72  C   UNL A   1      37.441  30.811  33.223  1.00  0.00     0.002 A 
ATOM     73  C   UNL A   1      36.521  31.746  31.186  1.00  0.00     0.091 A 
ATOM     74  F   UNL A   1      37.717  31.473  29.137  1.00  0.00    -0.205 F 
ATOM     75  C   UNL A   1      36.422  31.492  32.563  1.00  0.00     0.022 A 
BRANCH  73  76
ATOM     76  S   UNL A   1      35.213  32.725  30.439  1.00  0.00     0.127 S 
ATOM     77  O   UNL A   1      35.949  33.893  29.964  1.00  0.00    -0.237 OA
ATOM     78  O   UNL A   1      34.729  31.831  29.388  1.00  0.00    -0.237 OA
ATOM     79  O   UNL A   1      34.253  32.971  31.506  1.00  0.00    -0.744 OA
ENDBRANCH  73  76
ENDBRANCH  45  69
BRANCH  57  80
ATOM     80  C   UNL A   1      44.709  33.589  29.308  1.00  0.00     0.023 A 
ATOM     81  C   UNL A   1      45.450  33.848  30.477  1.00  0.00     0.012 A 
ATOM     82  C   UNL A   1      44.596  34.594  28.325  1.00  0.00     0.148 A 
ATOM     83  C   UNL A   1      46.046  35.093  30.679  1.00  0.00     0.002 A 
ATOM     84  C   UNL A   1      45.232  35.816  28.511  1.00  0.00     0.091 A 
ATOM     85  F   UNL A   1      43.871  34.339  27.227  1.00  0.00    -0.205 F 
ATOM     86  C   UNL A   1      45.949  36.071  29.692  1.00  0.00     0.022 A 
BRANCH  84  87
ATOM     87  S   UNL A   1      45.239  37.093  27.246  1.00  0.00     0.127 S 
ATOM     88  O   UNL A   1      45.949  38.178  27.920  1.00  0.00    -0.237 OA
ATOM     89  O   UNL A   1      45.986  36.458  26.160  1.00  0.00    -0.237 OA
ATOM     90  O   UNL A   1      43.838  37.351  26.939  1.00  0.00    -0.744 OA
ENDBRANCH  84  87
ENDBRANCH  57  80
ENDBRANCH  31  32
ENDBRANCH  24  26
ENDBRANCH  23  24
ENDBRANCH  22  23
ENDBRANCH   1  22
TORSDOF 18
ENDMDL
MODEL 2
REMARK VINA RESULT:     -11.0      1.920      2.491
REMARK SMILES O=C(C[C@@H]1CN(C(=O)NCc2cccs2)CCO1)OCCOC(=O)c1ccc(-c2c3nc(c(-c4cccc(S(=O)(=O)[O-])c4F)c4ccc([nH]4)c(-c4cccc(S(=O)(=O)[O-])c4F)c4nc(c(-c5cccc(S(=O)(=O)[O-])c5F)c5ccc2[nH]5)C=C4)C=C3)cc1
REMARK SMILES IDX 20 1 19 2 2 3 1 4 3 5 4 6 5 7 18 8 6 9 17 10 16 11 7 12 8 13
REMARK SMILES IDX 9 14 10 16 11 17 12 18 15 19 13 20 14 21 21 22 22 23 23 24
REMARK SMILES IDX 24 25 25 26 26 27 87 28 27 29 86 30 28 31 29 32 30 33 80 34
REMARK SMILES IDX 31 35 85 36 79 37 81 38 32 39 84 40 78 41 77 42 33 44 65 45
REMARK SMILES IDX 45 46 64 47 46 48 49 49 63 50 82 51 47 52 48 53 62 55 83 56
REMARK SMILES IDX 50 57 34 58 35 59 43 60 36 61 38 62 44 63 37 64 39 65 40 66
REMARK SMILES IDX 41 67 42 68 66 69 67 70 75 71 68 72 70 73 76 74 69 75 71 76
REMARK SMILES IDX 72 77 73 78 74 79 51 80 52 81 60 82 53 83 55 84 61 85 54 86
REMARK SMILES IDX 56 87 57 88 58 89 59 90
REMARK H PARENT 9 15 81 43 49 54
REMARK Flexibility Score: inf
ROOT
ATOM      1  C   UNL A   1      36.548  20.644  25.001  1.00  0.00     0.274 C 
ENDROOT
BRANCH   1   2
ATOM      2  O   UNL A   1      36.464  22.085  25.065  1.00  0.00    -0.462 OA
BRANCH   2   3
ATOM      3  C   UNL A   1      35.579  22.840  24.377  1.00  0.00     0.308 C 
ATOM      4  O   UNL A   1      35.724  23.019  23.169  1.00  0.00    -0.252 OA
BRANCH   3   5
ATOM      5  C   UNL A   1      34.404  23.446  25.096  1.00  0.00     0.156 C 
BRANCH   5   6
ATOM      6  C   UNL A   1      33.308  23.879  24.145  1.00  0.00     0.149 C 
ATOM      7  C   UNL A   1      32.877  25.328  24.428  1.00  0.00     0.154 C 
ATOM      8  O   UNL A   1      32.171  22.997  24.365  1.00  0.00    -0.374 OA
ATOM      9  N   UNL A   1      31.835  25.655  23.469  1.00  0.00    -0.320 N 
ATOM     10  C   UNL A   1      31.030  23.362  23.559  1.00  0.00     0.182 C 
ATOM     11  C   UNL A   1      30.644  24.841  23.733  1.00  0.00     0.150 C 
BRANCH   9  12
ATOM     12  C   UNL A   1      31.932  26.252  22.251  1.00  0.00     0.317 C 
ATOM     13  O   UNL A   1      32.251  25.606  21.246  1.00  0.00    -0.249 OA
ATOM     14  N   UNL A   1      31.754  27.559  22.027  1.00  0.00    -0.333 N 
ATOM     15  H   UNL A   1      31.878  27.762  21.072  1.00  0.00     0.165 HD
BRANCH  14  16
ATOM     16  C   UNL A   1      31.436  28.767  22.760  1.00  0.00     0.164 C 
BRANCH  16  17
ATOM     17  C   UNL A   1      29.960  29.015  22.662  1.00  0.00     0.024 A 
ATOM     18  C   UNL A   1      28.918  28.250  23.149  1.00  0.00     0.017 A 
ATOM     19  S   UNL A   1      29.379  30.429  21.888  1.00  0.00    -0.147 S 
ATOM     20  C   UNL A   1      27.647  28.863  22.931  1.00  0.00     0.012 A 
ATOM     21  C   UNL A   1      27.760  30.068  22.279  1.00  0.00     0.065 A 
ENDBRANCH  16  17
ENDBRANCH  14  16
ENDBRANCH   9  12
ENDBRANCH   5   6
ENDBRANCH   3   5
ENDBRANCH   2   3
ENDBRANCH   1   2
BRANCH   1  22
ATOM     22  C   UNL A   1      37.990  20.162  25.178  1.00  0.00     0.275 C 
BRANCH  22  23
ATOM     23  O   UNL A   1      38.860  21.287  25.391  1.00  0.00    -0.458 OA
BRANCH  23  24
ATOM     24  C   UNL A   1      39.836  21.123  26.321  1.00  0.00     0.338 C 
ATOM     25  O   UNL A   1      40.457  20.098  26.546  1.00  0.00    -0.246 OA
BRANCH  24  26
ATOM     26  C   UNL A   1      40.193  22.452  26.881  1.00  0.00     0.060 A 
ATOM     27  C   UNL A   1      39.458  23.566  26.454  1.00  0.00     0.016 A 
ATOM     28  C   UNL A   1      41.176  22.603  27.867  1.00  0.00     0.016 A 
ATOM     29  C   UNL A   1      39.733  24.833  26.975  1.00  0.00     0.010 A 
ATOM     30  C   UNL A   1      41.449  23.871  28.389  1.00  0.00     0.010 A 
ATOM     31  C   UNL A   1      40.756  24.998  27.917  1.00  0.00    -0.014 A 
BRANCH  31  32
ATOM     32  C   UNL A   1      41.250  26.360  28.237  1.00  0.00     0.031 A 
ATOM     33  C   UNL A   1      42.670  26.698  27.869  1.00  0.00     0.074 A 
ATOM     34  C   UNL A   1      40.478  27.279  28.845  1.00  0.00     0.049 A 
ATOM     35  N   UNL A   1      43.310  27.831  27.986  1.00  0.00    -0.248 NA
ATOM     36  C   UNL A   1      43.477  25.607  27.296  1.00  0.00     0.031 C 
ATOM     37  C   UNL A   1      39.099  27.080  29.282  1.00  0.00     0.029 A 
ATOM     38  N   UNL A   1      40.766  28.571  29.216  1.00  0.00    -0.354 N 
ATOM     39  C   UNL A   1      44.591  27.590  27.507  1.00  0.00     0.074 A 
ATOM     40  C   UNL A   1      44.650  26.195  27.129  1.00  0.00     0.031 C 
ATOM     41  C   UNL A   1      38.664  28.207  29.878  1.00  0.00     0.029 A 
ATOM     42  C   UNL A   1      39.734  29.205  29.865  1.00  0.00     0.049 A 
ATOM     43  H   UNL A   1      41.632  29.002  29.033  1.00  0.00     0.167 HD
ATOM     44  C   UNL A   1      45.624  28.452  27.366  1.00  0.00     0.034 A 
ATOM     45  C   UNL A   1      39.663  30.449  30.383  1.00  0.00     0.034 A 
ATOM     46  C   UNL A   1      45.576  29.839  27.731  1.00  0.00     0.049 A 
ATOM     47  C   UNL A   1      40.839  31.386  30.237  1.00  0.00     0.074 A 
ATOM     48  C   UNL A   1      46.554  30.805  27.573  1.00  0.00     0.029 A 
ATOM     49  N   UNL A   1      44.499  30.455  28.347  1.00  0.00    -0.354 N 
ATOM     50  N   UNL A   1      41.980  31.194  29.620  1.00  0.00    -0.248 NA
ATOM     51  C   UNL A   1      40.697  32.728  30.826  1.00  0.00     0.031 C 
ATOM     52  C   UNL A   1      46.074  32.004  28.113  1.00  0.00     0.029 A 
ATOM     53  C   UNL A   1      44.791  31.786  28.590  1.00  0.00     0.049 A 
ATOM     54  H   UNL A   1      43.651  30.012  28.577  1.00  0.00     0.167 HD
ATOM     55  C   UNL A   1      42.670  32.401  29.706  1.00  0.00     0.074 A 
ATOM     56  C   UNL A   1      41.813  33.322  30.423  1.00  0.00     0.031 C 
ATOM     57  C   UNL A   1      43.905  32.715  29.243  1.00  0.00     0.034 A 
BRANCH  44  58
ATOM     58  C   UNL A   1      46.884  27.917  26.745  1.00  0.00     0.023 A 
ATOM     59  C   UNL A   1      47.885  27.376  27.575  1.00  0.00     0.012 A 
ATOM     60  C   UNL A   1      47.067  27.927  25.349  1.00  0.00     0.148 A 
ATOM     61  C   UNL A   1      49.068  26.880  27.030  1.00  0.00     0.002 A 
ATOM     62  C   UNL A   1      48.233  27.396  24.810  1.00  0.00     0.091 A 
ATOM     63  F   UNL A   1      46.117  28.476  24.581  1.00  0.00    -0.205 F 
ATOM     64  C   UNL A   1      49.238  26.882  25.647  1.00  0.00     0.022 A 
BRANCH  62  65
ATOM     65  S   UNL A   1      48.510  27.296  23.039  1.00  0.00     0.127 S 
ATOM     66  O   UNL A   1      49.894  27.754  22.930  1.00  0.00    -0.237 OA
ATOM     67  O   UNL A   1      48.317  25.870  22.773  1.00  0.00    -0.237 OA
ATOM     68  O   UNL A   1      47.509  28.163  22.432  1.00  0.00    -0.744 OA
ENDBRANCH  62  65
ENDBRANCH  44  58
BRANCH  45  69
ATOM     69  C   UNL A   1      38.407  30.923  31.031  1.00  0.00     0.023 A 
ATOM     70  C   UNL A   1      38.210  30.685  32.406  1.00  0.00     0.012 A 
ATOM     71  C   UNL A   1      37.404  31.587  30.300  1.00  0.00     0.148 A 
ATOM     72  C   UNL A   1      37.025  31.070  33.033  1.00  0.00     0.002 A 
ATOM     73  C   UNL A   1      36.245  32.009  30.941  1.00  0.00     0.091 A 
ATOM     74  F   UNL A   1      37.601  31.784  28.988  1.00  0.00    -0.205 F 
ATOM     75  C   UNL A   1      36.046  31.738  32.303  1.00  0.00     0.022 A 
BRANCH  73  76
ATOM     76  S   UNL A   1      34.978  32.971  30.105  1.00  0.00     0.127 S 
ATOM     77  O   UNL A   1      35.762  34.062  29.532  1.00  0.00    -0.237 OA
ATOM     78  O   UNL A   1      34.460  32.008  29.134  1.00  0.00    -0.237 OA
ATOM     79  O   UNL A   1      34.028  33.348  31.142  1.00  0.00    -0.744 OA
ENDBRANCH  73  76
ENDBRANCH  45  69
BRANCH  57  80
ATOM     80  C   UNL A   1      44.406  34.121  29.454  1.00  0.00     0.023 A 
ATOM     81  C   UNL A   1      45.159  34.431  30.603  1.00  0.00     0.012 A 
ATOM     82  C   UNL A   1      44.208  35.112  28.470  1.00  0.00     0.148 A 
ATOM     83  C   UNL A   1      45.683  35.712  30.784  1.00  0.00     0.002 A 
ATOM     84  C   UNL A   1      44.772  36.372  28.635  1.00  0.00     0.091 A 
ATOM     85  F   UNL A   1      43.472  34.807  27.391  1.00  0.00    -0.205 F 
ATOM     86  C   UNL A   1      45.501  36.676  29.796  1.00  0.00     0.022 A 
BRANCH  84  87
ATOM     87  S   UNL A   1      44.669  37.640  27.365  1.00  0.00     0.127 S 
ATOM     88  O   UNL A   1      43.308  37.454  26.867  1.00  0.00    -0.237 OA
ATOM     89  O   UNL A   1      44.875  38.871  28.130  1.00  0.00    -0.237 OA
ATOM     90  O   UNL A   1      45.734  37.337  26.418  1.00  0.00    -0.744 OA
ENDBRANCH  84  87
ENDBRANCH  57  80
ENDBRANCH  31  32
ENDBRANCH  24  26
ENDBRANCH  23  24
ENDBRANCH  22  23
ENDBRANCH   1  22
TORSDOF 18
ENDMDL
MODEL 3
REMARK VINA RESULT:     -11.0      1.747      2.634
REMARK SMILES O=C(C[C@@H]1CN(C(=O)NCc2cccs2)CCO1)OCCOC(=O)c1ccc(-c2c3nc(c(-c4cccc(S(=O)(=O)[O-])c4F)c4ccc([nH]4)c(-c4cccc(S(=O)(=O)[O-])c4F)c4nc(c(-c5cccc(S(=O)(=O)[O-])c5F)c5ccc2[nH]5)C=C4)C=C3)cc1
REMARK SMILES IDX 20 1 19 2 2 3 1 4 3 5 4 6 5 7 18 8 6 9 17 10 16 11 7 12 8 13
REMARK SMILES IDX 9 14 10 16 11 17 12 18 15 19 13 20 14 21 21 22 22 23 23 24
REMARK SMILES IDX 24 25 25 26 26 27 87 28 27 29 86 30 28 31 29 32 30 33 80 34
REMARK SMILES IDX 31 35 85 36 79 37 81 38 32 39 84 40 78 41 77 42 33 44 65 45
REMARK SMILES IDX 45 46 64 47 46 48 49 49 63 50 82 51 47 52 48 53 62 55 83 56
REMARK SMILES IDX 50 57 34 58 35 59 43 60 36 61 38 62 44 63 37 64 39 65 40 66
REMARK SMILES IDX 41 67 42 68 66 69 67 70 75 71 68 72 70 73 76 74 69 75 71 76
REMARK SMILES IDX 72 77 73 78 74 79 51 80 52 81 60 82 53 83 55 84 61 85 54 86
REMARK SMILES IDX 56 87 57 88 58 89 59 90
REMARK H PARENT 9 15 81 43 49 54
REMARK Flexibility Score: inf
ROOT
ATOM      1  C   UNL A   1      35.855  20.959  25.665  1.00  0.00     0.274 C 
ENDROOT
BRANCH   1   2
ATOM      2  O   UNL A   1      35.448  22.238  25.130  1.00  0.00    -0.462 OA
BRANCH   2   3
ATOM      3  C   UNL A   1      35.004  23.279  25.868  1.00  0.00     0.308 C 
ATOM      4  O   UNL A   1      34.444  23.081  26.945  1.00  0.00    -0.252 OA
BRANCH   3   5
ATOM      5  C   UNL A   1      35.215  24.684  25.372  1.00  0.00     0.156 C 
BRANCH   5   6
ATOM      6  C   UNL A   1      33.955  25.280  24.780  1.00  0.00     0.149 C 
ATOM      7  C   UNL A   1      34.204  25.769  23.343  1.00  0.00     0.154 C 
ATOM      8  O   UNL A   1      33.586  26.420  25.607  1.00  0.00    -0.374 OA
ATOM      9  N   UNL A   1      32.947  26.313  22.857  1.00  0.00    -0.320 N 
ATOM     10  C   UNL A   1      32.431  27.118  25.094  1.00  0.00     0.182 C 
ATOM     11  C   UNL A   1      32.603  27.519  23.619  1.00  0.00     0.150 C 
BRANCH   9  12
ATOM     12  C   UNL A   1      31.954  25.712  22.149  1.00  0.00     0.317 C 
ATOM     13  O   UNL A   1      31.806  25.933  20.941  1.00  0.00    -0.249 OA
ATOM     14  N   UNL A   1      31.034  24.894  22.672  1.00  0.00    -0.333 N 
ATOM     15  H   UNL A   1      30.415  24.583  21.971  1.00  0.00     0.165 HD
BRANCH  14  16
ATOM     16  C   UNL A   1      30.667  24.326  23.953  1.00  0.00     0.164 C 
BRANCH  16  17
ATOM     17  C   UNL A   1      31.303  22.973  24.079  1.00  0.00     0.024 A 
ATOM     18  C   UNL A   1      31.994  22.248  23.128  1.00  0.00     0.017 A 
ATOM     19  S   UNL A   1      31.251  22.139  25.575  1.00  0.00    -0.147 S 
ATOM     20  C   UNL A   1      32.527  21.033  23.653  1.00  0.00     0.012 A 
ATOM     21  C   UNL A   1      32.218  20.866  24.983  1.00  0.00     0.065 A 
ENDBRANCH  16  17
ENDBRANCH  14  16
ENDBRANCH   9  12
ENDBRANCH   5   6
ENDBRANCH   3   5
ENDBRANCH   2   3
ENDBRANCH   1   2
BRANCH   1  22
ATOM     22  C   UNL A   1      37.139  20.459  24.998  1.00  0.00     0.275 C 
BRANCH  22  23
ATOM     23  O   UNL A   1      38.169  21.457  25.110  1.00  0.00    -0.458 OA
BRANCH  23  24
ATOM     24  C   UNL A   1      39.179  21.182  25.974  1.00  0.00     0.338 C 
ATOM     25  O   UNL A   1      39.740  20.108  26.115  1.00  0.00    -0.246 OA
BRANCH  24  26
ATOM     26  C   UNL A   1      39.656  22.454  26.577  1.00  0.00     0.060 A 
ATOM     27  C   UNL A   1      38.926  23.621  26.313  1.00  0.00     0.016 A 
ATOM     28  C   UNL A   1      40.749  22.499  27.451  1.00  0.00     0.016 A 
ATOM     29  C   UNL A   1      39.314  24.837  26.882  1.00  0.00     0.010 A 
ATOM     30  C   UNL A   1      41.134  23.716  28.022  1.00  0.00     0.010 A 
ATOM     31  C   UNL A   1      40.443  24.898  27.708  1.00  0.00    -0.014 A 
BRANCH  31  32
ATOM     32  C   UNL A   1      41.029  26.215  28.060  1.00  0.00     0.031 A 
ATOM     33  C   UNL A   1      42.455  26.480  27.657  1.00  0.00     0.074 A 
ATOM     34  C   UNL A   1      40.334  27.156  28.724  1.00  0.00     0.049 A 
ATOM     35  N   UNL A   1      43.167  27.567  27.793  1.00  0.00    -0.248 NA
ATOM     36  C   UNL A   1      43.175  25.363  27.021  1.00  0.00     0.031 C 
ATOM     37  C   UNL A   1      38.959  27.025  29.199  1.00  0.00     0.029 A 
ATOM     38  N   UNL A   1      40.712  28.414  29.130  1.00  0.00    -0.354 N 
ATOM     39  C   UNL A   1      44.416  27.267  27.265  1.00  0.00     0.074 A 
ATOM     40  C   UNL A   1      44.377  25.885  26.836  1.00  0.00     0.031 C 
ATOM     41  C   UNL A   1      38.613  28.153  29.847  1.00  0.00     0.029 A 
ATOM     42  C   UNL A   1      39.741  29.085  29.835  1.00  0.00     0.049 A 
ATOM     43  H   UNL A   1      41.597  28.798  28.934  1.00  0.00     0.167 HD
ATOM     44  C   UNL A   1      45.495  28.069  27.120  1.00  0.00     0.034 A 
ATOM     45  C   UNL A   1      39.762  30.310  30.397  1.00  0.00     0.034 A 
ATOM     46  C   UNL A   1      45.544  29.442  27.535  1.00  0.00     0.049 A 
ATOM     47  C   UNL A   1      40.989  31.180  30.246  1.00  0.00     0.074 A 
ATOM     48  C   UNL A   1      46.574  30.352  27.378  1.00  0.00     0.029 A 
ATOM     49  N   UNL A   1      44.526  30.100  28.206  1.00  0.00    -0.354 N 
ATOM     50  N   UNL A   1      42.097  30.942  29.585  1.00  0.00    -0.248 NA
ATOM     51  C   UNL A   1      40.948  32.505  30.886  1.00  0.00     0.031 C 
ATOM     52  C   UNL A   1      46.185  31.557  27.975  1.00  0.00     0.029 A 
ATOM     53  C   UNL A   1      44.906  31.400  28.486  1.00  0.00     0.049 A 
ATOM     54  H   UNL A   1      43.659  29.700  28.448  1.00  0.00     0.167 HD
ATOM     55  C   UNL A   1      42.862  32.101  29.691  1.00  0.00     0.074 A 
ATOM     56  C   UNL A   1      42.085  33.045  30.467  1.00  0.00     0.031 C 
ATOM     57  C   UNL A   1      44.100  32.357  29.199  1.00  0.00     0.034 A 
BRANCH  44  58
ATOM     58  C   UNL A   1      46.700  27.482  26.440  1.00  0.00     0.023 A 
ATOM     59  C   UNL A   1      47.536  26.604  27.157  1.00  0.00     0.012 A 
ATOM     60  C   UNL A   1      46.992  27.778  25.095  1.00  0.00     0.148 A 
ATOM     61  C   UNL A   1      48.665  26.050  26.557  1.00  0.00     0.002 A 
ATOM     62  C   UNL A   1      48.099  27.192  24.492  1.00  0.00     0.091 A 
ATOM     63  F   UNL A   1      46.203  28.641  24.442  1.00  0.00    -0.205 F 
ATOM     64  C   UNL A   1      48.941  26.337  25.222  1.00  0.00     0.022 A 
BRANCH  62  65
ATOM     65  S   UNL A   1      48.495  27.452  22.760  1.00  0.00     0.127 S 
ATOM     66  O   UNL A   1      48.569  26.079  22.265  1.00  0.00    -0.237 OA
ATOM     67  O   UNL A   1      47.336  28.210  22.286  1.00  0.00    -0.237 OA
ATOM     68  O   UNL A   1      49.748  28.195  22.747  1.00  0.00    -0.744 OA
ENDBRANCH  62  65
ENDBRANCH  44  58
BRANCH  45  69
ATOM     69  C   UNL A   1      38.558  30.836  31.102  1.00  0.00     0.023 A 
ATOM     70  C   UNL A   1      38.450  30.668  32.497  1.00  0.00     0.012 A 
ATOM     71  C   UNL A   1      37.518  31.478  30.406  1.00  0.00     0.148 A 
ATOM     72  C   UNL A   1      37.314  31.101  33.181  1.00  0.00     0.002 A 
ATOM     73  C   UNL A   1      36.408  31.950  31.100  1.00  0.00     0.091 A 
ATOM     74  F   UNL A   1      37.629  31.608  29.076  1.00  0.00    -0.205 F 
ATOM     75  C   UNL A   1      36.297  31.748  32.484  1.00  0.00     0.022 A 
BRANCH  73  76
ATOM     76  S   UNL A   1      35.101  32.889  30.302  1.00  0.00     0.127 S 
ATOM     77  O   UNL A   1      35.842  34.019  29.749  1.00  0.00    -0.237 OA
ATOM     78  O   UNL A   1      34.604  31.934  29.312  1.00  0.00    -0.237 OA
ATOM     79  O   UNL A   1      34.151  33.208  31.358  1.00  0.00    -0.744 OA
ENDBRANCH  73  76
ENDBRANCH  45  69
BRANCH  57  80
ATOM     80  C   UNL A   1      44.692  33.721  29.442  1.00  0.00     0.023 A 
ATOM     81  C   UNL A   1      45.420  33.968  30.622  1.00  0.00     0.012 A 
ATOM     82  C   UNL A   1      44.604  34.730  28.461  1.00  0.00     0.148 A 
ATOM     83  C   UNL A   1      46.028  35.206  30.836  1.00  0.00     0.002 A 
ATOM     84  C   UNL A   1      45.251  35.945  28.660  1.00  0.00     0.091 A 
ATOM     85  F   UNL A   1      43.890  34.487  27.353  1.00  0.00    -0.205 F 
ATOM     86  C   UNL A   1      45.955  36.188  29.851  1.00  0.00     0.022 A 
BRANCH  84  87
ATOM     87  S   UNL A   1      45.289  37.225  27.399  1.00  0.00     0.127 S 
ATOM     88  O   UNL A   1      46.082  36.588  26.350  1.00  0.00    -0.237 OA
ATOM     89  O   UNL A   1      43.871  37.392  27.075  1.00  0.00    -0.237 OA
ATOM     90  O   UNL A   1      45.899  38.386  28.034  1.00  0.00    -0.744 OA
ENDBRANCH  84  87
ENDBRANCH  57  80
ENDBRANCH  31  32
ENDBRANCH  24  26
ENDBRANCH  23  24
ENDBRANCH  22  23
ENDBRANCH   1  22
TORSDOF 18
ENDMDL
