MODEL 1
REMARK VINA RESULT:     -11.4      0.000      0.000
REMARK SMILES Cc1[nH]c(=O)n(C)c(=O)c1CC(=O)OCCOC(=O)c1ccc(-c2c3nc(c(-c4cccc(S(=O)(=O)[O-])c4F)c4ccc([nH]4)c(-c4cccc(S(=O)(=O)[O-])c4F)c4nc(c(-c5cccc(S(=O)(=O)[O-])c5F)c5ccc2[nH]5)C=C4)C=C3)cc1
REMARK SMILES IDX 16 1 15 2 14 3 12 4 13 5 11 6 10 7 1 8 2 9 3 10 4 11 8 13
REMARK SMILES IDX 5 14 6 15 9 16 7 17 17 18 18 19 19 20 20 21 21 22 82 23
REMARK SMILES IDX 22 24 81 25 23 26 24 27 25 28 75 29 26 30 80 31 74 32 76 33
REMARK SMILES IDX 27 34 79 35 73 36 72 37 28 39 60 40 40 41 59 42 41 43 44 44
REMARK SMILES IDX 58 45 77 46 42 47 43 48 57 50 78 51 45 52 29 53 30 54 38 55
REMARK SMILES IDX 31 56 33 57 39 58 32 59 34 60 35 61 36 62 37 63 61 64 62 65
REMARK SMILES IDX 70 66 63 67 65 68 71 69 64 70 66 71 67 72 68 73 69 74 46 75
REMARK SMILES IDX 47 76 55 77 48 78 50 79 56 80 49 81 51 82 52 83 53 84 54 85
REMARK H PARENT 3 12 76 38 44 49
REMARK Flexibility Score: inf
ROOT
ATOM      1  C   UNL A   1      31.699  29.791  25.947  1.00  0.00     0.275 C 
ENDROOT
BRANCH   1   2
ATOM      2  C   UNL A   1      31.741  28.579  26.873  1.00  0.00     0.274 C 
BRANCH   2   3
ATOM      3  O   UNL A   1      32.311  27.438  26.197  1.00  0.00    -0.462 OA
BRANCH   3   4
ATOM      4  C   UNL A   1      31.417  26.508  25.762  1.00  0.00     0.310 C 
ATOM      5  O   UNL A   1      30.702  25.834  26.498  1.00  0.00    -0.252 OA
BRANCH   4   6
ATOM      6  C   UNL A   1      31.406  26.312  24.255  1.00  0.00     0.165 C 
BRANCH   6   7
ATOM      7  C   UNL A   1      30.886  27.470  23.449  1.00  0.00     0.048 A 
ATOM      8  C   UNL A   1      33.135  28.263  22.675  1.00  0.00     0.065 C 
ATOM      9  C   UNL A   1      31.638  28.342  22.758  1.00  0.00     0.026 A 
ATOM     10  N   UNL A   1      31.039  29.367  22.080  1.00  0.00    -0.311 N 
ATOM     11  C   UNL A   1      29.696  29.624  22.064  1.00  0.00     0.328 A 
ATOM     12  H   UNL A   1      31.621  29.967  21.559  1.00  0.00     0.171 HD
ATOM     13  C   UNL A   1      29.403  27.605  23.374  1.00  0.00     0.259 A 
ATOM     14  O   UNL A   1      29.274  30.594  21.436  1.00  0.00    -0.248 OA
ATOM     15  N   UNL A   1      28.905  28.738  22.766  1.00  0.00    -0.263 N 
ATOM     16  O   UNL A   1      28.704  26.700  23.821  1.00  0.00    -0.269 OA
ATOM     17  C   UNL A   1      27.472  28.959  22.758  1.00  0.00     0.158 C 
ENDBRANCH   6   7
ENDBRANCH   4   6
ENDBRANCH   3   4
ENDBRANCH   2   3
ENDBRANCH   1   2
BRANCH   1  18
ATOM     18  O   UNL A   1      32.990  30.416  25.928  1.00  0.00    -0.458 OA
BRANCH  18  19
ATOM     19  C   UNL A   1      33.234  31.294  26.931  1.00  0.00     0.338 C 
ATOM     20  O   UNL A   1      32.547  32.248  27.257  1.00  0.00    -0.246 OA
BRANCH  19  21
ATOM     21  C   UNL A   1      34.525  30.957  27.557  1.00  0.00     0.060 A 
ATOM     22  C   UNL A   1      34.845  29.631  27.859  1.00  0.00     0.016 A 
ATOM     23  C   UNL A   1      35.390  31.988  27.920  1.00  0.00     0.016 A 
ATOM     24  C   UNL A   1      35.993  29.338  28.592  1.00  0.00     0.010 A 
ATOM     25  C   UNL A   1      36.583  31.685  28.581  1.00  0.00     0.010 A 
ATOM     26  C   UNL A   1      36.878  30.361  28.953  1.00  0.00    -0.014 A 
BRANCH  26  27
ATOM     27  C   UNL A   1      38.101  30.061  29.743  1.00  0.00     0.031 A 
ATOM     28  C   UNL A   1      39.145  29.130  29.186  1.00  0.00     0.074 A 
ATOM     29  C   UNL A   1      38.261  30.602  30.966  1.00  0.00     0.049 A 
ATOM     30  N   UNL A   1      40.205  28.637  29.772  1.00  0.00    -0.248 NA
ATOM     31  C   UNL A   1      38.970  28.685  27.792  1.00  0.00     0.031 C 
ATOM     32  C   UNL A   1      37.327  31.528  31.609  1.00  0.00     0.029 A 
ATOM     33  N   UNL A   1      39.258  30.438  31.896  1.00  0.00    -0.354 N 
ATOM     34  C   UNL A   1      40.793  27.788  28.843  1.00  0.00     0.074 A 
ATOM     35  C   UNL A   1      39.974  27.828  27.651  1.00  0.00     0.031 C 
ATOM     36  C   UNL A   1      37.794  31.849  32.826  1.00  0.00     0.029 A 
ATOM     37  C   UNL A   1      39.027  31.110  33.074  1.00  0.00     0.049 A 
ATOM     38  H   UNL A   1      40.061  29.891  31.735  1.00  0.00     0.167 HD
ATOM     39  C   UNL A   1      41.925  27.056  28.967  1.00  0.00     0.034 A 
ATOM     40  C   UNL A   1      39.712  31.109  34.235  1.00  0.00     0.034 A 
ATOM     41  C   UNL A   1      42.773  27.070  30.128  1.00  0.00     0.049 A 
ATOM     42  C   UNL A   1      40.962  30.277  34.344  1.00  0.00     0.074 A 
ATOM     43  C   UNL A   1      43.966  26.399  30.325  1.00  0.00     0.029 A 
ATOM     44  N   UNL A   1      42.525  27.796  31.283  1.00  0.00    -0.354 N 
ATOM     45  N   UNL A   1      41.546  29.544  33.428  1.00  0.00    -0.248 NA
ATOM     46  C   UNL A   1      41.656  30.284  35.640  1.00  0.00     0.031 C 
ATOM     47  C   UNL A   1      44.434  26.707  31.604  1.00  0.00     0.029 A 
ATOM     48  C   UNL A   1      43.540  27.583  32.199  1.00  0.00     0.049 A 
ATOM     49  H   UNL A   1      41.743  28.376  31.429  1.00  0.00     0.167 HD
ATOM     50  C   UNL A   1      42.684  29.018  34.028  1.00  0.00     0.074 A 
ATOM     51  C   UNL A   1      42.725  29.543  35.378  1.00  0.00     0.031 C 
ATOM     52  C   UNL A   1      43.598  28.157  33.518  1.00  0.00     0.034 A 
BRANCH  39  53
ATOM     53  C   UNL A   1      42.359  26.206  27.801  1.00  0.00     0.023 A 
ATOM     54  C   UNL A   1      43.302  26.716  26.888  1.00  0.00     0.012 A 
ATOM     55  C   UNL A   1      41.927  24.870  27.682  1.00  0.00     0.148 A 
ATOM     56  C   UNL A   1      43.804  25.911  25.866  1.00  0.00     0.002 A 
ATOM     57  C   UNL A   1      42.462  24.062  26.685  1.00  0.00     0.091 A 
ATOM     58  F   UNL A   1      41.019  24.412  28.554  1.00  0.00    -0.205 F 
ATOM     59  C   UNL A   1      43.395  24.583  25.772  1.00  0.00     0.022 A 
BRANCH  57  60
ATOM     60  S   UNL A   1      42.064  22.318  26.525  1.00  0.00     0.127 S 
ATOM     61  O   UNL A   1      42.502  21.794  27.819  1.00  0.00    -0.237 OA
ATOM     62  O   UNL A   1      40.614  22.350  26.339  1.00  0.00    -0.237 OA
ATOM     63  O   UNL A   1      42.818  21.834  25.376  1.00  0.00    -0.744 OA
ENDBRANCH  57  60
ENDBRANCH  39  53
BRANCH  40  64
ATOM     64  C   UNL A   1      39.246  31.950  35.375  1.00  0.00     0.023 A 
ATOM     65  C   UNL A   1      38.373  31.392  36.329  1.00  0.00     0.012 A 
ATOM     66  C   UNL A   1      39.690  33.276  35.544  1.00  0.00     0.148 A 
ATOM     67  C   UNL A   1      37.934  32.146  37.418  1.00  0.00     0.002 A 
ATOM     68  C   UNL A   1      39.298  34.001  36.664  1.00  0.00     0.091 A 
ATOM     69  F   UNL A   1      40.498  33.802  34.614  1.00  0.00    -0.205 F 
ATOM     70  C   UNL A   1      38.407  33.444  37.594  1.00  0.00     0.022 A 
BRANCH  68  71
ATOM     71  S   UNL A   1      39.978  35.622  37.038  1.00  0.00     0.127 S 
ATOM     72  O   UNL A   1      39.289  35.957  38.281  1.00  0.00    -0.237 OA
ATOM     73  O   UNL A   1      41.405  35.330  37.184  1.00  0.00    -0.237 OA
ATOM     74  O   UNL A   1      39.656  36.451  35.885  1.00  0.00    -0.744 OA
ENDBRANCH  68  71
ENDBRANCH  40  64
BRANCH  52  75
ATOM     75  C   UNL A   1      44.733  27.723  34.407  1.00  0.00     0.023 A 
ATOM     76  C   UNL A   1      45.895  28.516  34.477  1.00  0.00     0.012 A 
ATOM     77  C   UNL A   1      44.604  26.604  35.254  1.00  0.00     0.148 A 
ATOM     78  C   UNL A   1      46.920  28.193  35.365  1.00  0.00     0.002 A 
ATOM     79  C   UNL A   1      45.609  26.315  36.170  1.00  0.00     0.091 A 
ATOM     80  F   UNL A   1      43.497  25.854  35.159  1.00  0.00    -0.205 F 
ATOM     81  C   UNL A   1      46.771  27.104  36.221  1.00  0.00     0.022 A 
BRANCH  79  82
ATOM     82  S   UNL A   1      45.462  24.994  37.378  1.00  0.00     0.127 S 
ATOM     83  O   UNL A   1      46.727  25.110  38.102  1.00  0.00    -0.237 OA
ATOM     84  O   UNL A   1      44.283  25.402  38.144  1.00  0.00    -0.237 OA
ATOM     85  O   UNL A   1      45.290  23.768  36.613  1.00  0.00    -0.744 OA
ENDBRANCH  79  82
ENDBRANCH  52  75
ENDBRANCH  26  27
ENDBRANCH  19  21
ENDBRANCH  18  19
ENDBRANCH   1  18
TORSDOF 15
ENDMDL
MODEL 2
REMARK VINA RESULT:     -11.2      1.887      2.346
REMARK SMILES Cc1[nH]c(=O)n(C)c(=O)c1CC(=O)OCCOC(=O)c1ccc(-c2c3nc(c(-c4cccc(S(=O)(=O)[O-])c4F)c4ccc([nH]4)c(-c4cccc(S(=O)(=O)[O-])c4F)c4nc(c(-c5cccc(S(=O)(=O)[O-])c5F)c5ccc2[nH]5)C=C4)C=C3)cc1
REMARK SMILES IDX 16 1 15 2 14 3 12 4 13 5 11 6 10 7 1 8 2 9 3 10 4 11 8 13
REMARK SMILES IDX 5 14 6 15 9 16 7 17 17 18 18 19 19 20 20 21 21 22 82 23
REMARK SMILES IDX 22 24 81 25 23 26 24 27 25 28 75 29 26 30 80 31 74 32 76 33
REMARK SMILES IDX 27 34 79 35 73 36 72 37 28 39 60 40 40 41 59 42 41 43 44 44
REMARK SMILES IDX 58 45 77 46 42 47 43 48 57 50 78 51 45 52 29 53 30 54 38 55
REMARK SMILES IDX 31 56 33 57 39 58 32 59 34 60 35 61 36 62 37 63 61 64 62 65
REMARK SMILES IDX 70 66 63 67 65 68 71 69 64 70 66 71 67 72 68 73 69 74 46 75
REMARK SMILES IDX 47 76 55 77 48 78 50 79 56 80 49 81 51 82 52 83 53 84 54 85
REMARK H PARENT 3 12 76 38 44 49
REMARK Flexibility Score: inf
ROOT
ATOM      1  C   UNL A   1      31.669  30.265  26.621  1.00  0.00     0.275 C 
ENDROOT
BRANCH   1   2
ATOM      2  C   UNL A   1      31.774  28.866  27.224  1.00  0.00     0.274 C 
BRANCH   2   3
ATOM      3  O   UNL A   1      31.229  27.879  26.324  1.00  0.00    -0.462 OA
BRANCH   3   4
ATOM      4  C   UNL A   1      31.896  26.693  26.281  1.00  0.00     0.310 C 
ATOM      5  O   UNL A   1      31.504  25.655  26.804  1.00  0.00    -0.252 OA
BRANCH   4   6
ATOM      6  C   UNL A   1      33.236  26.759  25.565  1.00  0.00     0.165 C 
BRANCH   6   7
ATOM      7  C   UNL A   1      33.203  26.478  24.089  1.00  0.00     0.048 A 
ATOM      8  C   UNL A   1      33.048  28.879  23.384  1.00  0.00     0.065 C 
ATOM      9  C   UNL A   1      33.110  27.402  23.120  1.00  0.00     0.026 A 
ATOM     10  N   UNL A   1      33.070  27.012  21.810  1.00  0.00    -0.311 N 
ATOM     11  C   UNL A   1      33.080  25.715  21.373  1.00  0.00     0.328 A 
ATOM     12  H   UNL A   1      33.033  27.720  21.126  1.00  0.00     0.171 HD
ATOM     13  C   UNL A   1      33.352  25.050  23.688  1.00  0.00     0.259 A 
ATOM     14  O   UNL A   1      33.014  25.485  20.167  1.00  0.00    -0.248 OA
ATOM     15  N   UNL A   1      33.178  24.750  22.353  1.00  0.00    -0.263 N 
ATOM     16  O   UNL A   1      33.649  24.223  24.546  1.00  0.00    -0.269 OA
ATOM     17  C   UNL A   1      33.216  23.362  21.934  1.00  0.00     0.158 C 
ENDBRANCH   6   7
ENDBRANCH   4   6
ENDBRANCH   3   4
ENDBRANCH   2   3
ENDBRANCH   1   2
BRANCH   1  18
ATOM     18  O   UNL A   1      32.987  30.768  26.361  1.00  0.00    -0.458 OA
BRANCH  18  19
ATOM     19  C   UNL A   1      33.425  31.734  27.204  1.00  0.00     0.338 C 
ATOM     20  O   UNL A   1      32.875  32.793  27.457  1.00  0.00    -0.246 OA
BRANCH  19  21
ATOM     21  C   UNL A   1      34.737  31.337  27.746  1.00  0.00     0.060 A 
ATOM     22  C   UNL A   1      34.994  30.006  28.085  1.00  0.00     0.016 A 
ATOM     23  C   UNL A   1      35.692  32.322  27.993  1.00  0.00     0.016 A 
ATOM     24  C   UNL A   1      36.174  29.667  28.742  1.00  0.00     0.010 A 
ATOM     25  C   UNL A   1      36.911  31.966  28.577  1.00  0.00     0.010 A 
ATOM     26  C   UNL A   1      37.149  30.643  28.987  1.00  0.00    -0.014 A 
BRANCH  26  27
ATOM     27  C   UNL A   1      38.408  30.293  29.695  1.00  0.00     0.031 A 
ATOM     28  C   UNL A   1      39.389  29.345  29.059  1.00  0.00     0.074 A 
ATOM     29  C   UNL A   1      38.657  30.806  30.916  1.00  0.00     0.049 A 
ATOM     30  N   UNL A   1      40.469  28.812  29.571  1.00  0.00    -0.248 NA
ATOM     31  C   UNL A   1      39.119  28.933  27.671  1.00  0.00     0.031 C 
ATOM     32  C   UNL A   1      37.790  31.744  31.631  1.00  0.00     0.029 A 
ATOM     33  N   UNL A   1      39.703  30.597  31.780  1.00  0.00    -0.354 N 
ATOM     34  C   UNL A   1      40.975  27.966  28.592  1.00  0.00     0.074 A 
ATOM     35  C   UNL A   1      40.087  28.052  27.454  1.00  0.00     0.031 C 
ATOM     36  C   UNL A   1      38.338  32.028  32.823  1.00  0.00     0.029 A 
ATOM     37  C   UNL A   1      39.563  31.251  32.982  1.00  0.00     0.049 A 
ATOM     38  H   UNL A   1      40.479  30.031  31.561  1.00  0.00     0.167 HD
ATOM     39  C   UNL A   1      42.091  27.201  28.634  1.00  0.00     0.034 A 
ATOM     40  C   UNL A   1      40.316  31.208  34.099  1.00  0.00     0.034 A 
ATOM     41  C   UNL A   1      43.007  27.169  29.742  1.00  0.00     0.049 A 
ATOM     42  C   UNL A   1      41.546  30.341  34.117  1.00  0.00     0.074 A 
ATOM     43  C   UNL A   1      44.191  26.462  29.853  1.00  0.00     0.029 A 
ATOM     44  N   UNL A   1      42.850  27.878  30.922  1.00  0.00    -0.354 N 
ATOM     45  N   UNL A   1      42.053  29.610  33.154  1.00  0.00    -0.248 NA
ATOM     46  C   UNL A   1      42.317  30.303  35.368  1.00  0.00     0.031 C 
ATOM     47  C   UNL A   1      44.744  26.732  31.108  1.00  0.00     0.029 A 
ATOM     48  C   UNL A   1      43.912  27.620  31.771  1.00  0.00     0.049 A 
ATOM     49  H   UNL A   1      42.096  28.477  31.126  1.00  0.00     0.167 HD
ATOM     50  C   UNL A   1      43.209  29.042  33.675  1.00  0.00     0.074 A 
ATOM     51  C   UNL A   1      43.347  29.539  35.028  1.00  0.00     0.031 C 
ATOM     52  C   UNL A   1      44.067  28.166  33.095  1.00  0.00     0.034 A 
BRANCH  39  53
ATOM     53  C   UNL A   1      42.430  26.363  27.429  1.00  0.00     0.023 A 
ATOM     54  C   UNL A   1      43.223  26.915  26.405  1.00  0.00     0.012 A 
ATOM     55  C   UNL A   1      42.067  25.003  27.371  1.00  0.00     0.148 A 
ATOM     56  C   UNL A   1      43.644  26.127  25.334  1.00  0.00     0.002 A 
ATOM     57  C   UNL A   1      42.523  24.214  26.321  1.00  0.00     0.091 A 
ATOM     58  F   UNL A   1      41.299  24.504  28.350  1.00  0.00    -0.205 F 
ATOM     59  C   UNL A   1      43.306  24.777  25.298  1.00  0.00     0.022 A 
BRANCH  57  60
ATOM     60  S   UNL A   1      42.213  22.448  26.220  1.00  0.00     0.127 S 
ATOM     61  O   UNL A   1      40.750  22.404  26.205  1.00  0.00    -0.237 OA
ATOM     62  O   UNL A   1      42.846  22.097  24.949  1.00  0.00    -0.237 OA
ATOM     63  O   UNL A   1      42.836  21.859  27.398  1.00  0.00    -0.744 OA
ENDBRANCH  57  60
ENDBRANCH  39  53
BRANCH  40  64
ATOM     64  C   UNL A   1      39.943  32.039  35.280  1.00  0.00     0.023 A 
ATOM     65  C   UNL A   1      40.441  33.352  35.382  1.00  0.00     0.012 A 
ATOM     66  C   UNL A   1      39.070  31.558  36.275  1.00  0.00     0.148 A 
ATOM     67  C   UNL A   1      40.095  34.162  36.464  1.00  0.00     0.002 A 
ATOM     68  C   UNL A   1      38.680  32.391  37.318  1.00  0.00     0.091 A 
ATOM     69  F   UNL A   1      38.625  30.297  36.178  1.00  0.00    -0.205 F 
ATOM     70  C   UNL A   1      39.204  33.689  37.423  1.00  0.00     0.022 A 
BRANCH  68  71
ATOM     71  S   UNL A   1      37.424  31.906  38.509  1.00  0.00     0.127 S 
ATOM     72  O   UNL A   1      38.128  32.085  39.776  1.00  0.00    -0.237 OA
ATOM     73  O   UNL A   1      36.363  32.881  38.251  1.00  0.00    -0.237 OA
ATOM     74  O   UNL A   1      37.071  30.536  38.161  1.00  0.00    -0.744 OA
ENDBRANCH  68  71
ENDBRANCH  40  64
BRANCH  52  75
ATOM     75  C   UNL A   1      45.240  27.684  33.904  1.00  0.00     0.023 A 
ATOM     76  C   UNL A   1      46.441  28.421  33.883  1.00  0.00     0.012 A 
ATOM     77  C   UNL A   1      45.118  26.579  34.771  1.00  0.00     0.148 A 
ATOM     78  C   UNL A   1      47.510  28.054  34.699  1.00  0.00     0.002 A 
ATOM     79  C   UNL A   1      46.172  26.248  35.615  1.00  0.00     0.091 A 
ATOM     80  F   UNL A   1      43.972  25.883  34.763  1.00  0.00    -0.205 F 
ATOM     81  C   UNL A   1      47.371  26.979  35.575  1.00  0.00     0.022 A 
BRANCH  79  82
ATOM     82  S   UNL A   1      46.048  24.945  36.845  1.00  0.00     0.127 S 
ATOM     83  O   UNL A   1      47.330  25.066  37.538  1.00  0.00    -0.237 OA
ATOM     84  O   UNL A   1      44.888  25.366  37.632  1.00  0.00    -0.237 OA
ATOM     85  O   UNL A   1      45.855  23.708  36.101  1.00  0.00    -0.744 OA
ENDBRANCH  79  82
ENDBRANCH  52  75
ENDBRANCH  26  27
ENDBRANCH  19  21
ENDBRANCH  18  19
ENDBRANCH   1  18
TORSDOF 15
ENDMDL
MODEL 3
REMARK VINA RESULT:     -10.9      5.463     10.219
REMARK SMILES Cc1[nH]c(=O)n(C)c(=O)c1CC(=O)OCCOC(=O)c1ccc(-c2c3nc(c(-c4cccc(S(=O)(=O)[O-])c4F)c4ccc([nH]4)c(-c4cccc(S(=O)(=O)[O-])c4F)c4nc(c(-c5cccc(S(=O)(=O)[O-])c5F)c5ccc2[nH]5)C=C4)C=C3)cc1
REMARK SMILES IDX 16 1 15 2 14 3 12 4 13 5 11 6 10 7 1 8 2 9 3 10 4 11 8 13
REMARK SMILES IDX 5 14 6 15 9 16 7 17 17 18 18 19 19 20 20 21 21 22 82 23
REMARK SMILES IDX 22 24 81 25 23 26 24 27 25 28 75 29 26 30 80 31 74 32 76 33
REMARK SMILES IDX 27 34 79 35 73 36 72 37 28 39 60 40 40 41 59 42 41 43 44 44
REMARK SMILES IDX 58 45 77 46 42 47 43 48 57 50 78 51 45 52 29 53 30 54 38 55
REMARK SMILES IDX 31 56 33 57 39 58 32 59 34 60 35 61 36 62 37 63 61 64 62 65
REMARK SMILES IDX 70 66 63 67 65 68 71 69 64 70 66 71 67 72 68 73 69 74 46 75
REMARK SMILES IDX 47 76 55 77 48 78 50 79 56 80 49 81 51 82 52 83 53 84 54 85
REMARK H PARENT 3 12 76 38 44 49
REMARK Flexibility Score: inf
ROOT
ATOM      1  C   UNL A   1      36.449  20.385  25.029  1.00  0.00     0.275 C 
ENDROOT
BRANCH   1   2
ATOM      2  C   UNL A   1      35.099  21.041  25.308  1.00  0.00     0.274 C 
BRANCH   2   3
ATOM      3  O   UNL A   1      35.276  22.337  25.918  1.00  0.00    -0.462 OA
BRANCH   3   4
ATOM      4  C   UNL A   1      34.378  23.288  25.542  1.00  0.00     0.310 C 
ATOM      5  O   UNL A   1      33.266  23.431  26.041  1.00  0.00    -0.252 OA
BRANCH   4   6
ATOM      6  C   UNL A   1      34.840  24.156  24.383  1.00  0.00     0.165 C 
BRANCH   6   7
ATOM      7  C   UNL A   1      33.752  24.855  23.615  1.00  0.00     0.048 A 
ATOM      8  C   UNL A   1      33.049  22.842  22.295  1.00  0.00     0.065 C 
ATOM      9  C   UNL A   1      32.965  24.290  22.686  1.00  0.00     0.026 A 
ATOM     10  N   UNL A   1      32.021  25.044  22.045  1.00  0.00    -0.311 N 
ATOM     11  C   UNL A   1      31.817  26.383  22.240  1.00  0.00     0.328 A 
ATOM     12  H   UNL A   1      31.442  24.588  21.393  1.00  0.00     0.171 HD
ATOM     13  C   UNL A   1      33.503  26.279  23.979  1.00  0.00     0.259 A 
ATOM     14  O   UNL A   1      30.953  26.963  21.584  1.00  0.00    -0.248 OA
ATOM     15  N   UNL A   1      32.615  26.982  23.192  1.00  0.00    -0.263 N 
ATOM     16  O   UNL A   1      34.067  26.745  24.965  1.00  0.00    -0.269 OA
ATOM     17  C   UNL A   1      32.417  28.396  23.447  1.00  0.00     0.158 C 
ENDBRANCH   6   7
ENDBRANCH   4   6
ENDBRANCH   3   4
ENDBRANCH   2   3
ENDBRANCH   1   2
BRANCH   1  18
ATOM     18  O   UNL A   1      37.474  21.390  25.042  1.00  0.00    -0.458 OA
BRANCH  18  19
ATOM     19  C   UNL A   1      38.625  21.047  25.670  1.00  0.00     0.338 C 
ATOM     20  O   UNL A   1      39.079  19.924  25.813  1.00  0.00    -0.246 OA
BRANCH  19  21
ATOM     21  C   UNL A   1      39.245  22.263  26.228  1.00  0.00     0.060 A 
ATOM     22  C   UNL A   1      38.676  23.519  26.004  1.00  0.00     0.016 A 
ATOM     23  C   UNL A   1      40.453  22.151  26.915  1.00  0.00     0.016 A 
ATOM     24  C   UNL A   1      39.350  24.672  26.398  1.00  0.00     0.010 A 
ATOM     25  C   UNL A   1      41.087  23.305  27.383  1.00  0.00     0.010 A 
ATOM     26  C   UNL A   1      40.559  24.577  27.099  1.00  0.00    -0.014 A 
BRANCH  26  27
ATOM     27  C   UNL A   1      41.290  25.801  27.516  1.00  0.00     0.031 A 
ATOM     28  C   UNL A   1      40.596  26.844  28.350  1.00  0.00     0.074 A 
ATOM     29  C   UNL A   1      42.567  25.987  27.126  1.00  0.00     0.049 A 
ATOM     30  N   UNL A   1      41.014  28.034  28.696  1.00  0.00    -0.248 NA
ATOM     31  C   UNL A   1      39.251  26.513  28.854  1.00  0.00     0.031 C 
ATOM     32  C   UNL A   1      43.352  25.044  26.327  1.00  0.00     0.029 A 
ATOM     33  N   UNL A   1      43.423  27.040  27.332  1.00  0.00    -0.354 N 
ATOM     34  C   UNL A   1      39.971  28.612  29.409  1.00  0.00     0.074 A 
ATOM     35  C   UNL A   1      38.896  27.644  29.448  1.00  0.00     0.031 C 
ATOM     36  C   UNL A   1      44.572  25.561  26.111  1.00  0.00     0.029 A 
ATOM     37  C   UNL A   1      44.638  26.892  26.704  1.00  0.00     0.049 A 
ATOM     38  H   UNL A   1      43.190  27.827  27.877  1.00  0.00     0.167 HD
ATOM     39  C   UNL A   1      39.922  29.832  29.994  1.00  0.00     0.034 A 
ATOM     40  C   UNL A   1      45.677  27.743  26.590  1.00  0.00     0.034 A 
ATOM     41  C   UNL A   1      41.017  30.763  30.010  1.00  0.00     0.049 A 
ATOM     42  C   UNL A   1      45.589  29.095  27.243  1.00  0.00     0.074 A 
ATOM     43  C   UNL A   1      41.076  32.003  30.620  1.00  0.00     0.029 A 
ATOM     44  N   UNL A   1      42.243  30.558  29.398  1.00  0.00    -0.354 N 
ATOM     45  N   UNL A   1      44.626  29.593  27.981  1.00  0.00    -0.248 NA
ATOM     46  C   UNL A   1      46.735  29.999  27.063  1.00  0.00     0.031 C 
ATOM     47  C   UNL A   1      42.335  32.555  30.366  1.00  0.00     0.029 A 
ATOM     48  C   UNL A   1      43.064  31.651  29.610  1.00  0.00     0.049 A 
ATOM     49  H   UNL A   1      42.493  29.753  28.888  1.00  0.00     0.167 HD
ATOM     50  C   UNL A   1      45.056  30.856  28.369  1.00  0.00     0.074 A 
ATOM     51  C   UNL A   1      46.381  31.036  27.811  1.00  0.00     0.031 C 
ATOM     52  C   UNL A   1      44.403  31.794  29.098  1.00  0.00     0.034 A 
BRANCH  39  53
ATOM     53  C   UNL A   1      38.663  30.228  30.718  1.00  0.00     0.023 A 
ATOM     54  C   UNL A   1      38.548  29.968  32.097  1.00  0.00     0.012 A 
ATOM     55  C   UNL A   1      37.653  30.961  30.063  1.00  0.00     0.148 A 
ATOM     56  C   UNL A   1      37.442  30.424  32.814  1.00  0.00     0.002 A 
ATOM     57  C   UNL A   1      36.574  31.447  30.792  1.00  0.00     0.091 A 
ATOM     58  F   UNL A   1      37.778  31.184  28.747  1.00  0.00    -0.205 F 
ATOM     59  C   UNL A   1      36.463  31.173  32.166  1.00  0.00     0.022 A 
BRANCH  57  60
ATOM     60  S   UNL A   1      35.300  32.489  30.072  1.00  0.00     0.127 S 
ATOM     61  O   UNL A   1      36.070  33.671  29.682  1.00  0.00    -0.237 OA
ATOM     62  O   UNL A   1      34.831  31.671  28.954  1.00  0.00    -0.237 OA
ATOM     63  O   UNL A   1      34.317  32.712  31.123  1.00  0.00    -0.744 OA
ENDBRANCH  57  60
ENDBRANCH  39  53
BRANCH  40  64
ATOM     64  C   UNL A   1      46.904  27.324  25.851  1.00  0.00     0.023 A 
ATOM     65  C   UNL A   1      47.835  26.480  26.487  1.00  0.00     0.012 A 
ATOM     66  C   UNL A   1      47.133  27.716  24.518  1.00  0.00     0.148 A 
ATOM     67  C   UNL A   1      48.982  26.054  25.817  1.00  0.00     0.002 A 
ATOM     68  C   UNL A   1      48.247  27.238  23.836  1.00  0.00     0.091 A 
ATOM     69  F   UNL A   1      46.252  28.540  23.935  1.00  0.00    -0.205 F 
ATOM     70  C   UNL A   1      49.181  26.419  24.488  1.00  0.00     0.022 A 
BRANCH  68  71
ATOM     71  S   UNL A   1      48.495  27.542  22.082  1.00  0.00     0.127 S 
ATOM     72  O   UNL A   1      48.724  26.193  21.573  1.00  0.00    -0.237 OA
ATOM     73  O   UNL A   1      47.218  28.140  21.690  1.00  0.00    -0.237 OA
ATOM     74  O   UNL A   1      49.627  28.456  22.007  1.00  0.00    -0.744 OA
ENDBRANCH  68  71
ENDBRANCH  40  64
BRANCH  52  75
ATOM     75  C   UNL A   1      45.099  33.104  29.351  1.00  0.00     0.023 A 
ATOM     76  C   UNL A   1      45.949  33.227  30.469  1.00  0.00     0.012 A 
ATOM     77  C   UNL A   1      45.008  34.165  28.428  1.00  0.00     0.148 A 
ATOM     78  C   UNL A   1      46.684  34.394  30.673  1.00  0.00     0.002 A 
ATOM     79  C   UNL A   1      45.779  35.306  28.614  1.00  0.00     0.091 A 
ATOM     80  F   UNL A   1      44.182  34.031  27.381  1.00  0.00    -0.205 F 
ATOM     81  C   UNL A   1      46.611  35.426  29.740  1.00  0.00     0.022 A 
BRANCH  79  82
ATOM     82  S   UNL A   1      45.828  36.642  27.414  1.00  0.00     0.127 S 
ATOM     83  O   UNL A   1      46.754  37.578  28.048  1.00  0.00    -0.237 OA
ATOM     84  O   UNL A   1      46.357  35.974  26.223  1.00  0.00    -0.237 OA
ATOM     85  O   UNL A   1      44.456  37.113  27.283  1.00  0.00    -0.744 OA
ENDBRANCH  79  82
ENDBRANCH  52  75
ENDBRANCH  26  27
ENDBRANCH  19  21
ENDBRANCH  18  19
ENDBRANCH   1  18
TORSDOF 15
ENDMDL
