MODEL 1
REMARK VINA RESULT:     -10.3      0.000      0.000
REMARK SMILES O=C(CSc1nnc(-c2cccc(C(F)(F)F)c2F)o1)OCCOC(=O)c1ccc(-c2c3nc(c(-c4cccc(S(=O)(=O)[O-])c4F)c4ccc([nH]4)c(-c4cccc(S(=O)(=O)[O-])c4F)c4nc(c(-c5cccc(S(=O)(=O)[O-])c5F)c5ccc2[nH]5)C=C4)C=C3)cc1
REMARK SMILES IDX 22 1 21 2 2 3 1 4 3 5 4 6 5 7 6 8 20 9 7 10 8 11 9 12 10 13
REMARK SMILES IDX 18 14 11 15 13 16 19 17 12 18 14 19 15 20 16 21 17 22 23 23
REMARK SMILES IDX 24 24 25 25 26 26 27 27 28 28 89 29 29 30 88 31 30 32 31 33
REMARK SMILES IDX 32 34 82 35 33 36 87 37 81 38 83 39 34 40 86 41 80 42 79 43
REMARK SMILES IDX 35 45 67 46 47 47 66 48 48 49 51 50 65 51 84 52 49 53 50 54
REMARK SMILES IDX 64 56 85 57 52 58 36 59 37 60 45 61 38 62 40 63 46 64 39 65
REMARK SMILES IDX 41 66 42 67 43 68 44 69 68 70 69 71 77 72 70 73 72 74 78 75
REMARK SMILES IDX 71 76 73 77 74 78 75 79 76 80 53 81 54 82 62 83 55 84 57 85
REMARK SMILES IDX 63 86 56 87 58 88 59 89 60 90 61 91
REMARK H PARENT 83 44 51 55
REMARK Flexibility Score: inf
ROOT
ATOM      1  C   UNL A   1      34.337  34.094  29.340  1.00  0.00     0.274 C 
ENDROOT
BRANCH   1   2
ATOM      2  O   UNL A   1      34.195  35.508  29.090  1.00  0.00    -0.461 OA
BRANCH   2   3
ATOM      3  C   UNL A   1      33.321  36.334  29.715  1.00  0.00     0.316 C 
ATOM      4  O   UNL A   1      33.234  37.506  29.347  1.00  0.00    -0.251 OA
BRANCH   3   5
ATOM      5  C   UNL A   1      32.440  35.788  30.820  1.00  0.00     0.202 C 
BRANCH   5   6
ATOM      6  S   UNL A   1      32.856  36.538  32.413  1.00  0.00    -0.054 SA
BRANCH   6   7
ATOM      7  C   UNL A   1      34.117  35.439  32.867  1.00  0.00     0.277 A 
ATOM      8  N   UNL A   1      33.930  34.186  33.221  1.00  0.00    -0.101 NA
ATOM      9  O   UNL A   1      35.435  35.764  32.754  1.00  0.00    -0.411 OA
ATOM     10  N   UNL A   1      35.184  33.622  33.338  1.00  0.00    -0.107 NA
ATOM     11  C   UNL A   1      36.044  34.579  33.052  1.00  0.00     0.251 A 
BRANCH  11  12
ATOM     12  C   UNL A   1      37.490  34.532  32.942  1.00  0.00     0.075 A 
ATOM     13  C   UNL A   1      38.274  34.589  34.104  1.00  0.00     0.017 A 
ATOM     14  C   UNL A   1      38.135  34.427  31.702  1.00  0.00     0.148 A 
ATOM     15  C   UNL A   1      39.666  34.536  34.024  1.00  0.00     0.002 A 
ATOM     16  C   UNL A   1      39.525  34.370  31.604  1.00  0.00     0.092 A 
ATOM     17  F   UNL A   1      37.410  34.399  30.574  1.00  0.00    -0.205 F 
ATOM     18  C   UNL A   1      40.289  34.429  32.780  1.00  0.00     0.016 A 
BRANCH  16  19
ATOM     19  C   UNL A   1      40.197  34.285  30.266  1.00  0.00     0.419 C 
ATOM     20  F   UNL A   1      41.535  34.052  30.378  1.00  0.00    -0.166 F 
ATOM     21  F   UNL A   1      39.713  33.253  29.515  1.00  0.00    -0.166 F 
ATOM     22  F   UNL A   1      40.076  35.389  29.480  1.00  0.00    -0.166 F 
ENDBRANCH  16  19
ENDBRANCH  11  12
ENDBRANCH   6   7
ENDBRANCH   5   6
ENDBRANCH   3   5
ENDBRANCH   2   3
ENDBRANCH   1   2
BRANCH   1  23
ATOM     23  C   UNL A   1      33.870  33.271  28.138  1.00  0.00     0.275 C 
BRANCH  23  24
ATOM     24  O   UNL A   1      34.916  32.379  27.714  1.00  0.00    -0.458 OA
BRANCH  24  25
ATOM     25  C   UNL A   1      34.706  31.060  27.957  1.00  0.00     0.338 C 
ATOM     26  O   UNL A   1      33.666  30.448  27.780  1.00  0.00    -0.246 OA
BRANCH  25  27
ATOM     27  C   UNL A   1      35.998  30.416  28.291  1.00  0.00     0.060 A 
ATOM     28  C   UNL A   1      36.107  29.758  29.522  1.00  0.00     0.016 A 
ATOM     29  C   UNL A   1      37.078  30.420  27.401  1.00  0.00     0.016 A 
ATOM     30  C   UNL A   1      37.304  29.133  29.880  1.00  0.00     0.010 A 
ATOM     31  C   UNL A   1      38.275  29.792  27.760  1.00  0.00     0.010 A 
ATOM     32  C   UNL A   1      38.404  29.169  29.012  1.00  0.00    -0.014 A 
BRANCH  32  33
ATOM     33  C   UNL A   1      39.725  28.653  29.452  1.00  0.00     0.031 A 
ATOM     34  C   UNL A   1      40.472  29.382  30.535  1.00  0.00     0.074 A 
ATOM     35  C   UNL A   1      40.268  27.561  28.882  1.00  0.00     0.049 A 
ATOM     36  N   UNL A   1      41.634  29.106  31.067  1.00  0.00    -0.248 NA
ATOM     37  C   UNL A   1      39.826  30.583  31.092  1.00  0.00     0.031 C 
ATOM     38  C   UNL A   1      39.657  26.772  27.814  1.00  0.00     0.029 A 
ATOM     39  N   UNL A   1      41.472  26.941  29.113  1.00  0.00    -0.354 N 
ATOM     40  C   UNL A   1      41.865  30.099  32.009  1.00  0.00     0.074 A 
ATOM     41  C   UNL A   1      40.736  31.000  31.962  1.00  0.00     0.031 C 
ATOM     42  C   UNL A   1      40.502  25.785  27.466  1.00  0.00     0.029 A 
ATOM     43  C   UNL A   1      41.716  25.877  28.277  1.00  0.00     0.049 A 
ATOM     44  H   UNL A   1      42.102  27.231  29.812  1.00  0.00     0.167 HD
ATOM     45  C   UNL A   1      42.911  30.235  32.856  1.00  0.00     0.034 A 
ATOM     46  C   UNL A   1      42.794  25.074  28.172  1.00  0.00     0.034 A 
ATOM     47  C   UNL A   1      44.024  29.328  32.926  1.00  0.00     0.049 A 
ATOM     48  C   UNL A   1      43.956  25.261  29.116  1.00  0.00     0.074 A 
ATOM     49  C   UNL A   1      45.099  29.359  33.798  1.00  0.00     0.029 A 
ATOM     50  N   UNL A   1      44.215  28.240  32.093  1.00  0.00    -0.354 N 
ATOM     51  N   UNL A   1      44.092  26.116  30.100  1.00  0.00    -0.248 NA
ATOM     52  C   UNL A   1      45.101  24.348  28.957  1.00  0.00     0.031 C 
ATOM     53  C   UNL A   1      45.952  28.301  33.477  1.00  0.00     0.029 A 
ATOM     54  C   UNL A   1      45.398  27.599  32.419  1.00  0.00     0.049 A 
ATOM     55  H   UNL A   1      43.601  27.962  31.375  1.00  0.00     0.167 HD
ATOM     56  C   UNL A   1      45.315  25.824  30.697  1.00  0.00     0.074 A 
ATOM     57  C   UNL A   1      45.876  24.702  29.976  1.00  0.00     0.031 C 
ATOM     58  C   UNL A   1      45.923  26.443  31.739  1.00  0.00     0.034 A 
BRANCH  45  59
ATOM     59  C   UNL A   1      42.884  31.380  33.831  1.00  0.00     0.023 A 
ATOM     60  C   UNL A   1      43.464  32.610  33.461  1.00  0.00     0.012 A 
ATOM     61  C   UNL A   1      42.200  31.274  35.057  1.00  0.00     0.148 A 
ATOM     62  C   UNL A   1      43.374  33.716  34.304  1.00  0.00     0.002 A 
ATOM     63  C   UNL A   1      42.083  32.391  35.874  1.00  0.00     0.091 A 
ATOM     64  F   UNL A   1      41.675  30.088  35.395  1.00  0.00    -0.205 F 
ATOM     65  C   UNL A   1      42.674  33.610  35.502  1.00  0.00     0.022 A 
BRANCH  63  66
ATOM     66  S   UNL A   1      41.140  32.381  37.403  1.00  0.00     0.127 S 
ATOM     67  O   UNL A   1      41.962  31.519  38.251  1.00  0.00    -0.237 OA
ATOM     68  O   UNL A   1      41.150  33.795  37.780  1.00  0.00    -0.237 OA
ATOM     69  O   UNL A   1      39.827  31.851  37.063  1.00  0.00    -0.744 OA
ENDBRANCH  63  66
ENDBRANCH  45  59
BRANCH  46  70
ATOM     70  C   UNL A   1      42.803  23.973  27.168  1.00  0.00     0.023 A 
ATOM     71  C   UNL A   1      43.477  24.159  25.945  1.00  0.00     0.012 A 
ATOM     72  C   UNL A   1      42.169  22.741  27.422  1.00  0.00     0.148 A 
ATOM     73  C   UNL A   1      43.500  23.147  24.985  1.00  0.00     0.002 A 
ATOM     74  C   UNL A   1      42.239  21.719  26.483  1.00  0.00     0.091 A 
ATOM     75  F   UNL A   1      41.514  22.593  28.582  1.00  0.00    -0.205 F 
ATOM     76  C   UNL A   1      42.892  21.925  25.257  1.00  0.00     0.022 A 
BRANCH  74  77
ATOM     77  S   UNL A   1      41.581  20.077  26.794  1.00  0.00     0.127 S 
ATOM     78  O   UNL A   1      40.244  20.379  27.295  1.00  0.00    -0.237 OA
ATOM     79  O   UNL A   1      41.619  19.476  25.460  1.00  0.00    -0.237 OA
ATOM     80  O   UNL A   1      42.493  19.465  27.752  1.00  0.00    -0.744 OA
ENDBRANCH  74  77
ENDBRANCH  46  70
BRANCH  58  81
ATOM     81  C   UNL A   1      47.264  25.929  32.197  1.00  0.00     0.023 A 
ATOM     82  C   UNL A   1      48.440  26.451  31.625  1.00  0.00     0.012 A 
ATOM     83  C   UNL A   1      47.362  25.036  33.284  1.00  0.00     0.148 A 
ATOM     84  C   UNL A   1      49.692  26.082  32.117  1.00  0.00     0.002 A 
ATOM     85  C   UNL A   1      48.612  24.708  33.799  1.00  0.00     0.091 A 
ATOM     86  F   UNL A   1      46.231  24.538  33.806  1.00  0.00    -0.205 F 
ATOM     87  C   UNL A   1      49.778  25.225  33.211  1.00  0.00     0.022 A 
BRANCH  85  88
ATOM     88  S   UNL A   1      48.816  23.695  35.270  1.00  0.00     0.127 S 
ATOM     89  O   UNL A   1      48.097  24.478  36.273  1.00  0.00    -0.237 OA
ATOM     90  O   UNL A   1      48.155  22.448  34.882  1.00  0.00    -0.237 OA
ATOM     91  O   UNL A   1      50.252  23.577  35.480  1.00  0.00    -0.744 OA
ENDBRANCH  85  88
ENDBRANCH  58  81
ENDBRANCH  32  33
ENDBRANCH  25  27
ENDBRANCH  24  25
ENDBRANCH  23  24
ENDBRANCH   1  23
TORSDOF 18
ENDMDL
MODEL 2
REMARK VINA RESULT:     -10.3      4.573      7.447
REMARK SMILES O=C(CSc1nnc(-c2cccc(C(F)(F)F)c2F)o1)OCCOC(=O)c1ccc(-c2c3nc(c(-c4cccc(S(=O)(=O)[O-])c4F)c4ccc([nH]4)c(-c4cccc(S(=O)(=O)[O-])c4F)c4nc(c(-c5cccc(S(=O)(=O)[O-])c5F)c5ccc2[nH]5)C=C4)C=C3)cc1
REMARK SMILES IDX 22 1 21 2 2 3 1 4 3 5 4 6 5 7 6 8 20 9 7 10 8 11 9 12 10 13
REMARK SMILES IDX 18 14 11 15 13 16 19 17 12 18 14 19 15 20 16 21 17 22 23 23
REMARK SMILES IDX 24 24 25 25 26 26 27 27 28 28 89 29 29 30 88 31 30 32 31 33
REMARK SMILES IDX 32 34 82 35 33 36 87 37 81 38 83 39 34 40 86 41 80 42 79 43
REMARK SMILES IDX 35 45 67 46 47 47 66 48 48 49 51 50 65 51 84 52 49 53 50 54
REMARK SMILES IDX 64 56 85 57 52 58 36 59 37 60 45 61 38 62 40 63 46 64 39 65
REMARK SMILES IDX 41 66 42 67 43 68 44 69 68 70 69 71 77 72 70 73 72 74 78 75
REMARK SMILES IDX 71 76 73 77 74 78 75 79 76 80 53 81 54 82 62 83 55 84 57 85
REMARK SMILES IDX 63 86 56 87 58 88 59 89 60 90 61 91
REMARK H PARENT 83 44 51 55
REMARK Flexibility Score: inf
ROOT
ATOM      1  C   UNL A   1      31.230  31.475  26.190  1.00  0.00     0.274 C 
ENDROOT
BRANCH   1   2
ATOM      2  O   UNL A   1      32.290  30.550  25.870  1.00  0.00    -0.461 OA
BRANCH   2   3
ATOM      3  C   UNL A   1      32.126  29.243  25.552  1.00  0.00     0.316 C 
ATOM      4  O   UNL A   1      32.062  28.408  26.455  1.00  0.00    -0.251 OA
BRANCH   3   5
ATOM      5  C   UNL A   1      31.979  28.845  24.098  1.00  0.00     0.202 C 
BRANCH   5   6
ATOM      6  S   UNL A   1      33.587  28.803  23.269  1.00  0.00    -0.054 SA
BRANCH   6   7
ATOM      7  C   UNL A   1      33.565  27.134  22.801  1.00  0.00     0.277 A 
ATOM      8  N   UNL A   1      33.421  26.702  21.567  1.00  0.00    -0.101 NA
ATOM      9  O   UNL A   1      33.842  26.132  23.682  1.00  0.00    -0.411 OA
ATOM     10  N   UNL A   1      33.626  25.338  21.605  1.00  0.00    -0.107 NA
ATOM     11  C   UNL A   1      33.875  25.040  22.863  1.00  0.00     0.251 A 
BRANCH  11  12
ATOM     12  C   UNL A   1      34.239  23.772  23.468  1.00  0.00     0.075 A 
ATOM     13  C   UNL A   1      35.506  23.624  24.053  1.00  0.00     0.017 A 
ATOM     14  C   UNL A   1      33.358  22.682  23.491  1.00  0.00     0.148 A 
ATOM     15  C   UNL A   1      35.876  22.418  24.650  1.00  0.00     0.002 A 
ATOM     16  C   UNL A   1      33.710  21.470  24.086  1.00  0.00     0.092 A 
ATOM     17  F   UNL A   1      32.152  22.788  22.914  1.00  0.00    -0.205 F 
ATOM     18  C   UNL A   1      34.983  21.346  24.664  1.00  0.00     0.016 A 
BRANCH  16  19
ATOM     19  C   UNL A   1      32.764  20.308  24.077  1.00  0.00     0.419 C 
ATOM     20  F   UNL A   1      31.743  20.470  24.966  1.00  0.00    -0.166 F 
ATOM     21  F   UNL A   1      32.161  20.148  22.862  1.00  0.00    -0.166 F 
ATOM     22  F   UNL A   1      33.319  19.100  24.364  1.00  0.00    -0.166 F 
ENDBRANCH  16  19
ENDBRANCH  11  12
ENDBRANCH   6   7
ENDBRANCH   5   6
ENDBRANCH   3   5
ENDBRANCH   2   3
ENDBRANCH   1   2
BRANCH   1  23
ATOM     23  C   UNL A   1      31.784  32.753  26.823  1.00  0.00     0.275 C 
BRANCH  23  24
ATOM     24  O   UNL A   1      32.848  32.432  27.735  1.00  0.00    -0.458 OA
BRANCH  24  25
ATOM     25  C   UNL A   1      33.873  33.321  27.789  1.00  0.00     0.338 C 
ATOM     26  O   UNL A   1      33.797  34.524  27.606  1.00  0.00    -0.246 OA
BRANCH  25  27
ATOM     27  C   UNL A   1      35.083  32.637  28.300  1.00  0.00     0.060 A 
ATOM     28  C   UNL A   1      34.964  31.300  28.700  1.00  0.00     0.016 A 
ATOM     29  C   UNL A   1      36.326  33.276  28.355  1.00  0.00     0.016 A 
ATOM     30  C   UNL A   1      36.078  30.611  29.185  1.00  0.00     0.010 A 
ATOM     31  C   UNL A   1      37.441  32.583  28.840  1.00  0.00     0.010 A 
ATOM     32  C   UNL A   1      37.318  31.257  29.283  1.00  0.00    -0.014 A 
BRANCH  32  33
ATOM     33  C   UNL A   1      38.463  30.587  29.949  1.00  0.00     0.031 A 
ATOM     34  C   UNL A   1      38.823  30.978  31.356  1.00  0.00     0.074 A 
ATOM     35  C   UNL A   1      39.192  29.655  29.305  1.00  0.00     0.049 A 
ATOM     36  N   UNL A   1      39.781  30.523  32.121  1.00  0.00    -0.248 NA
ATOM     37  C   UNL A   1      37.996  32.022  31.985  1.00  0.00     0.031 C 
ATOM     38  C   UNL A   1      38.960  29.197  27.937  1.00  0.00     0.029 A 
ATOM     39  N   UNL A   1      40.293  28.945  29.718  1.00  0.00    -0.354 N 
ATOM     40  C   UNL A   1      39.682  31.228  33.313  1.00  0.00     0.074 A 
ATOM     41  C   UNL A   1      38.586  32.160  33.165  1.00  0.00     0.031 C 
ATOM     42  C   UNL A   1      39.906  28.297  27.614  1.00  0.00     0.029 A 
ATOM     43  C   UNL A   1      40.815  28.123  28.747  1.00  0.00     0.049 A 
ATOM     44  H   UNL A   1      40.673  29.017  30.623  1.00  0.00     0.167 HD
ATOM     45  C   UNL A   1      40.419  31.094  34.439  1.00  0.00     0.034 A 
ATOM     46  C   UNL A   1      41.904  27.326  28.766  1.00  0.00     0.034 A 
ATOM     47  C   UNL A   1      41.492  30.152  34.602  1.00  0.00     0.049 A 
ATOM     48  C   UNL A   1      42.721  27.212  30.028  1.00  0.00     0.074 A 
ATOM     49  C   UNL A   1      42.253  29.909  35.732  1.00  0.00     0.029 A 
ATOM     50  N   UNL A   1      41.964  29.308  33.612  1.00  0.00    -0.354 N 
ATOM     51  N   UNL A   1      42.523  27.778  31.195  1.00  0.00    -0.248 NA
ATOM     52  C   UNL A   1      43.893  26.322  29.989  1.00  0.00     0.031 C 
ATOM     53  C   UNL A   1      43.201  28.932  35.418  1.00  0.00     0.029 A 
ATOM     54  C   UNL A   1      43.016  28.552  34.099  1.00  0.00     0.049 A 
ATOM     55  H   UNL A   1      41.605  29.252  32.697  1.00  0.00     0.167 HD
ATOM     56  C   UNL A   1      43.520  27.287  32.033  1.00  0.00     0.074 A 
ATOM     57  C   UNL A   1      44.313  26.365  31.248  1.00  0.00     0.031 C 
ATOM     58  C   UNL A   1      43.764  27.589  33.333  1.00  0.00     0.034 A 
BRANCH  45  59
ATOM     59  C   UNL A   1      40.058  31.949  35.623  1.00  0.00     0.023 A 
ATOM     60  C   UNL A   1      40.678  33.205  35.777  1.00  0.00     0.012 A 
ATOM     61  C   UNL A   1      39.041  31.561  36.516  1.00  0.00     0.148 A 
ATOM     62  C   UNL A   1      40.299  34.059  36.810  1.00  0.00     0.002 A 
ATOM     63  C   UNL A   1      38.643  32.433  37.521  1.00  0.00     0.091 A 
ATOM     64  F   UNL A   1      38.482  30.353  36.361  1.00  0.00    -0.205 F 
ATOM     65  C   UNL A   1      39.275  33.679  37.672  1.00  0.00     0.022 A 
BRANCH  63  66
ATOM     66  S   UNL A   1      37.284  32.072  38.639  1.00  0.00     0.127 S 
ATOM     67  O   UNL A   1      37.853  32.461  39.929  1.00  0.00    -0.237 OA
ATOM     68  O   UNL A   1      36.233  32.961  38.143  1.00  0.00    -0.237 OA
ATOM     69  O   UNL A   1      37.004  30.651  38.485  1.00  0.00    -0.744 OA
ENDBRANCH  63  66
ENDBRANCH  45  59
BRANCH  46  70
ATOM     70  C   UNL A   1      42.254  26.523  27.561  1.00  0.00     0.023 A 
ATOM     71  C   UNL A   1      42.952  27.135  26.501  1.00  0.00     0.012 A 
ATOM     72  C   UNL A   1      41.921  25.158  27.466  1.00  0.00     0.148 A 
ATOM     73  C   UNL A   1      43.292  26.408  25.360  1.00  0.00     0.002 A 
ATOM     74  C   UNL A   1      42.307  24.427  26.348  1.00  0.00     0.091 A 
ATOM     75  F   UNL A   1      41.237  24.600  28.474  1.00  0.00    -0.205 F 
ATOM     76  C   UNL A   1      42.980  25.054  25.287  1.00  0.00     0.022 A 
BRANCH  74  77
ATOM     77  S   UNL A   1      42.046  22.654  26.218  1.00  0.00     0.127 S 
ATOM     78  O   UNL A   1      42.698  22.166  27.430  1.00  0.00    -0.237 OA
ATOM     79  O   UNL A   1      40.586  22.560  26.223  1.00  0.00    -0.237 OA
ATOM     80  O   UNL A   1      42.668  22.257  24.962  1.00  0.00    -0.744 OA
ENDBRANCH  74  77
ENDBRANCH  46  70
BRANCH  58  81
ATOM     81  C   UNL A   1      44.922  26.915  34.022  1.00  0.00     0.023 A 
ATOM     82  C   UNL A   1      46.198  27.509  33.976  1.00  0.00     0.012 A 
ATOM     83  C   UNL A   1      44.720  25.774  34.826  1.00  0.00     0.148 A 
ATOM     84  C   UNL A   1      47.258  26.971  34.706  1.00  0.00     0.002 A 
ATOM     85  C   UNL A   1      45.770  25.270  35.587  1.00  0.00     0.091 A 
ATOM     86  F   UNL A   1      43.502  25.214  34.846  1.00  0.00    -0.205 F 
ATOM     87  C   UNL A   1      47.041  25.864  35.522  1.00  0.00     0.022 A 
BRANCH  85  88
ATOM     88  S   UNL A   1      45.559  23.912  36.746  1.00  0.00     0.127 S 
ATOM     89  O   UNL A   1      44.612  24.482  37.702  1.00  0.00    -0.237 OA
ATOM     90  O   UNL A   1      45.004  22.860  35.893  1.00  0.00    -0.237 OA
ATOM     91  O   UNL A   1      46.885  23.625  37.275  1.00  0.00    -0.744 OA
ENDBRANCH  85  88
ENDBRANCH  58  81
ENDBRANCH  32  33
ENDBRANCH  25  27
ENDBRANCH  24  25
ENDBRANCH  23  24
ENDBRANCH   1  23
TORSDOF 18
ENDMDL
MODEL 3
REMARK VINA RESULT:     -10.0      6.072     11.558
REMARK SMILES O=C(CSc1nnc(-c2cccc(C(F)(F)F)c2F)o1)OCCOC(=O)c1ccc(-c2c3nc(c(-c4cccc(S(=O)(=O)[O-])c4F)c4ccc([nH]4)c(-c4cccc(S(=O)(=O)[O-])c4F)c4nc(c(-c5cccc(S(=O)(=O)[O-])c5F)c5ccc2[nH]5)C=C4)C=C3)cc1
REMARK SMILES IDX 22 1 21 2 2 3 1 4 3 5 4 6 5 7 6 8 20 9 7 10 8 11 9 12 10 13
REMARK SMILES IDX 18 14 11 15 13 16 19 17 12 18 14 19 15 20 16 21 17 22 23 23
REMARK SMILES IDX 24 24 25 25 26 26 27 27 28 28 89 29 29 30 88 31 30 32 31 33
REMARK SMILES IDX 32 34 82 35 33 36 87 37 81 38 83 39 34 40 86 41 80 42 79 43
REMARK SMILES IDX 35 45 67 46 47 47 66 48 48 49 51 50 65 51 84 52 49 53 50 54
REMARK SMILES IDX 64 56 85 57 52 58 36 59 37 60 45 61 38 62 40 63 46 64 39 65
REMARK SMILES IDX 41 66 42 67 43 68 44 69 68 70 69 71 77 72 70 73 72 74 78 75
REMARK SMILES IDX 71 76 73 77 74 78 75 79 76 80 53 81 54 82 62 83 55 84 57 85
REMARK SMILES IDX 63 86 56 87 58 88 59 89 60 90 61 91
REMARK H PARENT 83 44 51 55
REMARK Flexibility Score: inf
ROOT
ATOM      1  C   UNL A   1      36.982  21.729  24.548  1.00  0.00     0.274 C 
ENDROOT
BRANCH   1   2
ATOM      2  O   UNL A   1      35.669  21.131  24.539  1.00  0.00    -0.461 OA
BRANCH   2   3
ATOM      3  C   UNL A   1      34.538  21.707  25.014  1.00  0.00     0.316 C 
ATOM      4  O   UNL A   1      33.453  21.391  24.526  1.00  0.00    -0.251 OA
BRANCH   3   5
ATOM      5  C   UNL A   1      34.629  22.689  26.164  1.00  0.00     0.202 C 
BRANCH   5   6
ATOM      6  S   UNL A   1      33.415  22.303  27.448  1.00  0.00    -0.054 SA
BRANCH   6   7
ATOM      7  C   UNL A   1      32.211  23.461  26.987  1.00  0.00     0.277 A 
ATOM      8  N   UNL A   1      30.925  23.351  27.246  1.00  0.00    -0.101 NA
ATOM      9  O   UNL A   1      32.536  24.662  26.431  1.00  0.00    -0.411 OA
ATOM     10  N   UNL A   1      30.348  24.545  26.865  1.00  0.00    -0.107 NA
ATOM     11  C   UNL A   1      31.325  25.292  26.394  1.00  0.00     0.251 A 
BRANCH  11  12
ATOM     12  C   UNL A   1      31.310  26.666  25.928  1.00  0.00     0.075 A 
ATOM     13  C   UNL A   1      31.904  27.668  26.710  1.00  0.00     0.017 A 
ATOM     14  C   UNL A   1      30.720  27.028  24.709  1.00  0.00     0.148 A 
ATOM     15  C   UNL A   1      31.911  28.995  26.278  1.00  0.00     0.002 A 
ATOM     16  C   UNL A   1      30.720  28.349  24.261  1.00  0.00     0.092 A 
ATOM     17  F   UNL A   1      30.120  26.094  23.956  1.00  0.00    -0.205 F 
ATOM     18  C   UNL A   1      31.321  29.334  25.061  1.00  0.00     0.016 A 
BRANCH  16  19
ATOM     19  C   UNL A   1      30.060  28.720  22.967  1.00  0.00     0.419 C 
ATOM     20  F   UNL A   1      30.701  29.747  22.340  1.00  0.00    -0.166 F 
ATOM     21  F   UNL A   1      30.069  27.689  22.072  1.00  0.00    -0.166 F 
ATOM     22  F   UNL A   1      28.757  29.099  23.064  1.00  0.00    -0.166 F 
ENDBRANCH  16  19
ENDBRANCH  11  12
ENDBRANCH   6   7
ENDBRANCH   5   6
ENDBRANCH   3   5
ENDBRANCH   2   3
ENDBRANCH   1   2
BRANCH   1  23
ATOM     23  C   UNL A   1      38.043  20.727  25.007  1.00  0.00     0.275 C 
BRANCH  23  24
ATOM     24  O   UNL A   1      38.488  21.052  26.335  1.00  0.00    -0.458 OA
BRANCH  24  25
ATOM     25  C   UNL A   1      39.833  21.085  26.519  1.00  0.00     0.338 C 
ATOM     26  O   UNL A   1      40.626  20.209  26.218  1.00  0.00    -0.246 OA
BRANCH  25  27
ATOM     27  C   UNL A   1      40.229  22.440  26.968  1.00  0.00     0.060 A 
ATOM     28  C   UNL A   1      39.585  23.540  26.388  1.00  0.00     0.016 A 
ATOM     29  C   UNL A   1      41.188  22.637  27.968  1.00  0.00     0.016 A 
ATOM     30  C   UNL A   1      39.921  24.838  26.783  1.00  0.00     0.010 A 
ATOM     31  C   UNL A   1      41.521  23.937  28.362  1.00  0.00     0.010 A 
ATOM     32  C   UNL A   1      40.911  25.045  27.754  1.00  0.00    -0.014 A 
BRANCH  32  33
ATOM     33  C   UNL A   1      41.389  26.417  28.057  1.00  0.00     0.031 A 
ATOM     34  C   UNL A   1      42.802  26.794  27.706  1.00  0.00     0.074 A 
ATOM     35  C   UNL A   1      40.585  27.314  28.658  1.00  0.00     0.049 A 
ATOM     36  N   UNL A   1      43.422  27.932  27.883  1.00  0.00    -0.248 NA
ATOM     37  C   UNL A   1      43.629  25.751  27.075  1.00  0.00     0.031 C 
ATOM     38  C   UNL A   1      39.203  27.073  29.064  1.00  0.00     0.029 A 
ATOM     39  N   UNL A   1      40.832  28.607  29.050  1.00  0.00    -0.354 N 
ATOM     40  C   UNL A   1      44.709  27.742  27.398  1.00  0.00     0.074 A 
ATOM     41  C   UNL A   1      44.793  26.373  26.941  1.00  0.00     0.031 C 
ATOM     42  C   UNL A   1      38.729  28.176  29.670  1.00  0.00     0.029 A 
ATOM     43  C   UNL A   1      39.776  29.197  29.705  1.00  0.00     0.049 A 
ATOM     44  H   UNL A   1      41.684  29.070  28.880  1.00  0.00     0.167 HD
ATOM     45  C   UNL A   1      45.723  28.634  27.316  1.00  0.00     0.034 A 
ATOM     46  C   UNL A   1      39.666  30.416  30.272  1.00  0.00     0.034 A 
ATOM     47  C   UNL A   1      45.638  30.003  27.745  1.00  0.00     0.049 A 
ATOM     48  C   UNL A   1      40.820  31.384  30.184  1.00  0.00     0.074 A 
ATOM     49  C   UNL A   1      46.601  30.992  27.643  1.00  0.00     0.029 A 
ATOM     50  N   UNL A   1      44.539  30.575  28.364  1.00  0.00    -0.354 N 
ATOM     51  N   UNL A   1      41.980  31.236  29.591  1.00  0.00    -0.248 NA
ATOM     52  C   UNL A   1      40.638  32.701  30.816  1.00  0.00     0.031 C 
ATOM     53  C   UNL A   1      46.091  32.158  28.220  1.00  0.00     0.029 A 
ATOM     54  C   UNL A   1      44.804  31.900  28.663  1.00  0.00     0.049 A 
ATOM     55  H   UNL A   1      43.695  30.109  28.560  1.00  0.00     0.167 HD
ATOM     56  C   UNL A   1      42.648  32.447  29.746  1.00  0.00     0.074 A 
ATOM     57  C   UNL A   1      41.759  33.326  30.476  1.00  0.00     0.031 C 
ATOM     58  C   UNL A   1      43.894  32.791  29.334  1.00  0.00     0.034 A 
BRANCH  45  59
ATOM     59  C   UNL A   1      47.010  28.181  26.683  1.00  0.00     0.023 A 
ATOM     60  C   UNL A   1      48.049  27.705  27.506  1.00  0.00     0.012 A 
ATOM     61  C   UNL A   1      47.151  28.129  25.284  1.00  0.00     0.148 A 
ATOM     62  C   UNL A   1      49.217  27.193  26.946  1.00  0.00     0.002 A 
ATOM     63  C   UNL A   1      48.303  27.583  24.732  1.00  0.00     0.091 A 
ATOM     64  F   UNL A   1      46.157  28.607  24.522  1.00  0.00    -0.205 F 
ATOM     65  C   UNL A   1      49.339  27.120  25.561  1.00  0.00     0.022 A 
BRANCH  63  66
ATOM     66  S   UNL A   1      48.529  27.375  22.962  1.00  0.00     0.127 S 
ATOM     67  O   UNL A   1      47.467  28.227  22.428  1.00  0.00    -0.237 OA
ATOM     68  O   UNL A   1      49.883  27.892  22.762  1.00  0.00    -0.237 OA
ATOM     69  O   UNL A   1      48.376  25.951  22.701  1.00  0.00    -0.744 OA
ENDBRANCH  63  66
ENDBRANCH  45  59
BRANCH  46  70
ATOM     70  C   UNL A   1      38.389  30.817  30.925  1.00  0.00     0.023 A 
ATOM     71  C   UNL A   1      38.197  30.543  32.294  1.00  0.00     0.012 A 
ATOM     72  C   UNL A   1      37.375  31.483  30.210  1.00  0.00     0.148 A 
ATOM     73  C   UNL A   1      37.011  30.905  32.933  1.00  0.00     0.002 A 
ATOM     74  C   UNL A   1      36.216  31.885  30.864  1.00  0.00     0.091 A 
ATOM     75  F   UNL A   1      37.567  31.713  28.904  1.00  0.00    -0.205 F 
ATOM     76  C   UNL A   1      36.025  31.585  32.222  1.00  0.00     0.022 A 
BRANCH  74  77
ATOM     77  S   UNL A   1      34.943  32.863  30.056  1.00  0.00     0.127 S 
ATOM     78  O   UNL A   1      34.442  31.931  29.050  1.00  0.00    -0.237 OA
ATOM     79  O   UNL A   1      34.021  33.133  31.159  1.00  0.00    -0.237 OA
ATOM     80  O   UNL A   1      35.624  34.044  29.541  1.00  0.00    -0.744 OA
ENDBRANCH  74  77
ENDBRANCH  46  70
BRANCH  58  81
ATOM     81  C   UNL A   1      44.391  34.181  29.634  1.00  0.00     0.023 A 
ATOM     82  C   UNL A   1      45.144  34.412  30.802  1.00  0.00     0.012 A 
ATOM     83  C   UNL A   1      44.233  35.223  28.697  1.00  0.00     0.148 A 
ATOM     84  C   UNL A   1      45.720  35.660  31.040  1.00  0.00     0.002 A 
ATOM     85  C   UNL A   1      44.848  36.452  28.919  1.00  0.00     0.091 A 
ATOM     86  F   UNL A   1      43.501  34.989  27.599  1.00  0.00    -0.205 F 
ATOM     87  C   UNL A   1      45.585  36.673  30.094  1.00  0.00     0.022 A 
BRANCH  85  88
ATOM     88  S   UNL A   1      44.816  37.781  27.709  1.00  0.00     0.127 S 
ATOM     89  O   UNL A   1      45.420  38.880  28.460  1.00  0.00    -0.237 OA
ATOM     90  O   UNL A   1      45.654  37.244  26.636  1.00  0.00    -0.237 OA
ATOM     91  O   UNL A   1      43.417  37.964  27.350  1.00  0.00    -0.744 OA
ENDBRANCH  85  88
ENDBRANCH  58  81
ENDBRANCH  32  33
ENDBRANCH  25  27
ENDBRANCH  24  25
ENDBRANCH  23  24
ENDBRANCH   1  23
TORSDOF 18
ENDMDL
