MODEL 1
REMARK VINA RESULT:     -12.2      0.000      0.000
REMARK SMILES O=C(OCCOC(=O)[C@@H](CCOC(F)(F)F)Cc1ccccc1Cl)c1ccc(-c2c3nc(c(-c4cccc(S(=O)(=O)[O-])c4F)c4ccc([nH]4)c(-c4cccc(S(=O)(=O)[O-])c4F)c4nc(c(-c5cccc(S(=O)(=O)[O-])c5F)c5ccc2[nH]5)C=C4)C=C3)cc1
REMARK SMILES IDX 5 1 4 2 3 3 2 4 1 5 25 6 26 7 87 8 27 9 86 10 28 11 29 12
REMARK SMILES IDX 30 13 80 14 31 15 85 16 79 17 81 18 32 19 84 20 78 21 77 22
REMARK SMILES IDX 33 24 65 25 45 26 64 27 46 28 49 29 63 30 82 31 47 32 48 33
REMARK SMILES IDX 62 35 83 36 50 37 34 38 35 39 43 40 36 41 38 42 44 43 37 44
REMARK SMILES IDX 39 45 40 46 41 47 42 48 66 49 67 50 75 51 68 52 70 53 76 54
REMARK SMILES IDX 69 55 71 56 72 57 73 58 74 59 51 60 52 61 60 62 53 63 55 64
REMARK SMILES IDX 61 65 54 66 56 67 57 68 58 69 59 70 6 71 7 72 8 73 9 74
REMARK SMILES IDX 10 75 11 76 12 77 13 78 14 79 15 80 16 81 17 82 18 83 19 84
REMARK SMILES IDX 23 85 20 86 22 87 24 88 21 89
REMARK H PARENT 81 23 49 34
REMARK Flexibility Score: inf
ROOT
ATOM      1  C   UNL A   1      31.366  31.108  25.724  1.00  0.00     0.274 C 
ENDROOT
BRANCH   1   2
ATOM      2  C   UNL A   1      31.173  32.057  26.915  1.00  0.00     0.275 C 
BRANCH   2   3
ATOM      3  O   UNL A   1      32.048  33.172  26.799  1.00  0.00    -0.458 OA
BRANCH   3   4
ATOM      4  C   UNL A   1      32.912  33.518  27.760  1.00  0.00     0.338 C 
ATOM      5  O   UNL A   1      32.764  34.594  28.338  1.00  0.00    -0.246 OA
BRANCH   4   6
ATOM      6  C   UNL A   1      34.024  32.650  28.253  1.00  0.00     0.060 A 
ATOM      7  C   UNL A   1      34.218  30.828  28.331  1.00  0.00     0.016 A 
ATOM      8  C   UNL A   1      35.479  33.675  28.418  1.00  0.00     0.016 A 
ATOM      9  C   UNL A   1      35.894  30.117  28.460  1.00  0.00     0.010 A 
ATOM     10  C   UNL A   1      37.086  32.960  28.551  1.00  0.00     0.010 A 
ATOM     11  C   UNL A   1      37.326  31.216  28.677  1.00  0.00    -0.014 A 
BRANCH  11  12
ATOM     12  C   UNL A   1      38.520  30.748  29.469  1.00  0.00     0.031 A 
ATOM     13  C   UNL A   1      38.667  31.072  30.969  1.00  0.00     0.074 A 
ATOM     14  C   UNL A   1      39.294  29.811  28.898  1.00  0.00     0.049 A 
ATOM     15  N   UNL A   1      39.502  30.566  31.849  1.00  0.00    -0.248 NA
ATOM     16  C   UNL A   1      37.758  32.051  31.591  1.00  0.00     0.031 C 
ATOM     17  C   UNL A   1      39.195  29.388  27.503  1.00  0.00     0.029 A 
ATOM     18  N   UNL A   1      40.264  29.006  29.426  1.00  0.00    -0.354 N 
ATOM     19  C   UNL A   1      39.220  31.190  33.070  1.00  0.00     0.074 A 
ATOM     20  C   UNL A   1      38.116  32.072  32.858  1.00  0.00     0.031 C 
ATOM     21  C   UNL A   1      39.986  28.325  27.311  1.00  0.00     0.029 A 
ATOM     22  C   UNL A   1      40.762  28.098  28.523  1.00  0.00     0.049 A 
ATOM     23  H   UNL A   1      40.575  29.071  30.358  1.00  0.00     0.167 HD
ATOM     24  C   UNL A   1      39.844  31.099  34.267  1.00  0.00     0.034 A 
ATOM     25  C   UNL A   1      41.785  27.231  28.640  1.00  0.00     0.034 A 
ATOM     26  C   UNL A   1      40.997  30.281  34.462  1.00  0.00     0.049 A 
ATOM     27  C   UNL A   1      42.529  27.207  29.941  1.00  0.00     0.074 A 
ATOM     28  C   UNL A   1      41.804  30.172  35.576  1.00  0.00     0.029 A 
ATOM     29  N   UNL A   1      41.527  29.456  33.482  1.00  0.00    -0.354 N 
ATOM     30  N   UNL A   1      42.264  27.851  31.053  1.00  0.00    -0.248 NA
ATOM     31  C   UNL A   1      43.725  26.362  29.999  1.00  0.00     0.031 C 
ATOM     32  C   UNL A   1      42.871  29.334  35.240  1.00  0.00     0.029 A 
ATOM     33  C   UNL A   1      42.675  28.858  33.950  1.00  0.00     0.049 A 
ATOM     34  H   UNL A   1      41.142  29.320  32.587  1.00  0.00     0.167 HD
ATOM     35  C   UNL A   1      43.262  27.492  31.946  1.00  0.00     0.074 A 
ATOM     36  C   UNL A   1      44.117  26.547  31.253  1.00  0.00     0.031 C 
ATOM     37  C   UNL A   1      43.472  27.912  33.218  1.00  0.00     0.034 A 
BRANCH  24  38
ATOM     38  C   UNL A   1      39.376  32.009  35.383  1.00  0.00     0.023 A 
ATOM     39  C   UNL A   1      39.744  33.371  35.422  1.00  0.00     0.012 A 
ATOM     40  C   UNL A   1      38.593  31.484  36.432  1.00  0.00     0.148 A 
ATOM     41  C   UNL A   1      39.377  34.178  36.503  1.00  0.00     0.002 A 
ATOM     42  C   UNL A   1      38.189  32.304  37.479  1.00  0.00     0.091 A 
ATOM     43  F   UNL A   1      38.283  30.180  36.402  1.00  0.00    -0.205 F 
ATOM     44  C   UNL A   1      38.595  33.647  37.527  1.00  0.00     0.022 A 
BRANCH  42  45
ATOM     45  S   UNL A   1      37.134  31.727  38.814  1.00  0.00     0.127 S 
ATOM     46  O   UNL A   1      36.871  30.347  38.409  1.00  0.00    -0.237 OA
ATOM     47  O   UNL A   1      38.012  31.866  39.976  1.00  0.00    -0.237 OA
ATOM     48  O   UNL A   1      35.971  32.603  38.818  1.00  0.00    -0.744 OA
ENDBRANCH  42  45
ENDBRANCH  24  38
BRANCH  25  49
ATOM     49  C   UNL A   1      42.198  26.418  27.460  1.00  0.00     0.023 A 
ATOM     50  C   UNL A   1      43.107  26.926  26.515  1.00  0.00     0.012 A 
ATOM     51  C   UNL A   1      41.746  25.089  27.328  1.00  0.00     0.148 A 
ATOM     52  C   UNL A   1      43.559  26.121  25.466  1.00  0.00     0.002 A 
ATOM     53  C   UNL A   1      42.270  24.267  26.342  1.00  0.00     0.091 A 
ATOM     54  F   UNL A   1      40.839  24.635  28.206  1.00  0.00    -0.205 F 
ATOM     55  C   UNL A   1      43.162  24.785  25.395  1.00  0.00     0.022 A 
BRANCH  53  56
ATOM     56  S   UNL A   1      41.963  22.497  26.328  1.00  0.00     0.127 S 
ATOM     57  O   UNL A   1      40.511  22.444  26.195  1.00  0.00    -0.237 OA
ATOM     58  O   UNL A   1      42.710  22.069  25.144  1.00  0.00    -0.237 OA
ATOM     59  O   UNL A   1      42.508  21.996  27.584  1.00  0.00    -0.744 OA
ENDBRANCH  53  56
ENDBRANCH  25  49
BRANCH  37  60
ATOM     60  C   UNL A   1      44.631  27.312  33.952  1.00  0.00     0.023 A 
ATOM     61  C   UNL A   1      45.894  27.929  33.915  1.00  0.00     0.012 A 
ATOM     62  C   UNL A   1      44.423  26.175  34.756  1.00  0.00     0.148 A 
ATOM     63  C   UNL A   1      46.952  27.394  34.646  1.00  0.00     0.002 A 
ATOM     64  C   UNL A   1      45.463  25.688  35.528  1.00  0.00     0.091 A 
ATOM     65  F   UNL A   1      43.208  25.607  34.758  1.00  0.00    -0.205 F 
ATOM     66  C   UNL A   1      46.733  26.285  35.461  1.00  0.00     0.022 A 
BRANCH  64  67
ATOM     67  S   UNL A   1      45.235  24.342  36.689  1.00  0.00     0.127 S 
ATOM     68  O   UNL A   1      44.245  24.907  37.605  1.00  0.00    -0.237 OA
ATOM     69  O   UNL A   1      44.732  23.274  35.826  1.00  0.00    -0.237 OA
ATOM     70  O   UNL A   1      46.545  24.082  37.273  1.00  0.00    -0.744 OA
ENDBRANCH  64  67
ENDBRANCH  37  60
ENDBRANCH  11  12
ENDBRANCH   4   6
ENDBRANCH   3   4
ENDBRANCH   2   3
ENDBRANCH   1   2
BRANCH   1  71
ATOM     71  O   UNL A   1      31.812  29.831  26.226  1.00  0.00    -0.462 OA
BRANCH  71  72
ATOM     72  C   UNL A   1      32.332  28.788  25.545  1.00  0.00     0.309 C 
ATOM     73  O   UNL A   1      33.400  28.840  24.952  1.00  0.00    -0.252 OA
BRANCH  72  74
ATOM     74  C   UNL A   1      31.400  27.512  25.632  1.00  0.00     0.106 C 
BRANCH  74  75
ATOM     75  C   UNL A   1      30.342  26.979  24.205  1.00  0.00     0.044 C 
BRANCH  75  76
ATOM     76  C   UNL A   1      28.289  27.418  23.588  1.00  0.00     0.171 C 
BRANCH  76  77
ATOM     77  O   UNL A   1      27.673  28.612  22.727  1.00  0.00    -0.292 OA
BRANCH  77  78
ATOM     78  C   UNL A   1      28.196  29.946  22.691  1.00  0.00     0.522 C 
ATOM     79  F   UNL A   1      29.235  30.130  23.533  1.00  0.00    -0.144 F 
ATOM     80  F   UNL A   1      28.592  30.274  21.438  1.00  0.00    -0.144 F 
ATOM     81  F   UNL A   1      27.230  30.821  23.037  1.00  0.00    -0.144 F 
ENDBRANCH  77  78
ENDBRANCH  76  77
ENDBRANCH  75  76
ENDBRANCH  74  75
BRANCH  74  82
ATOM     82  C   UNL A   1      31.866  26.336  26.558  1.00  0.00     0.052 C 
BRANCH  82  83
ATOM     83  C   UNL A   1      31.918  24.890  26.105  1.00  0.00    -0.028 A 
ATOM     84  C   UNL A   1      30.835  24.051  26.429  1.00  0.00     0.005 A 
ATOM     85  C   UNL A   1      32.856  24.380  25.192  1.00  0.00     0.044 A 
ATOM     86  C   UNL A   1      30.764  22.735  25.958  1.00  0.00     0.000 A 
ATOM     87  C   UNL A   1      32.852  23.031  24.821  1.00  0.00     0.021 A 
ATOM     88  Cl  UNL A   1      33.882  25.391  24.241  1.00  0.00    -0.084 Cl
ATOM     89  C   UNL A   1      31.803  22.206  25.203  1.00  0.00     0.002 A 
ENDBRANCH  82  83
ENDBRANCH  74  82
ENDBRANCH  72  74
ENDBRANCH  71  72
ENDBRANCH   1  71
TORSDOF 20
ENDMDL
MODEL 2
REMARK VINA RESULT:     -11.2      2.379      3.156
REMARK SMILES O=C(OCCOC(=O)[C@@H](CCOC(F)(F)F)Cc1ccccc1Cl)c1ccc(-c2c3nc(c(-c4cccc(S(=O)(=O)[O-])c4F)c4ccc([nH]4)c(-c4cccc(S(=O)(=O)[O-])c4F)c4nc(c(-c5cccc(S(=O)(=O)[O-])c5F)c5ccc2[nH]5)C=C4)C=C3)cc1
REMARK SMILES IDX 5 1 4 2 3 3 2 4 1 5 25 6 26 7 87 8 27 9 86 10 28 11 29 12
REMARK SMILES IDX 30 13 80 14 31 15 85 16 79 17 81 18 32 19 84 20 78 21 77 22
REMARK SMILES IDX 33 24 65 25 45 26 64 27 46 28 49 29 63 30 82 31 47 32 48 33
REMARK SMILES IDX 62 35 83 36 50 37 34 38 35 39 43 40 36 41 38 42 44 43 37 44
REMARK SMILES IDX 39 45 40 46 41 47 42 48 66 49 67 50 75 51 68 52 70 53 76 54
REMARK SMILES IDX 69 55 71 56 72 57 73 58 74 59 51 60 52 61 60 62 53 63 55 64
REMARK SMILES IDX 61 65 54 66 56 67 57 68 58 69 59 70 6 71 7 72 8 73 9 74
REMARK SMILES IDX 10 75 11 76 12 77 13 78 14 79 15 80 16 81 17 82 18 83 19 84
REMARK SMILES IDX 23 85 20 86 22 87 24 88 21 89
REMARK H PARENT 81 23 49 34
REMARK Flexibility Score: inf
ROOT
ATOM      1  C   UNL A   1      32.417  29.695  25.219  1.00  0.00     0.274 C 
ENDROOT
BRANCH   1   2
ATOM      2  C   UNL A   1      31.474  30.408  26.198  1.00  0.00     0.275 C 
BRANCH   2   3
ATOM      3  O   UNL A   1      31.807  31.787  26.283  1.00  0.00    -0.458 OA
BRANCH   3   4
ATOM      4  C   UNL A   1      32.620  32.280  27.224  1.00  0.00     0.338 C 
ATOM      5  O   UNL A   1      32.340  33.356  27.751  1.00  0.00    -0.246 OA
BRANCH   4   6
ATOM      6  C   UNL A   1      33.827  31.578  27.754  1.00  0.00     0.060 A 
ATOM      7  C   UNL A   1      34.278  29.802  27.837  1.00  0.00     0.016 A 
ATOM      8  C   UNL A   1      35.114  32.800  27.970  1.00  0.00     0.016 A 
ATOM      9  C   UNL A   1      36.033  29.337  28.023  1.00  0.00     0.010 A 
ATOM     10  C   UNL A   1      36.802  32.322  28.157  1.00  0.00     0.010 A 
ATOM     11  C   UNL A   1      37.285  30.629  28.289  1.00  0.00    -0.014 A 
BRANCH  11  12
ATOM     12  C   UNL A   1      38.507  30.332  29.122  1.00  0.00     0.031 A 
ATOM     13  C   UNL A   1      38.595  30.761  30.599  1.00  0.00     0.074 A 
ATOM     14  C   UNL A   1      39.379  29.444  28.619  1.00  0.00     0.049 A 
ATOM     15  N   UNL A   1      39.463  30.396  31.518  1.00  0.00    -0.248 NA
ATOM     16  C   UNL A   1      37.583  31.680  31.150  1.00  0.00     0.031 C 
ATOM     17  C   UNL A   1      39.345  28.929  27.252  1.00  0.00     0.029 A 
ATOM     18  N   UNL A   1      40.415  28.775  29.205  1.00  0.00    -0.354 N 
ATOM     19  C   UNL A   1      39.100  31.063  32.695  1.00  0.00     0.074 A 
ATOM     20  C   UNL A   1      37.917  31.814  32.417  1.00  0.00     0.031 C 
ATOM     21  C   UNL A   1      40.242  27.941  27.134  1.00  0.00     0.029 A 
ATOM     22  C   UNL A   1      41.016  27.868  28.367  1.00  0.00     0.049 A 
ATOM     23  H   UNL A   1      40.703  28.927  30.135  1.00  0.00     0.167 HD
ATOM     24  C   UNL A   1      39.710  31.108  33.901  1.00  0.00     0.034 A 
ATOM     25  C   UNL A   1      42.118  27.116  28.548  1.00  0.00     0.034 A 
ATOM     26  C   UNL A   1      40.935  30.423  34.159  1.00  0.00     0.049 A 
ATOM     27  C   UNL A   1      42.839  27.246  29.855  1.00  0.00     0.074 A 
ATOM     28  C   UNL A   1      41.730  30.464  35.286  1.00  0.00     0.029 A 
ATOM     29  N   UNL A   1      41.561  29.597  33.238  1.00  0.00    -0.354 N 
ATOM     30  N   UNL A   1      42.494  27.928  30.922  1.00  0.00    -0.248 NA
ATOM     31  C   UNL A   1      44.112  26.531  29.978  1.00  0.00     0.031 C 
ATOM     32  C   UNL A   1      42.881  29.718  35.014  1.00  0.00     0.029 A 
ATOM     33  C   UNL A   1      42.755  29.146  33.755  1.00  0.00     0.049 A 
ATOM     34  H   UNL A   1      41.206  29.369  32.349  1.00  0.00     0.167 HD
ATOM     35  C   UNL A   1      43.507  27.727  31.846  1.00  0.00     0.074 A 
ATOM     36  C   UNL A   1      44.463  26.831  31.222  1.00  0.00     0.031 C 
ATOM     37  C   UNL A   1      43.654  28.242  33.092  1.00  0.00     0.034 A 
BRANCH  24  38
ATOM     38  C   UNL A   1      39.135  32.033  34.953  1.00  0.00     0.023 A 
ATOM     39  C   UNL A   1      39.226  33.436  34.825  1.00  0.00     0.012 A 
ATOM     40  C   UNL A   1      38.535  31.491  36.108  1.00  0.00     0.148 A 
ATOM     41  C   UNL A   1      38.769  34.276  35.845  1.00  0.00     0.002 A 
ATOM     42  C   UNL A   1      38.037  32.333  37.097  1.00  0.00     0.091 A 
ATOM     43  F   UNL A   1      38.490  30.157  36.236  1.00  0.00    -0.205 F 
ATOM     44  C   UNL A   1      38.169  33.725  36.976  1.00  0.00     0.022 A 
BRANCH  42  45
ATOM     45  S   UNL A   1      37.197  31.721  38.562  1.00  0.00     0.127 S 
ATOM     46  O   UNL A   1      36.039  32.611  38.634  1.00  0.00    -0.237 OA
ATOM     47  O   UNL A   1      36.886  30.344  38.180  1.00  0.00    -0.237 OA
ATOM     48  O   UNL A   1      38.148  31.852  39.658  1.00  0.00    -0.744 OA
ENDBRANCH  42  45
ENDBRANCH  24  38
BRANCH  25  49
ATOM     49  C   UNL A   1      42.629  26.278  27.426  1.00  0.00     0.023 A 
ATOM     50  C   UNL A   1      43.656  26.743  26.586  1.00  0.00     0.012 A 
ATOM     51  C   UNL A   1      42.144  24.965  27.250  1.00  0.00     0.148 A 
ATOM     52  C   UNL A   1      44.192  25.912  25.598  1.00  0.00     0.002 A 
ATOM     53  C   UNL A   1      42.744  24.116  26.332  1.00  0.00     0.091 A 
ATOM     54  F   UNL A   1      41.129  24.553  28.023  1.00  0.00    -0.205 F 
ATOM     55  C   UNL A   1      43.756  24.592  25.489  1.00  0.00     0.022 A 
BRANCH  53  56
ATOM     56  S   UNL A   1      42.374  22.358  26.293  1.00  0.00     0.127 S 
ATOM     57  O   UNL A   1      43.182  21.906  25.165  1.00  0.00    -0.237 OA
ATOM     58  O   UNL A   1      42.843  21.919  27.607  1.00  0.00    -0.237 OA
ATOM     59  O   UNL A   1      40.929  22.267  26.119  1.00  0.00    -0.744 OA
ENDBRANCH  53  56
ENDBRANCH  25  49
BRANCH  37  60
ATOM     60  C   UNL A   1      44.855  27.807  33.873  1.00  0.00     0.023 A 
ATOM     61  C   UNL A   1      46.041  28.561  33.834  1.00  0.00     0.012 A 
ATOM     62  C   UNL A   1      44.755  26.689  34.722  1.00  0.00     0.148 A 
ATOM     63  C   UNL A   1      47.134  28.179  34.607  1.00  0.00     0.002 A 
ATOM     64  C   UNL A   1      45.824  26.355  35.534  1.00  0.00     0.091 A 
ATOM     65  F   UNL A   1      43.611  25.988  34.725  1.00  0.00    -0.205 F 
ATOM     66  C   UNL A   1      47.020  27.087  35.467  1.00  0.00     0.022 A 
BRANCH  64  67
ATOM     67  S   UNL A   1      45.720  25.040  36.749  1.00  0.00     0.127 S 
ATOM     68  O   UNL A   1      46.553  25.569  37.828  1.00  0.00    -0.237 OA
ATOM     69  O   UNL A   1      44.287  25.006  37.042  1.00  0.00    -0.237 OA
ATOM     70  O   UNL A   1      46.233  23.843  36.097  1.00  0.00    -0.744 OA
ENDBRANCH  64  67
ENDBRANCH  37  60
ENDBRANCH  11  12
ENDBRANCH   4   6
ENDBRANCH   3   4
ENDBRANCH   2   3
ENDBRANCH   1   2
BRANCH   1  71
ATOM     71  O   UNL A   1      31.844  28.414  24.883  1.00  0.00    -0.462 OA
BRANCH  71  72
ATOM     72  C   UNL A   1      31.411  27.969  23.685  1.00  0.00     0.309 C 
ATOM     73  O   UNL A   1      30.782  28.662  22.899  1.00  0.00    -0.252 OA
BRANCH  72  74
ATOM     74  C   UNL A   1      31.837  26.466  23.434  1.00  0.00     0.106 C 
BRANCH  74  75
ATOM     75  C   UNL A   1      33.616  25.941  23.450  1.00  0.00     0.044 C 
BRANCH  75  76
ATOM     76  C   UNL A   1      34.792  24.593  24.712  1.00  0.00     0.171 C 
BRANCH  76  77
ATOM     77  O   UNL A   1      36.250  23.972  24.528  1.00  0.00    -0.292 OA
BRANCH  77  78
ATOM     78  C   UNL A   1      36.522  22.681  23.968  1.00  0.00     0.522 C 
ATOM     79  F   UNL A   1      37.554  22.051  24.570  1.00  0.00    -0.144 F 
ATOM     80  F   UNL A   1      35.429  21.885  24.041  1.00  0.00    -0.144 F 
ATOM     81  F   UNL A   1      36.828  22.809  22.661  1.00  0.00    -0.144 F 
ENDBRANCH  77  78
ENDBRANCH  76  77
ENDBRANCH  75  76
ENDBRANCH  74  75
BRANCH  74  82
ATOM     82  C   UNL A   1      30.835  25.343  23.876  1.00  0.00     0.052 C 
BRANCH  82  83
ATOM     83  C   UNL A   1      31.256  23.914  24.152  1.00  0.00    -0.028 A 
ATOM     84  C   UNL A   1      31.642  23.110  23.062  1.00  0.00     0.005 A 
ATOM     85  C   UNL A   1      31.509  23.396  25.434  1.00  0.00     0.044 A 
ATOM     86  C   UNL A   1      32.139  21.816  23.248  1.00  0.00     0.000 A 
ATOM     87  C   UNL A   1      31.888  22.062  25.619  1.00  0.00     0.021 A 
ATOM     88  Cl  UNL A   1      31.664  24.396  26.833  1.00  0.00    -0.084 Cl
ATOM     89  C   UNL A   1      32.206  21.270  24.524  1.00  0.00     0.002 A 
ENDBRANCH  82  83
ENDBRANCH  74  82
ENDBRANCH  72  74
ENDBRANCH  71  72
ENDBRANCH   1  71
TORSDOF 20
ENDMDL
MODEL 3
REMARK VINA RESULT:     -11.0      3.256      4.047
REMARK SMILES O=C(OCCOC(=O)[C@@H](CCOC(F)(F)F)Cc1ccccc1Cl)c1ccc(-c2c3nc(c(-c4cccc(S(=O)(=O)[O-])c4F)c4ccc([nH]4)c(-c4cccc(S(=O)(=O)[O-])c4F)c4nc(c(-c5cccc(S(=O)(=O)[O-])c5F)c5ccc2[nH]5)C=C4)C=C3)cc1
REMARK SMILES IDX 5 1 4 2 3 3 2 4 1 5 25 6 26 7 87 8 27 9 86 10 28 11 29 12
REMARK SMILES IDX 30 13 80 14 31 15 85 16 79 17 81 18 32 19 84 20 78 21 77 22
REMARK SMILES IDX 33 24 65 25 45 26 64 27 46 28 49 29 63 30 82 31 47 32 48 33
REMARK SMILES IDX 62 35 83 36 50 37 34 38 35 39 43 40 36 41 38 42 44 43 37 44
REMARK SMILES IDX 39 45 40 46 41 47 42 48 66 49 67 50 75 51 68 52 70 53 76 54
REMARK SMILES IDX 69 55 71 56 72 57 73 58 74 59 51 60 52 61 60 62 53 63 55 64
REMARK SMILES IDX 61 65 54 66 56 67 57 68 58 69 59 70 6 71 7 72 8 73 9 74
REMARK SMILES IDX 10 75 11 76 12 77 13 78 14 79 15 80 16 81 17 82 18 83 19 84
REMARK SMILES IDX 23 85 20 86 22 87 24 88 21 89
REMARK H PARENT 81 23 49 34
REMARK Flexibility Score: inf
ROOT
ATOM      1  C   UNL A   1      33.167  29.367  26.161  1.00  0.00     0.274 C 
ENDROOT
BRANCH   1   2
ATOM      2  C   UNL A   1      32.425  30.557  26.786  1.00  0.00     0.275 C 
BRANCH   2   3
ATOM      3  O   UNL A   1      33.235  31.723  26.731  1.00  0.00    -0.458 OA
BRANCH   3   4
ATOM      4  C   UNL A   1      33.883  32.207  27.799  1.00  0.00     0.338 C 
ATOM      5  O   UNL A   1      33.488  33.252  28.313  1.00  0.00    -0.246 OA
BRANCH   4   6
ATOM      6  C   UNL A   1      35.025  31.525  28.477  1.00  0.00     0.060 A 
ATOM      7  C   UNL A   1      35.398  29.755  28.775  1.00  0.00     0.016 A 
ATOM      8  C   UNL A   1      36.343  32.720  28.650  1.00  0.00     0.016 A 
ATOM      9  C   UNL A   1      37.118  29.254  29.125  1.00  0.00     0.010 A 
ATOM     10  C   UNL A   1      37.996  32.209  28.997  1.00  0.00     0.010 A 
ATOM     11  C   UNL A   1      38.401  30.524  29.337  1.00  0.00    -0.014 A 
BRANCH  11  12
ATOM     12  C   UNL A   1      39.556  30.278  30.275  1.00  0.00     0.031 A 
ATOM     13  C   UNL A   1      39.529  30.780  31.732  1.00  0.00     0.074 A 
ATOM     14  C   UNL A   1      40.467  29.372  29.886  1.00  0.00     0.049 A 
ATOM     15  N   UNL A   1      40.323  30.467  32.733  1.00  0.00    -0.248 NA
ATOM     16  C   UNL A   1      38.474  31.719  32.157  1.00  0.00     0.031 C 
ATOM     17  C   UNL A   1      40.541  28.789  28.549  1.00  0.00     0.029 A 
ATOM     18  N   UNL A   1      41.457  28.740  30.584  1.00  0.00    -0.354 N 
ATOM     19  C   UNL A   1      39.868  31.189  33.843  1.00  0.00     0.074 A 
ATOM     20  C   UNL A   1      38.709  31.918  33.437  1.00  0.00     0.031 C 
ATOM     21  C   UNL A   1      41.447  27.803  28.550  1.00  0.00     0.029 A 
ATOM     22  C   UNL A   1      42.124  27.796  29.841  1.00  0.00     0.049 A 
ATOM     23  H   UNL A   1      41.671  28.940  31.525  1.00  0.00     0.167 HD
ATOM     24  C   UNL A   1      40.383  31.298  35.089  1.00  0.00     0.034 A 
ATOM     25  C   UNL A   1      43.210  27.062  30.144  1.00  0.00     0.034 A 
ATOM     26  C   UNL A   1      41.586  30.635  35.475  1.00  0.00     0.049 A 
ATOM     27  C   UNL A   1      43.828  27.262  31.495  1.00  0.00     0.074 A 
ATOM     28  C   UNL A   1      42.291  30.737  36.656  1.00  0.00     0.029 A 
ATOM     29  N   UNL A   1      42.284  29.769  34.648  1.00  0.00    -0.354 N 
ATOM     30  N   UNL A   1      43.398  27.993  32.497  1.00  0.00    -0.248 NA
ATOM     31  C   UNL A   1      45.090  26.562  31.752  1.00  0.00     0.031 C 
ATOM     32  C   UNL A   1      43.462  29.987  36.512  1.00  0.00     0.029 A 
ATOM     33  C   UNL A   1      43.436  29.352  35.277  1.00  0.00     0.049 A 
ATOM     34  H   UNL A   1      42.000  29.494  33.746  1.00  0.00     0.167 HD
ATOM     35  C   UNL A   1      44.338  27.845  33.505  1.00  0.00     0.074 A 
ATOM     36  C   UNL A   1      45.341  26.925  33.002  1.00  0.00     0.031 C 
ATOM     37  C   UNL A   1      44.386  28.422  34.731  1.00  0.00     0.034 A 
BRANCH  24  38
ATOM     38  C   UNL A   1      39.726  32.270  36.046  1.00  0.00     0.023 A 
ATOM     39  C   UNL A   1      38.644  31.877  36.863  1.00  0.00     0.012 A 
ATOM     40  C   UNL A   1      40.167  33.609  36.095  1.00  0.00     0.148 A 
ATOM     41  C   UNL A   1      37.992  32.807  37.678  1.00  0.00     0.002 A 
ATOM     42  C   UNL A   1      39.545  34.518  36.945  1.00  0.00     0.091 A 
ATOM     43  F   UNL A   1      41.170  33.978  35.286  1.00  0.00    -0.205 F 
ATOM     44  C   UNL A   1      38.446  34.124  37.724  1.00  0.00     0.022 A 
BRANCH  42  45
ATOM     45  S   UNL A   1      40.094  36.220  37.116  1.00  0.00     0.127 S 
ATOM     46  O   UNL A   1      39.232  36.703  38.193  1.00  0.00    -0.237 OA
ATOM     47  O   UNL A   1      41.499  36.049  37.488  1.00  0.00    -0.237 OA
ATOM     48  O   UNL A   1      39.878  36.847  35.820  1.00  0.00    -0.744 OA
ENDBRANCH  42  45
ENDBRANCH  24  38
BRANCH  25  49
ATOM     49  C   UNL A   1      43.809  26.173  29.108  1.00  0.00     0.023 A 
ATOM     50  C   UNL A   1      43.489  24.805  29.057  1.00  0.00     0.012 A 
ATOM     51  C   UNL A   1      44.640  26.718  28.107  1.00  0.00     0.148 A 
ATOM     52  C   UNL A   1      43.981  24.001  28.025  1.00  0.00     0.002 A 
ATOM     53  C   UNL A   1      45.047  25.938  27.035  1.00  0.00     0.091 A 
ATOM     54  F   UNL A   1      44.979  28.012  28.197  1.00  0.00    -0.205 F 
ATOM     55  C   UNL A   1      44.737  24.572  27.001  1.00  0.00     0.022 A 
BRANCH  53  56
ATOM     56  S   UNL A   1      45.835  26.658  25.591  1.00  0.00     0.127 S 
ATOM     57  O   UNL A   1      47.112  27.107  26.137  1.00  0.00    -0.237 OA
ATOM     58  O   UNL A   1      45.917  25.510  24.686  1.00  0.00    -0.237 OA
ATOM     59  O   UNL A   1      44.931  27.707  25.134  1.00  0.00    -0.744 OA
ENDBRANCH  53  56
ENDBRANCH  25  49
BRANCH  37  60
ATOM     60  C   UNL A   1      45.524  28.035  35.624  1.00  0.00     0.023 A 
ATOM     61  C   UNL A   1      46.717  28.779  35.621  1.00  0.00     0.012 A 
ATOM     62  C   UNL A   1      45.354  26.975  36.534  1.00  0.00     0.148 A 
ATOM     63  C   UNL A   1      47.748  28.445  36.494  1.00  0.00     0.002 A 
ATOM     64  C   UNL A   1      46.359  26.691  37.442  1.00  0.00     0.091 A 
ATOM     65  F   UNL A   1      44.207  26.281  36.501  1.00  0.00    -0.205 F 
ATOM     66  C   UNL A   1      47.563  27.412  37.413  1.00  0.00     0.022 A 
BRANCH  64  67
ATOM     67  S   UNL A   1      46.156  25.460  38.729  1.00  0.00     0.127 S 
ATOM     68  O   UNL A   1      47.354  25.680  39.538  1.00  0.00    -0.237 OA
ATOM     69  O   UNL A   1      44.905  25.879  39.360  1.00  0.00    -0.237 OA
ATOM     70  O   UNL A   1      46.091  24.171  38.053  1.00  0.00    -0.744 OA
ENDBRANCH  64  67
ENDBRANCH  37  60
ENDBRANCH  11  12
ENDBRANCH   4   6
ENDBRANCH   3   4
ENDBRANCH   2   3
ENDBRANCH   1   2
BRANCH   1  71
ATOM     71  O   UNL A   1      32.213  28.316  25.907  1.00  0.00    -0.462 OA
BRANCH  71  72
ATOM     72  C   UNL A   1      31.863  27.282  26.699  1.00  0.00     0.309 C 
ATOM     73  O   UNL A   1      31.138  27.401  27.676  1.00  0.00    -0.252 OA
BRANCH  72  74
ATOM     74  C   UNL A   1      32.487  25.920  26.191  1.00  0.00     0.106 C 
BRANCH  74  75
ATOM     75  C   UNL A   1      31.616  24.299  26.428  1.00  0.00     0.044 C 
BRANCH  75  76
ATOM     76  C   UNL A   1      31.350  22.520  25.183  1.00  0.00     0.171 C 
BRANCH  76  77
ATOM     77  O   UNL A   1      31.618  20.973  25.472  1.00  0.00    -0.292 OA
BRANCH  77  78
ATOM     78  C   UNL A   1      32.838  20.285  25.165  1.00  0.00     0.522 C 
ATOM     79  F   UNL A   1      32.683  18.946  25.089  1.00  0.00    -0.144 F 
ATOM     80  F   UNL A   1      33.357  20.727  23.994  1.00  0.00    -0.144 F 
ATOM     81  F   UNL A   1      33.755  20.538  26.120  1.00  0.00    -0.144 F 
ENDBRANCH  77  78
ENDBRANCH  76  77
ENDBRANCH  75  76
ENDBRANCH  74  75
BRANCH  74  82
ATOM     82  C   UNL A   1      33.407  25.971  24.923  1.00  0.00     0.052 C 
BRANCH  82  83
ATOM     83  C   UNL A   1      34.394  24.878  24.565  1.00  0.00    -0.028 A 
ATOM     84  C   UNL A   1      35.273  24.420  25.566  1.00  0.00     0.005 A 
ATOM     85  C   UNL A   1      34.350  24.127  23.379  1.00  0.00     0.044 A 
ATOM     86  C   UNL A   1      36.141  23.346  25.341  1.00  0.00     0.000 A 
ATOM     87  C   UNL A   1      35.298  23.135  23.108  1.00  0.00     0.021 A 
ATOM     88  Cl  UNL A   1      32.993  24.145  22.311  1.00  0.00    -0.084 Cl
ATOM     89  C   UNL A   1      36.195  22.741  24.092  1.00  0.00     0.002 A 
ENDBRANCH  82  83
ENDBRANCH  74  82
ENDBRANCH  72  74
ENDBRANCH  71  72
ENDBRANCH   1  71
TORSDOF 20
ENDMDL
