MODEL 1
REMARK VINA RESULT:     -10.7      0.000      0.000
REMARK SMILES Cc1ccn2c([C@H]3C[C@@H]3C(=O)OCCOC(=O)c3ccc(-c4c5nc(c(-c6cccc(S(=O)(=O)[O-])c6F)c6ccc([nH]6)c(-c6cccc(S(=O)(=O)[O-])c6F)c6nc(c(-c7cccc(S(=O)(=O)[O-])c7F)c7ccc4[nH]7)C=C6)C=C5)cc3)nnc2c1
REMARK SMILES IDX 14 1 13 2 12 3 10 4 11 5 9 6 7 7 8 8 6 9 1 10 2 11 3 12
REMARK SMILES IDX 84 13 4 14 83 15 5 16 82 17 81 18 15 19 16 20 17 21 18 22
REMARK SMILES IDX 19 23 80 24 20 25 79 26 21 27 22 28 23 29 73 30 24 31 78 32
REMARK SMILES IDX 72 33 74 34 25 35 77 36 71 37 70 38 26 40 58 41 38 42 57 43
REMARK SMILES IDX 39 44 42 45 56 46 75 47 40 48 41 49 55 51 76 52 43 53 27 54
REMARK SMILES IDX 28 55 36 56 29 57 31 58 37 59 30 60 32 61 33 62 34 63 35 64
REMARK SMILES IDX 59 65 60 66 68 67 61 68 63 69 69 70 62 71 64 72 65 73 66 74
REMARK SMILES IDX 67 75 44 76 45 77 53 78 46 79 48 80 54 81 47 82 49 83 50 84
REMARK SMILES IDX 51 85 52 86
REMARK H PARENT 74 39 42 50
REMARK Flexibility Score: inf
ROOT
ATOM      1  C   UNL A   1      42.390  19.705  25.691  1.00  0.00     0.275 C 
ENDROOT
BRANCH   1   2
ATOM      2  C   UNL A   1      43.843  19.263  25.485  1.00  0.00     0.274 C 
BRANCH   2   3
ATOM      3  O   UNL A   1      44.425  20.036  24.415  1.00  0.00    -0.462 OA
BRANCH   3   4
ATOM      4  C   UNL A   1      45.603  20.671  24.662  1.00  0.00     0.309 C 
ATOM      5  O   UNL A   1      46.636  20.150  25.056  1.00  0.00    -0.252 OA
BRANCH   4   6
ATOM      6  C   UNL A   1      45.489  22.118  24.371  1.00  0.00     0.110 C 
ATOM      7  C   UNL A   1      45.148  23.124  25.463  1.00  0.00     0.073 C 
ATOM      8  C   UNL A   1      44.161  22.810  24.376  1.00  0.00     0.028 C 
BRANCH   7   9
ATOM      9  C   UNL A   1      45.878  24.461  25.457  1.00  0.00     0.141 A 
ATOM     10  C   UNL A   1      49.674  26.892  28.738  1.00  0.00     0.044 C 
ATOM     11  C   UNL A   1      48.623  26.268  27.870  1.00  0.00    -0.046 A 
ATOM     12  C   UNL A   1      47.702  25.331  28.513  1.00  0.00     0.022 A 
ATOM     13  C   UNL A   1      48.512  26.536  26.551  1.00  0.00     0.053 A 
ATOM     14  C   UNL A   1      46.845  24.618  27.767  1.00  0.00     0.095 A 
ATOM     15  C   UNL A   1      47.443  25.952  25.814  1.00  0.00     0.161 A 
ATOM     16  N   UNL A   1      46.739  24.924  26.421  1.00  0.00    -0.286 N 
ATOM     17  N   UNL A   1      46.861  26.243  24.668  1.00  0.00    -0.130 NA
ATOM     18  N   UNL A   1      45.814  25.353  24.488  1.00  0.00    -0.134 NA
ENDBRANCH   7   9
ENDBRANCH   4   6
ENDBRANCH   3   4
ENDBRANCH   2   3
ENDBRANCH   1   2
BRANCH   1  19
ATOM     19  O   UNL A   1      42.384  20.830  26.585  1.00  0.00    -0.458 OA
BRANCH  19  20
ATOM     20  C   UNL A   1      41.328  20.874  27.443  1.00  0.00     0.338 C 
ATOM     21  O   UNL A   1      40.791  19.931  27.966  1.00  0.00    -0.246 OA
BRANCH  20  22
ATOM     22  C   UNL A   1      41.183  22.290  27.877  1.00  0.00     0.060 A 
ATOM     23  C   UNL A   1      40.222  23.163  27.347  1.00  0.00     0.016 A 
ATOM     24  C   UNL A   1      42.187  22.789  28.694  1.00  0.00     0.016 A 
ATOM     25  C   UNL A   1      40.361  24.551  27.510  1.00  0.00     0.010 A 
ATOM     26  C   UNL A   1      42.308  24.164  28.845  1.00  0.00     0.010 A 
ATOM     27  C   UNL A   1      41.462  25.068  28.195  1.00  0.00    -0.014 A 
BRANCH  27  28
ATOM     28  C   UNL A   1      41.560  26.493  28.575  1.00  0.00     0.031 A 
ATOM     29  C   UNL A   1      42.817  27.064  28.033  1.00  0.00     0.074 A 
ATOM     30  C   UNL A   1      40.698  27.303  29.245  1.00  0.00     0.049 A 
ATOM     31  N   UNL A   1      43.950  27.085  28.658  1.00  0.00    -0.248 NA
ATOM     32  C   UNL A   1      42.905  27.440  26.614  1.00  0.00     0.031 C 
ATOM     33  C   UNL A   1      39.352  27.012  29.743  1.00  0.00     0.029 A 
ATOM     34  N   UNL A   1      40.840  28.634  29.578  1.00  0.00    -0.354 N 
ATOM     35  C   UNL A   1      44.814  27.738  27.795  1.00  0.00     0.074 A 
ATOM     36  C   UNL A   1      44.212  27.682  26.489  1.00  0.00     0.031 C 
ATOM     37  C   UNL A   1      38.740  28.161  30.145  1.00  0.00     0.029 A 
ATOM     38  C   UNL A   1      39.687  29.264  30.090  1.00  0.00     0.049 A 
ATOM     39  H   UNL A   1      41.692  29.114  29.466  1.00  0.00     0.167 HD
ATOM     40  C   UNL A   1      45.753  28.594  28.277  1.00  0.00     0.034 A 
ATOM     41  C   UNL A   1      39.570  30.572  30.476  1.00  0.00     0.034 A 
ATOM     42  C   UNL A   1      45.845  28.538  29.710  1.00  0.00     0.049 A 
ATOM     43  C   UNL A   1      40.938  30.917  30.926  1.00  0.00     0.074 A 
ATOM     44  C   UNL A   1      46.345  27.695  30.676  1.00  0.00     0.029 A 
ATOM     45  N   UNL A   1      44.969  29.390  30.324  1.00  0.00    -0.354 N 
ATOM     46  N   UNL A   1      41.430  30.492  32.054  1.00  0.00    -0.248 NA
ATOM     47  C   UNL A   1      41.856  31.659  30.068  1.00  0.00     0.031 C 
ATOM     48  C   UNL A   1      45.639  27.999  31.880  1.00  0.00     0.029 A 
ATOM     49  C   UNL A   1      44.735  29.022  31.617  1.00  0.00     0.049 A 
ATOM     50  H   UNL A   1      44.558  30.170  29.886  1.00  0.00     0.167 HD
ATOM     51  C   UNL A   1      42.787  30.514  31.837  1.00  0.00     0.074 A 
ATOM     52  C   UNL A   1      42.992  31.437  30.732  1.00  0.00     0.031 C 
ATOM     53  C   UNL A   1      43.571  29.511  32.312  1.00  0.00     0.034 A 
BRANCH  40  54
ATOM     54  C   UNL A   1      46.211  29.833  27.550  1.00  0.00     0.023 A 
ATOM     55  C   UNL A   1      47.595  30.093  27.519  1.00  0.00     0.012 A 
ATOM     56  C   UNL A   1      45.347  30.878  27.153  1.00  0.00     0.148 A 
ATOM     57  C   UNL A   1      48.093  31.331  27.097  1.00  0.00     0.002 A 
ATOM     58  C   UNL A   1      45.847  32.069  26.645  1.00  0.00     0.091 A 
ATOM     59  F   UNL A   1      44.037  30.797  27.416  1.00  0.00    -0.205 F 
ATOM     60  C   UNL A   1      47.221  32.310  26.633  1.00  0.00     0.022 A 
BRANCH  58  61
ATOM     61  S   UNL A   1      44.750  33.338  26.004  1.00  0.00     0.127 S 
ATOM     62  O   UNL A   1      44.026  33.736  27.209  1.00  0.00    -0.237 OA
ATOM     63  O   UNL A   1      45.700  34.325  25.493  1.00  0.00    -0.237 OA
ATOM     64  O   UNL A   1      43.960  32.678  24.973  1.00  0.00    -0.744 OA
ENDBRANCH  58  61
ENDBRANCH  40  54
BRANCH  41  65
ATOM     65  C   UNL A   1      38.528  31.645  30.712  1.00  0.00     0.023 A 
ATOM     66  C   UNL A   1      37.482  31.765  29.754  1.00  0.00     0.012 A 
ATOM     67  C   UNL A   1      38.302  32.264  31.950  1.00  0.00     0.148 A 
ATOM     68  C   UNL A   1      36.220  32.278  30.071  1.00  0.00     0.002 A 
ATOM     69  C   UNL A   1      37.015  32.719  32.293  1.00  0.00     0.091 A 
ATOM     70  F   UNL A   1      39.331  32.380  32.794  1.00  0.00    -0.205 F 
ATOM     71  C   UNL A   1      35.968  32.703  31.362  1.00  0.00     0.022 A 
BRANCH  69  72
ATOM     72  S   UNL A   1      36.541  33.165  33.978  1.00  0.00     0.127 S 
ATOM     73  O   UNL A   1      37.086  34.516  34.113  1.00  0.00    -0.237 OA
ATOM     74  O   UNL A   1      35.083  33.099  33.905  1.00  0.00    -0.237 OA
ATOM     75  O   UNL A   1      37.166  32.168  34.837  1.00  0.00    -0.744 OA
ENDBRANCH  69  72
ENDBRANCH  41  65
BRANCH  53  76
ATOM     76  C   UNL A   1      43.073  28.739  33.494  1.00  0.00     0.023 A 
ATOM     77  C   UNL A   1      42.034  27.793  33.407  1.00  0.00     0.012 A 
ATOM     78  C   UNL A   1      43.762  28.902  34.705  1.00  0.00     0.148 A 
ATOM     79  C   UNL A   1      41.694  27.014  34.517  1.00  0.00     0.002 A 
ATOM     80  C   UNL A   1      43.453  28.098  35.790  1.00  0.00     0.091 A 
ATOM     81  F   UNL A   1      44.732  29.828  34.759  1.00  0.00    -0.205 F 
ATOM     82  C   UNL A   1      42.415  27.155  35.702  1.00  0.00     0.022 A 
BRANCH  80  83
ATOM     83  S   UNL A   1      44.414  28.150  37.303  1.00  0.00     0.127 S 
ATOM     84  O   UNL A   1      43.827  27.059  38.078  1.00  0.00    -0.237 OA
ATOM     85  O   UNL A   1      45.769  27.895  36.814  1.00  0.00    -0.237 OA
ATOM     86  O   UNL A   1      44.220  29.482  37.862  1.00  0.00    -0.744 OA
ENDBRANCH  80  83
ENDBRANCH  53  76
ENDBRANCH  27  28
ENDBRANCH  20  22
ENDBRANCH  19  20
ENDBRANCH   1  19
TORSDOF 15
ENDMDL
MODEL 2
REMARK VINA RESULT:     -10.7      5.198     11.270
REMARK SMILES Cc1ccn2c([C@H]3C[C@@H]3C(=O)OCCOC(=O)c3ccc(-c4c5nc(c(-c6cccc(S(=O)(=O)[O-])c6F)c6ccc([nH]6)c(-c6cccc(S(=O)(=O)[O-])c6F)c6nc(c(-c7cccc(S(=O)(=O)[O-])c7F)c7ccc4[nH]7)C=C6)C=C5)cc3)nnc2c1
REMARK SMILES IDX 14 1 13 2 12 3 10 4 11 5 9 6 7 7 8 8 6 9 1 10 2 11 3 12
REMARK SMILES IDX 84 13 4 14 83 15 5 16 82 17 81 18 15 19 16 20 17 21 18 22
REMARK SMILES IDX 19 23 80 24 20 25 79 26 21 27 22 28 23 29 73 30 24 31 78 32
REMARK SMILES IDX 72 33 74 34 25 35 77 36 71 37 70 38 26 40 58 41 38 42 57 43
REMARK SMILES IDX 39 44 42 45 56 46 75 47 40 48 41 49 55 51 76 52 43 53 27 54
REMARK SMILES IDX 28 55 36 56 29 57 31 58 37 59 30 60 32 61 33 62 34 63 35 64
REMARK SMILES IDX 59 65 60 66 68 67 61 68 63 69 69 70 62 71 64 72 65 73 66 74
REMARK SMILES IDX 67 75 44 76 45 77 53 78 46 79 48 80 54 81 47 82 49 83 50 84
REMARK SMILES IDX 51 85 52 86
REMARK H PARENT 74 39 42 50
REMARK Flexibility Score: inf
ROOT
ATOM      1  C   UNL A   1      34.927  30.380  27.910  1.00  0.00     0.275 C 
ENDROOT
BRANCH   1   2
ATOM      2  C   UNL A   1      34.092  29.636  26.862  1.00  0.00     0.274 C 
BRANCH   2   3
ATOM      3  O   UNL A   1      32.960  30.451  26.496  1.00  0.00    -0.462 OA
BRANCH   3   4
ATOM      4  C   UNL A   1      32.018  29.897  25.685  1.00  0.00     0.309 C 
ATOM      5  O   UNL A   1      31.070  30.476  25.175  1.00  0.00    -0.252 OA
BRANCH   4   6
ATOM      6  C   UNL A   1      32.293  28.458  25.471  1.00  0.00     0.110 C 
ATOM      7  C   UNL A   1      31.658  27.691  24.318  1.00  0.00     0.073 C 
ATOM      8  C   UNL A   1      31.248  27.419  25.736  1.00  0.00     0.028 C 
BRANCH   7   9
ATOM      9  C   UNL A   1      32.518  26.678  23.573  1.00  0.00     0.141 A 
ATOM     10  C   UNL A   1      32.386  21.147  22.887  1.00  0.00     0.044 C 
ATOM     11  C   UNL A   1      32.458  22.629  23.097  1.00  0.00    -0.046 A 
ATOM     12  C   UNL A   1      31.913  23.149  24.351  1.00  0.00     0.022 A 
ATOM     13  C   UNL A   1      32.991  23.470  22.185  1.00  0.00     0.053 A 
ATOM     14  C   UNL A   1      31.799  24.473  24.531  1.00  0.00     0.095 A 
ATOM     15  C   UNL A   1      33.082  24.858  22.492  1.00  0.00     0.161 A 
ATOM     16  N   UNL A   1      32.368  25.313  23.590  1.00  0.00    -0.286 N 
ATOM     17  N   UNL A   1      33.807  25.850  22.018  1.00  0.00    -0.130 NA
ATOM     18  N   UNL A   1      33.515  26.981  22.764  1.00  0.00    -0.134 NA
ENDBRANCH   7   9
ENDBRANCH   4   6
ENDBRANCH   3   4
ENDBRANCH   2   3
ENDBRANCH   1   2
BRANCH   1  19
ATOM     19  O   UNL A   1      36.316  30.161  27.617  1.00  0.00    -0.458 OA
BRANCH  19  20
ATOM     20  C   UNL A   1      37.128  30.097  28.708  1.00  0.00     0.338 C 
ATOM     21  O   UNL A   1      36.866  30.483  29.819  1.00  0.00    -0.246 OA
BRANCH  20  22
ATOM     22  C   UNL A   1      38.242  29.170  28.365  1.00  0.00     0.060 A 
ATOM     23  C   UNL A   1      38.776  28.241  29.269  1.00  0.00     0.016 A 
ATOM     24  C   UNL A   1      38.886  29.404  27.159  1.00  0.00     0.016 A 
ATOM     25  C   UNL A   1      40.034  27.665  29.029  1.00  0.00     0.010 A 
ATOM     26  C   UNL A   1      40.129  28.825  26.939  1.00  0.00     0.010 A 
ATOM     27  C   UNL A   1      40.763  28.022  27.893  1.00  0.00    -0.014 A 
BRANCH  27  28
ATOM     28  C   UNL A   1      41.989  27.307  27.482  1.00  0.00     0.031 A 
ATOM     29  C   UNL A   1      41.705  25.853  27.390  1.00  0.00     0.074 A 
ATOM     30  C   UNL A   1      43.223  27.765  27.144  1.00  0.00     0.049 A 
ATOM     31  N   UNL A   1      41.846  25.009  28.361  1.00  0.00    -0.248 NA
ATOM     32  C   UNL A   1      41.000  25.313  26.218  1.00  0.00     0.031 C 
ATOM     33  C   UNL A   1      43.696  29.145  27.019  1.00  0.00     0.029 A 
ATOM     34  N   UNL A   1      44.341  27.049  26.768  1.00  0.00    -0.354 N 
ATOM     35  C   UNL A   1      41.507  23.785  27.811  1.00  0.00     0.074 A 
ATOM     36  C   UNL A   1      40.752  24.063  26.619  1.00  0.00     0.031 C 
ATOM     37  C   UNL A   1      44.925  29.171  26.432  1.00  0.00     0.029 A 
ATOM     38  C   UNL A   1      45.418  27.811  26.272  1.00  0.00     0.049 A 
ATOM     39  H   UNL A   1      44.383  26.068  26.841  1.00  0.00     0.167 HD
ATOM     40  C   UNL A   1      42.187  22.660  28.160  1.00  0.00     0.034 A 
ATOM     41  C   UNL A   1      46.622  27.337  25.824  1.00  0.00     0.034 A 
ATOM     42  C   UNL A   1      43.079  22.894  29.262  1.00  0.00     0.049 A 
ATOM     43  C   UNL A   1      46.812  26.098  26.613  1.00  0.00     0.074 A 
ATOM     44  C   UNL A   1      43.004  23.081  30.623  1.00  0.00     0.029 A 
ATOM     45  N   UNL A   1      44.309  23.332  28.855  1.00  0.00    -0.354 N 
ATOM     46  N   UNL A   1      47.140  26.116  27.873  1.00  0.00    -0.248 NA
ATOM     47  C   UNL A   1      46.524  24.784  26.047  1.00  0.00     0.031 C 
ATOM     48  C   UNL A   1      44.200  23.765  31.001  1.00  0.00     0.029 A 
ATOM     49  C   UNL A   1      44.974  23.968  29.863  1.00  0.00     0.049 A 
ATOM     50  H   UNL A   1      44.669  23.205  27.948  1.00  0.00     0.167 HD
ATOM     51  C   UNL A   1      46.663  24.916  28.342  1.00  0.00     0.074 A 
ATOM     52  C   UNL A   1      46.521  24.065  27.171  1.00  0.00     0.031 C 
ATOM     53  C   UNL A   1      46.077  24.846  29.566  1.00  0.00     0.034 A 
BRANCH  40  54
ATOM     54  C   UNL A   1      42.453  21.515  27.217  1.00  0.00     0.023 A 
ATOM     55  C   UNL A   1      41.946  20.249  27.574  1.00  0.00     0.012 A 
ATOM     56  C   UNL A   1      43.398  21.561  26.168  1.00  0.00     0.148 A 
ATOM     57  C   UNL A   1      42.351  19.089  26.906  1.00  0.00     0.002 A 
ATOM     58  C   UNL A   1      43.724  20.421  25.445  1.00  0.00     0.091 A 
ATOM     59  F   UNL A   1      44.115  22.672  25.964  1.00  0.00    -0.205 F 
ATOM     60  C   UNL A   1      43.218  19.176  25.822  1.00  0.00     0.022 A 
BRANCH  58  61
ATOM     61  S   UNL A   1      44.812  20.506  24.019  1.00  0.00     0.127 S 
ATOM     62  O   UNL A   1      46.124  20.587  24.655  1.00  0.00    -0.237 OA
ATOM     63  O   UNL A   1      44.522  19.241  23.345  1.00  0.00    -0.237 OA
ATOM     64  O   UNL A   1      44.386  21.688  23.281  1.00  0.00    -0.744 OA
ENDBRANCH  58  61
ENDBRANCH  40  54
BRANCH  41  65
ATOM     65  C   UNL A   1      47.796  27.730  24.954  1.00  0.00     0.023 A 
ATOM     66  C   UNL A   1      49.098  27.615  25.517  1.00  0.00     0.012 A 
ATOM     67  C   UNL A   1      47.737  27.841  23.557  1.00  0.00     0.148 A 
ATOM     68  C   UNL A   1      50.244  27.410  24.741  1.00  0.00     0.002 A 
ATOM     69  C   UNL A   1      48.876  27.569  22.774  1.00  0.00     0.091 A 
ATOM     70  F   UNL A   1      46.573  28.182  22.999  1.00  0.00    -0.205 F 
ATOM     71  C   UNL A   1      50.123  27.329  23.366  1.00  0.00     0.022 A 
BRANCH  69  72
ATOM     72  S   UNL A   1      48.807  27.306  20.989  1.00  0.00     0.127 S 
ATOM     73  O   UNL A   1      49.941  28.095  20.508  1.00  0.00    -0.237 OA
ATOM     74  O   UNL A   1      48.986  25.859  20.894  1.00  0.00    -0.237 OA
ATOM     75  O   UNL A   1      47.502  27.799  20.571  1.00  0.00    -0.744 OA
ENDBRANCH  69  72
ENDBRANCH  41  65
BRANCH  53  76
ATOM     76  C   UNL A   1      46.452  25.884  30.577  1.00  0.00     0.023 A 
ATOM     77  C   UNL A   1      47.644  25.828  31.326  1.00  0.00     0.012 A 
ATOM     78  C   UNL A   1      45.618  27.007  30.684  1.00  0.00     0.148 A 
ATOM     79  C   UNL A   1      47.999  26.888  32.165  1.00  0.00     0.002 A 
ATOM     80  C   UNL A   1      45.996  28.075  31.483  1.00  0.00     0.091 A 
ATOM     81  F   UNL A   1      44.480  27.017  29.974  1.00  0.00    -0.205 F 
ATOM     82  C   UNL A   1      47.184  28.018  32.230  1.00  0.00     0.022 A 
BRANCH  80  83
ATOM     83  S   UNL A   1      45.052  29.599  31.523  1.00  0.00     0.127 S 
ATOM     84  O   UNL A   1      45.798  30.397  32.494  1.00  0.00    -0.237 OA
ATOM     85  O   UNL A   1      45.159  30.061  30.138  1.00  0.00    -0.237 OA
ATOM     86  O   UNL A   1      43.701  29.230  31.929  1.00  0.00    -0.744 OA
ENDBRANCH  80  83
ENDBRANCH  53  76
ENDBRANCH  27  28
ENDBRANCH  20  22
ENDBRANCH  19  20
ENDBRANCH   1  19
TORSDOF 15
ENDMDL
MODEL 3
REMARK VINA RESULT:     -10.6      4.450      9.761
REMARK SMILES Cc1ccn2c([C@H]3C[C@@H]3C(=O)OCCOC(=O)c3ccc(-c4c5nc(c(-c6cccc(S(=O)(=O)[O-])c6F)c6ccc([nH]6)c(-c6cccc(S(=O)(=O)[O-])c6F)c6nc(c(-c7cccc(S(=O)(=O)[O-])c7F)c7ccc4[nH]7)C=C6)C=C5)cc3)nnc2c1
REMARK SMILES IDX 14 1 13 2 12 3 10 4 11 5 9 6 7 7 8 8 6 9 1 10 2 11 3 12
REMARK SMILES IDX 84 13 4 14 83 15 5 16 82 17 81 18 15 19 16 20 17 21 18 22
REMARK SMILES IDX 19 23 80 24 20 25 79 26 21 27 22 28 23 29 73 30 24 31 78 32
REMARK SMILES IDX 72 33 74 34 25 35 77 36 71 37 70 38 26 40 58 41 38 42 57 43
REMARK SMILES IDX 39 44 42 45 56 46 75 47 40 48 41 49 55 51 76 52 43 53 27 54
REMARK SMILES IDX 28 55 36 56 29 57 31 58 37 59 30 60 32 61 33 62 34 63 35 64
REMARK SMILES IDX 59 65 60 66 68 67 61 68 63 69 69 70 62 71 64 72 65 73 66 74
REMARK SMILES IDX 67 75 44 76 45 77 53 78 46 79 48 80 54 81 47 82 49 83 50 84
REMARK SMILES IDX 51 85 52 86
REMARK H PARENT 74 39 42 50
REMARK Flexibility Score: inf
ROOT
ATOM      1  C   UNL A   1      35.093  20.970  25.342  1.00  0.00     0.275 C 
ENDROOT
BRANCH   1   2
ATOM      2  C   UNL A   1      33.935  21.705  24.657  1.00  0.00     0.274 C 
BRANCH   2   3
ATOM      3  O   UNL A   1      34.472  22.636  23.693  1.00  0.00    -0.462 OA
BRANCH   3   4
ATOM      4  C   UNL A   1      33.653  23.627  23.249  1.00  0.00     0.309 C 
ATOM      5  O   UNL A   1      33.164  23.716  22.132  1.00  0.00    -0.252 OA
BRANCH   4   6
ATOM      6  C   UNL A   1      33.397  24.615  24.321  1.00  0.00     0.110 C 
ATOM      7  C   UNL A   1      33.831  26.069  24.181  1.00  0.00     0.073 C 
ATOM      8  C   UNL A   1      34.512  25.157  25.161  1.00  0.00     0.028 C 
BRANCH   7   9
ATOM      9  C   UNL A   1      32.885  27.150  24.689  1.00  0.00     0.141 A 
ATOM     10  C   UNL A   1      33.468  31.781  27.737  1.00  0.00     0.044 C 
ATOM     11  C   UNL A   1      33.289  30.517  26.952  1.00  0.00    -0.046 A 
ATOM     12  C   UNL A   1      34.232  29.431  27.220  1.00  0.00     0.022 A 
ATOM     13  C   UNL A   1      32.316  30.362  26.029  1.00  0.00     0.053 A 
ATOM     14  C   UNL A   1      34.230  28.338  26.443  1.00  0.00     0.095 A 
ATOM     15  C   UNL A   1      32.174  29.105  25.376  1.00  0.00     0.161 A 
ATOM     16  N   UNL A   1      33.211  28.196  25.516  1.00  0.00    -0.286 N 
ATOM     17  N   UNL A   1      31.190  28.525  24.719  1.00  0.00    -0.130 NA
ATOM     18  N   UNL A   1      31.611  27.253  24.364  1.00  0.00    -0.134 NA
ENDBRANCH   7   9
ENDBRANCH   4   6
ENDBRANCH   3   4
ENDBRANCH   2   3
ENDBRANCH   1   2
BRANCH   1  19
ATOM     19  O   UNL A   1      36.322  21.599  24.948  1.00  0.00    -0.458 OA
BRANCH  19  20
ATOM     20  C   UNL A   1      37.435  20.830  25.104  1.00  0.00     0.338 C 
ATOM     21  O   UNL A   1      37.625  19.741  24.626  1.00  0.00    -0.246 OA
BRANCH  20  22
ATOM     22  C   UNL A   1      38.492  21.710  25.675  1.00  0.00     0.060 A 
ATOM     23  C   UNL A   1      39.726  21.229  26.137  1.00  0.00     0.016 A 
ATOM     24  C   UNL A   1      38.126  23.022  25.933  1.00  0.00     0.016 A 
ATOM     25  C   UNL A   1      40.518  22.018  26.986  1.00  0.00     0.010 A 
ATOM     26  C   UNL A   1      38.922  23.788  26.774  1.00  0.00     0.010 A 
ATOM     27  C   UNL A   1      40.076  23.283  27.382  1.00  0.00    -0.014 A 
BRANCH  27  28
ATOM     28  C   UNL A   1      40.946  24.236  28.101  1.00  0.00     0.031 A 
ATOM     29  C   UNL A   1      40.292  25.568  28.142  1.00  0.00     0.074 A 
ATOM     30  C   UNL A   1      42.137  24.062  28.733  1.00  0.00     0.049 A 
ATOM     31  N   UNL A   1      40.446  26.495  27.252  1.00  0.00    -0.248 NA
ATOM     32  C   UNL A   1      39.214  25.830  29.106  1.00  0.00     0.031 C 
ATOM     33  C   UNL A   1      42.897  22.830  28.951  1.00  0.00     0.029 A 
ATOM     34  N   UNL A   1      42.914  24.993  29.391  1.00  0.00    -0.354 N 
ATOM     35  C   UNL A   1      39.687  27.555  27.718  1.00  0.00     0.074 A 
ATOM     36  C   UNL A   1      38.762  27.011  28.676  1.00  0.00     0.031 C 
ATOM     37  C   UNL A   1      43.914  23.053  29.829  1.00  0.00     0.029 A 
ATOM     38  C   UNL A   1      43.996  24.475  30.131  1.00  0.00     0.049 A 
ATOM     39  H   UNL A   1      42.725  25.958  29.346  1.00  0.00     0.167 HD
ATOM     40  C   UNL A   1      40.126  28.833  27.570  1.00  0.00     0.034 A 
ATOM     41  C   UNL A   1      44.897  25.187  30.876  1.00  0.00     0.034 A 
ATOM     42  C   UNL A   1      41.287  28.908  26.726  1.00  0.00     0.049 A 
ATOM     43  C   UNL A   1      44.954  26.493  30.181  1.00  0.00     0.074 A 
ATOM     44  C   UNL A   1      41.591  28.816  25.387  1.00  0.00     0.029 A 
ATOM     45  N   UNL A   1      42.452  28.747  27.423  1.00  0.00    -0.354 N 
ATOM     46  N   UNL A   1      45.569  26.653  29.044  1.00  0.00    -0.248 NA
ATOM     47  C   UNL A   1      44.218  27.651  30.677  1.00  0.00     0.031 C 
ATOM     48  C   UNL A   1      42.975  28.471  25.313  1.00  0.00     0.029 A 
ATOM     49  C   UNL A   1      43.478  28.370  26.606  1.00  0.00     0.049 A 
ATOM     50  H   UNL A   1      42.539  28.885  28.394  1.00  0.00     0.167 HD
ATOM     51  C   UNL A   1      44.934  27.737  28.489  1.00  0.00     0.074 A 
ATOM     52  C   UNL A   1      44.305  28.435  29.600  1.00  0.00     0.031 C 
ATOM     53  C   UNL A   1      44.662  27.761  27.158  1.00  0.00     0.034 A 
BRANCH  40  54
ATOM     54  C   UNL A   1      39.860  29.932  28.568  1.00  0.00     0.023 A 
ATOM     55  C   UNL A   1      40.808  30.122  29.592  1.00  0.00     0.012 A 
ATOM     56  C   UNL A   1      38.613  30.580  28.712  1.00  0.00     0.148 A 
ATOM     57  C   UNL A   1      40.531  30.932  30.699  1.00  0.00     0.002 A 
ATOM     58  C   UNL A   1      38.377  31.458  29.761  1.00  0.00     0.091 A 
ATOM     59  F   UNL A   1      37.584  30.230  27.931  1.00  0.00    -0.205 F 
ATOM     60  C   UNL A   1      39.327  31.624  30.770  1.00  0.00     0.022 A 
BRANCH  58  61
ATOM     61  S   UNL A   1      36.848  32.394  29.864  1.00  0.00     0.127 S 
ATOM     62  O   UNL A   1      37.151  33.334  30.939  1.00  0.00    -0.237 OA
ATOM     63  O   UNL A   1      36.765  32.980  28.527  1.00  0.00    -0.237 OA
ATOM     64  O   UNL A   1      35.813  31.408  30.150  1.00  0.00    -0.744 OA
ENDBRANCH  58  61
ENDBRANCH  40  54
BRANCH  41  65
ATOM     65  C   UNL A   1      45.888  25.018  32.008  1.00  0.00     0.023 A 
ATOM     66  C   UNL A   1      47.006  25.898  32.038  1.00  0.00     0.012 A 
ATOM     67  C   UNL A   1      45.609  24.336  33.202  1.00  0.00     0.148 A 
ATOM     68  C   UNL A   1      47.671  26.238  33.221  1.00  0.00     0.002 A 
ATOM     69  C   UNL A   1      46.230  24.726  34.404  1.00  0.00     0.091 A 
ATOM     70  F   UNL A   1      44.725  23.336  33.165  1.00  0.00    -0.205 F 
ATOM     71  C   UNL A   1      47.243  25.694  34.417  1.00  0.00     0.022 A 
BRANCH  69  72
ATOM     72  S   UNL A   1      45.661  24.183  36.030  1.00  0.00     0.127 S 
ATOM     73  O   UNL A   1      44.241  24.529  36.000  1.00  0.00    -0.237 OA
ATOM     74  O   UNL A   1      45.942  22.750  35.980  1.00  0.00    -0.237 OA
ATOM     75  O   UNL A   1      46.452  24.938  36.993  1.00  0.00    -0.744 OA
ENDBRANCH  69  72
ENDBRANCH  41  65
BRANCH  53  76
ATOM     76  C   UNL A   1      45.517  26.926  26.258  1.00  0.00     0.023 A 
ATOM     77  C   UNL A   1      46.799  27.326  25.833  1.00  0.00     0.012 A 
ATOM     78  C   UNL A   1      45.046  25.647  25.929  1.00  0.00     0.148 A 
ATOM     79  C   UNL A   1      47.601  26.452  25.094  1.00  0.00     0.002 A 
ATOM     80  C   UNL A   1      45.861  24.767  25.234  1.00  0.00     0.091 A 
ATOM     81  F   UNL A   1      43.812  25.306  26.331  1.00  0.00    -0.205 F 
ATOM     82  C   UNL A   1      47.139  25.167  24.810  1.00  0.00     0.022 A 
BRANCH  80  83
ATOM     83  S   UNL A   1      45.372  23.068  24.936  1.00  0.00     0.127 S 
ATOM     84  O   UNL A   1      44.146  23.232  24.159  1.00  0.00    -0.237 OA
ATOM     85  O   UNL A   1      46.513  22.549  24.181  1.00  0.00    -0.237 OA
ATOM     86  O   UNL A   1      45.198  22.459  26.250  1.00  0.00    -0.744 OA
ENDBRANCH  80  83
ENDBRANCH  53  76
ENDBRANCH  27  28
ENDBRANCH  20  22
ENDBRANCH  19  20
ENDBRANCH   1  19
TORSDOF 15
ENDMDL
