MODEL 1
REMARK VINA RESULT:     -12.2      0.000      0.000
REMARK SMILES Cc1ccc(Cl)cc1NC(=O)N[C@@](C)(C(=O)OCCOC(=O)c1ccc(-c2c3nc(c(-c4cccc(S(=O)(=O)[O-])c4F)c4ccc([nH]4)c(-c4cccc(S(=O)(=O)[O-])c4F)c4nc(c(-c5cccc(S(=O)(=O)[O-])c5F)c5ccc2[nH]5)C=C4)C=C3)cc1)C(F)(F)F
REMARK SMILES IDX 19 1 18 2 17 3 15 4 16 5 13 6 14 7 12 8 9 9 10 10 11 12 8 14
REMARK SMILES IDX 1 15 2 16 3 17 4 18 7 19 5 20 6 21 86 22 87 23 88 24 89 25
REMARK SMILES IDX 20 26 21 27 22 28 23 29 24 30 85 31 25 32 84 33 26 34 27 35
REMARK SMILES IDX 28 36 78 37 29 38 83 39 77 40 79 41 30 42 82 43 76 44 75 45
REMARK SMILES IDX 31 47 63 48 43 49 62 50 44 51 47 52 61 53 80 54 45 55 46 56
REMARK SMILES IDX 60 58 81 59 48 60 32 61 33 62 41 63 34 64 36 65 42 66 35 67
REMARK SMILES IDX 37 68 38 69 39 70 40 71 64 72 65 73 73 74 66 75 68 76 74 77
REMARK SMILES IDX 67 78 69 79 70 80 71 81 72 82 49 83 50 84 58 85 51 86 53 87
REMARK SMILES IDX 59 88 52 89 54 90 55 91 56 92 57 93
REMARK H PARENT 9 11 12 13 79 46 47 57
REMARK Flexibility Score: inf
ROOT
ATOM      1  C   UNL A   1      36.404  20.240  24.824  1.00  0.00     0.275 C 
ENDROOT
BRANCH   1   2
ATOM      2  C   UNL A   1      34.913  20.475  25.045  1.00  0.00     0.274 C 
BRANCH   2   3
ATOM      3  O   UNL A   1      34.547  21.842  24.750  1.00  0.00    -0.460 OA
BRANCH   3   4
ATOM      4  C   UNL A   1      33.200  21.978  24.550  1.00  0.00     0.341 C 
ATOM      5  O   UNL A   1      32.470  21.032  24.269  1.00  0.00    -0.249 OA
BRANCH   4   6
ATOM      6  C   UNL A   1      32.678  23.385  24.913  1.00  0.00     0.232 C 
ATOM      7  C   UNL A   1      33.806  24.052  25.719  1.00  0.00     0.058 C 
BRANCH   6   8
ATOM      8  N   UNL A   1      31.479  23.261  25.802  1.00  0.00    -0.314 N 
ATOM      9  N   UNL A   1      30.391  25.313  26.462  1.00  0.00    -0.308 N 
ATOM     10  C   UNL A   1      30.645  24.003  26.525  1.00  0.00     0.320 C 
ATOM     11  H   UNL A   1      29.610  25.537  27.017  1.00  0.00     0.171 HD
ATOM     12  O   UNL A   1      29.925  23.351  27.296  1.00  0.00    -0.248 OA
ATOM     13  H   UNL A   1      31.222  22.314  25.877  1.00  0.00     0.166 HD
BRANCH   9  14
ATOM     14  C   UNL A   1      30.897  26.465  25.845  1.00  0.00     0.047 A 
ATOM     15  C   UNL A   1      29.050  26.355  24.038  1.00  0.00     0.046 C 
ATOM     16  C   UNL A   1      30.293  26.939  24.657  1.00  0.00    -0.027 A 
ATOM     17  C   UNL A   1      30.861  28.040  23.982  1.00  0.00     0.007 A 
ATOM     18  C   UNL A   1      31.960  28.710  24.507  1.00  0.00     0.021 A 
ATOM     19  C   UNL A   1      31.917  27.219  26.415  1.00  0.00     0.047 A 
ATOM     20  C   UNL A   1      32.453  28.324  25.745  1.00  0.00     0.043 A 
ATOM     21  Cl  UNL A   1      33.747  29.209  26.462  1.00  0.00    -0.084 Cl
ENDBRANCH   9  14
ENDBRANCH   6   8
BRANCH   6  22
ATOM     22  C   UNL A   1      32.488  23.994  23.515  1.00  0.00     0.422 C 
ATOM     23  F   UNL A   1      31.195  23.949  23.136  1.00  0.00    -0.168 F 
ATOM     24  F   UNL A   1      32.891  25.281  23.464  1.00  0.00    -0.168 F 
ATOM     25  F   UNL A   1      33.188  23.369  22.538  1.00  0.00    -0.168 F 
ENDBRANCH   6  22
ENDBRANCH   4   6
ENDBRANCH   3   4
ENDBRANCH   2   3
ENDBRANCH   1   2
BRANCH   1  26
ATOM     26  O   UNL A   1      37.142  21.406  25.225  1.00  0.00    -0.458 OA
BRANCH  26  27
ATOM     27  C   UNL A   1      38.415  21.174  25.633  1.00  0.00     0.338 C 
ATOM     28  O   UNL A   1      39.069  20.166  25.420  1.00  0.00    -0.246 OA
BRANCH  27  29
ATOM     29  C   UNL A   1      38.966  22.339  26.362  1.00  0.00     0.060 A 
ATOM     30  C   UNL A   1      38.495  23.623  26.119  1.00  0.00     0.016 A 
ATOM     31  C   UNL A   1      40.073  22.169  27.190  1.00  0.00     0.016 A 
ATOM     32  C   UNL A   1      39.230  24.735  26.540  1.00  0.00     0.010 A 
ATOM     33  C   UNL A   1      40.713  23.286  27.742  1.00  0.00     0.010 A 
ATOM     34  C   UNL A   1      40.350  24.595  27.371  1.00  0.00    -0.014 A 
BRANCH  34  35
ATOM     35  C   UNL A   1      41.176  25.770  27.813  1.00  0.00     0.031 A 
ATOM     36  C   UNL A   1      40.561  26.840  28.693  1.00  0.00     0.074 A 
ATOM     37  C   UNL A   1      42.464  25.928  27.438  1.00  0.00     0.049 A 
ATOM     38  N   UNL A   1      40.973  28.061  28.927  1.00  0.00    -0.248 NA
ATOM     39  C   UNL A   1      39.304  26.501  29.383  1.00  0.00     0.031 C 
ATOM     40  C   UNL A   1      43.240  24.993  26.624  1.00  0.00     0.029 A 
ATOM     41  N   UNL A   1      43.350  26.956  27.682  1.00  0.00    -0.354 N 
ATOM     42  C   UNL A   1      39.969  28.670  29.672  1.00  0.00     0.074 A 
ATOM     43  C   UNL A   1      38.946  27.671  29.894  1.00  0.00     0.031 C 
ATOM     44  C   UNL A   1      44.488  25.461  26.473  1.00  0.00     0.029 A 
ATOM     45  C   UNL A   1      44.570  26.791  27.064  1.00  0.00     0.049 A 
ATOM     46  H   UNL A   1      43.132  27.734  28.244  1.00  0.00     0.167 HD
ATOM     47  C   UNL A   1      39.900  29.944  30.130  1.00  0.00     0.034 A 
ATOM     48  C   UNL A   1      45.617  27.627  26.915  1.00  0.00     0.034 A 
ATOM     49  C   UNL A   1      40.967  30.904  30.030  1.00  0.00     0.049 A 
ATOM     50  C   UNL A   1      45.537  29.024  27.464  1.00  0.00     0.074 A 
ATOM     51  C   UNL A   1      41.003  32.202  30.510  1.00  0.00     0.029 A 
ATOM     52  N   UNL A   1      42.196  30.664  29.438  1.00  0.00    -0.354 N 
ATOM     53  N   UNL A   1      44.573  29.586  28.150  1.00  0.00    -0.248 NA
ATOM     54  C   UNL A   1      46.689  29.904  27.211  1.00  0.00     0.031 C 
ATOM     55  C   UNL A   1      42.256  32.748  30.210  1.00  0.00     0.029 A 
ATOM     56  C   UNL A   1      43.001  31.785  29.552  1.00  0.00     0.049 A 
ATOM     57  H   UNL A   1      42.458  29.821  29.003  1.00  0.00     0.167 HD
ATOM     58  C   UNL A   1      45.003  30.881  28.417  1.00  0.00     0.074 A 
ATOM     59  C   UNL A   1      46.331  31.008  27.854  1.00  0.00     0.031 C 
ATOM     60  C   UNL A   1      44.344  31.885  29.043  1.00  0.00     0.034 A 
BRANCH  47  61
ATOM     61  C   UNL A   1      38.628  30.387  30.804  1.00  0.00     0.023 A 
ATOM     62  C   UNL A   1      38.465  30.216  32.193  1.00  0.00     0.012 A 
ATOM     63  C   UNL A   1      37.626  31.054  30.067  1.00  0.00     0.148 A 
ATOM     64  C   UNL A   1      37.315  30.677  32.833  1.00  0.00     0.002 A 
ATOM     65  C   UNL A   1      36.503  31.548  30.720  1.00  0.00     0.091 A 
ATOM     66  F   UNL A   1      37.789  31.188  28.743  1.00  0.00    -0.205 F 
ATOM     67  C   UNL A   1      36.341  31.353  32.100  1.00  0.00     0.022 A 
BRANCH  65  68
ATOM     68  S   UNL A   1      35.241  32.505  29.870  1.00  0.00     0.127 S 
ATOM     69  O   UNL A   1      34.821  31.578  28.821  1.00  0.00    -0.237 OA
ATOM     70  O   UNL A   1      34.250  32.720  30.925  1.00  0.00    -0.237 OA
ATOM     71  O   UNL A   1      35.904  33.718  29.410  1.00  0.00    -0.744 OA
ENDBRANCH  65  68
ENDBRANCH  47  61
BRANCH  48  72
ATOM     72  C   UNL A   1      46.834  27.167  26.184  1.00  0.00     0.023 A 
ATOM     73  C   UNL A   1      46.970  27.456  24.813  1.00  0.00     0.012 A 
ATOM     74  C   UNL A   1      47.877  26.488  26.846  1.00  0.00     0.148 A 
ATOM     75  C   UNL A   1      48.115  27.070  24.114  1.00  0.00     0.002 A 
ATOM     76  C   UNL A   1      49.045  26.173  26.163  1.00  0.00     0.091 A 
ATOM     77  F   UNL A   1      47.717  26.184  28.143  1.00  0.00    -0.205 F 
ATOM     78  C   UNL A   1      49.159  26.448  24.792  1.00  0.00     0.022 A 
BRANCH  76  79
ATOM     79  S   UNL A   1      50.492  25.536  27.015  1.00  0.00     0.127 S 
ATOM     80  O   UNL A   1      49.971  24.315  27.621  1.00  0.00    -0.237 OA
ATOM     81  O   UNL A   1      51.432  25.326  25.913  1.00  0.00    -0.237 OA
ATOM     82  O   UNL A   1      50.888  26.594  27.936  1.00  0.00    -0.744 OA
ENDBRANCH  76  79
ENDBRANCH  48  72
BRANCH  60  83
ATOM     83  C   UNL A   1      45.052  33.205  29.184  1.00  0.00     0.023 A 
ATOM     84  C   UNL A   1      45.870  33.437  30.307  1.00  0.00     0.012 A 
ATOM     85  C   UNL A   1      44.962  34.185  28.178  1.00  0.00     0.148 A 
ATOM     86  C   UNL A   1      46.567  34.638  30.440  1.00  0.00     0.002 A 
ATOM     87  C   UNL A   1      45.691  35.363  28.297  1.00  0.00     0.091 A 
ATOM     88  F   UNL A   1      44.161  33.953  27.128  1.00  0.00    -0.205 F 
ATOM     89  C   UNL A   1      46.487  35.595  29.431  1.00  0.00     0.022 A 
BRANCH  87  90
ATOM     90  S   UNL A   1      45.710  36.612  27.006  1.00  0.00     0.127 S 
ATOM     91  O   UNL A   1      46.225  35.856  25.866  1.00  0.00    -0.237 OA
ATOM     92  O   UNL A   1      44.297  36.979  26.904  1.00  0.00    -0.237 OA
ATOM     93  O   UNL A   1      46.574  37.677  27.496  1.00  0.00    -0.744 OA
ENDBRANCH  87  90
ENDBRANCH  60  83
ENDBRANCH  34  35
ENDBRANCH  27  29
ENDBRANCH  26  27
ENDBRANCH   1  26
TORSDOF 17
ENDMDL
MODEL 2
REMARK VINA RESULT:     -12.2      1.224      1.746
REMARK SMILES Cc1ccc(Cl)cc1NC(=O)N[C@@](C)(C(=O)OCCOC(=O)c1ccc(-c2c3nc(c(-c4cccc(S(=O)(=O)[O-])c4F)c4ccc([nH]4)c(-c4cccc(S(=O)(=O)[O-])c4F)c4nc(c(-c5cccc(S(=O)(=O)[O-])c5F)c5ccc2[nH]5)C=C4)C=C3)cc1)C(F)(F)F
REMARK SMILES IDX 19 1 18 2 17 3 15 4 16 5 13 6 14 7 12 8 9 9 10 10 11 12 8 14
REMARK SMILES IDX 1 15 2 16 3 17 4 18 7 19 5 20 6 21 86 22 87 23 88 24 89 25
REMARK SMILES IDX 20 26 21 27 22 28 23 29 24 30 85 31 25 32 84 33 26 34 27 35
REMARK SMILES IDX 28 36 78 37 29 38 83 39 77 40 79 41 30 42 82 43 76 44 75 45
REMARK SMILES IDX 31 47 63 48 43 49 62 50 44 51 47 52 61 53 80 54 45 55 46 56
REMARK SMILES IDX 60 58 81 59 48 60 32 61 33 62 41 63 34 64 36 65 42 66 35 67
REMARK SMILES IDX 37 68 38 69 39 70 40 71 64 72 65 73 73 74 66 75 68 76 74 77
REMARK SMILES IDX 67 78 69 79 70 80 71 81 72 82 49 83 50 84 58 85 51 86 53 87
REMARK SMILES IDX 59 88 52 89 54 90 55 91 56 92 57 93
REMARK H PARENT 9 11 12 13 79 46 47 57
REMARK Flexibility Score: inf
ROOT
ATOM      1  C   UNL A   1      35.645  20.689  25.367  1.00  0.00     0.275 C 
ENDROOT
BRANCH   1   2
ATOM      2  C   UNL A   1      34.404  20.873  24.499  1.00  0.00     0.274 C 
BRANCH   2   3
ATOM      3  O   UNL A   1      34.216  22.259  24.136  1.00  0.00    -0.460 OA
BRANCH   3   4
ATOM      4  C   UNL A   1      33.070  22.778  24.673  1.00  0.00     0.341 C 
ATOM      5  O   UNL A   1      32.264  22.098  25.304  1.00  0.00    -0.249 OA
BRANCH   4   6
ATOM      6  C   UNL A   1      33.005  24.317  24.581  1.00  0.00     0.232 C 
ATOM      7  C   UNL A   1      31.544  24.691  24.881  1.00  0.00     0.058 C 
BRANCH   6   8
ATOM      8  N   UNL A   1      33.321  24.750  23.182  1.00  0.00    -0.314 N 
ATOM      9  N   UNL A   1      33.178  27.113  22.710  1.00  0.00    -0.308 N 
ATOM     10  C   UNL A   1      33.271  25.819  22.393  1.00  0.00     0.320 C 
ATOM     11  H   UNL A   1      33.324  27.673  21.914  1.00  0.00     0.171 HD
ATOM     12  O   UNL A   1      33.446  25.570  21.191  1.00  0.00    -0.248 OA
ATOM     13  H   UNL A   1      33.687  23.988  22.678  1.00  0.00     0.166 HD
BRANCH   9  14
ATOM     14  C   UNL A   1      32.935  27.918  23.832  1.00  0.00     0.047 A 
ATOM     15  C   UNL A   1      30.419  28.044  23.245  1.00  0.00     0.046 C 
ATOM     16  C   UNL A   1      31.629  28.410  24.065  1.00  0.00    -0.027 A 
ATOM     17  C   UNL A   1      31.403  29.298  25.137  1.00  0.00     0.007 A 
ATOM     18  C   UNL A   1      32.430  29.638  26.011  1.00  0.00     0.021 A 
ATOM     19  C   UNL A   1      33.917  28.173  24.783  1.00  0.00     0.047 A 
ATOM     20  C   UNL A   1      33.670  29.037  25.856  1.00  0.00     0.043 A 
ATOM     21  Cl  UNL A   1      34.925  29.364  26.991  1.00  0.00    -0.084 Cl
ENDBRANCH   9  14
ENDBRANCH   6   8
BRANCH   6  22
ATOM     22  C   UNL A   1      33.977  24.717  25.704  1.00  0.00     0.422 C 
ATOM     23  F   UNL A   1      35.140  25.175  25.200  1.00  0.00    -0.168 F 
ATOM     24  F   UNL A   1      33.463  25.677  26.500  1.00  0.00    -0.168 F 
ATOM     25  F   UNL A   1      34.303  23.703  26.542  1.00  0.00    -0.168 F 
ENDBRANCH   6  22
ENDBRANCH   4   6
ENDBRANCH   3   4
ENDBRANCH   2   3
ENDBRANCH   1   2
BRANCH   1  26
ATOM     26  O   UNL A   1      36.616  21.697  25.042  1.00  0.00    -0.458 OA
BRANCH  26  27
ATOM     27  C   UNL A   1      37.893  21.406  25.395  1.00  0.00     0.338 C 
ATOM     28  O   UNL A   1      38.508  20.392  25.108  1.00  0.00    -0.246 OA
BRANCH  27  29
ATOM     29  C   UNL A   1      38.503  22.513  26.167  1.00  0.00     0.060 A 
ATOM     30  C   UNL A   1      37.990  23.802  26.095  1.00  0.00     0.016 A 
ATOM     31  C   UNL A   1      39.695  22.295  26.853  1.00  0.00     0.016 A 
ATOM     32  C   UNL A   1      38.751  24.889  26.537  1.00  0.00     0.010 A 
ATOM     33  C   UNL A   1      40.375  23.373  27.436  1.00  0.00     0.010 A 
ATOM     34  C   UNL A   1      39.956  24.701  27.228  1.00  0.00    -0.014 A 
BRANCH  34  35
ATOM     35  C   UNL A   1      40.807  25.851  27.687  1.00  0.00     0.031 A 
ATOM     36  C   UNL A   1      40.224  26.908  28.603  1.00  0.00     0.074 A 
ATOM     37  C   UNL A   1      42.092  25.996  27.297  1.00  0.00     0.049 A 
ATOM     38  N   UNL A   1      40.660  28.116  28.860  1.00  0.00    -0.248 NA
ATOM     39  C   UNL A   1      38.971  26.573  29.302  1.00  0.00     0.031 C 
ATOM     40  C   UNL A   1      42.841  25.069  26.449  1.00  0.00     0.029 A 
ATOM     41  N   UNL A   1      42.999  27.003  27.554  1.00  0.00    -0.354 N 
ATOM     42  C   UNL A   1      39.676  28.723  29.635  1.00  0.00     0.074 A 
ATOM     43  C   UNL A   1      38.640  27.735  29.847  1.00  0.00     0.031 C 
ATOM     44  C   UNL A   1      44.094  25.520  26.291  1.00  0.00     0.029 A 
ATOM     45  C   UNL A   1      44.208  26.833  26.914  1.00  0.00     0.049 A 
ATOM     46  H   UNL A   1      42.803  27.770  28.138  1.00  0.00     0.167 HD
ATOM     47  C   UNL A   1      39.635  29.986  30.126  1.00  0.00     0.034 A 
ATOM     48  C   UNL A   1      45.267  27.655  26.771  1.00  0.00     0.034 A 
ATOM     49  C   UNL A   1      40.717  30.930  30.034  1.00  0.00     0.049 A 
ATOM     50  C   UNL A   1      45.218  29.039  27.356  1.00  0.00     0.074 A 
ATOM     51  C   UNL A   1      40.782  32.215  30.545  1.00  0.00     0.029 A 
ATOM     52  N   UNL A   1      41.933  30.684  29.419  1.00  0.00    -0.354 N 
ATOM     53  N   UNL A   1      44.273  29.600  28.069  1.00  0.00    -0.248 NA
ATOM     54  C   UNL A   1      46.381  29.906  27.108  1.00  0.00     0.031 C 
ATOM     55  C   UNL A   1      42.040  32.747  30.241  1.00  0.00     0.029 A 
ATOM     56  C   UNL A   1      42.759  31.789  29.548  1.00  0.00     0.049 A 
ATOM     57  H   UNL A   1      42.175  29.849  28.958  1.00  0.00     0.167 HD
ATOM     58  C   UNL A   1      44.729  30.880  28.362  1.00  0.00     0.074 A 
ATOM     59  C   UNL A   1      46.051  30.999  27.783  1.00  0.00     0.031 C 
ATOM     60  C   UNL A   1      44.096  31.879  29.022  1.00  0.00     0.034 A 
BRANCH  47  61
ATOM     61  C   UNL A   1      38.381  30.433  30.829  1.00  0.00     0.023 A 
ATOM     62  C   UNL A   1      38.210  30.179  32.204  1.00  0.00     0.012 A 
ATOM     63  C   UNL A   1      37.406  31.183  30.138  1.00  0.00     0.148 A 
ATOM     64  C   UNL A   1      37.078  30.642  32.874  1.00  0.00     0.002 A 
ATOM     65  C   UNL A   1      36.302  31.677  30.823  1.00  0.00     0.091 A 
ATOM     66  F   UNL A   1      37.575  31.396  28.825  1.00  0.00    -0.205 F 
ATOM     67  C   UNL A   1      36.132  31.400  32.188  1.00  0.00     0.022 A 
BRANCH  65  68
ATOM     68  S   UNL A   1      35.078  32.735  30.039  1.00  0.00     0.127 S 
ATOM     69  O   UNL A   1      34.169  33.010  31.150  1.00  0.00    -0.237 OA
ATOM     70  O   UNL A   1      35.883  33.880  29.613  1.00  0.00    -0.237 OA
ATOM     71  O   UNL A   1      34.517  31.952  28.946  1.00  0.00    -0.744 OA
ENDBRANCH  65  68
ENDBRANCH  47  61
BRANCH  48  72
ATOM     72  C   UNL A   1      46.465  27.193  26.011  1.00  0.00     0.023 A 
ATOM     73  C   UNL A   1      46.540  27.429  24.625  1.00  0.00     0.012 A 
ATOM     74  C   UNL A   1      47.549  26.567  26.658  1.00  0.00     0.148 A 
ATOM     75  C   UNL A   1      47.666  27.040  23.897  1.00  0.00     0.002 A 
ATOM     76  C   UNL A   1      48.697  26.251  25.942  1.00  0.00     0.091 A 
ATOM     77  F   UNL A   1      47.448  26.313  27.971  1.00  0.00    -0.205 F 
ATOM     78  C   UNL A   1      48.751  26.471  24.558  1.00  0.00     0.022 A 
BRANCH  76  79
ATOM     79  S   UNL A   1      50.192  25.683  26.760  1.00  0.00     0.127 S 
ATOM     80  O   UNL A   1      51.113  25.538  25.637  1.00  0.00    -0.237 OA
ATOM     81  O   UNL A   1      50.491  26.794  27.665  1.00  0.00    -0.237 OA
ATOM     82  O   UNL A   1      49.809  24.453  27.441  1.00  0.00    -0.744 OA
ENDBRANCH  76  79
ENDBRANCH  48  72
BRANCH  60  83
ATOM     83  C   UNL A   1      44.828  33.183  29.186  1.00  0.00     0.023 A 
ATOM     84  C   UNL A   1      45.639  33.386  30.320  1.00  0.00     0.012 A 
ATOM     85  C   UNL A   1      44.768  34.177  28.191  1.00  0.00     0.148 A 
ATOM     86  C   UNL A   1      46.358  34.571  30.473  1.00  0.00     0.002 A 
ATOM     87  C   UNL A   1      45.519  35.338  28.330  1.00  0.00     0.091 A 
ATOM     88  F   UNL A   1      43.973  33.972  27.130  1.00  0.00    -0.205 F 
ATOM     89  C   UNL A   1      46.307  35.541  29.475  1.00  0.00     0.022 A 
BRANCH  87  90
ATOM     90  S   UNL A   1      45.575  36.601  27.054  1.00  0.00     0.127 S 
ATOM     91  O   UNL A   1      46.167  35.869  25.936  1.00  0.00    -0.237 OA
ATOM     92  O   UNL A   1      44.161  36.937  26.883  1.00  0.00    -0.237 OA
ATOM     93  O   UNL A   1      46.387  37.681  27.599  1.00  0.00    -0.744 OA
ENDBRANCH  87  90
ENDBRANCH  60  83
ENDBRANCH  34  35
ENDBRANCH  27  29
ENDBRANCH  26  27
ENDBRANCH   1  26
TORSDOF 17
ENDMDL
MODEL 3
REMARK VINA RESULT:     -12.1      4.793      9.812
REMARK SMILES Cc1ccc(Cl)cc1NC(=O)N[C@@](C)(C(=O)OCCOC(=O)c1ccc(-c2c3nc(c(-c4cccc(S(=O)(=O)[O-])c4F)c4ccc([nH]4)c(-c4cccc(S(=O)(=O)[O-])c4F)c4nc(c(-c5cccc(S(=O)(=O)[O-])c5F)c5ccc2[nH]5)C=C4)C=C3)cc1)C(F)(F)F
REMARK SMILES IDX 19 1 18 2 17 3 15 4 16 5 13 6 14 7 12 8 9 9 10 10 11 12 8 14
REMARK SMILES IDX 1 15 2 16 3 17 4 18 7 19 5 20 6 21 86 22 87 23 88 24 89 25
REMARK SMILES IDX 20 26 21 27 22 28 23 29 24 30 85 31 25 32 84 33 26 34 27 35
REMARK SMILES IDX 28 36 78 37 29 38 83 39 77 40 79 41 30 42 82 43 76 44 75 45
REMARK SMILES IDX 31 47 63 48 43 49 62 50 44 51 47 52 61 53 80 54 45 55 46 56
REMARK SMILES IDX 60 58 81 59 48 60 32 61 33 62 41 63 34 64 36 65 42 66 35 67
REMARK SMILES IDX 37 68 38 69 39 70 40 71 64 72 65 73 73 74 66 75 68 76 74 77
REMARK SMILES IDX 67 78 69 79 70 80 71 81 72 82 49 83 50 84 58 85 51 86 53 87
REMARK SMILES IDX 59 88 52 89 54 90 55 91 56 92 57 93
REMARK H PARENT 9 11 12 13 79 46 47 57
REMARK Flexibility Score: inf
ROOT
ATOM      1  C   UNL A   1      31.219  30.374  25.558  1.00  0.00     0.275 C 
ENDROOT
BRANCH   1   2
ATOM      2  C   UNL A   1      31.087  29.344  24.440  1.00  0.00     0.274 C 
BRANCH   2   3
ATOM      3  O   UNL A   1      31.209  27.996  24.949  1.00  0.00    -0.460 OA
BRANCH   3   4
ATOM      4  C   UNL A   1      31.439  27.091  23.950  1.00  0.00     0.341 C 
ATOM      5  O   UNL A   1      31.207  27.331  22.768  1.00  0.00    -0.249 OA
BRANCH   4   6
ATOM      6  C   UNL A   1      32.201  25.839  24.436  1.00  0.00     0.232 C 
ATOM      7  C   UNL A   1      32.118  24.827  23.281  1.00  0.00     0.058 C 
BRANCH   6   8
ATOM      8  N   UNL A   1      31.499  25.254  25.622  1.00  0.00    -0.314 N 
ATOM      9  N   UNL A   1      32.454  23.254  26.581  1.00  0.00    -0.308 N 
ATOM     10  C   UNL A   1      31.503  24.174  26.399  1.00  0.00     0.320 C 
ATOM     11  H   UNL A   1      32.223  22.667  27.336  1.00  0.00     0.171 HD
ATOM     12  O   UNL A   1      30.512  24.078  27.138  1.00  0.00    -0.248 OA
ATOM     13  H   UNL A   1      30.801  25.875  25.930  1.00  0.00     0.166 HD
BRANCH   9  14
ATOM     14  C   UNL A   1      33.681  22.869  26.023  1.00  0.00     0.047 A 
ATOM     15  C   UNL A   1      32.481  21.243  24.408  1.00  0.00     0.046 C 
ATOM     16  C   UNL A   1      33.707  21.871  25.021  1.00  0.00    -0.027 A 
ATOM     17  C   UNL A   1      34.947  21.413  24.529  1.00  0.00     0.007 A 
ATOM     18  C   UNL A   1      36.140  21.982  24.961  1.00  0.00     0.021 A 
ATOM     19  C   UNL A   1      34.873  23.506  26.353  1.00  0.00     0.047 A 
ATOM     20  C   UNL A   1      36.093  23.057  25.837  1.00  0.00     0.043 A 
ATOM     21  Cl  UNL A   1      37.554  23.843  26.302  1.00  0.00    -0.084 Cl
ENDBRANCH   9  14
ENDBRANCH   6   8
BRANCH   6  22
ATOM     22  C   UNL A   1      33.611  26.417  24.637  1.00  0.00     0.422 C 
ATOM     23  F   UNL A   1      33.856  26.662  25.939  1.00  0.00    -0.168 F 
ATOM     24  F   UNL A   1      34.570  25.582  24.184  1.00  0.00    -0.168 F 
ATOM     25  F   UNL A   1      33.829  27.586  23.987  1.00  0.00    -0.168 F 
ENDBRANCH   6  22
ENDBRANCH   4   6
ENDBRANCH   3   4
ENDBRANCH   2   3
ENDBRANCH   1   2
BRANCH   1  26
ATOM     26  O   UNL A   1      32.398  30.099  26.332  1.00  0.00    -0.458 OA
BRANCH  26  27
ATOM     27  C   UNL A   1      32.921  31.165  26.989  1.00  0.00     0.338 C 
ATOM     28  O   UNL A   1      32.342  32.206  27.250  1.00  0.00    -0.246 OA
BRANCH  27  29
ATOM     29  C   UNL A   1      34.317  30.905  27.408  1.00  0.00     0.060 A 
ATOM     30  C   UNL A   1      34.774  29.609  27.610  1.00  0.00     0.016 A 
ATOM     31  C   UNL A   1      35.140  31.975  27.751  1.00  0.00     0.016 A 
ATOM     32  C   UNL A   1      35.956  29.381  28.322  1.00  0.00     0.010 A 
ATOM     33  C   UNL A   1      36.398  31.737  28.319  1.00  0.00     0.010 A 
ATOM     34  C   UNL A   1      36.802  30.438  28.683  1.00  0.00    -0.014 A 
BRANCH  34  35
ATOM     35  C   UNL A   1      38.063  30.224  29.473  1.00  0.00     0.031 A 
ATOM     36  C   UNL A   1      39.188  29.389  28.895  1.00  0.00     0.074 A 
ATOM     37  C   UNL A   1      38.234  30.740  30.710  1.00  0.00     0.049 A 
ATOM     38  N   UNL A   1      40.201  28.825  29.503  1.00  0.00    -0.248 NA
ATOM     39  C   UNL A   1      39.156  29.134  27.444  1.00  0.00     0.031 C 
ATOM     40  C   UNL A   1      37.285  31.596  31.421  1.00  0.00     0.029 A 
ATOM     41  N   UNL A   1      39.275  30.600  31.604  1.00  0.00    -0.354 N 
ATOM     42  C   UNL A   1      40.842  28.048  28.544  1.00  0.00     0.074 A 
ATOM     43  C   UNL A   1      40.132  28.249  27.299  1.00  0.00     0.031 C 
ATOM     44  C   UNL A   1      37.797  31.940  32.611  1.00  0.00     0.029 A 
ATOM     45  C   UNL A   1      39.053  31.227  32.811  1.00  0.00     0.049 A 
ATOM     46  H   UNL A   1      40.099  30.101  31.399  1.00  0.00     0.167 HD
ATOM     47  C   UNL A   1      41.922  27.240  28.683  1.00  0.00     0.034 A 
ATOM     48  C   UNL A   1      39.729  31.185  33.977  1.00  0.00     0.034 A 
ATOM     49  C   UNL A   1      42.712  27.137  29.880  1.00  0.00     0.049 A 
ATOM     50  C   UNL A   1      40.946  30.312  34.100  1.00  0.00     0.074 A 
ATOM     51  C   UNL A   1      43.852  26.381  30.096  1.00  0.00     0.029 A 
ATOM     52  N   UNL A   1      42.468  27.832  31.053  1.00  0.00    -0.354 N 
ATOM     53  N   UNL A   1      41.525  29.572  33.188  1.00  0.00    -0.248 NA
ATOM     54  C   UNL A   1      41.598  30.264  35.418  1.00  0.00     0.031 C 
ATOM     55  C   UNL A   1      44.299  26.619  31.399  1.00  0.00     0.029 A 
ATOM     56  C   UNL A   1      43.443  27.531  31.991  1.00  0.00     0.049 A 
ATOM     57  H   UNL A   1      41.715  28.448  31.198  1.00  0.00     0.167 HD
ATOM     58  C   UNL A   1      42.613  28.977  33.818  1.00  0.00     0.074 A 
ATOM     59  C   UNL A   1      42.635  29.473  35.178  1.00  0.00     0.031 C 
ATOM     60  C   UNL A   1      43.494  28.075  33.323  1.00  0.00     0.034 A 
BRANCH  47  61
ATOM     61  C   UNL A   1      42.335  26.401  27.503  1.00  0.00     0.023 A 
ATOM     62  C   UNL A   1      43.163  26.945  26.501  1.00  0.00     0.012 A 
ATOM     63  C   UNL A   1      41.969  25.040  27.433  1.00  0.00     0.148 A 
ATOM     64  C   UNL A   1      43.599  26.156  25.437  1.00  0.00     0.002 A 
ATOM     65  C   UNL A   1      42.442  24.250  26.392  1.00  0.00     0.091 A 
ATOM     66  F   UNL A   1      41.163  24.545  28.383  1.00  0.00    -0.205 F 
ATOM     67  C   UNL A   1      43.249  24.808  25.388  1.00  0.00     0.022 A 
BRANCH  65  68
ATOM     68  S   UNL A   1      42.113  22.486  26.296  1.00  0.00     0.127 S 
ATOM     69  O   UNL A   1      40.654  22.460  26.220  1.00  0.00    -0.237 OA
ATOM     70  O   UNL A   1      42.794  22.108  25.058  1.00  0.00    -0.237 OA
ATOM     71  O   UNL A   1      42.691  21.908  27.503  1.00  0.00    -0.744 OA
ENDBRANCH  65  68
ENDBRANCH  47  61
BRANCH  48  72
ATOM     72  C   UNL A   1      39.246  31.984  35.141  1.00  0.00     0.023 A 
ATOM     73  C   UNL A   1      38.389  31.386  36.084  1.00  0.00     0.012 A 
ATOM     74  C   UNL A   1      39.667  33.313  35.345  1.00  0.00     0.148 A 
ATOM     75  C   UNL A   1      37.953  32.100  37.202  1.00  0.00     0.002 A 
ATOM     76  C   UNL A   1      39.290  33.992  36.497  1.00  0.00     0.091 A 
ATOM     77  F   UNL A   1      40.451  33.883  34.418  1.00  0.00    -0.205 F 
ATOM     78  C   UNL A   1      38.419  33.394  37.419  1.00  0.00     0.022 A 
BRANCH  76  79
ATOM     79  S   UNL A   1      39.995  35.588  36.924  1.00  0.00     0.127 S 
ATOM     80  O   UNL A   1      39.577  36.413  35.796  1.00  0.00    -0.237 OA
ATOM     81  O   UNL A   1      39.330  35.892  38.192  1.00  0.00    -0.237 OA
ATOM     82  O   UNL A   1      41.428  35.349  37.051  1.00  0.00    -0.744 OA
ENDBRANCH  76  79
ENDBRANCH  48  72
BRANCH  60  83
ATOM     83  C   UNL A   1      44.579  27.581  34.241  1.00  0.00     0.023 A 
ATOM     84  C   UNL A   1      45.780  28.310  34.350  1.00  0.00     0.012 A 
ATOM     85  C   UNL A   1      44.386  26.440  35.042  1.00  0.00     0.148 A 
ATOM     86  C   UNL A   1      46.783  27.893  35.224  1.00  0.00     0.002 A 
ATOM     87  C   UNL A   1      45.373  26.054  35.940  1.00  0.00     0.091 A 
ATOM     88  F   UNL A   1      43.244  25.749  34.906  1.00  0.00    -0.205 F 
ATOM     89  C   UNL A   1      46.577  26.773  36.026  1.00  0.00     0.022 A 
BRANCH  87  90
ATOM     90  S   UNL A   1      45.155  24.673  37.069  1.00  0.00     0.127 S 
ATOM     91  O   UNL A   1      46.400  24.712  37.833  1.00  0.00    -0.237 OA
ATOM     92  O   UNL A   1      43.964  25.070  37.822  1.00  0.00    -0.237 OA
ATOM     93  O   UNL A   1      44.970  23.498  36.227  1.00  0.00    -0.744 OA
ENDBRANCH  87  90
ENDBRANCH  60  83
ENDBRANCH  34  35
ENDBRANCH  27  29
ENDBRANCH  26  27
ENDBRANCH   1  26
TORSDOF 17
ENDMDL
