MODEL 1
REMARK VINA RESULT:     -11.5      0.000      0.000
REMARK SMILES COc1cc(NS(=O)(=O)c2cc(C)c(C(=O)OCCOC(=O)c3ccc(-c4c5nc(c(-c6cccc(S(=O)(=O)[O-])c6F)c6ccc([nH]6)c(-c6cccc(S(=O)(=O)[O-])c6F)c6nc(c(-c7cccc(S(=O)(=O)[O-])c7F)c7ccc4[nH]7)C=C6)C=C5)cc3)s2)cc(OC)c1
REMARK SMILES IDX 18 1 17 2 15 3 16 4 14 5 10 6 11 7 86 8 12 9 13 10 7 11 8 12
REMARK SMILES IDX 9 13 6 14 5 16 3 17 4 18 91 19 88 20 87 21 2 22 1 23 89 24
REMARK SMILES IDX 90 25 19 26 20 27 21 28 22 29 23 30 24 31 85 32 25 33 84 34
REMARK SMILES IDX 26 35 27 36 28 37 78 38 29 39 83 40 77 41 79 42 30 43 82 44
REMARK SMILES IDX 76 45 75 46 31 48 63 49 43 50 62 51 44 52 47 53 61 54 80 55
REMARK SMILES IDX 45 56 46 57 60 59 81 60 48 61 32 62 33 63 41 64 34 65 36 66
REMARK SMILES IDX 42 67 35 68 37 69 38 70 39 71 40 72 64 73 65 74 73 75 66 76
REMARK SMILES IDX 68 77 74 78 67 79 69 80 70 81 71 82 72 83 49 84 50 85 58 86
REMARK SMILES IDX 51 87 53 88 59 89 52 90 54 91 55 92 56 93 57 94
REMARK H PARENT 6 15 79 47 47 58
REMARK Flexibility Score: inf
ROOT
ATOM      1  C   UNL A   1      30.962  29.845  24.617  1.00  0.00     0.275 C 
ENDROOT
BRANCH   1   2
ATOM      2  O   UNL A   1      30.353  28.640  24.105  1.00  0.00    -0.458 OA
BRANCH   2   3
ATOM      3  C   UNL A   1      30.718  28.247  22.844  1.00  0.00     0.348 C 
ATOM      4  O   UNL A   1      30.186  28.663  21.832  1.00  0.00    -0.245 OA
BRANCH   3   5
ATOM      5  C   UNL A   1      31.885  27.361  22.895  1.00  0.00     0.116 A 
ATOM      6  C   UNL A   1      33.147  25.252  22.596  1.00  0.00     0.141 A 
ATOM      7  C   UNL A   1      33.977  26.350  22.663  1.00  0.00     0.038 A 
ATOM      8  S   UNL A   1      31.569  25.668  23.071  1.00  0.00    -0.115 S 
ATOM      9  C   UNL A   1      33.256  27.590  22.796  1.00  0.00    -0.024 A 
ATOM     10  C   UNL A   1      33.956  28.910  22.749  1.00  0.00     0.046 C 
BRANCH   6  11
ATOM     11  S   UNL A   1      33.427  23.580  22.063  1.00  0.00     0.271 S 
ATOM     12  O   UNL A   1      34.681  23.180  22.665  1.00  0.00    -0.200 OA
ATOM     13  O   UNL A   1      33.282  23.621  20.622  1.00  0.00    -0.200 OA
BRANCH  11  14
ATOM     14  N   UNL A   1      32.224  22.567  22.699  1.00  0.00    -0.279 N 
ATOM     15  H   UNL A   1      31.279  22.734  22.482  1.00  0.00     0.180 HD
BRANCH  14  16
ATOM     16  C   UNL A   1      32.575  21.463  23.554  1.00  0.00     0.056 A 
ATOM     17  C   UNL A   1      32.567  19.103  24.102  1.00  0.00     0.124 A 
ATOM     18  C   UNL A   1      32.344  20.138  23.193  1.00  0.00     0.073 A 
ATOM     19  C   UNL A   1      33.030  19.374  25.385  1.00  0.00     0.093 A 
ATOM     20  C   UNL A   1      33.241  20.695  25.773  1.00  0.00     0.124 A 
ATOM     21  C   UNL A   1      33.010  21.733  24.857  1.00  0.00     0.073 A 
BRANCH  17  22
ATOM     22  O   UNL A   1      32.356  17.827  23.651  1.00  0.00    -0.497 OA
ATOM     23  C   UNL A   1      33.428  16.941  23.970  1.00  0.00     0.278 C 
ENDBRANCH  17  22
BRANCH  20  24
ATOM     24  O   UNL A   1      33.676  21.091  27.009  1.00  0.00    -0.497 OA
ATOM     25  C   UNL A   1      33.077  22.265  27.550  1.00  0.00     0.278 C 
ENDBRANCH  20  24
ENDBRANCH  14  16
ENDBRANCH  11  14
ENDBRANCH   6  11
ENDBRANCH   3   5
ENDBRANCH   2   3
ENDBRANCH   1   2
BRANCH   1  26
ATOM     26  C   UNL A   1      31.745  29.583  25.914  1.00  0.00     0.275 C 
BRANCH  26  27
ATOM     27  O   UNL A   1      33.064  30.162  25.893  1.00  0.00    -0.458 OA
BRANCH  27  28
ATOM     28  C   UNL A   1      33.263  31.126  26.821  1.00  0.00     0.338 C 
ATOM     29  O   UNL A   1      32.478  32.014  27.108  1.00  0.00    -0.246 OA
BRANCH  28  30
ATOM     30  C   UNL A   1      34.519  30.921  27.558  1.00  0.00     0.060 A 
ATOM     31  C   UNL A   1      34.756  29.636  28.052  1.00  0.00     0.016 A 
ATOM     32  C   UNL A   1      35.411  31.955  27.837  1.00  0.00     0.016 A 
ATOM     33  C   UNL A   1      35.881  29.366  28.820  1.00  0.00     0.010 A 
ATOM     34  C   UNL A   1      36.552  31.685  28.605  1.00  0.00     0.010 A 
ATOM     35  C   UNL A   1      36.793  30.389  29.094  1.00  0.00    -0.014 A 
BRANCH  35  36
ATOM     36  C   UNL A   1      38.027  30.074  29.848  1.00  0.00     0.031 A 
ATOM     37  C   UNL A   1      39.051  29.141  29.278  1.00  0.00     0.074 A 
ATOM     38  C   UNL A   1      38.205  30.633  31.060  1.00  0.00     0.049 A 
ATOM     39  N   UNL A   1      40.141  28.681  29.833  1.00  0.00    -0.248 NA
ATOM     40  C   UNL A   1      38.823  28.661  27.906  1.00  0.00     0.031 C 
ATOM     41  C   UNL A   1      37.280  31.574  31.694  1.00  0.00     0.029 A 
ATOM     42  N   UNL A   1      39.211  30.481  31.980  1.00  0.00    -0.354 N 
ATOM     43  C   UNL A   1      40.709  27.823  28.900  1.00  0.00     0.074 A 
ATOM     44  C   UNL A   1      39.848  27.835  27.736  1.00  0.00     0.031 C 
ATOM     45  C   UNL A   1      37.747  31.896  32.910  1.00  0.00     0.029 A 
ATOM     46  C   UNL A   1      38.980  31.156  33.156  1.00  0.00     0.049 A 
ATOM     47  H   UNL A   1      40.018  29.941  31.815  1.00  0.00     0.167 HD
ATOM     48  C   UNL A   1      41.851  27.103  29.008  1.00  0.00     0.034 A 
ATOM     49  C   UNL A   1      39.668  31.153  34.314  1.00  0.00     0.034 A 
ATOM     50  C   UNL A   1      42.718  27.134  30.156  1.00  0.00     0.049 A 
ATOM     51  C   UNL A   1      40.926  30.337  34.406  1.00  0.00     0.074 A 
ATOM     52  C   UNL A   1      43.917  26.470  30.346  1.00  0.00     0.029 A 
ATOM     53  N   UNL A   1      42.481  27.868  31.310  1.00  0.00    -0.354 N 
ATOM     54  N   UNL A   1      41.494  29.594  33.487  1.00  0.00    -0.248 NA
ATOM     55  C   UNL A   1      41.654  30.374  35.683  1.00  0.00     0.031 C 
ATOM     56  C   UNL A   1      44.398  26.792  31.620  1.00  0.00     0.029 A 
ATOM     57  C   UNL A   1      43.506  27.669  32.217  1.00  0.00     0.049 A 
ATOM     58  H   UNL A   1      41.698  28.446  31.460  1.00  0.00     0.167 HD
ATOM     59  C   UNL A   1      42.660  29.102  34.060  1.00  0.00     0.074 A 
ATOM     60  C   UNL A   1      42.725  29.641  35.404  1.00  0.00     0.031 C 
ATOM     61  C   UNL A   1      43.584  28.264  33.528  1.00  0.00     0.034 A 
BRANCH  48  62
ATOM     62  C   UNL A   1      42.247  26.235  27.844  1.00  0.00     0.023 A 
ATOM     63  C   UNL A   1      43.078  26.760  26.835  1.00  0.00     0.012 A 
ATOM     64  C   UNL A   1      41.854  24.884  27.784  1.00  0.00     0.148 A 
ATOM     65  C   UNL A   1      43.496  25.959  25.772  1.00  0.00     0.002 A 
ATOM     66  C   UNL A   1      42.302  24.082  26.740  1.00  0.00     0.091 A 
ATOM     67  F   UNL A   1      41.041  24.410  28.740  1.00  0.00    -0.205 F 
ATOM     68  C   UNL A   1      43.117  24.619  25.730  1.00  0.00     0.022 A 
BRANCH  66  69
ATOM     69  S   UNL A   1      41.914  22.332  26.635  1.00  0.00     0.127 S 
ATOM     70  O   UNL A   1      40.457  22.359  26.526  1.00  0.00    -0.237 OA
ATOM     71  O   UNL A   1      42.608  21.931  25.411  1.00  0.00    -0.237 OA
ATOM     72  O   UNL A   1      42.443  21.732  27.852  1.00  0.00    -0.744 OA
ENDBRANCH  66  69
ENDBRANCH  48  62
BRANCH  49  73
ATOM     73  C   UNL A   1      39.187  31.977  35.458  1.00  0.00     0.023 A 
ATOM     74  C   UNL A   1      38.261  31.430  36.366  1.00  0.00     0.012 A 
ATOM     75  C   UNL A   1      39.686  33.275  35.684  1.00  0.00     0.148 A 
ATOM     76  C   UNL A   1      37.828  32.167  37.468  1.00  0.00     0.002 A 
ATOM     77  C   UNL A   1      39.293  33.983  36.814  1.00  0.00     0.091 A 
ATOM     78  F   UNL A   1      40.551  33.788  34.797  1.00  0.00    -0.205 F 
ATOM     79  C   UNL A   1      38.354  33.436  37.701  1.00  0.00     0.022 A 
BRANCH  77  80
ATOM     80  S   UNL A   1      40.025  35.564  37.254  1.00  0.00     0.127 S 
ATOM     81  O   UNL A   1      39.663  36.391  36.108  1.00  0.00    -0.237 OA
ATOM     82  O   UNL A   1      39.326  35.892  38.498  1.00  0.00    -0.237 OA
ATOM     83  O   UNL A   1      41.448  35.297  37.424  1.00  0.00    -0.744 OA
ENDBRANCH  77  80
ENDBRANCH  49  73
BRANCH  61  84
ATOM     84  C   UNL A   1      44.769  27.900  34.380  1.00  0.00     0.023 A 
ATOM     85  C   UNL A   1      45.947  28.666  34.295  1.00  0.00     0.012 A 
ATOM     86  C   UNL A   1      44.678  26.865  35.331  1.00  0.00     0.148 A 
ATOM     87  C   UNL A   1      47.028  28.396  35.134  1.00  0.00     0.002 A 
ATOM     88  C   UNL A   1      45.743  26.630  36.193  1.00  0.00     0.091 A 
ATOM     89  F   UNL A   1      43.553  26.138  35.380  1.00  0.00    -0.205 F 
ATOM     90  C   UNL A   1      46.921  27.388  36.090  1.00  0.00     0.022 A 
BRANCH  88  91
ATOM     91  S   UNL A   1      45.663  25.414  37.514  1.00  0.00     0.127 S 
ATOM     92  O   UNL A   1      44.537  25.908  38.304  1.00  0.00    -0.237 OA
ATOM     93  O   UNL A   1      45.397  24.177  36.780  1.00  0.00    -0.237 OA
ATOM     94  O   UNL A   1      46.958  25.456  38.177  1.00  0.00    -0.744 OA
ENDBRANCH  88  91
ENDBRANCH  61  84
ENDBRANCH  35  36
ENDBRANCH  28  30
ENDBRANCH  27  28
ENDBRANCH  26  27
ENDBRANCH   1  26
TORSDOF 19
ENDMDL
MODEL 2
REMARK VINA RESULT:     -11.0      1.686      2.434
REMARK SMILES COc1cc(NS(=O)(=O)c2cc(C)c(C(=O)OCCOC(=O)c3ccc(-c4c5nc(c(-c6cccc(S(=O)(=O)[O-])c6F)c6ccc([nH]6)c(-c6cccc(S(=O)(=O)[O-])c6F)c6nc(c(-c7cccc(S(=O)(=O)[O-])c7F)c7ccc4[nH]7)C=C6)C=C5)cc3)s2)cc(OC)c1
REMARK SMILES IDX 18 1 17 2 15 3 16 4 14 5 10 6 11 7 86 8 12 9 13 10 7 11 8 12
REMARK SMILES IDX 9 13 6 14 5 16 3 17 4 18 91 19 88 20 87 21 2 22 1 23 89 24
REMARK SMILES IDX 90 25 19 26 20 27 21 28 22 29 23 30 24 31 85 32 25 33 84 34
REMARK SMILES IDX 26 35 27 36 28 37 78 38 29 39 83 40 77 41 79 42 30 43 82 44
REMARK SMILES IDX 76 45 75 46 31 48 63 49 43 50 62 51 44 52 47 53 61 54 80 55
REMARK SMILES IDX 45 56 46 57 60 59 81 60 48 61 32 62 33 63 41 64 34 65 36 66
REMARK SMILES IDX 42 67 35 68 37 69 38 70 39 71 40 72 64 73 65 74 73 75 66 76
REMARK SMILES IDX 68 77 74 78 67 79 69 80 70 81 71 82 72 83 49 84 50 85 58 86
REMARK SMILES IDX 51 87 53 88 59 89 52 90 54 91 55 92 56 93 57 94
REMARK H PARENT 6 15 79 47 47 58
REMARK Flexibility Score: inf
ROOT
ATOM      1  C   UNL A   1      31.124  30.035  24.654  1.00  0.00     0.275 C 
ENDROOT
BRANCH   1   2
ATOM      2  O   UNL A   1      30.282  28.946  24.218  1.00  0.00    -0.458 OA
BRANCH   2   3
ATOM      3  C   UNL A   1      30.620  28.332  23.040  1.00  0.00     0.348 C 
ATOM      4  O   UNL A   1      30.165  28.658  21.959  1.00  0.00    -0.245 OA
BRANCH   3   5
ATOM      5  C   UNL A   1      31.665  27.328  23.261  1.00  0.00     0.116 A 
ATOM      6  C   UNL A   1      32.621  25.051  23.445  1.00  0.00     0.141 A 
ATOM      7  C   UNL A   1      33.587  26.003  23.201  1.00  0.00     0.038 A 
ATOM      8  S   UNL A   1      31.150  25.791  23.868  1.00  0.00    -0.115 S 
ATOM      9  C   UNL A   1      33.042  27.329  23.049  1.00  0.00    -0.024 A 
ATOM     10  C   UNL A   1      33.899  28.484  22.645  1.00  0.00     0.046 C 
BRANCH   6  11
ATOM     11  S   UNL A   1      32.644  23.278  23.335  1.00  0.00     0.271 S 
ATOM     12  O   UNL A   1      33.651  22.958  22.346  1.00  0.00    -0.200 OA
ATOM     13  O   UNL A   1      31.261  22.901  23.126  1.00  0.00    -0.200 OA
BRANCH  11  14
ATOM     14  N   UNL A   1      33.167  22.620  24.809  1.00  0.00    -0.279 N 
ATOM     15  H   UNL A   1      32.512  22.430  25.519  1.00  0.00     0.180 HD
BRANCH  14  16
ATOM     16  C   UNL A   1      34.561  22.336  25.029  1.00  0.00     0.056 A 
ATOM     17  C   UNL A   1      36.875  23.029  25.216  1.00  0.00     0.124 A 
ATOM     18  C   UNL A   1      35.517  23.342  25.142  1.00  0.00     0.073 A 
ATOM     19  C   UNL A   1      37.300  21.706  25.181  1.00  0.00     0.093 A 
ATOM     20  C   UNL A   1      36.361  20.687  25.039  1.00  0.00     0.124 A 
ATOM     21  C   UNL A   1      34.996  21.007  24.962  1.00  0.00     0.073 A 
BRANCH  17  22
ATOM     22  O   UNL A   1      37.744  24.077  25.370  1.00  0.00    -0.497 OA
ATOM     23  C   UNL A   1      38.299  24.149  26.683  1.00  0.00     0.278 C 
ENDBRANCH  17  22
BRANCH  20  24
ATOM     24  O   UNL A   1      36.654  19.352  24.974  1.00  0.00    -0.497 OA
ATOM     25  C   UNL A   1      35.581  18.480  24.626  1.00  0.00     0.278 C 
ENDBRANCH  20  24
ENDBRANCH  14  16
ENDBRANCH  11  14
ENDBRANCH   6  11
ENDBRANCH   3   5
ENDBRANCH   2   3
ENDBRANCH   1   2
BRANCH   1  26
ATOM     26  C   UNL A   1      31.840  29.710  25.974  1.00  0.00     0.275 C 
BRANCH  26  27
ATOM     27  O   UNL A   1      33.203  30.175  25.997  1.00  0.00    -0.458 OA
BRANCH  27  28
ATOM     28  C   UNL A   1      33.456  31.108  26.942  1.00  0.00     0.338 C 
ATOM     29  O   UNL A   1      32.687  31.980  27.310  1.00  0.00    -0.246 OA
BRANCH  28  30
ATOM     30  C   UNL A   1      34.759  30.888  27.589  1.00  0.00     0.060 A 
ATOM     31  C   UNL A   1      35.007  29.605  28.083  1.00  0.00     0.016 A 
ATOM     32  C   UNL A   1      35.688  31.908  27.787  1.00  0.00     0.016 A 
ATOM     33  C   UNL A   1      36.180  29.323  28.770  1.00  0.00     0.010 A 
ATOM     34  C   UNL A   1      36.877  31.624  28.473  1.00  0.00     0.010 A 
ATOM     35  C   UNL A   1      37.129  30.330  28.963  1.00  0.00    -0.014 A 
BRANCH  35  36
ATOM     36  C   UNL A   1      38.408  30.001  29.630  1.00  0.00     0.031 A 
ATOM     37  C   UNL A   1      39.336  28.983  29.038  1.00  0.00     0.074 A 
ATOM     38  C   UNL A   1      38.717  30.625  30.782  1.00  0.00     0.049 A 
ATOM     39  N   UNL A   1      40.447  28.503  29.529  1.00  0.00    -0.248 NA
ATOM     40  C   UNL A   1      38.966  28.430  27.725  1.00  0.00     0.031 C 
ATOM     41  C   UNL A   1      37.894  31.649  31.428  1.00  0.00     0.029 A 
ATOM     42  N   UNL A   1      39.791  30.479  31.622  1.00  0.00    -0.354 N 
ATOM     43  C   UNL A   1      40.893  27.562  28.611  1.00  0.00     0.074 A 
ATOM     44  C   UNL A   1      39.934  27.545  27.525  1.00  0.00     0.031 C 
ATOM     45  C   UNL A   1      38.480  32.022  32.576  1.00  0.00     0.029 A 
ATOM     46  C   UNL A   1      39.695  31.237  32.766  1.00  0.00     0.049 A 
ATOM     47  H   UNL A   1      40.555  29.890  31.427  1.00  0.00     0.167 HD
ATOM     48  C   UNL A   1      42.005  26.792  28.670  1.00  0.00     0.034 A 
ATOM     49  C   UNL A   1      40.480  31.271  33.859  1.00  0.00     0.034 A 
ATOM     50  C   UNL A   1      42.970  26.851  29.736  1.00  0.00     0.049 A 
ATOM     51  C   UNL A   1      41.704  30.400  33.900  1.00  0.00     0.074 A 
ATOM     52  C   UNL A   1      44.150  26.140  29.868  1.00  0.00     0.029 A 
ATOM     53  N   UNL A   1      42.868  27.666  30.855  1.00  0.00    -0.354 N 
ATOM     54  N   UNL A   1      42.155  29.573  32.987  1.00  0.00    -0.248 NA
ATOM     55  C   UNL A   1      42.541  30.480  35.105  1.00  0.00     0.031 C 
ATOM     56  C   UNL A   1      44.754  26.515  31.073  1.00  0.00     0.029 A 
ATOM     57  C   UNL A   1      43.959  27.473  31.684  1.00  0.00     0.049 A 
ATOM     58  H   UNL A   1      42.128  28.291  31.031  1.00  0.00     0.167 HD
ATOM     59  C   UNL A   1      43.342  29.058  33.491  1.00  0.00     0.074 A 
ATOM     60  C   UNL A   1      43.549  29.677  34.786  1.00  0.00     0.031 C 
ATOM     61  C   UNL A   1      44.177  28.143  32.941  1.00  0.00     0.034 A 
BRANCH  48  62
ATOM     62  C   UNL A   1      42.259  25.834  27.537  1.00  0.00     0.023 A 
ATOM     63  C   UNL A   1      42.913  26.287  26.375  1.00  0.00     0.012 A 
ATOM     64  C   UNL A   1      41.911  24.474  27.651  1.00  0.00     0.148 A 
ATOM     65  C   UNL A   1      43.200  25.406  25.333  1.00  0.00     0.002 A 
ATOM     66  C   UNL A   1      42.230  23.594  26.622  1.00  0.00     0.091 A 
ATOM     67  F   UNL A   1      41.265  24.067  28.753  1.00  0.00    -0.205 F 
ATOM     68  C   UNL A   1      42.868  24.059  25.461  1.00  0.00     0.022 A 
BRANCH  66  69
ATOM     69  S   UNL A   1      41.897  21.832  26.724  1.00  0.00     0.127 S 
ATOM     70  O   UNL A   1      42.668  21.455  27.908  1.00  0.00    -0.237 OA
ATOM     71  O   UNL A   1      40.446  21.798  26.907  1.00  0.00    -0.237 OA
ATOM     72  O   UNL A   1      42.360  21.264  25.466  1.00  0.00    -0.744 OA
ENDBRANCH  66  69
ENDBRANCH  48  62
BRANCH  49  73
ATOM     73  C   UNL A   1      40.139  32.189  34.983  1.00  0.00     0.023 A 
ATOM     74  C   UNL A   1      40.777  33.440  35.074  1.00  0.00     0.012 A 
ATOM     75  C   UNL A   1      39.146  31.853  35.924  1.00  0.00     0.148 A 
ATOM     76  C   UNL A   1      40.444  34.333  36.093  1.00  0.00     0.002 A 
ATOM     77  C   UNL A   1      38.780  32.768  36.903  1.00  0.00     0.091 A 
ATOM     78  F   UNL A   1      38.565  30.647  35.834  1.00  0.00    -0.205 F 
ATOM     79  C   UNL A   1      39.437  34.005  36.998  1.00  0.00     0.022 A 
BRANCH  77  80
ATOM     80  S   UNL A   1      37.403  32.475  38.019  1.00  0.00     0.127 S 
ATOM     81  O   UNL A   1      37.824  33.203  39.212  1.00  0.00    -0.237 OA
ATOM     82  O   UNL A   1      36.284  33.077  37.292  1.00  0.00    -0.237 OA
ATOM     83  O   UNL A   1      37.315  31.026  38.153  1.00  0.00    -0.744 OA
ENDBRANCH  77  80
ENDBRANCH  49  73
BRANCH  61  84
ATOM     84  C   UNL A   1      45.415  27.773  33.712  1.00  0.00     0.023 A 
ATOM     85  C   UNL A   1      46.551  28.602  33.642  1.00  0.00     0.012 A 
ATOM     86  C   UNL A   1      45.415  26.664  34.579  1.00  0.00     0.148 A 
ATOM     87  C   UNL A   1      47.679  28.321  34.412  1.00  0.00     0.002 A 
ATOM     88  C   UNL A   1      46.526  26.414  35.375  1.00  0.00     0.091 A 
ATOM     89  F   UNL A   1      44.328  25.879  34.615  1.00  0.00    -0.205 F 
ATOM     90  C   UNL A   1      47.662  27.237  35.287  1.00  0.00     0.022 A 
BRANCH  88  91
ATOM     91  S   UNL A   1      46.561  25.096  36.596  1.00  0.00     0.127 S 
ATOM     92  O   UNL A   1      47.947  25.154  37.057  1.00  0.00    -0.237 OA
ATOM     93  O   UNL A   1      45.573  25.554  37.574  1.00  0.00    -0.237 OA
ATOM     94  O   UNL A   1      46.189  23.881  35.886  1.00  0.00    -0.744 OA
ENDBRANCH  88  91
ENDBRANCH  61  84
ENDBRANCH  35  36
ENDBRANCH  28  30
ENDBRANCH  27  28
ENDBRANCH  26  27
ENDBRANCH   1  26
TORSDOF 19
ENDMDL
MODEL 3
REMARK VINA RESULT:     -10.9      2.423      8.142
REMARK SMILES COc1cc(NS(=O)(=O)c2cc(C)c(C(=O)OCCOC(=O)c3ccc(-c4c5nc(c(-c6cccc(S(=O)(=O)[O-])c6F)c6ccc([nH]6)c(-c6cccc(S(=O)(=O)[O-])c6F)c6nc(c(-c7cccc(S(=O)(=O)[O-])c7F)c7ccc4[nH]7)C=C6)C=C5)cc3)s2)cc(OC)c1
REMARK SMILES IDX 18 1 17 2 15 3 16 4 14 5 10 6 11 7 86 8 12 9 13 10 7 11 8 12
REMARK SMILES IDX 9 13 6 14 5 16 3 17 4 18 91 19 88 20 87 21 2 22 1 23 89 24
REMARK SMILES IDX 90 25 19 26 20 27 21 28 22 29 23 30 24 31 85 32 25 33 84 34
REMARK SMILES IDX 26 35 27 36 28 37 78 38 29 39 83 40 77 41 79 42 30 43 82 44
REMARK SMILES IDX 76 45 75 46 31 48 63 49 43 50 62 51 44 52 47 53 61 54 80 55
REMARK SMILES IDX 45 56 46 57 60 59 81 60 48 61 32 62 33 63 41 64 34 65 36 66
REMARK SMILES IDX 42 67 35 68 37 69 38 70 39 71 40 72 64 73 65 74 73 75 66 76
REMARK SMILES IDX 68 77 74 78 67 79 69 80 70 81 71 82 72 83 49 84 50 85 58 86
REMARK SMILES IDX 51 87 53 88 59 89 52 90 54 91 55 92 56 93 57 94
REMARK H PARENT 6 15 79 47 47 58
REMARK Flexibility Score: inf
ROOT
ATOM      1  C   UNL A   1      31.549  28.970  26.179  1.00  0.00     0.275 C 
ENDROOT
BRANCH   1   2
ATOM      2  O   UNL A   1      31.387  30.003  25.183  1.00  0.00    -0.458 OA
BRANCH   2   3
ATOM      3  C   UNL A   1      30.431  29.795  24.222  1.00  0.00     0.348 C 
ATOM      4  O   UNL A   1      29.607  30.633  23.904  1.00  0.00    -0.245 OA
BRANCH   3   5
ATOM      5  C   UNL A   1      30.619  28.492  23.578  1.00  0.00     0.116 A 
ATOM      6  C   UNL A   1      31.882  26.522  22.769  1.00  0.00     0.141 A 
ATOM      7  C   UNL A   1      30.541  26.250  22.931  1.00  0.00     0.038 A 
ATOM      8  S   UNL A   1      32.164  28.196  22.856  1.00  0.00    -0.115 S 
ATOM      9  C   UNL A   1      29.798  27.374  23.441  1.00  0.00    -0.024 A 
ATOM     10  C   UNL A   1      28.357  27.252  23.818  1.00  0.00     0.046 C 
BRANCH   6  11
ATOM     11  S   UNL A   1      33.293  25.464  22.557  1.00  0.00     0.271 S 
ATOM     12  O   UNL A   1      34.138  26.124  21.584  1.00  0.00    -0.200 OA
ATOM     13  O   UNL A   1      32.738  24.155  22.281  1.00  0.00    -0.200 OA
BRANCH  11  14
ATOM     14  N   UNL A   1      34.173  25.384  24.006  1.00  0.00    -0.279 N 
ATOM     15  H   UNL A   1      34.848  26.072  24.206  1.00  0.00     0.180 HD
BRANCH  14  16
ATOM     16  C   UNL A   1      33.939  24.319  24.945  1.00  0.00     0.056 A 
ATOM     17  C   UNL A   1      32.717  23.333  26.791  1.00  0.00     0.124 A 
ATOM     18  C   UNL A   1      32.838  24.307  25.799  1.00  0.00     0.073 A 
ATOM     19  C   UNL A   1      33.691  22.352  26.944  1.00  0.00     0.093 A 
ATOM     20  C   UNL A   1      34.812  22.365  26.118  1.00  0.00     0.124 A 
ATOM     21  C   UNL A   1      34.932  23.350  25.124  1.00  0.00     0.073 A 
BRANCH  17  22
ATOM     22  O   UNL A   1      31.583  23.368  27.558  1.00  0.00    -0.497 OA
ATOM     23  C   UNL A   1      30.387  23.297  26.783  1.00  0.00     0.278 C 
ENDBRANCH  17  22
BRANCH  20  24
ATOM     24  O   UNL A   1      35.845  21.468  26.181  1.00  0.00    -0.497 OA
ATOM     25  C   UNL A   1      36.942  21.695  25.299  1.00  0.00     0.278 C 
ENDBRANCH  20  24
ENDBRANCH  14  16
ENDBRANCH  11  14
ENDBRANCH   6  11
ENDBRANCH   3   5
ENDBRANCH   2   3
ENDBRANCH   1   2
BRANCH   1  26
ATOM     26  C   UNL A   1      32.498  29.408  27.305  1.00  0.00     0.275 C 
BRANCH  26  27
ATOM     27  O   UNL A   1      33.790  29.818  26.817  1.00  0.00    -0.458 OA
BRANCH  27  28
ATOM     28  C   UNL A   1      34.423  30.715  27.606  1.00  0.00     0.338 C 
ATOM     29  O   UNL A   1      33.965  31.777  27.991  1.00  0.00    -0.246 OA
BRANCH  28  30
ATOM     30  C   UNL A   1      35.727  30.211  28.064  1.00  0.00     0.060 A 
ATOM     31  C   UNL A   1      35.761  29.610  29.325  1.00  0.00     0.016 A 
ATOM     32  C   UNL A   1      36.903  30.381  27.336  1.00  0.00     0.016 A 
ATOM     33  C   UNL A   1      36.959  29.169  29.870  1.00  0.00     0.010 A 
ATOM     34  C   UNL A   1      38.113  29.928  27.879  1.00  0.00     0.010 A 
ATOM     35  C   UNL A   1      38.145  29.317  29.145  1.00  0.00    -0.014 A 
BRANCH  35  36
ATOM     36  C   UNL A   1      39.404  28.775  29.701  1.00  0.00     0.031 A 
ATOM     37  C   UNL A   1      40.053  29.421  30.888  1.00  0.00     0.074 A 
ATOM     38  C   UNL A   1      39.961  27.698  29.115  1.00  0.00     0.049 A 
ATOM     39  N   UNL A   1      41.199  29.141  31.450  1.00  0.00    -0.248 NA
ATOM     40  C   UNL A   1      39.320  30.525  31.527  1.00  0.00     0.031 C 
ATOM     41  C   UNL A   1      39.396  26.981  27.970  1.00  0.00     0.029 A 
ATOM     42  N   UNL A   1      41.128  27.031  29.386  1.00  0.00    -0.354 N 
ATOM     43  C   UNL A   1      41.350  30.058  32.481  1.00  0.00     0.074 A 
ATOM     44  C   UNL A   1      40.171  30.899  32.475  1.00  0.00     0.031 C 
ATOM     45  C   UNL A   1      40.229  25.990  27.620  1.00  0.00     0.029 A 
ATOM     46  C   UNL A   1      41.402  26.026  28.487  1.00  0.00     0.049 A 
ATOM     47  H   UNL A   1      41.713  27.250  30.147  1.00  0.00     0.167 HD
ATOM     48  C   UNL A   1      42.377  30.176  33.356  1.00  0.00     0.034 A 
ATOM     49  C   UNL A   1      42.491  25.244  28.357  1.00  0.00     0.034 A 
ATOM     50  C   UNL A   1      43.523  29.305  33.375  1.00  0.00     0.049 A 
ATOM     51  C   UNL A   1      43.618  25.404  29.337  1.00  0.00     0.074 A 
ATOM     52  C   UNL A   1      44.598  29.319  34.246  1.00  0.00     0.029 A 
ATOM     53  N   UNL A   1      43.745  28.265  32.483  1.00  0.00    -0.354 N 
ATOM     54  N   UNL A   1      43.711  26.223  30.358  1.00  0.00    -0.248 NA
ATOM     55  C   UNL A   1      44.780  24.520  29.169  1.00  0.00     0.031 C 
ATOM     56  C   UNL A   1      45.477  28.296  33.872  1.00  0.00     0.029 A 
ATOM     57  C   UNL A   1      44.940  27.634  32.779  1.00  0.00     0.049 A 
ATOM     58  H   UNL A   1      43.140  28.014  31.749  1.00  0.00     0.167 HD
ATOM     59  C   UNL A   1      44.923  25.933  30.971  1.00  0.00     0.074 A 
ATOM     60  C   UNL A   1      45.526  24.853  30.215  1.00  0.00     0.031 C 
ATOM     61  C   UNL A   1      45.495  26.520  32.051  1.00  0.00     0.034 A 
BRANCH  48  62
ATOM     62  C   UNL A   1      42.302  31.271  34.385  1.00  0.00     0.023 A 
ATOM     63  C   UNL A   1      41.779  30.991  35.663  1.00  0.00     0.012 A 
ATOM     64  C   UNL A   1      42.810  32.556  34.111  1.00  0.00     0.148 A 
ATOM     65  C   UNL A   1      41.743  31.979  36.647  1.00  0.00     0.002 A 
ATOM     66  C   UNL A   1      42.803  33.526  35.107  1.00  0.00     0.091 A 
ATOM     67  F   UNL A   1      43.280  32.810  32.881  1.00  0.00    -0.205 F 
ATOM     68  C   UNL A   1      42.264  33.242  36.373  1.00  0.00     0.022 A 
BRANCH  66  69
ATOM     69  S   UNL A   1      43.506  35.161  34.865  1.00  0.00     0.127 S 
ATOM     70  O   UNL A   1      42.693  35.670  33.762  1.00  0.00    -0.237 OA
ATOM     71  O   UNL A   1      43.253  35.804  36.154  1.00  0.00    -0.237 OA
ATOM     72  O   UNL A   1      44.915  34.949  34.562  1.00  0.00    -0.744 OA
ENDBRANCH  66  69
ENDBRANCH  48  62
BRANCH  49  73
ATOM     73  C   UNL A   1      42.540  24.224  27.272  1.00  0.00     0.023 A 
ATOM     74  C   UNL A   1      43.225  24.514  26.078  1.00  0.00     0.012 A 
ATOM     75  C   UNL A   1      41.963  22.950  27.441  1.00  0.00     0.148 A 
ATOM     76  C   UNL A   1      43.320  23.561  25.064  1.00  0.00     0.002 A 
ATOM     77  C   UNL A   1      42.108  21.985  26.452  1.00  0.00     0.091 A 
ATOM     78  F   UNL A   1      41.295  22.699  28.577  1.00  0.00    -0.205 F 
ATOM     79  C   UNL A   1      42.775  22.292  25.256  1.00  0.00     0.022 A 
BRANCH  77  80
ATOM     80  S   UNL A   1      41.554  20.291  26.679  1.00  0.00     0.127 S 
ATOM     81  O   UNL A   1      41.929  19.681  25.407  1.00  0.00    -0.237 OA
ATOM     82  O   UNL A   1      42.349  19.858  27.829  1.00  0.00    -0.237 OA
ATOM     83  O   UNL A   1      40.124  20.384  26.944  1.00  0.00    -0.744 OA
ENDBRANCH  77  80
ENDBRANCH  49  73
BRANCH  61  84
ATOM     84  C   UNL A   1      46.825  25.990  32.512  1.00  0.00     0.023 A 
ATOM     85  C   UNL A   1      48.011  26.595  32.053  1.00  0.00     0.012 A 
ATOM     86  C   UNL A   1      46.894  24.962  33.472  1.00  0.00     0.148 A 
ATOM     87  C   UNL A   1      49.250  26.171  32.531  1.00  0.00     0.002 A 
ATOM     88  C   UNL A   1      48.130  24.574  33.975  1.00  0.00     0.091 A 
ATOM     89  F   UNL A   1      45.752  24.388  33.879  1.00  0.00    -0.205 F 
ATOM     90  C   UNL A   1      49.309  25.172  33.500  1.00  0.00     0.022 A 
BRANCH  88  91
ATOM     91  S   UNL A   1      48.298  23.360  35.289  1.00  0.00     0.127 S 
ATOM     92  O   UNL A   1      47.521  23.974  36.363  1.00  0.00    -0.237 OA
ATOM     93  O   UNL A   1      47.684  22.173  34.693  1.00  0.00    -0.237 OA
ATOM     94  O   UNL A   1      49.727  23.237  35.542  1.00  0.00    -0.744 OA
ENDBRANCH  88  91
ENDBRANCH  61  84
ENDBRANCH  35  36
ENDBRANCH  28  30
ENDBRANCH  27  28
ENDBRANCH  26  27
ENDBRANCH   1  26
TORSDOF 19
ENDMDL
