MODEL 1
REMARK VINA RESULT:     -11.3      0.000      0.000
REMARK SMILES C=C[C@@H]1[C@@H](O)C[C@H]2[C@]3(CC[C@]4(C)[C@@H]([C@H](C)CCC=C(C)C)CC[C@]24C)C[C@]13CCC(=O)OCCOC(=O)c1ccc(-c2c3nc(c(-c4cccc(S(=O)(=O)[O-])c4F)c4ccc([nH]4)c(-c4cccc(S(=O)(=O)[O-])c4F)c4nc(c(-c5cccc(S(=O)(=O)[O-])c5F)c5ccc2[nH]5)C=C4)C=C3)cc1
REMARK SMILES IDX 32 1 30 2 31 3 29 4 28 5 27 6 3 7 4 8 6 9 8 10 26 11 7 12
REMARK SMILES IDX 9 13 24 14 10 15 11 16 23 17 25 18 13 19 12 20 22 21 2 22
REMARK SMILES IDX 1 23 5 24 14 26 15 27 16 28 17 29 18 30 19 31 20 32 21 33
REMARK SMILES IDX 33 34 34 35 35 36 36 37 37 38 38 39 39 40 100 41 40 42 99 43
REMARK SMILES IDX 41 44 42 45 43 46 93 47 44 48 98 49 92 50 94 51 45 52 97 53
REMARK SMILES IDX 91 54 90 55 46 57 78 58 58 59 77 60 59 61 62 62 76 63 95 64
REMARK SMILES IDX 60 65 61 66 75 68 96 69 63 70 47 71 48 72 56 73 49 74 51 75
REMARK SMILES IDX 57 76 50 77 52 78 53 79 54 80 55 81 79 82 80 83 88 84 81 85
REMARK SMILES IDX 83 86 89 87 82 88 84 89 85 90 86 91 87 92 64 93 65 94 73 95
REMARK SMILES IDX 66 96 68 97 74 98 67 99 69 100 70 101 71 102 72 103
REMARK H PARENT 5 25 94 56 62 67
REMARK Flexibility Score: inf
ROOT
ATOM      1  O   UNL A   1      32.888  30.704  27.982  1.00  0.00    -0.462 OA
ENDROOT
BRANCH   1   2
ATOM      2  C   UNL A   1      32.691  29.577  27.258  1.00  0.00     0.305 C 
ATOM      3  O   UNL A   1      32.090  28.587  27.653  1.00  0.00    -0.252 OA
BRANCH   2   4
ATOM      4  C   UNL A   1      33.341  29.638  25.897  1.00  0.00     0.123 C 
BRANCH   4   5
ATOM      5  C   UNL A   1      33.683  28.290  25.261  1.00  0.00     0.020 C 
BRANCH   5   6
ATOM      6  C   UNL A   1      32.633  27.676  24.323  1.00  0.00    -0.014 C 
ATOM      7  C   UNL A   1      32.704  28.232  22.877  1.00  0.00     0.047 C 
ATOM      8  C   UNL A   1      32.705  27.133  21.787  1.00  0.00     0.122 C 
ATOM      9  C   UNL A   1      31.829  25.927  22.107  1.00  0.00     0.037 C 
ATOM     10  C   UNL A   1      32.300  26.171  24.598  1.00  0.00    -0.019 C 
ATOM     11  C   UNL A   1      31.261  27.231  24.816  1.00  0.00     0.016 C 
ATOM     12  C   UNL A   1      32.291  25.217  23.396  1.00  0.00     0.005 C 
ATOM     13  C   UNL A   1      32.723  25.491  25.891  1.00  0.00     0.008 C 
ATOM     14  C   UNL A   1      31.539  23.842  23.687  1.00  0.00    -0.023 C 
ATOM     15  C   UNL A   1      31.841  24.282  26.158  1.00  0.00     0.008 C 
ATOM     16  C   UNL A   1      31.967  23.201  25.083  1.00  0.00    -0.024 C 
ATOM     17  C   UNL A   1      32.054  22.761  22.703  1.00  0.00     0.008 C 
ATOM     18  C   UNL A   1      30.015  24.038  23.506  1.00  0.00     0.012 C 
ATOM     19  C   UNL A   1      33.429  22.712  24.774  1.00  0.00    -0.002 C 
ATOM     20  C   UNL A   1      31.070  22.018  25.516  1.00  0.00     0.012 C 
ATOM     21  C   UNL A   1      33.277  22.106  23.355  1.00  0.00     0.005 C 
BRANCH   7  22
ATOM     22  C   UNL A   1      31.752  29.368  22.507  1.00  0.00    -0.028 C 
ATOM     23  C   UNL A   1      30.429  29.339  22.290  1.00  0.00     0.004 C 
ENDBRANCH   7  22
BRANCH   8  24
ATOM     24  O   UNL A   1      34.047  26.695  21.522  1.00  0.00    -0.392 OA
ATOM     25  H   UNL A   1      34.550  26.677  22.351  1.00  0.00     0.210 HD
ENDBRANCH   8  24
BRANCH  19  26
ATOM     26  C   UNL A   1      34.319  21.813  25.692  1.00  0.00    -0.010 C 
ATOM     27  C   UNL A   1      35.709  21.418  25.189  1.00  0.00     0.008 C 
BRANCH  26  28
ATOM     28  C   UNL A   1      33.623  20.703  26.532  1.00  0.00     0.008 C 
BRANCH  28  29
ATOM     29  C   UNL A   1      33.278  19.291  26.033  1.00  0.00     0.027 C 
BRANCH  29  30
ATOM     30  C   UNL A   1      32.693  19.129  24.660  1.00  0.00    -0.028 C 
ATOM     31  C   UNL A   1      33.131  18.256  23.729  1.00  0.00    -0.080 C 
ATOM     32  C   UNL A   1      32.402  18.078  22.427  1.00  0.00     0.039 C 
ATOM     33  C   UNL A   1      34.357  17.397  23.896  1.00  0.00     0.039 C 
ENDBRANCH  29  30
ENDBRANCH  28  29
ENDBRANCH  26  28
ENDBRANCH  19  26
ENDBRANCH   5   6
ENDBRANCH   4   5
ENDBRANCH   2   4
ENDBRANCH   1   2
BRANCH   1  34
ATOM     34  C   UNL A   1      33.565  31.794  27.333  1.00  0.00     0.274 C 
BRANCH  34  35
ATOM     35  C   UNL A   1      32.678  33.037  27.340  1.00  0.00     0.275 C 
BRANCH  35  36
ATOM     36  O   UNL A   1      33.450  34.188  27.724  1.00  0.00    -0.458 OA
BRANCH  36  37
ATOM     37  C   UNL A   1      33.372  34.537  29.025  1.00  0.00     0.338 C 
ATOM     38  O   UNL A   1      32.438  35.084  29.596  1.00  0.00    -0.246 OA
BRANCH  37  39
ATOM     39  C   UNL A   1      34.549  34.020  29.728  1.00  0.00     0.060 A 
ATOM     40  C   UNL A   1      35.816  34.361  29.243  1.00  0.00     0.016 A 
ATOM     41  C   UNL A   1      34.406  33.182  30.833  1.00  0.00     0.016 A 
ATOM     42  C   UNL A   1      36.955  33.871  29.872  1.00  0.00     0.010 A 
ATOM     43  C   UNL A   1      35.550  32.686  31.459  1.00  0.00     0.010 A 
ATOM     44  C   UNL A   1      36.827  33.022  30.978  1.00  0.00    -0.014 A 
BRANCH  44  45
ATOM     45  C   UNL A   1      38.030  32.434  31.604  1.00  0.00     0.031 A 
ATOM     46  C   UNL A   1      38.716  31.279  30.936  1.00  0.00     0.074 A 
ATOM     47  C   UNL A   1      38.477  32.918  32.777  1.00  0.00     0.049 A 
ATOM     48  N   UNL A   1      39.712  30.550  31.364  1.00  0.00    -0.248 NA
ATOM     49  C   UNL A   1      38.206  30.886  29.612  1.00  0.00     0.031 C 
ATOM     50  C   UNL A   1      37.891  34.045  33.502  1.00  0.00     0.029 A 
ATOM     51  N   UNL A   1      39.510  32.503  33.578  1.00  0.00    -0.354 N 
ATOM     52  C   UNL A   1      39.924  29.588  30.384  1.00  0.00     0.074 A 
ATOM     53  C   UNL A   1      38.952  29.826  29.339  1.00  0.00     0.031 C 
ATOM     54  C   UNL A   1      38.559  34.216  34.655  1.00  0.00     0.029 A 
ATOM     55  C   UNL A   1      39.591  33.191  34.766  1.00  0.00     0.049 A 
ATOM     56  H   UNL A   1      40.133  31.783  33.327  1.00  0.00     0.167 HD
ATOM     57  C   UNL A   1      40.852  28.604  30.357  1.00  0.00     0.034 A 
ATOM     58  C   UNL A   1      40.390  32.992  35.833  1.00  0.00     0.034 A 
ATOM     59  C   UNL A   1      41.827  28.394  31.393  1.00  0.00     0.049 A 
ATOM     60  C   UNL A   1      41.403  31.880  35.782  1.00  0.00     0.074 A 
ATOM     61  C   UNL A   1      42.832  27.445  31.451  1.00  0.00     0.029 A 
ATOM     62  N   UNL A   1      41.916  29.143  32.557  1.00  0.00    -0.354 N 
ATOM     63  N   UNL A   1      41.653  31.034  34.810  1.00  0.00    -0.248 NA
ATOM     64  C   UNL A   1      42.263  31.710  36.962  1.00  0.00     0.031 C 
ATOM     65  C   UNL A   1      43.518  27.609  32.659  1.00  0.00     0.029 A 
ATOM     66  C   UNL A   1      42.954  28.676  33.344  1.00  0.00     0.049 A 
ATOM     67  H   UNL A   1      41.326  29.896  32.790  1.00  0.00     0.167 HD
ATOM     68  C   UNL A   1      42.717  30.252  35.248  1.00  0.00     0.074 A 
ATOM     69  C   UNL A   1      43.078  30.742  36.563  1.00  0.00     0.031 C 
ATOM     70  C   UNL A   1      43.329  29.213  34.627  1.00  0.00     0.034 A 
BRANCH  57  71
ATOM     71  C   UNL A   1      40.867  27.693  29.158  1.00  0.00     0.023 A 
ATOM     72  C   UNL A   1      39.979  26.599  29.103  1.00  0.00     0.012 A 
ATOM     73  C   UNL A   1      41.729  27.940  28.071  1.00  0.00     0.148 A 
ATOM     74  C   UNL A   1      39.971  25.748  27.999  1.00  0.00     0.002 A 
ATOM     75  C   UNL A   1      41.686  27.109  26.958  1.00  0.00     0.091 A 
ATOM     76  F   UNL A   1      42.583  28.970  28.154  1.00  0.00    -0.205 F 
ATOM     77  C   UNL A   1      40.816  26.008  26.923  1.00  0.00     0.022 A 
BRANCH  75  78
ATOM     78  S   UNL A   1      42.686  27.401  25.493  1.00  0.00     0.127 S 
ATOM     79  O   UNL A   1      44.020  27.552  26.073  1.00  0.00    -0.237 OA
ATOM     80  O   UNL A   1      42.489  26.166  24.734  1.00  0.00    -0.237 OA
ATOM     81  O   UNL A   1      42.139  28.594  24.865  1.00  0.00    -0.744 OA
ENDBRANCH  75  78
ENDBRANCH  57  71
BRANCH  58  82
ATOM     82  C   UNL A   1      40.285  33.886  37.020  1.00  0.00     0.023 A 
ATOM     83  C   UNL A   1      40.886  35.159  36.982  1.00  0.00     0.012 A 
ATOM     84  C   UNL A   1      39.572  33.499  38.172  1.00  0.00     0.148 A 
ATOM     85  C   UNL A   1      40.803  36.019  38.078  1.00  0.00     0.002 A 
ATOM     86  C   UNL A   1      39.445  34.381  39.239  1.00  0.00     0.091 A 
ATOM     87  F   UNL A   1      39.023  32.276  38.199  1.00  0.00    -0.205 F 
ATOM     88  C   UNL A   1      40.073  35.636  39.200  1.00  0.00     0.022 A 
BRANCH  86  89
ATOM     89  S   UNL A   1      38.420  34.020  40.670  1.00  0.00     0.127 S 
ATOM     90  O   UNL A   1      38.292  35.338  41.286  1.00  0.00    -0.237 OA
ATOM     91  O   UNL A   1      37.198  33.510  40.047  1.00  0.00    -0.237 OA
ATOM     92  O   UNL A   1      39.160  33.029  41.439  1.00  0.00    -0.744 OA
ENDBRANCH  86  89
ENDBRANCH  58  82
BRANCH  70  93
ATOM     93  C   UNL A   1      44.474  28.552  35.348  1.00  0.00     0.023 A 
ATOM     94  C   UNL A   1      45.795  28.970  35.094  1.00  0.00     0.012 A 
ATOM     95  C   UNL A   1      44.234  27.571  36.329  1.00  0.00     0.148 A 
ATOM     96  C   UNL A   1      46.862  28.399  35.785  1.00  0.00     0.002 A 
ATOM     97  C   UNL A   1      45.298  27.040  37.047  1.00  0.00     0.091 A 
ATOM     98  F   UNL A   1      42.971  27.172  36.542  1.00  0.00    -0.205 F 
ATOM     99  C   UNL A   1      46.615  27.445  36.769  1.00  0.00     0.022 A 
BRANCH  97 100
ATOM    100  S   UNL A   1      45.061  25.878  38.396  1.00  0.00     0.127 S 
ATOM    101  O   UNL A   1      44.252  26.662  39.327  1.00  0.00    -0.237 OA
ATOM    102  O   UNL A   1      44.348  24.780  37.742  1.00  0.00    -0.237 OA
ATOM    103  O   UNL A   1      46.397  25.532  38.864  1.00  0.00    -0.744 OA
ENDBRANCH  97 100
ENDBRANCH  70  93
ENDBRANCH  44  45
ENDBRANCH  37  39
ENDBRANCH  36  37
ENDBRANCH  35  36
ENDBRANCH  34  35
ENDBRANCH   1  34
TORSDOF 22
ENDMDL
MODEL 2
REMARK VINA RESULT:     -11.2      1.448      7.268
REMARK SMILES C=C[C@@H]1[C@@H](O)C[C@H]2[C@]3(CC[C@]4(C)[C@@H]([C@H](C)CCC=C(C)C)CC[C@]24C)C[C@]13CCC(=O)OCCOC(=O)c1ccc(-c2c3nc(c(-c4cccc(S(=O)(=O)[O-])c4F)c4ccc([nH]4)c(-c4cccc(S(=O)(=O)[O-])c4F)c4nc(c(-c5cccc(S(=O)(=O)[O-])c5F)c5ccc2[nH]5)C=C4)C=C3)cc1
REMARK SMILES IDX 32 1 30 2 31 3 29 4 28 5 27 6 3 7 4 8 6 9 8 10 26 11 7 12
REMARK SMILES IDX 9 13 24 14 10 15 11 16 23 17 25 18 13 19 12 20 22 21 2 22
REMARK SMILES IDX 1 23 5 24 14 26 15 27 16 28 17 29 18 30 19 31 20 32 21 33
REMARK SMILES IDX 33 34 34 35 35 36 36 37 37 38 38 39 39 40 100 41 40 42 99 43
REMARK SMILES IDX 41 44 42 45 43 46 93 47 44 48 98 49 92 50 94 51 45 52 97 53
REMARK SMILES IDX 91 54 90 55 46 57 78 58 58 59 77 60 59 61 62 62 76 63 95 64
REMARK SMILES IDX 60 65 61 66 75 68 96 69 63 70 47 71 48 72 56 73 49 74 51 75
REMARK SMILES IDX 57 76 50 77 52 78 53 79 54 80 55 81 79 82 80 83 88 84 81 85
REMARK SMILES IDX 83 86 89 87 82 88 84 89 85 90 86 91 87 92 64 93 65 94 73 95
REMARK SMILES IDX 66 96 68 97 74 98 67 99 69 100 70 101 71 102 72 103
REMARK H PARENT 5 25 94 56 62 67
REMARK Flexibility Score: inf
ROOT
ATOM      1  O   UNL A   1      33.161  31.404  27.764  1.00  0.00    -0.462 OA
ENDROOT
BRANCH   1   2
ATOM      2  C   UNL A   1      33.536  30.263  27.139  1.00  0.00     0.305 C 
ATOM      3  O   UNL A   1      34.365  29.471  27.564  1.00  0.00    -0.252 OA
BRANCH   2   4
ATOM      4  C   UNL A   1      32.851  30.079  25.805  1.00  0.00     0.123 C 
BRANCH   4   5
ATOM      5  C   UNL A   1      33.376  28.932  24.941  1.00  0.00     0.020 C 
BRANCH   5   6
ATOM      6  C   UNL A   1      32.330  27.997  24.314  1.00  0.00    -0.014 C 
ATOM      7  C   UNL A   1      31.891  28.436  22.893  1.00  0.00     0.047 C 
ATOM      8  C   UNL A   1      31.916  27.290  21.852  1.00  0.00     0.122 C 
ATOM      9  C   UNL A   1      31.503  25.930  22.402  1.00  0.00     0.037 C 
ATOM     10  C   UNL A   1      32.491  26.484  24.682  1.00  0.00    -0.019 C 
ATOM     11  C   UNL A   1      31.294  27.256  25.151  1.00  0.00     0.016 C 
ATOM     12  C   UNL A   1      32.442  25.467  23.535  1.00  0.00     0.005 C 
ATOM     13  C   UNL A   1      33.387  26.040  25.829  1.00  0.00     0.008 C 
ATOM     14  C   UNL A   1      32.181  23.972  24.026  1.00  0.00    -0.023 C 
ATOM     15  C   UNL A   1      32.956  24.671  26.328  1.00  0.00     0.008 C 
ATOM     16  C   UNL A   1      33.097  23.576  25.270  1.00  0.00    -0.024 C 
ATOM     17  C   UNL A   1      32.708  22.985  22.953  1.00  0.00     0.008 C 
ATOM     18  C   UNL A   1      30.665  23.757  24.244  1.00  0.00     0.012 C 
ATOM     19  C   UNL A   1      34.513  23.454  24.597  1.00  0.00    -0.002 C 
ATOM     20  C   UNL A   1      32.686  22.241  25.933  1.00  0.00     0.012 C 
ATOM     21  C   UNL A   1      34.182  22.718  23.273  1.00  0.00     0.005 C 
BRANCH   7  22
ATOM     22  C   UNL A   1      30.608  29.257  22.770  1.00  0.00    -0.028 C 
ATOM     23  C   UNL A   1      30.002  30.038  23.674  1.00  0.00     0.004 C 
ENDBRANCH   7  22
BRANCH   8  24
ATOM     24  O   UNL A   1      33.218  27.191  21.253  1.00  0.00    -0.392 OA
ATOM     25  H   UNL A   1      33.657  28.054  21.292  1.00  0.00     0.210 HD
ENDBRANCH   8  24
BRANCH  19  26
ATOM     26  C   UNL A   1      35.809  22.889  25.263  1.00  0.00    -0.010 C 
ATOM     27  C   UNL A   1      37.156  23.215  24.614  1.00  0.00     0.008 C 
BRANCH  26  28
ATOM     28  C   UNL A   1      35.752  21.468  25.897  1.00  0.00     0.008 C 
BRANCH  28  29
ATOM     29  C   UNL A   1      35.643  20.149  25.118  1.00  0.00     0.027 C 
BRANCH  29  30
ATOM     30  C   UNL A   1      34.288  19.672  24.682  1.00  0.00    -0.028 C 
ATOM     31  C   UNL A   1      33.969  18.391  24.405  1.00  0.00    -0.080 C 
ATOM     32  C   UNL A   1      32.553  17.991  24.097  1.00  0.00     0.039 C 
ATOM     33  C   UNL A   1      34.969  17.265  24.377  1.00  0.00     0.039 C 
ENDBRANCH  29  30
ENDBRANCH  28  29
ENDBRANCH  26  28
ENDBRANCH  19  26
ENDBRANCH   5   6
ENDBRANCH   4   5
ENDBRANCH   2   4
ENDBRANCH   1   2
BRANCH   1  34
ATOM     34  C   UNL A   1      34.109  32.485  27.788  1.00  0.00     0.274 C 
BRANCH  34  35
ATOM     35  C   UNL A   1      33.375  33.821  27.877  1.00  0.00     0.275 C 
BRANCH  35  36
ATOM     36  O   UNL A   1      32.815  33.985  29.191  1.00  0.00    -0.458 OA
BRANCH  36  37
ATOM     37  C   UNL A   1      33.490  34.814  30.015  1.00  0.00     0.338 C 
ATOM     38  O   UNL A   1      33.192  35.959  30.330  1.00  0.00    -0.246 OA
BRANCH  37  39
ATOM     39  C   UNL A   1      34.601  34.078  30.625  1.00  0.00     0.060 A 
ATOM     40  C   UNL A   1      35.904  34.527  30.391  1.00  0.00     0.016 A 
ATOM     41  C   UNL A   1      34.361  32.938  31.392  1.00  0.00     0.016 A 
ATOM     42  C   UNL A   1      36.983  33.840  30.936  1.00  0.00     0.010 A 
ATOM     43  C   UNL A   1      35.445  32.246  31.932  1.00  0.00     0.010 A 
ATOM     44  C   UNL A   1      36.760  32.689  31.701  1.00  0.00    -0.014 A 
BRANCH  44  45
ATOM     45  C   UNL A   1      37.904  31.909  32.219  1.00  0.00     0.031 A 
ATOM     46  C   UNL A   1      38.487  32.261  33.556  1.00  0.00     0.074 A 
ATOM     47  C   UNL A   1      38.427  30.917  31.476  1.00  0.00     0.049 A 
ATOM     48  N   UNL A   1      39.550  31.781  34.145  1.00  0.00    -0.248 NA
ATOM     49  C   UNL A   1      37.783  33.297  34.329  1.00  0.00     0.031 C 
ATOM     50  C   UNL A   1      37.926  30.487  30.170  1.00  0.00     0.029 A 
ATOM     51  N   UNL A   1      39.514  30.111  31.702  1.00  0.00    -0.354 N 
ATOM     52  C   UNL A   1      39.668  32.483  35.338  1.00  0.00     0.074 A 
ATOM     53  C   UNL A   1      38.568  33.421  35.390  1.00  0.00     0.031 C 
ATOM     54  C   UNL A   1      38.721  29.513  29.698  1.00  0.00     0.029 A 
ATOM     55  C   UNL A   1      39.803  29.277  30.649  1.00  0.00     0.049 A 
ATOM     56  H   UNL A   1      40.035  30.130  32.537  1.00  0.00     0.167 HD
ATOM     57  C   UNL A   1      40.605  32.346  36.305  1.00  0.00     0.034 A 
ATOM     58  C   UNL A   1      40.843  28.440  30.463  1.00  0.00     0.034 A 
ATOM     59  C   UNL A   1      41.680  31.393  36.251  1.00  0.00     0.049 A 
ATOM     60  C   UNL A   1      41.879  28.320  31.549  1.00  0.00     0.074 A 
ATOM     61  C   UNL A   1      42.665  31.151  37.191  1.00  0.00     0.029 A 
ATOM     62  N   UNL A   1      41.913  30.525  35.194  1.00  0.00    -0.354 N 
ATOM     63  N   UNL A   1      41.929  28.924  32.713  1.00  0.00    -0.248 NA
ATOM     64  C   UNL A   1      42.987  27.384  31.309  1.00  0.00     0.031 C 
ATOM     65  C   UNL A   1      43.505  30.148  36.694  1.00  0.00     0.029 A 
ATOM     66  C   UNL A   1      43.029  29.750  35.454  1.00  0.00     0.049 A 
ATOM     67  H   UNL A   1      41.364  30.469  34.378  1.00  0.00     0.167 HD
ATOM     68  C   UNL A   1      43.054  28.421  33.356  1.00  0.00     0.074 A 
ATOM     69  C   UNL A   1      43.643  27.444  32.461  1.00  0.00     0.031 C 
ATOM     70  C   UNL A   1      43.565  28.747  34.569  1.00  0.00     0.034 A 
BRANCH  57  71
ATOM     71  C   UNL A   1      40.494  33.239  37.513  1.00  0.00     0.023 A 
ATOM     72  C   UNL A   1      39.649  32.868  38.579  1.00  0.00     0.012 A 
ATOM     73  C   UNL A   1      41.253  34.422  37.612  1.00  0.00     0.148 A 
ATOM     74  C   UNL A   1      39.538  33.676  39.710  1.00  0.00     0.002 A 
ATOM     75  C   UNL A   1      41.166  35.200  38.760  1.00  0.00     0.091 A 
ATOM     76  F   UNL A   1      42.031  34.770  36.577  1.00  0.00    -0.205 F 
ATOM     77  C   UNL A   1      40.302  34.835  39.805  1.00  0.00     0.022 A 
BRANCH  75  78
ATOM     78  S   UNL A   1      42.162  36.677  39.006  1.00  0.00     0.127 S 
ATOM     79  O   UNL A   1      42.969  36.298  40.165  1.00  0.00    -0.237 OA
ATOM     80  O   UNL A   1      42.905  36.761  37.748  1.00  0.00    -0.237 OA
ATOM     81  O   UNL A   1      41.219  37.763  39.229  1.00  0.00    -0.744 OA
ENDBRANCH  75  78
ENDBRANCH  57  71
BRANCH  58  82
ATOM     82  C   UNL A   1      40.935  27.629  29.216  1.00  0.00     0.023 A 
ATOM     83  C   UNL A   1      40.175  26.449  29.102  1.00  0.00     0.012 A 
ATOM     84  C   UNL A   1      41.743  28.031  28.135  1.00  0.00     0.148 A 
ATOM     85  C   UNL A   1      40.238  25.670  27.946  1.00  0.00     0.002 A 
ATOM     86  C   UNL A   1      41.759  27.281  26.964  1.00  0.00     0.091 A 
ATOM     87  F   UNL A   1      42.475  29.147  28.268  1.00  0.00    -0.205 F 
ATOM     88  C   UNL A   1      41.020  26.091  26.874  1.00  0.00     0.022 A 
BRANCH  86  89
ATOM     89  S   UNL A   1      42.639  27.815  25.491  1.00  0.00     0.127 S 
ATOM     90  O   UNL A   1      42.508  26.647  24.625  1.00  0.00    -0.237 OA
ATOM     91  O   UNL A   1      41.856  28.981  25.076  1.00  0.00    -0.237 OA
ATOM     92  O   UNL A   1      43.990  28.128  25.935  1.00  0.00    -0.744 OA
ENDBRANCH  86  89
ENDBRANCH  58  82
BRANCH  70  93
ATOM     93  C   UNL A   1      44.807  28.021  35.016  1.00  0.00     0.023 A 
ATOM     94  C   UNL A   1      46.071  28.606  34.809  1.00  0.00     0.012 A 
ATOM     95  C   UNL A   1      44.715  26.797  35.706  1.00  0.00     0.148 A 
ATOM     96  C   UNL A   1      47.228  27.968  35.255  1.00  0.00     0.002 A 
ATOM     97  C   UNL A   1      45.867  26.190  36.190  1.00  0.00     0.091 A 
ATOM     98  F   UNL A   1      43.503  26.246  35.876  1.00  0.00    -0.205 F 
ATOM     99  C   UNL A   1      47.126  26.769  35.956  1.00  0.00     0.022 A 
BRANCH  97 100
ATOM    100  S   UNL A   1      45.819  24.695  37.184  1.00  0.00     0.127 S 
ATOM    101  O   UNL A   1      45.068  25.139  38.356  1.00  0.00    -0.237 OA
ATOM    102  O   UNL A   1      45.099  23.764  36.314  1.00  0.00    -0.237 OA
ATOM    103  O   UNL A   1      47.210  24.334  37.429  1.00  0.00    -0.744 OA
ENDBRANCH  97 100
ENDBRANCH  70  93
ENDBRANCH  44  45
ENDBRANCH  37  39
ENDBRANCH  36  37
ENDBRANCH  35  36
ENDBRANCH  34  35
ENDBRANCH   1  34
TORSDOF 22
ENDMDL
MODEL 3
REMARK VINA RESULT:     -11.0      1.954      7.656
REMARK SMILES C=C[C@@H]1[C@@H](O)C[C@H]2[C@]3(CC[C@]4(C)[C@@H]([C@H](C)CCC=C(C)C)CC[C@]24C)C[C@]13CCC(=O)OCCOC(=O)c1ccc(-c2c3nc(c(-c4cccc(S(=O)(=O)[O-])c4F)c4ccc([nH]4)c(-c4cccc(S(=O)(=O)[O-])c4F)c4nc(c(-c5cccc(S(=O)(=O)[O-])c5F)c5ccc2[nH]5)C=C4)C=C3)cc1
REMARK SMILES IDX 32 1 30 2 31 3 29 4 28 5 27 6 3 7 4 8 6 9 8 10 26 11 7 12
REMARK SMILES IDX 9 13 24 14 10 15 11 16 23 17 25 18 13 19 12 20 22 21 2 22
REMARK SMILES IDX 1 23 5 24 14 26 15 27 16 28 17 29 18 30 19 31 20 32 21 33
REMARK SMILES IDX 33 34 34 35 35 36 36 37 37 38 38 39 39 40 100 41 40 42 99 43
REMARK SMILES IDX 41 44 42 45 43 46 93 47 44 48 98 49 92 50 94 51 45 52 97 53
REMARK SMILES IDX 91 54 90 55 46 57 78 58 58 59 77 60 59 61 62 62 76 63 95 64
REMARK SMILES IDX 60 65 61 66 75 68 96 69 63 70 47 71 48 72 56 73 49 74 51 75
REMARK SMILES IDX 57 76 50 77 52 78 53 79 54 80 55 81 79 82 80 83 88 84 81 85
REMARK SMILES IDX 83 86 89 87 82 88 84 89 85 90 86 91 87 92 64 93 65 94 73 95
REMARK SMILES IDX 66 96 68 97 74 98 67 99 69 100 70 101 71 102 72 103
REMARK H PARENT 5 25 94 56 62 67
REMARK Flexibility Score: inf
ROOT
ATOM      1  O   UNL A   1      33.653  31.117  27.827  1.00  0.00    -0.462 OA
ENDROOT
BRANCH   1   2
ATOM      2  C   UNL A   1      33.945  29.922  27.263  1.00  0.00     0.305 C 
ATOM      3  O   UNL A   1      34.881  29.204  27.589  1.00  0.00    -0.252 OA
BRANCH   2   4
ATOM      4  C   UNL A   1      33.012  29.568  26.130  1.00  0.00     0.123 C 
BRANCH   4   5
ATOM      5  C   UNL A   1      32.110  28.356  26.364  1.00  0.00     0.020 C 
BRANCH   5   6
ATOM      6  C   UNL A   1      31.529  27.669  25.119  1.00  0.00    -0.014 C 
ATOM      7  C   UNL A   1      31.690  28.510  23.826  1.00  0.00     0.047 C 
ATOM      8  C   UNL A   1      32.271  27.712  22.632  1.00  0.00     0.122 C 
ATOM      9  C   UNL A   1      31.804  26.262  22.557  1.00  0.00     0.037 C 
ATOM     10  C   UNL A   1      31.672  26.110  25.096  1.00  0.00    -0.019 C 
ATOM     11  C   UNL A   1      30.317  26.747  25.187  1.00  0.00     0.016 C 
ATOM     12  C   UNL A   1      32.217  25.468  23.813  1.00  0.00     0.005 C 
ATOM     13  C   UNL A   1      32.037  25.332  26.350  1.00  0.00     0.008 C 
ATOM     14  C   UNL A   1      31.927  23.903  23.718  1.00  0.00    -0.023 C 
ATOM     15  C   UNL A   1      31.577  23.889  26.221  1.00  0.00     0.008 C 
ATOM     16  C   UNL A   1      32.265  23.141  25.078  1.00  0.00    -0.024 C 
ATOM     17  C   UNL A   1      32.955  23.252  22.759  1.00  0.00     0.008 C 
ATOM     18  C   UNL A   1      30.491  23.675  23.188  1.00  0.00     0.012 C 
ATOM     19  C   UNL A   1      33.836  23.179  25.082  1.00  0.00    -0.002 C 
ATOM     20  C   UNL A   1      31.749  21.683  25.108  1.00  0.00     0.012 C 
ATOM     21  C   UNL A   1      34.175  22.865  23.603  1.00  0.00     0.005 C 
BRANCH   7  22
ATOM     22  C   UNL A   1      30.504  29.366  23.384  1.00  0.00    -0.028 C 
ATOM     23  C   UNL A   1      29.334  28.994  22.847  1.00  0.00     0.004 C 
ENDBRANCH   7  22
BRANCH   8  24
ATOM     24  O   UNL A   1      33.706  27.754  22.657  1.00  0.00    -0.392 OA
ATOM     25  H   UNL A   1      34.052  26.860  22.805  1.00  0.00     0.210 HD
ENDBRANCH   8  24
BRANCH  19  26
ATOM     26  C   UNL A   1      34.778  22.412  26.065  1.00  0.00    -0.010 C 
ATOM     27  C   UNL A   1      34.642  22.692  27.563  1.00  0.00     0.008 C 
BRANCH  26  28
ATOM     28  C   UNL A   1      36.242  22.133  25.615  1.00  0.00     0.008 C 
BRANCH  28  29
ATOM     29  C   UNL A   1      37.271  23.202  25.217  1.00  0.00     0.027 C 
BRANCH  29  30
ATOM     30  C   UNL A   1      37.860  24.077  26.286  1.00  0.00    -0.028 C 
ATOM     31  C   UNL A   1      39.038  23.858  26.905  1.00  0.00    -0.080 C 
ATOM     32  C   UNL A   1      39.605  24.858  27.874  1.00  0.00     0.039 C 
ATOM     33  C   UNL A   1      39.881  22.627  26.694  1.00  0.00     0.039 C 
ENDBRANCH  29  30
ENDBRANCH  28  29
ENDBRANCH  26  28
ENDBRANCH  19  26
ENDBRANCH   5   6
ENDBRANCH   4   5
ENDBRANCH   2   4
ENDBRANCH   1   2
BRANCH   1  34
ATOM     34  C   UNL A   1      34.676  32.128  27.799  1.00  0.00     0.274 C 
BRANCH  34  35
ATOM     35  C   UNL A   1      34.055  33.505  28.022  1.00  0.00     0.275 C 
BRANCH  35  36
ATOM     36  O   UNL A   1      33.319  33.516  29.257  1.00  0.00    -0.458 OA
BRANCH  36  37
ATOM     37  C   UNL A   1      33.755  34.387  30.190  1.00  0.00     0.338 C 
ATOM     38  O   UNL A   1      33.207  35.417  30.564  1.00  0.00    -0.246 OA
BRANCH  37  39
ATOM     39  C   UNL A   1      34.954  33.840  30.830  1.00  0.00     0.060 A 
ATOM     40  C   UNL A   1      34.836  32.649  31.554  1.00  0.00     0.016 A 
ATOM     41  C   UNL A   1      36.173  34.511  30.746  1.00  0.00     0.016 A 
ATOM     42  C   UNL A   1      35.949  32.113  32.193  1.00  0.00     0.010 A 
ATOM     43  C   UNL A   1      37.287  33.975  31.393  1.00  0.00     0.010 A 
ATOM     44  C   UNL A   1      37.179  32.779  32.124  1.00  0.00    -0.014 A 
BRANCH  44  45
ATOM     45  C   UNL A   1      38.347  32.258  32.864  1.00  0.00     0.031 A 
ATOM     46  C   UNL A   1      38.547  32.656  34.296  1.00  0.00     0.074 A 
ATOM     47  C   UNL A   1      39.233  31.460  32.239  1.00  0.00     0.049 A 
ATOM     48  N   UNL A   1      39.552  32.403  35.091  1.00  0.00    -0.248 NA
ATOM     49  C   UNL A   1      37.473  33.453  34.914  1.00  0.00     0.031 C 
ATOM     50  C   UNL A   1      39.124  31.003  30.853  1.00  0.00     0.029 A 
ATOM     51  N   UNL A   1      40.412  30.917  32.681  1.00  0.00    -0.354 N 
ATOM     52  C   UNL A   1      39.254  33.041  36.289  1.00  0.00     0.074 A 
ATOM     53  C   UNL A   1      37.974  33.694  36.117  1.00  0.00     0.031 C 
ATOM     54  C   UNL A   1      40.208  30.270  30.550  1.00  0.00     0.029 A 
ATOM     55  C   UNL A   1      41.100  30.236  31.705  1.00  0.00     0.049 A 
ATOM     56  H   UNL A   1      40.734  31.007  33.607  1.00  0.00     0.167 HD
ATOM     57  C   UNL A   1      39.981  33.070  37.431  1.00  0.00     0.034 A 
ATOM     58  C   UNL A   1      42.325  29.677  31.735  1.00  0.00     0.034 A 
ATOM     59  C   UNL A   1      41.241  32.398  37.595  1.00  0.00     0.049 A 
ATOM     60  C   UNL A   1      43.118  29.738  33.013  1.00  0.00     0.074 A 
ATOM     61  C   UNL A   1      42.045  32.337  38.719  1.00  0.00     0.029 A 
ATOM     62  N   UNL A   1      41.884  31.672  36.603  1.00  0.00    -0.354 N 
ATOM     63  N   UNL A   1      42.786  30.267  34.167  1.00  0.00    -0.248 NA
ATOM     64  C   UNL A   1      44.443  29.101  33.004  1.00  0.00     0.031 C 
ATOM     65  C   UNL A   1      43.184  31.588  38.401  1.00  0.00     0.029 A 
ATOM     66  C   UNL A   1      43.078  31.163  37.085  1.00  0.00     0.049 A 
ATOM     67  H   UNL A   1      41.542  31.538  35.690  1.00  0.00     0.167 HD
ATOM     68  C   UNL A   1      43.845  30.003  35.029  1.00  0.00     0.074 A 
ATOM     69  C   UNL A   1      44.819  29.244  34.268  1.00  0.00     0.031 C 
ATOM     70  C   UNL A   1      44.006  30.367  36.325  1.00  0.00     0.034 A 
BRANCH  57  71
ATOM     71  C   UNL A   1      39.417  33.840  38.596  1.00  0.00     0.023 A 
ATOM     72  C   UNL A   1      38.665  33.165  39.579  1.00  0.00     0.012 A 
ATOM     73  C   UNL A   1      39.664  35.219  38.740  1.00  0.00     0.148 A 
ATOM     74  C   UNL A   1      38.141  33.857  40.670  1.00  0.00     0.002 A 
ATOM     75  C   UNL A   1      39.171  35.893  39.851  1.00  0.00     0.091 A 
ATOM     76  F   UNL A   1      40.360  35.848  37.782  1.00  0.00    -0.205 F 
ATOM     77  C   UNL A   1      38.402  35.217  40.812  1.00  0.00     0.022 A 
BRANCH  75  78
ATOM     78  S   UNL A   1      39.510  37.632  40.158  1.00  0.00     0.127 S 
ATOM     79  O   UNL A   1      40.876  37.759  39.653  1.00  0.00    -0.237 OA
ATOM     80  O   UNL A   1      38.494  38.293  39.340  1.00  0.00    -0.237 OA
ATOM     81  O   UNL A   1      39.353  37.823  41.593  1.00  0.00    -0.744 OA
ENDBRANCH  75  78
ENDBRANCH  57  71
BRANCH  58  82
ATOM     82  C   UNL A   1      42.859  28.984  30.528  1.00  0.00     0.023 A 
ATOM     83  C   UNL A   1      42.661  27.598  30.383  1.00  0.00     0.012 A 
ATOM     84  C   UNL A   1      43.533  29.691  29.513  1.00  0.00     0.148 A 
ATOM     85  C   UNL A   1      43.148  26.922  29.263  1.00  0.00     0.002 A 
ATOM     86  C   UNL A   1      43.966  29.023  28.373  1.00  0.00     0.091 A 
ATOM     87  F   UNL A   1      43.730  31.007  29.676  1.00  0.00    -0.205 F 
ATOM     88  C   UNL A   1      43.789  27.635  28.254  1.00  0.00     0.022 A 
BRANCH  86  89
ATOM     89  S   UNL A   1      44.688  29.881  26.969  1.00  0.00     0.127 S 
ATOM     90  O   UNL A   1      44.978  28.777  26.060  1.00  0.00    -0.237 OA
ATOM     91  O   UNL A   1      43.590  30.753  26.549  1.00  0.00    -0.237 OA
ATOM     92  O   UNL A   1      45.846  30.588  27.498  1.00  0.00    -0.744 OA
ENDBRANCH  86  89
ENDBRANCH  58  82
BRANCH  70  93
ATOM     93  C   UNL A   1      45.269  29.925  37.017  1.00  0.00     0.023 A 
ATOM     94  C   UNL A   1      46.395  30.772  37.025  1.00  0.00     0.012 A 
ATOM     95  C   UNL A   1      45.314  28.705  37.720  1.00  0.00     0.148 A 
ATOM     96  C   UNL A   1      47.557  30.397  37.697  1.00  0.00     0.002 A 
ATOM     97  C   UNL A   1      46.459  28.360  38.427  1.00  0.00     0.091 A 
ATOM     98  F   UNL A   1      44.239  27.904  37.683  1.00  0.00    -0.205 F 
ATOM     99  C   UNL A   1      47.585  29.200  38.408  1.00  0.00     0.022 A 
BRANCH  97 100
ATOM    100  S   UNL A   1      46.548  26.884  39.447  1.00  0.00     0.127 S 
ATOM    101  O   UNL A   1      46.323  25.827  38.463  1.00  0.00    -0.237 OA
ATOM    102  O   UNL A   1      47.913  26.949  39.972  1.00  0.00    -0.237 OA
ATOM    103  O   UNL A   1      45.508  27.034  40.457  1.00  0.00    -0.744 OA
ENDBRANCH  97 100
ENDBRANCH  70  93
ENDBRANCH  44  45
ENDBRANCH  37  39
ENDBRANCH  36  37
ENDBRANCH  35  36
ENDBRANCH  34  35
ENDBRANCH   1  34
TORSDOF 22
ENDMDL
