MODEL 1
REMARK VINA RESULT:     -11.9      0.000      0.000
REMARK SMILES Cn1c(SCC(=O)Nc2cccc(C(=O)OCCOC(=O)c3ccc(-c4c5nc(c(-c6cccc(S(=O)(=O)[O-])c6F)c6ccc([nH]6)c(-c6cccc(S(=O)(=O)[O-])c6F)c6nc(c(-c7cccc(S(=O)(=O)[O-])c7F)c7ccc4[nH]7)C=C6)C=C5)cc3)c2)nnc1[C@@H]1CCCN1C(=O)c1ccccc1Cl
REMARK SMILES IDX 14 1 15 2 13 3 9 4 10 5 85 6 11 7 12 8 8 9 6 10 7 11 5 13
REMARK SMILES IDX 4 14 3 15 1 16 2 17 88 18 86 19 87 20 89 21 90 22 93 23
REMARK SMILES IDX 91 24 92 25 94 26 95 27 96 28 97 29 101 30 98 31 100 32
REMARK SMILES IDX 102 33 99 34 16 35 17 36 18 37 19 38 20 39 21 40 22 41 23 42
REMARK SMILES IDX 84 43 24 44 83 45 25 46 26 47 27 48 77 49 28 50 82 51 76 52
REMARK SMILES IDX 78 53 29 54 81 55 75 56 74 57 30 59 62 60 42 61 61 62 43 63
REMARK SMILES IDX 46 64 60 65 79 66 44 67 45 68 59 70 80 71 47 72 31 73 32 74
REMARK SMILES IDX 40 75 33 76 35 77 41 78 34 79 36 80 37 81 38 82 39 83 63 84
REMARK SMILES IDX 64 85 72 86 65 87 67 88 73 89 66 90 68 91 69 92 70 93 71 94
REMARK SMILES IDX 48 95 49 96 57 97 50 98 52 99 58 100 51 101 53 102 54 103
REMARK SMILES IDX 55 104 56 105
REMARK H PARENT 8 12 78 58 46 69
REMARK Flexibility Score: inf
ROOT
ATOM      1  C   UNL A   1      33.628  30.946  27.226  1.00  0.00     0.338 C 
ATOM      2  O   UNL A   1      34.734  31.439  27.413  1.00  0.00    -0.246 OA
ENDROOT
BRANCH   1   3
ATOM      3  C   UNL A   1      33.449  29.658  26.507  1.00  0.00     0.062 A 
ATOM      4  C   UNL A   1      32.583  28.493  24.608  1.00  0.00     0.042 A 
ATOM      5  C   UNL A   1      33.343  27.365  24.906  1.00  0.00     0.026 A 
ATOM      6  C   UNL A   1      32.501  29.549  25.500  1.00  0.00     0.041 A 
ATOM      7  C   UNL A   1      34.205  27.406  25.996  1.00  0.00     0.003 A 
ATOM      8  C   UNL A   1      34.319  28.583  26.739  1.00  0.00     0.016 A 
BRANCH   4   9
ATOM      9  N   UNL A   1      32.071  28.623  23.318  1.00  0.00    -0.325 N 
ATOM     10  C   UNL A   1      30.793  28.295  22.941  1.00  0.00     0.234 C 
ATOM     11  O   UNL A   1      30.422  28.693  21.829  1.00  0.00    -0.274 OA
ATOM     12  H   UNL A   1      32.672  28.979  22.624  1.00  0.00     0.169 HD
BRANCH  10  13
ATOM     13  C   UNL A   1      29.784  27.668  23.889  1.00  0.00     0.178 C 
BRANCH  13  14
ATOM     14  S   UNL A   1      29.273  25.970  23.702  1.00  0.00    -0.076 SA
BRANCH  14  15
ATOM     15  C   UNL A   1      30.595  24.894  23.455  1.00  0.00     0.191 A 
ATOM     16  C   UNL A   1      30.840  23.723  25.675  1.00  0.00     0.154 C 
ATOM     17  N   UNL A   1      31.296  24.200  24.402  1.00  0.00    -0.307 N 
ATOM     18  C   UNL A   1      32.551  24.014  23.866  1.00  0.00     0.156 A 
ATOM     19  N   UNL A   1      31.291  24.905  22.338  1.00  0.00    -0.123 NA
ATOM     20  N   UNL A   1      32.512  24.340  22.589  1.00  0.00    -0.132 NA
BRANCH  18  21
ATOM     21  C   UNL A   1      33.779  23.580  24.582  1.00  0.00     0.154 C 
ATOM     22  C   UNL A   1      35.063  24.178  23.992  1.00  0.00     0.035 C 
ATOM     23  N   UNL A   1      34.020  22.130  24.606  1.00  0.00    -0.328 N 
ATOM     24  C   UNL A   1      36.146  23.195  24.412  1.00  0.00     0.024 C 
ATOM     25  C   UNL A   1      35.441  21.848  24.479  1.00  0.00     0.120 C 
BRANCH  23  26
ATOM     26  C   UNL A   1      33.192  21.092  25.023  1.00  0.00     0.255 C 
ATOM     27  O   UNL A   1      32.515  21.153  26.049  1.00  0.00    -0.269 OA
BRANCH  26  28
ATOM     28  C   UNL A   1      33.182  19.804  24.311  1.00  0.00     0.058 A 
ATOM     29  C   UNL A   1      33.942  18.732  24.790  1.00  0.00     0.015 A 
ATOM     30  C   UNL A   1      32.527  19.699  23.075  1.00  0.00     0.053 A 
ATOM     31  C   UNL A   1      33.969  17.529  24.075  1.00  0.00     0.001 A 
ATOM     32  C   UNL A   1      32.553  18.491  22.373  1.00  0.00     0.021 A 
ATOM     33  Cl  UNL A   1      31.670  21.019  22.360  1.00  0.00    -0.083 Cl
ATOM     34  C   UNL A   1      33.256  17.401  22.883  1.00  0.00     0.002 A 
ENDBRANCH  26  28
ENDBRANCH  23  26
ENDBRANCH  18  21
ENDBRANCH  14  15
ENDBRANCH  13  14
ENDBRANCH  10  13
ENDBRANCH   4   9
ENDBRANCH   1   3
BRANCH   1  35
ATOM     35  O   UNL A   1      32.443  31.437  27.651  1.00  0.00    -0.458 OA
BRANCH  35  36
ATOM     36  C   UNL A   1      31.874  32.520  26.888  1.00  0.00     0.275 C 
BRANCH  36  37
ATOM     37  C   UNL A   1      32.532  33.844  27.273  1.00  0.00     0.275 C 
BRANCH  37  38
ATOM     38  O   UNL A   1      32.352  34.091  28.680  1.00  0.00    -0.458 OA
BRANCH  38  39
ATOM     39  C   UNL A   1      33.251  34.942  29.226  1.00  0.00     0.338 C 
ATOM     40  O   UNL A   1      33.082  36.109  29.538  1.00  0.00    -0.246 OA
BRANCH  39  41
ATOM     41  C   UNL A   1      34.482  34.214  29.555  1.00  0.00     0.060 A 
ATOM     42  C   UNL A   1      34.397  33.228  30.528  1.00  0.00     0.016 A 
ATOM     43  C   UNL A   1      35.721  34.604  29.065  1.00  0.00     0.016 A 
ATOM     44  C   UNL A   1      35.535  32.705  31.117  1.00  0.00     0.010 A 
ATOM     45  C   UNL A   1      36.872  33.987  29.571  1.00  0.00     0.010 A 
ATOM     46  C   UNL A   1      36.792  33.064  30.635  1.00  0.00    -0.014 A 
BRANCH  46  47
ATOM     47  C   UNL A   1      38.007  32.501  31.279  1.00  0.00     0.031 A 
ATOM     48  C   UNL A   1      38.748  31.369  30.625  1.00  0.00     0.074 A 
ATOM     49  C   UNL A   1      38.452  33.010  32.445  1.00  0.00     0.049 A 
ATOM     50  N   UNL A   1      39.721  30.636  31.097  1.00  0.00    -0.248 NA
ATOM     51  C   UNL A   1      38.324  31.001  29.265  1.00  0.00     0.031 C 
ATOM     52  C   UNL A   1      37.843  34.129  33.170  1.00  0.00     0.029 A 
ATOM     53  N   UNL A   1      39.510  32.640  33.238  1.00  0.00    -0.354 N 
ATOM     54  C   UNL A   1      39.967  29.666  30.133  1.00  0.00     0.074 A 
ATOM     55  C   UNL A   1      39.043  29.910  29.046  1.00  0.00     0.031 C 
ATOM     56  C   UNL A   1      38.535  34.356  34.295  1.00  0.00     0.029 A 
ATOM     57  C   UNL A   1      39.574  33.342  34.419  1.00  0.00     0.049 A 
ATOM     58  H   UNL A   1      40.158  31.942  32.987  1.00  0.00     0.167 HD
ATOM     59  C   UNL A   1      40.880  28.666  30.152  1.00  0.00     0.034 A 
ATOM     60  C   UNL A   1      40.335  33.154  35.514  1.00  0.00     0.034 A 
ATOM     61  C   UNL A   1      41.824  28.464  31.219  1.00  0.00     0.049 A 
ATOM     62  C   UNL A   1      41.332  32.033  35.522  1.00  0.00     0.074 A 
ATOM     63  C   UNL A   1      42.826  27.515  31.314  1.00  0.00     0.029 A 
ATOM     64  N   UNL A   1      41.878  29.218  32.383  1.00  0.00    -0.354 N 
ATOM     65  N   UNL A   1      41.592  31.157  34.582  1.00  0.00    -0.248 NA
ATOM     66  C   UNL A   1      42.151  31.886  36.730  1.00  0.00     0.031 C 
ATOM     67  C   UNL A   1      43.460  27.670  32.552  1.00  0.00     0.029 A 
ATOM     68  C   UNL A   1      42.884  28.745  33.211  1.00  0.00     0.049 A 
ATOM     69  H   UNL A   1      41.288  29.978  32.590  1.00  0.00     0.167 HD
ATOM     70  C   UNL A   1      42.618  30.362  35.076  1.00  0.00     0.074 A 
ATOM     71  C   UNL A   1      42.950  30.883  36.388  1.00  0.00     0.031 C 
ATOM     72  C   UNL A   1      43.221  29.291  34.503  1.00  0.00     0.034 A 
BRANCH  59  73
ATOM     73  C   UNL A   1      40.881  27.708  28.987  1.00  0.00     0.023 A 
ATOM     74  C   UNL A   1      39.977  26.626  28.952  1.00  0.00     0.012 A 
ATOM     75  C   UNL A   1      41.784  27.883  27.919  1.00  0.00     0.148 A 
ATOM     76  C   UNL A   1      40.013  25.702  27.906  1.00  0.00     0.002 A 
ATOM     77  C   UNL A   1      41.777  26.990  26.855  1.00  0.00     0.091 A 
ATOM     78  F   UNL A   1      42.651  28.904  27.975  1.00  0.00    -0.205 F 
ATOM     79  C   UNL A   1      40.907  25.888  26.856  1.00  0.00     0.022 A 
BRANCH  77  80
ATOM     80  S   UNL A   1      42.831  27.196  25.415  1.00  0.00     0.127 S 
ATOM     81  O   UNL A   1      42.231  28.365  24.774  1.00  0.00    -0.237 OA
ATOM     82  O   UNL A   1      44.139  27.438  26.022  1.00  0.00    -0.237 OA
ATOM     83  O   UNL A   1      42.733  25.950  24.666  1.00  0.00    -0.744 OA
ENDBRANCH  77  80
ENDBRANCH  59  73
BRANCH  60  84
ATOM     84  C   UNL A   1      40.153  34.049  36.691  1.00  0.00     0.023 A 
ATOM     85  C   UNL A   1      40.512  35.407  36.600  1.00  0.00     0.012 A 
ATOM     86  C   UNL A   1      39.547  33.574  37.872  1.00  0.00     0.148 A 
ATOM     87  C   UNL A   1      40.283  36.273  37.670  1.00  0.00     0.002 A 
ATOM     88  C   UNL A   1      39.264  34.454  38.909  1.00  0.00     0.091 A 
ATOM     89  F   UNL A   1      39.223  32.275  37.939  1.00  0.00    -0.205 F 
ATOM     90  C   UNL A   1      39.646  35.802  38.816  1.00  0.00     0.022 A 
BRANCH  88  91
ATOM     91  S   UNL A   1      38.318  33.971  40.357  1.00  0.00     0.127 S 
ATOM     92  O   UNL A   1      37.136  33.364  39.750  1.00  0.00    -0.237 OA
ATOM     93  O   UNL A   1      39.230  33.029  41.006  1.00  0.00    -0.237 OA
ATOM     94  O   UNL A   1      38.081  35.197  41.104  1.00  0.00    -0.744 OA
ENDBRANCH  88  91
ENDBRANCH  60  84
BRANCH  72  95
ATOM     95  C   UNL A   1      44.326  28.624  35.280  1.00  0.00     0.023 A 
ATOM     96  C   UNL A   1      45.661  29.038  35.106  1.00  0.00     0.012 A 
ATOM     97  C   UNL A   1      44.030  27.621  36.224  1.00  0.00     0.148 A 
ATOM     98  C   UNL A   1      46.690  28.436  35.830  1.00  0.00     0.002 A 
ATOM     99  C   UNL A   1      45.053  27.064  36.981  1.00  0.00     0.091 A 
ATOM    100  F   UNL A   1      42.756  27.228  36.361  1.00  0.00    -0.205 F 
ATOM    101  C   UNL A   1      46.385  27.459  36.775  1.00  0.00     0.022 A 
BRANCH  99 102
ATOM    102  S   UNL A   1      44.744  25.872  38.287  1.00  0.00     0.127 S 
ATOM    103  O   UNL A   1      43.829  24.939  37.630  1.00  0.00    -0.237 OA
ATOM    104  O   UNL A   1      46.083  25.336  38.541  1.00  0.00    -0.237 OA
ATOM    105  O   UNL A   1      44.176  26.627  39.396  1.00  0.00    -0.744 OA
ENDBRANCH  99 102
ENDBRANCH  72  95
ENDBRANCH  46  47
ENDBRANCH  39  41
ENDBRANCH  38  39
ENDBRANCH  37  38
ENDBRANCH  36  37
ENDBRANCH  35  36
ENDBRANCH   1  35
TORSDOF 21
ENDMDL
MODEL 2
REMARK VINA RESULT:     -11.1      1.617      2.145
REMARK SMILES Cn1c(SCC(=O)Nc2cccc(C(=O)OCCOC(=O)c3ccc(-c4c5nc(c(-c6cccc(S(=O)(=O)[O-])c6F)c6ccc([nH]6)c(-c6cccc(S(=O)(=O)[O-])c6F)c6nc(c(-c7cccc(S(=O)(=O)[O-])c7F)c7ccc4[nH]7)C=C6)C=C5)cc3)c2)nnc1[C@@H]1CCCN1C(=O)c1ccccc1Cl
REMARK SMILES IDX 14 1 15 2 13 3 9 4 10 5 85 6 11 7 12 8 8 9 6 10 7 11 5 13
REMARK SMILES IDX 4 14 3 15 1 16 2 17 88 18 86 19 87 20 89 21 90 22 93 23
REMARK SMILES IDX 91 24 92 25 94 26 95 27 96 28 97 29 101 30 98 31 100 32
REMARK SMILES IDX 102 33 99 34 16 35 17 36 18 37 19 38 20 39 21 40 22 41 23 42
REMARK SMILES IDX 84 43 24 44 83 45 25 46 26 47 27 48 77 49 28 50 82 51 76 52
REMARK SMILES IDX 78 53 29 54 81 55 75 56 74 57 30 59 62 60 42 61 61 62 43 63
REMARK SMILES IDX 46 64 60 65 79 66 44 67 45 68 59 70 80 71 47 72 31 73 32 74
REMARK SMILES IDX 40 75 33 76 35 77 41 78 34 79 36 80 37 81 38 82 39 83 63 84
REMARK SMILES IDX 64 85 72 86 65 87 67 88 73 89 66 90 68 91 69 92 70 93 71 94
REMARK SMILES IDX 48 95 49 96 57 97 50 98 52 99 58 100 51 101 53 102 54 103
REMARK SMILES IDX 55 104 56 105
REMARK H PARENT 8 12 78 58 46 69
REMARK Flexibility Score: inf
ROOT
ATOM      1  C   UNL A   1      33.756  30.950  27.543  1.00  0.00     0.338 C 
ATOM      2  O   UNL A   1      34.945  31.198  27.703  1.00  0.00    -0.246 OA
ENDROOT
BRANCH   1   3
ATOM      3  C   UNL A   1      33.290  29.690  26.908  1.00  0.00     0.062 A 
ATOM      4  C   UNL A   1      33.321  28.238  25.009  1.00  0.00     0.042 A 
ATOM      5  C   UNL A   1      32.756  27.201  25.746  1.00  0.00     0.026 A 
ATOM      6  C   UNL A   1      33.412  29.515  25.538  1.00  0.00     0.041 A 
ATOM      7  C   UNL A   1      32.501  27.400  27.098  1.00  0.00     0.003 A 
ATOM      8  C   UNL A   1      32.850  28.614  27.693  1.00  0.00     0.016 A 
BRANCH   4   9
ATOM      9  N   UNL A   1      33.969  27.926  23.815  1.00  0.00    -0.325 N 
ATOM     10  C   UNL A   1      33.563  28.331  22.570  1.00  0.00     0.234 C 
ATOM     11  O   UNL A   1      34.371  28.177  21.643  1.00  0.00    -0.274 OA
ATOM     12  H   UNL A   1      34.782  27.371  23.871  1.00  0.00     0.169 HD
BRANCH  10  13
ATOM     13  C   UNL A   1      32.289  29.125  22.329  1.00  0.00     0.178 C 
BRANCH  13  14
ATOM     14  S   UNL A   1      30.683  28.372  22.509  1.00  0.00    -0.076 SA
BRANCH  14  15
ATOM     15  C   UNL A   1      30.759  26.659  22.666  1.00  0.00     0.191 A 
ATOM     16  C   UNL A   1      29.033  26.140  24.430  1.00  0.00     0.154 C 
ATOM     17  N   UNL A   1      30.208  25.884  23.650  1.00  0.00    -0.307 N 
ATOM     18  C   UNL A   1      31.006  24.764  23.723  1.00  0.00     0.156 A 
ATOM     19  N   UNL A   1      31.664  25.950  22.027  1.00  0.00    -0.123 NA
ATOM     20  N   UNL A   1      31.810  24.755  22.679  1.00  0.00    -0.132 NA
BRANCH  18  21
ATOM     21  C   UNL A   1      31.029  23.748  24.807  1.00  0.00     0.154 C 
ATOM     22  C   UNL A   1      30.477  24.274  26.138  1.00  0.00     0.035 C 
ATOM     23  N   UNL A   1      32.353  23.205  25.141  1.00  0.00    -0.328 N 
ATOM     24  C   UNL A   1      31.127  23.376  27.180  1.00  0.00     0.024 C 
ATOM     25  C   UNL A   1      32.468  22.990  26.575  1.00  0.00     0.120 C 
BRANCH  23  26
ATOM     26  C   UNL A   1      33.312  22.616  24.321  1.00  0.00     0.255 C 
ATOM     27  O   UNL A   1      34.124  23.273  23.670  1.00  0.00    -0.269 OA
BRANCH  26  28
ATOM     28  C   UNL A   1      33.319  21.162  24.096  1.00  0.00     0.058 A 
ATOM     29  C   UNL A   1      32.309  20.566  23.334  1.00  0.00     0.015 A 
ATOM     30  C   UNL A   1      34.255  20.360  24.765  1.00  0.00     0.053 A 
ATOM     31  C   UNL A   1      32.294  19.176  23.171  1.00  0.00     0.001 A 
ATOM     32  C   UNL A   1      34.237  18.974  24.590  1.00  0.00     0.021 A 
ATOM     33  Cl  UNL A   1      35.457  21.015  25.821  1.00  0.00    -0.083 Cl
ATOM     34  C   UNL A   1      33.270  18.384  23.777  1.00  0.00     0.002 A 
ENDBRANCH  26  28
ENDBRANCH  23  26
ENDBRANCH  18  21
ENDBRANCH  14  15
ENDBRANCH  13  14
ENDBRANCH  10  13
ENDBRANCH   4   9
ENDBRANCH   1   3
BRANCH   1  35
ATOM     35  O   UNL A   1      32.712  31.716  27.931  1.00  0.00    -0.458 OA
BRANCH  35  36
ATOM     36  C   UNL A   1      32.259  32.720  27.001  1.00  0.00     0.275 C 
BRANCH  36  37
ATOM     37  C   UNL A   1      32.652  34.114  27.491  1.00  0.00     0.275 C 
BRANCH  37  38
ATOM     38  O   UNL A   1      32.443  34.212  28.911  1.00  0.00    -0.458 OA
BRANCH  38  39
ATOM     39  C   UNL A   1      33.324  35.006  29.561  1.00  0.00     0.338 C 
ATOM     40  O   UNL A   1      33.147  36.140  29.973  1.00  0.00    -0.246 OA
BRANCH  39  41
ATOM     41  C   UNL A   1      34.544  34.246  29.860  1.00  0.00     0.060 A 
ATOM     42  C   UNL A   1      34.466  33.287  30.859  1.00  0.00     0.016 A 
ATOM     43  C   UNL A   1      35.774  34.585  29.314  1.00  0.00     0.016 A 
ATOM     44  C   UNL A   1      35.609  32.740  31.416  1.00  0.00     0.010 A 
ATOM     45  C   UNL A   1      36.924  33.943  29.791  1.00  0.00     0.010 A 
ATOM     46  C   UNL A   1      36.858  33.048  30.878  1.00  0.00    -0.014 A 
BRANCH  46  47
ATOM     47  C   UNL A   1      38.079  32.461  31.489  1.00  0.00     0.031 A 
ATOM     48  C   UNL A   1      38.798  31.337  30.798  1.00  0.00     0.074 A 
ATOM     49  C   UNL A   1      38.548  32.941  32.658  1.00  0.00     0.049 A 
ATOM     50  N   UNL A   1      39.773  30.586  31.237  1.00  0.00    -0.248 NA
ATOM     51  C   UNL A   1      38.347  31.002  29.437  1.00  0.00     0.031 C 
ATOM     52  C   UNL A   1      37.961  34.048  33.417  1.00  0.00     0.029 A 
ATOM     53  N   UNL A   1      39.616  32.544  33.424  1.00  0.00    -0.354 N 
ATOM     54  C   UNL A   1      39.994  29.635  30.248  1.00  0.00     0.074 A 
ATOM     55  C   UNL A   1      39.053  29.911  29.183  1.00  0.00     0.031 C 
ATOM     56  C   UNL A   1      38.674  34.245  34.534  1.00  0.00     0.029 A 
ATOM     57  C   UNL A   1      39.706  33.220  34.619  1.00  0.00     0.049 A 
ATOM     58  H   UNL A   1      40.253  31.848  33.147  1.00  0.00     0.167 HD
ATOM     59  C   UNL A   1      40.898  28.627  30.229  1.00  0.00     0.034 A 
ATOM     60  C   UNL A   1      40.485  33.003  35.696  1.00  0.00     0.034 A 
ATOM     61  C   UNL A   1      41.859  28.395  31.276  1.00  0.00     0.049 A 
ATOM     62  C   UNL A   1      41.471  31.874  35.662  1.00  0.00     0.074 A 
ATOM     63  C   UNL A   1      42.854  27.435  31.332  1.00  0.00     0.029 A 
ATOM     64  N   UNL A   1      41.940  29.123  32.455  1.00  0.00    -0.354 N 
ATOM     65  N   UNL A   1      41.708  31.016  34.699  1.00  0.00    -0.248 NA
ATOM     66  C   UNL A   1      42.310  31.693  36.853  1.00  0.00     0.031 C 
ATOM     67  C   UNL A   1      43.510  27.559  32.562  1.00  0.00     0.029 A 
ATOM     68  C   UNL A   1      42.955  28.624  33.254  1.00  0.00     0.049 A 
ATOM     69  H   UNL A   1      41.359  29.883  32.688  1.00  0.00     0.167 HD
ATOM     70  C   UNL A   1      42.735  30.202  35.158  1.00  0.00     0.074 A 
ATOM     71  C   UNL A   1      43.094  30.691  36.476  1.00  0.00     0.031 C 
ATOM     72  C   UNL A   1      43.319  29.139  34.551  1.00  0.00     0.034 A 
BRANCH  59  73
ATOM     73  C   UNL A   1      40.871  27.695  29.044  1.00  0.00     0.023 A 
ATOM     74  C   UNL A   1      39.949  26.628  28.996  1.00  0.00     0.012 A 
ATOM     75  C   UNL A   1      41.765  27.879  27.971  1.00  0.00     0.148 A 
ATOM     76  C   UNL A   1      39.959  25.727  27.931  1.00  0.00     0.002 A 
ATOM     77  C   UNL A   1      41.732  27.010  26.887  1.00  0.00     0.091 A 
ATOM     78  F   UNL A   1      42.649  28.884  28.039  1.00  0.00    -0.205 F 
ATOM     79  C   UNL A   1      40.844  25.922  26.874  1.00  0.00     0.022 A 
BRANCH  77  80
ATOM     80  S   UNL A   1      42.773  27.229  25.440  1.00  0.00     0.127 S 
ATOM     81  O   UNL A   1      44.094  27.390  26.047  1.00  0.00    -0.237 OA
ATOM     82  O   UNL A   1      42.580  25.967  24.727  1.00  0.00    -0.237 OA
ATOM     83  O   UNL A   1      42.253  28.401  24.748  1.00  0.00    -0.744 OA
ENDBRANCH  77  80
ENDBRANCH  59  73
BRANCH  60  84
ATOM     84  C   UNL A   1      40.330  33.873  36.895  1.00  0.00     0.023 A 
ATOM     85  C   UNL A   1      39.362  33.560  37.867  1.00  0.00     0.012 A 
ATOM     86  C   UNL A   1      41.196  34.964  37.112  1.00  0.00     0.148 A 
ATOM     87  C   UNL A   1      39.251  34.324  39.029  1.00  0.00     0.002 A 
ATOM     88  C   UNL A   1      41.123  35.682  38.299  1.00  0.00     0.091 A 
ATOM     89  F   UNL A   1      42.104  35.249  36.168  1.00  0.00    -0.205 F 
ATOM     90  C   UNL A   1      40.140  35.375  39.252  1.00  0.00     0.022 A 
BRANCH  88  91
ATOM     91  S   UNL A   1      42.317  36.951  38.737  1.00  0.00     0.127 S 
ATOM     92  O   UNL A   1      43.223  36.215  39.616  1.00  0.00    -0.237 OA
ATOM     93  O   UNL A   1      42.873  37.298  37.429  1.00  0.00    -0.237 OA
ATOM     94  O   UNL A   1      41.552  38.014  39.370  1.00  0.00    -0.744 OA
ENDBRANCH  88  91
ENDBRANCH  60  84
BRANCH  72  95
ATOM     95  C   UNL A   1      44.431  28.446  35.295  1.00  0.00     0.023 A 
ATOM     96  C   UNL A   1      45.774  28.776  35.025  1.00  0.00     0.012 A 
ATOM     97  C   UNL A   1      44.139  27.504  36.301  1.00  0.00     0.148 A 
ATOM     98  C   UNL A   1      46.811  28.150  35.716  1.00  0.00     0.002 A 
ATOM     99  C   UNL A   1      45.175  26.924  37.023  1.00  0.00     0.091 A 
ATOM    100  F   UNL A   1      42.857  27.189  36.529  1.00  0.00    -0.205 F 
ATOM    101  C   UNL A   1      46.511  27.234  36.723  1.00  0.00     0.022 A 
BRANCH  99 102
ATOM    102  S   UNL A   1      44.881  25.810  38.401  1.00  0.00     0.127 S 
ATOM    103  O   UNL A   1      46.209  25.732  39.009  1.00  0.00    -0.237 OA
ATOM    104  O   UNL A   1      43.891  26.544  39.188  1.00  0.00    -0.237 OA
ATOM    105  O   UNL A   1      44.389  24.569  37.817  1.00  0.00    -0.744 OA
ENDBRANCH  99 102
ENDBRANCH  72  95
ENDBRANCH  46  47
ENDBRANCH  39  41
ENDBRANCH  38  39
ENDBRANCH  37  38
ENDBRANCH  36  37
ENDBRANCH  35  36
ENDBRANCH   1  35
TORSDOF 21
ENDMDL
MODEL 3
REMARK VINA RESULT:     -10.8      3.907      9.173
REMARK SMILES Cn1c(SCC(=O)Nc2cccc(C(=O)OCCOC(=O)c3ccc(-c4c5nc(c(-c6cccc(S(=O)(=O)[O-])c6F)c6ccc([nH]6)c(-c6cccc(S(=O)(=O)[O-])c6F)c6nc(c(-c7cccc(S(=O)(=O)[O-])c7F)c7ccc4[nH]7)C=C6)C=C5)cc3)c2)nnc1[C@@H]1CCCN1C(=O)c1ccccc1Cl
REMARK SMILES IDX 14 1 15 2 13 3 9 4 10 5 85 6 11 7 12 8 8 9 6 10 7 11 5 13
REMARK SMILES IDX 4 14 3 15 1 16 2 17 88 18 86 19 87 20 89 21 90 22 93 23
REMARK SMILES IDX 91 24 92 25 94 26 95 27 96 28 97 29 101 30 98 31 100 32
REMARK SMILES IDX 102 33 99 34 16 35 17 36 18 37 19 38 20 39 21 40 22 41 23 42
REMARK SMILES IDX 84 43 24 44 83 45 25 46 26 47 27 48 77 49 28 50 82 51 76 52
REMARK SMILES IDX 78 53 29 54 81 55 75 56 74 57 30 59 62 60 42 61 61 62 43 63
REMARK SMILES IDX 46 64 60 65 79 66 44 67 45 68 59 70 80 71 47 72 31 73 32 74
REMARK SMILES IDX 40 75 33 76 35 77 41 78 34 79 36 80 37 81 38 82 39 83 63 84
REMARK SMILES IDX 64 85 72 86 65 87 67 88 73 89 66 90 68 91 69 92 70 93 71 94
REMARK SMILES IDX 48 95 49 96 57 97 50 98 52 99 58 100 51 101 53 102 54 103
REMARK SMILES IDX 55 104 56 105
REMARK H PARENT 8 12 78 58 46 69
REMARK Flexibility Score: inf
ROOT
ATOM      1  C   UNL A   1      35.388  30.610  28.038  1.00  0.00     0.338 C 
ATOM      2  O   UNL A   1      35.990  29.628  28.456  1.00  0.00    -0.246 OA
ENDROOT
BRANCH   1   3
ATOM      3  C   UNL A   1      34.052  30.503  27.396  1.00  0.00     0.062 A 
ATOM      4  C   UNL A   1      32.171  29.141  26.832  1.00  0.00     0.042 A 
ATOM      5  C   UNL A   1      31.405  30.262  26.523  1.00  0.00     0.026 A 
ATOM      6  C   UNL A   1      33.528  29.258  27.085  1.00  0.00     0.041 A 
ATOM      7  C   UNL A   1      31.960  31.524  26.702  1.00  0.00     0.003 A 
ATOM      8  C   UNL A   1      33.251  31.640  27.221  1.00  0.00     0.016 A 
BRANCH   4   9
ATOM      9  N   UNL A   1      31.513  27.936  27.075  1.00  0.00    -0.325 N 
ATOM     10  C   UNL A   1      31.248  26.979  26.129  1.00  0.00     0.234 C 
ATOM     11  O   UNL A   1      30.879  25.873  26.545  1.00  0.00    -0.274 OA
ATOM     12  H   UNL A   1      31.216  27.759  27.998  1.00  0.00     0.169 HD
BRANCH  10  13
ATOM     13  C   UNL A   1      31.582  27.153  24.656  1.00  0.00     0.178 C 
BRANCH  13  14
ATOM     14  S   UNL A   1      33.250  26.958  24.058  1.00  0.00    -0.076 SA
BRANCH  14  15
ATOM     15  C   UNL A   1      33.735  25.309  23.946  1.00  0.00     0.191 A 
ATOM     16  C   UNL A   1      33.603  24.481  26.324  1.00  0.00     0.154 C 
ATOM     17  N   UNL A   1      34.070  24.465  24.969  1.00  0.00    -0.307 N 
ATOM     18  C   UNL A   1      34.940  23.550  24.419  1.00  0.00     0.156 A 
ATOM     19  N   UNL A   1      34.170  24.797  22.815  1.00  0.00    -0.123 NA
ATOM     20  N   UNL A   1      34.914  23.685  23.107  1.00  0.00    -0.132 NA
BRANCH  18  21
ATOM     21  C   UNL A   1      35.821  22.600  25.145  1.00  0.00     0.154 C 
ATOM     22  C   UNL A   1      37.275  22.631  24.654  1.00  0.00     0.035 C 
ATOM     23  N   UNL A   1      35.432  21.185  25.065  1.00  0.00    -0.328 N 
ATOM     24  C   UNL A   1      37.816  21.262  25.037  1.00  0.00     0.024 C 
ATOM     25  C   UNL A   1      36.610  20.337  24.970  1.00  0.00     0.120 C 
BRANCH  23  26
ATOM     26  C   UNL A   1      34.219  20.573  25.367  1.00  0.00     0.255 C 
ATOM     27  O   UNL A   1      33.630  20.754  26.433  1.00  0.00    -0.269 OA
BRANCH  26  28
ATOM     28  C   UNL A   1      33.637  19.567  24.463  1.00  0.00     0.058 A 
ATOM     29  C   UNL A   1      34.126  18.257  24.463  1.00  0.00     0.015 A 
ATOM     30  C   UNL A   1      32.695  19.961  23.502  1.00  0.00     0.053 A 
ATOM     31  C   UNL A   1      33.604  17.324  23.562  1.00  0.00     0.001 A 
ATOM     32  C   UNL A   1      32.173  19.020  22.611  1.00  0.00     0.021 A 
ATOM     33  Cl  UNL A   1      32.134  21.591  23.361  1.00  0.00    -0.083 Cl
ATOM     34  C   UNL A   1      32.611  17.698  22.655  1.00  0.00     0.002 A 
ENDBRANCH  26  28
ENDBRANCH  23  26
ENDBRANCH  18  21
ENDBRANCH  14  15
ENDBRANCH  13  14
ENDBRANCH  10  13
ENDBRANCH   4   9
ENDBRANCH   1   3
BRANCH   1  35
ATOM     35  O   UNL A   1      35.790  31.898  28.119  1.00  0.00    -0.458 OA
BRANCH  35  36
ATOM     36  C   UNL A   1      36.036  32.424  29.439  1.00  0.00     0.275 C 
BRANCH  36  37
ATOM     37  C   UNL A   1      37.459  32.093  29.886  1.00  0.00     0.275 C 
BRANCH  37  38
ATOM     38  O   UNL A   1      37.507  31.971  31.319  1.00  0.00    -0.458 OA
BRANCH  38  39
ATOM     39  C   UNL A   1      37.255  30.729  31.791  1.00  0.00     0.338 C 
ATOM     40  O   UNL A   1      36.187  30.143  31.824  1.00  0.00    -0.246 OA
BRANCH  39  41
ATOM     41  C   UNL A   1      38.519  30.072  32.147  1.00  0.00     0.060 A 
ATOM     42  C   UNL A   1      39.666  30.854  32.139  1.00  0.00     0.016 A 
ATOM     43  C   UNL A   1      38.616  28.696  32.303  1.00  0.00     0.016 A 
ATOM     44  C   UNL A   1      40.924  30.278  32.160  1.00  0.00     0.010 A 
ATOM     45  C   UNL A   1      39.884  28.121  32.448  1.00  0.00     0.010 A 
ATOM     46  C   UNL A   1      41.053  28.901  32.333  1.00  0.00    -0.014 A 
BRANCH  46  47
ATOM     47  C   UNL A   1      42.409  28.293  32.346  1.00  0.00     0.031 A 
ATOM     48  C   UNL A   1      43.261  28.386  33.580  1.00  0.00     0.074 A 
ATOM     49  C   UNL A   1      42.873  27.650  31.257  1.00  0.00     0.049 A 
ATOM     50  N   UNL A   1      44.519  28.070  33.742  1.00  0.00    -0.248 NA
ATOM     51  C   UNL A   1      42.616  28.924  34.789  1.00  0.00     0.031 C 
ATOM     52  C   UNL A   1      42.135  27.461  30.004  1.00  0.00     0.029 A 
ATOM     53  N   UNL A   1      44.085  27.051  31.019  1.00  0.00    -0.354 N 
ATOM     54  C   UNL A   1      44.841  28.451  35.039  1.00  0.00     0.074 A 
ATOM     55  C   UNL A   1      43.643  29.016  35.621  1.00  0.00     0.031 C 
ATOM     56  C   UNL A   1      42.905  26.794  29.134  1.00  0.00     0.029 A 
ATOM     57  C   UNL A   1      44.219  26.591  29.729  1.00  0.00     0.049 A 
ATOM     58  H   UNL A   1      44.788  26.959  31.702  1.00  0.00     0.167 HD
ATOM     59  C   UNL A   1      46.027  28.339  35.685  1.00  0.00     0.034 A 
ATOM     60  C   UNL A   1      45.296  26.121  29.071  1.00  0.00     0.034 A 
ATOM     61  C   UNL A   1      47.197  27.731  35.108  1.00  0.00     0.049 A 
ATOM     62  C   UNL A   1      46.603  26.016  29.798  1.00  0.00     0.074 A 
ATOM     63  C   UNL A   1      48.432  27.519  35.693  1.00  0.00     0.029 A 
ATOM     64  N   UNL A   1      47.282  27.248  33.810  1.00  0.00    -0.354 N 
ATOM     65  N   UNL A   1      46.881  26.328  31.040  1.00  0.00    -0.248 NA
ATOM     66  C   UNL A   1      47.739  25.477  29.041  1.00  0.00     0.031 C 
ATOM     67  C   UNL A   1      49.276  26.942  34.736  1.00  0.00     0.029 A 
ATOM     68  C   UNL A   1      48.554  26.754  33.568  1.00  0.00     0.049 A 
ATOM     69  H   UNL A   1      46.546  27.255  33.157  1.00  0.00     0.167 HD
ATOM     70  C   UNL A   1      48.220  26.009  31.223  1.00  0.00     0.074 A 
ATOM     71  C   UNL A   1      48.687  25.450  29.968  1.00  0.00     0.031 C 
ATOM     72  C   UNL A   1      48.996  26.175  32.322  1.00  0.00     0.034 A 
BRANCH  59  73
ATOM     73  C   UNL A   1      46.110  28.903  37.081  1.00  0.00     0.023 A 
ATOM     74  C   UNL A   1      46.459  30.254  37.285  1.00  0.00     0.012 A 
ATOM     75  C   UNL A   1      45.841  28.087  38.198  1.00  0.00     0.148 A 
ATOM     76  C   UNL A   1      46.596  30.766  38.576  1.00  0.00     0.002 A 
ATOM     77  C   UNL A   1      45.927  28.618  39.479  1.00  0.00     0.091 A 
ATOM     78  F   UNL A   1      45.532  26.799  37.990  1.00  0.00    -0.205 F 
ATOM     79  C   UNL A   1      46.324  29.952  39.671  1.00  0.00     0.022 A 
BRANCH  77  80
ATOM     80  S   UNL A   1      45.511  27.672  40.947  1.00  0.00     0.127 S 
ATOM     81  O   UNL A   1      46.643  26.750  41.036  1.00  0.00    -0.237 OA
ATOM     82  O   UNL A   1      45.484  28.705  41.982  1.00  0.00    -0.237 OA
ATOM     83  O   UNL A   1      44.220  27.056  40.674  1.00  0.00    -0.744 OA
ENDBRANCH  77  80
ENDBRANCH  59  73
BRANCH  60  84
ATOM     84  C   UNL A   1      45.163  25.739  27.636  1.00  0.00     0.023 A 
ATOM     85  C   UNL A   1      45.365  26.706  26.634  1.00  0.00     0.012 A 
ATOM     86  C   UNL A   1      44.917  24.402  27.265  1.00  0.00     0.148 A 
ATOM     87  C   UNL A   1      45.313  26.349  25.285  1.00  0.00     0.002 A 
ATOM     88  C   UNL A   1      44.930  24.041  25.924  1.00  0.00     0.091 A 
ATOM     89  F   UNL A   1      44.719  23.501  28.237  1.00  0.00    -0.205 F 
ATOM     90  C   UNL A   1      45.111  25.017  24.931  1.00  0.00     0.022 A 
BRANCH  88  91
ATOM     91  S   UNL A   1      44.827  22.333  25.380  1.00  0.00     0.127 S 
ATOM     92  O   UNL A   1      44.669  22.488  23.937  1.00  0.00    -0.237 OA
ATOM     93  O   UNL A   1      46.125  21.808  25.806  1.00  0.00    -0.237 OA
ATOM     94  O   UNL A   1      43.685  21.762  26.079  1.00  0.00    -0.744 OA
ENDBRANCH  88  91
ENDBRANCH  60  84
BRANCH  72  95
ATOM     95  C   UNL A   1      50.429  25.720  32.230  1.00  0.00     0.023 A 
ATOM     96  C   UNL A   1      51.437  26.631  31.856  1.00  0.00     0.012 A 
ATOM     97  C   UNL A   1      50.782  24.398  32.566  1.00  0.00     0.148 A 
ATOM     98  C   UNL A   1      52.768  26.223  31.779  1.00  0.00     0.002 A 
ATOM     99  C   UNL A   1      52.117  24.013  32.541  1.00  0.00     0.091 A 
ATOM    100  F   UNL A   1      49.807  23.541  32.900  1.00  0.00    -0.205 F 
ATOM    101  C   UNL A   1      53.109  24.919  32.133  1.00  0.00     0.022 A 
BRANCH  99 102
ATOM    102  S   UNL A   1      52.660  22.387  33.072  1.00  0.00     0.127 S 
ATOM    103  O   UNL A   1      52.055  21.524  32.058  1.00  0.00    -0.237 OA
ATOM    104  O   UNL A   1      54.116  22.503  32.985  1.00  0.00    -0.237 OA
ATOM    105  O   UNL A   1      52.149  22.213  34.425  1.00  0.00    -0.744 OA
ENDBRANCH  99 102
ENDBRANCH  72  95
ENDBRANCH  46  47
ENDBRANCH  39  41
ENDBRANCH  38  39
ENDBRANCH  37  38
ENDBRANCH  36  37
ENDBRANCH  35  36
ENDBRANCH   1  35
TORSDOF 21
ENDMDL
