MODEL 1
REMARK VINA RESULT:     -12.7      0.000      0.000
REMARK SMILES Cc1cc(Cl)cc2c1O[C@H](C(F)(F)F)C(C(=O)OCCOC(=O)c1ccc(-c3c4nc(c(-c5cccc(S(=O)(=O)[O-])c5F)c5ccc([nH]5)c(-c5cccc(S(=O)(=O)[O-])c5F)c5nc(c(-c6cccc(S(=O)(=O)[O-])c6F)c6ccc3[nH]6)C=C5)C=C4)cc1)=C2
REMARK SMILES IDX 20 1 19 2 18 3 16 4 17 5 15 6 1 7 2 8 3 9 8 10 4 11 7 12
REMARK SMILES IDX 9 13 5 14 6 15 87 16 10 17 11 18 12 19 13 20 14 21 21 22
REMARK SMILES IDX 22 23 23 24 24 25 25 26 86 27 26 28 85 29 27 30 28 31 29 32
REMARK SMILES IDX 79 33 30 34 84 35 78 36 80 37 31 38 83 39 77 40 76 41 32 43
REMARK SMILES IDX 64 44 44 45 63 46 45 47 48 48 62 49 81 50 46 51 47 52 61 54
REMARK SMILES IDX 82 55 49 56 33 57 34 58 42 59 35 60 37 61 43 62 36 63 38 64
REMARK SMILES IDX 39 65 40 66 41 67 65 68 66 69 74 70 67 71 69 72 75 73 68 74
REMARK SMILES IDX 70 75 71 76 72 77 73 78 50 79 51 80 59 81 52 82 54 83 60 84
REMARK SMILES IDX 53 85 55 86 56 87 57 88 58 89
REMARK H PARENT 80 42 48 53
REMARK Flexibility Score: inf
ROOT
ATOM      1  C   UNL A   1      36.603  20.579  25.063  1.00  0.00     0.275 C 
ENDROOT
BRANCH   1   2
ATOM      2  C   UNL A   1      35.259  21.310  25.049  1.00  0.00     0.275 C 
BRANCH   2   3
ATOM      3  O   UNL A   1      35.434  22.740  24.936  1.00  0.00    -0.459 OA
BRANCH   3   4
ATOM      4  C   UNL A   1      35.154  23.263  23.720  1.00  0.00     0.338 C 
ATOM      5  O   UNL A   1      35.612  22.896  22.647  1.00  0.00    -0.246 OA
BRANCH   4   6
ATOM      6  C   UNL A   1      34.192  24.375  23.835  1.00  0.00     0.087 C 
ATOM      7  C   UNL A   1      29.943  27.249  23.773  1.00  0.00     0.048 C 
ATOM      8  C   UNL A   1      31.226  27.241  24.551  1.00  0.00    -0.007 A 
ATOM      9  C   UNL A   1      31.421  28.169  25.588  1.00  0.00     0.027 A 
ATOM     10  C   UNL A   1      32.239  26.314  24.260  1.00  0.00     0.131 A 
ATOM     11  C   UNL A   1      32.608  28.175  26.317  1.00  0.00     0.042 A 
ATOM     12  C   UNL A   1      33.418  26.318  25.009  1.00  0.00     0.019 A 
ATOM     13  O   UNL A   1      32.021  25.444  23.224  1.00  0.00    -0.475 OA
ATOM     14  Cl  UNL A   1      32.826  29.311  27.589  1.00  0.00    -0.084 Cl
ATOM     15  C   UNL A   1      33.610  27.255  26.031  1.00  0.00     0.032 A 
ATOM     16  C   UNL A   1      34.429  25.314  24.756  1.00  0.00     0.027 C 
ATOM     17  C   UNL A   1      32.923  24.315  23.041  1.00  0.00     0.316 C 
BRANCH  17  18
ATOM     18  C   UNL A   1      32.153  23.015  23.317  1.00  0.00     0.430 C 
ATOM     19  F   UNL A   1      32.310  22.616  24.603  1.00  0.00    -0.167 F 
ATOM     20  F   UNL A   1      30.820  23.172  23.127  1.00  0.00    -0.167 F 
ATOM     21  F   UNL A   1      32.559  21.997  22.526  1.00  0.00    -0.167 F 
ENDBRANCH  17  18
ENDBRANCH   4   6
ENDBRANCH   3   4
ENDBRANCH   2   3
ENDBRANCH   1   2
BRANCH   1  22
ATOM     22  O   UNL A   1      37.691  21.517  25.015  1.00  0.00    -0.458 OA
BRANCH  22  23
ATOM     23  C   UNL A   1      38.764  21.180  25.767  1.00  0.00     0.338 C 
ATOM     24  O   UNL A   1      39.336  20.104  25.794  1.00  0.00    -0.246 OA
BRANCH  23  25
ATOM     25  C   UNL A   1      39.258  22.348  26.510  1.00  0.00     0.060 A 
ATOM     26  C   UNL A   1      38.734  23.591  26.188  1.00  0.00     0.016 A 
ATOM     27  C   UNL A   1      40.379  22.253  27.329  1.00  0.00     0.016 A 
ATOM     28  C   UNL A   1      39.440  24.745  26.506  1.00  0.00     0.010 A 
ATOM     29  C   UNL A   1      40.982  23.427  27.800  1.00  0.00     0.010 A 
ATOM     30  C   UNL A   1      40.562  24.690  27.343  1.00  0.00    -0.014 A 
BRANCH  30  31
ATOM     31  C   UNL A   1      41.285  25.942  27.720  1.00  0.00     0.031 A 
ATOM     32  C   UNL A   1      40.605  27.001  28.555  1.00  0.00     0.074 A 
ATOM     33  C   UNL A   1      42.560  26.134  27.319  1.00  0.00     0.049 A 
ATOM     34  N   UNL A   1      41.000  28.219  28.825  1.00  0.00    -0.248 NA
ATOM     35  C   UNL A   1      39.302  26.657  29.153  1.00  0.00     0.031 C 
ATOM     36  C   UNL A   1      43.355  25.185  26.532  1.00  0.00     0.029 A 
ATOM     37  N   UNL A   1      43.418  27.190  27.512  1.00  0.00    -0.354 N 
ATOM     38  C   UNL A   1      39.970  28.808  29.552  1.00  0.00     0.074 A 
ATOM     39  C   UNL A   1      38.928  27.813  29.684  1.00  0.00     0.031 C 
ATOM     40  C   UNL A   1      44.589  25.675  26.354  1.00  0.00     0.029 A 
ATOM     41  C   UNL A   1      44.643  27.021  26.903  1.00  0.00     0.049 A 
ATOM     42  H   UNL A   1      43.182  27.989  28.034  1.00  0.00     0.167 HD
ATOM     43  C   UNL A   1      39.905  30.056  30.073  1.00  0.00     0.034 A 
ATOM     44  C   UNL A   1      45.680  27.867  26.748  1.00  0.00     0.034 A 
ATOM     45  C   UNL A   1      40.978  31.013  30.003  1.00  0.00     0.049 A 
ATOM     46  C   UNL A   1      45.572  29.255  27.312  1.00  0.00     0.074 A 
ATOM     47  C   UNL A   1      41.023  32.293  30.527  1.00  0.00     0.029 A 
ATOM     48  N   UNL A   1      42.201  30.792  29.387  1.00  0.00    -0.354 N 
ATOM     49  N   UNL A   1      44.598  29.784  28.012  1.00  0.00    -0.248 NA
ATOM     50  C   UNL A   1      46.704  30.160  27.073  1.00  0.00     0.031 C 
ATOM     51  C   UNL A   1      42.259  32.857  30.202  1.00  0.00     0.029 A 
ATOM     52  C   UNL A   1      43.001  31.915  29.508  1.00  0.00     0.049 A 
ATOM     53  H   UNL A   1      42.461  29.959  28.930  1.00  0.00     0.167 HD
ATOM     54  C   UNL A   1      45.007  31.076  28.315  1.00  0.00     0.074 A 
ATOM     55  C   UNL A   1      46.331  31.239  27.749  1.00  0.00     0.031 C 
ATOM     56  C   UNL A   1      44.337  32.047  28.983  1.00  0.00     0.034 A 
BRANCH  43  57
ATOM     57  C   UNL A   1      38.645  30.470  30.795  1.00  0.00     0.023 A 
ATOM     58  C   UNL A   1      38.529  30.260  32.183  1.00  0.00     0.012 A 
ATOM     59  C   UNL A   1      37.621  31.164  30.115  1.00  0.00     0.148 A 
ATOM     60  C   UNL A   1      37.406  30.710  32.880  1.00  0.00     0.002 A 
ATOM     61  C   UNL A   1      36.529  31.653  30.824  1.00  0.00     0.091 A 
ATOM     62  F   UNL A   1      37.741  31.343  28.793  1.00  0.00    -0.205 F 
ATOM     63  C   UNL A   1      36.415  31.416  32.204  1.00  0.00     0.022 A 
BRANCH  61  64
ATOM     64  S   UNL A   1      35.244  32.654  30.067  1.00  0.00     0.127 S 
ATOM     65  O   UNL A   1      34.319  32.842  31.184  1.00  0.00    -0.237 OA
ATOM     66  O   UNL A   1      35.981  33.856  29.679  1.00  0.00    -0.237 OA
ATOM     67  O   UNL A   1      34.722  31.871  28.955  1.00  0.00    -0.744 OA
ENDBRANCH  61  64
ENDBRANCH  43  57
BRANCH  44  68
ATOM     68  C   UNL A   1      46.909  27.413  26.031  1.00  0.00     0.023 A 
ATOM     69  C   UNL A   1      47.805  26.543  26.680  1.00  0.00     0.012 A 
ATOM     70  C   UNL A   1      47.162  27.783  24.693  1.00  0.00     0.148 A 
ATOM     71  C   UNL A   1      48.936  26.062  26.020  1.00  0.00     0.002 A 
ATOM     72  C   UNL A   1      48.253  27.246  24.019  1.00  0.00     0.091 A 
ATOM     73  F   UNL A   1      46.310  28.628  24.096  1.00  0.00    -0.205 F 
ATOM     74  C   UNL A   1      49.151  26.400  24.685  1.00  0.00     0.022 A 
BRANCH  72  75
ATOM     75  S   UNL A   1      48.519  27.499  22.260  1.00  0.00     0.127 S 
ATOM     76  O   UNL A   1      49.751  28.283  22.253  1.00  0.00    -0.237 OA
ATOM     77  O   UNL A   1      48.660  26.125  21.777  1.00  0.00    -0.237 OA
ATOM     78  O   UNL A   1      47.330  28.186  21.775  1.00  0.00    -0.744 OA
ENDBRANCH  72  75
ENDBRANCH  44  68
BRANCH  56  79
ATOM     79  C   UNL A   1      45.024  33.374  29.166  1.00  0.00     0.023 A 
ATOM     80  C   UNL A   1      45.817  33.596  30.308  1.00  0.00     0.012 A 
ATOM     81  C   UNL A   1      44.970  34.356  28.157  1.00  0.00     0.148 A 
ATOM     82  C   UNL A   1      46.528  34.786  30.456  1.00  0.00     0.002 A 
ATOM     83  C   UNL A   1      45.725  35.515  28.285  1.00  0.00     0.091 A 
ATOM     84  F   UNL A   1      44.196  34.131  27.087  1.00  0.00    -0.205 F 
ATOM     85  C   UNL A   1      46.495  35.737  29.439  1.00  0.00     0.022 A 
BRANCH  83  86
ATOM     86  S   UNL A   1      45.834  36.747  26.982  1.00  0.00     0.127 S 
ATOM     87  O   UNL A   1      44.447  37.200  26.885  1.00  0.00    -0.237 OA
ATOM     88  O   UNL A   1      46.756  37.725  27.559  1.00  0.00    -0.237 OA
ATOM     89  O   UNL A   1      46.343  36.051  25.809  1.00  0.00    -0.744 OA
ENDBRANCH  83  86
ENDBRANCH  56  79
ENDBRANCH  30  31
ENDBRANCH  23  25
ENDBRANCH  22  23
ENDBRANCH   1  22
TORSDOF 15
ENDMDL
MODEL 2
REMARK VINA RESULT:     -12.7      1.323      1.567
REMARK SMILES Cc1cc(Cl)cc2c1O[C@H](C(F)(F)F)C(C(=O)OCCOC(=O)c1ccc(-c3c4nc(c(-c5cccc(S(=O)(=O)[O-])c5F)c5ccc([nH]5)c(-c5cccc(S(=O)(=O)[O-])c5F)c5nc(c(-c6cccc(S(=O)(=O)[O-])c6F)c6ccc3[nH]6)C=C5)C=C4)cc1)=C2
REMARK SMILES IDX 20 1 19 2 18 3 16 4 17 5 15 6 1 7 2 8 3 9 8 10 4 11 7 12
REMARK SMILES IDX 9 13 5 14 6 15 87 16 10 17 11 18 12 19 13 20 14 21 21 22
REMARK SMILES IDX 22 23 23 24 24 25 25 26 86 27 26 28 85 29 27 30 28 31 29 32
REMARK SMILES IDX 79 33 30 34 84 35 78 36 80 37 31 38 83 39 77 40 76 41 32 43
REMARK SMILES IDX 64 44 44 45 63 46 45 47 48 48 62 49 81 50 46 51 47 52 61 54
REMARK SMILES IDX 82 55 49 56 33 57 34 58 42 59 35 60 37 61 43 62 36 63 38 64
REMARK SMILES IDX 39 65 40 66 41 67 65 68 66 69 74 70 67 71 69 72 75 73 68 74
REMARK SMILES IDX 70 75 71 76 72 77 73 78 50 79 51 80 59 81 52 82 54 83 60 84
REMARK SMILES IDX 53 85 55 86 56 87 57 88 58 89
REMARK H PARENT 80 42 48 53
REMARK Flexibility Score: inf
ROOT
ATOM      1  C   UNL A   1      36.502  20.510  24.990  1.00  0.00     0.275 C 
ENDROOT
BRANCH   1   2
ATOM      2  C   UNL A   1      35.159  21.237  24.901  1.00  0.00     0.275 C 
BRANCH   2   3
ATOM      3  O   UNL A   1      35.330  22.671  24.913  1.00  0.00    -0.459 OA
BRANCH   3   4
ATOM      4  C   UNL A   1      35.171  23.284  23.717  1.00  0.00     0.338 C 
ATOM      5  O   UNL A   1      35.749  23.007  22.676  1.00  0.00    -0.246 OA
BRANCH   4   6
ATOM      6  C   UNL A   1      34.180  24.371  23.811  1.00  0.00     0.087 C 
ATOM      7  C   UNL A   1      29.853  27.126  23.701  1.00  0.00     0.048 C 
ATOM      8  C   UNL A   1      31.138  27.171  24.474  1.00  0.00    -0.007 A 
ATOM      9  C   UNL A   1      31.311  28.126  25.490  1.00  0.00     0.027 A 
ATOM     10  C   UNL A   1      32.176  26.265  24.201  1.00  0.00     0.131 A 
ATOM     11  C   UNL A   1      32.499  28.180  26.215  1.00  0.00     0.042 A 
ATOM     12  C   UNL A   1      33.356  26.318  24.945  1.00  0.00     0.019 A 
ATOM     13  O   UNL A   1      31.978  25.367  23.185  1.00  0.00    -0.475 OA
ATOM     14  Cl  UNL A   1      32.690  29.349  27.461  1.00  0.00    -0.084 Cl
ATOM     15  C   UNL A   1      33.525  27.283  25.945  1.00  0.00     0.032 A 
ATOM     16  C   UNL A   1      34.393  25.337  24.710  1.00  0.00     0.027 C 
ATOM     17  C   UNL A   1      32.910  24.260  23.023  1.00  0.00     0.316 C 
BRANCH  17  18
ATOM     18  C   UNL A   1      32.177  22.946  23.330  1.00  0.00     0.430 C 
ATOM     19  F   UNL A   1      30.868  23.021  22.980  1.00  0.00    -0.167 F 
ATOM     20  F   UNL A   1      32.697  21.906  22.634  1.00  0.00    -0.167 F 
ATOM     21  F   UNL A   1      32.225  22.622  24.641  1.00  0.00    -0.167 F 
ENDBRANCH  17  18
ENDBRANCH   4   6
ENDBRANCH   3   4
ENDBRANCH   2   3
ENDBRANCH   1   2
BRANCH   1  22
ATOM     22  O   UNL A   1      37.590  21.451  24.983  1.00  0.00    -0.458 OA
BRANCH  22  23
ATOM     23  C   UNL A   1      38.658  21.090  25.730  1.00  0.00     0.338 C 
ATOM     24  O   UNL A   1      39.214  20.006  25.744  1.00  0.00    -0.246 OA
BRANCH  23  25
ATOM     25  C   UNL A   1      39.169  22.242  26.485  1.00  0.00     0.060 A 
ATOM     26  C   UNL A   1      38.645  23.493  26.195  1.00  0.00     0.016 A 
ATOM     27  C   UNL A   1      40.304  22.128  27.283  1.00  0.00     0.016 A 
ATOM     28  C   UNL A   1      39.361  24.638  26.523  1.00  0.00     0.010 A 
ATOM     29  C   UNL A   1      40.920  23.291  27.765  1.00  0.00     0.010 A 
ATOM     30  C   UNL A   1      40.497  24.564  27.338  1.00  0.00    -0.014 A 
BRANCH  30  31
ATOM     31  C   UNL A   1      41.231  25.806  27.725  1.00  0.00     0.031 A 
ATOM     32  C   UNL A   1      40.559  26.868  28.563  1.00  0.00     0.074 A 
ATOM     33  C   UNL A   1      42.511  25.986  27.332  1.00  0.00     0.049 A 
ATOM     34  N   UNL A   1      40.966  28.080  28.842  1.00  0.00    -0.248 NA
ATOM     35  C   UNL A   1      39.250  26.535  29.153  1.00  0.00     0.031 C 
ATOM     36  C   UNL A   1      43.300  25.033  26.544  1.00  0.00     0.029 A 
ATOM     37  N   UNL A   1      43.379  27.032  27.535  1.00  0.00    -0.354 N 
ATOM     38  C   UNL A   1      39.938  28.676  29.566  1.00  0.00     0.074 A 
ATOM     39  C   UNL A   1      38.885  27.692  29.688  1.00  0.00     0.031 C 
ATOM     40  C   UNL A   1      44.539  25.510  26.375  1.00  0.00     0.029 A 
ATOM     41  C   UNL A   1      44.605  26.853  26.931  1.00  0.00     0.049 A 
ATOM     42  H   UNL A   1      43.149  27.831  28.060  1.00  0.00     0.167 HD
ATOM     43  C   UNL A   1      39.884  29.922  30.093  1.00  0.00     0.034 A 
ATOM     44  C   UNL A   1      45.652  27.689  26.786  1.00  0.00     0.034 A 
ATOM     45  C   UNL A   1      40.968  30.867  30.034  1.00  0.00     0.049 A 
ATOM     46  C   UNL A   1      45.556  29.074  27.356  1.00  0.00     0.074 A 
ATOM     47  C   UNL A   1      41.024  32.144  30.565  1.00  0.00     0.029 A 
ATOM     48  N   UNL A   1      42.191  30.637  29.423  1.00  0.00    -0.354 N 
ATOM     49  N   UNL A   1      44.585  29.610  28.054  1.00  0.00    -0.248 NA
ATOM     50  C   UNL A   1      46.699  29.969  27.128  1.00  0.00     0.031 C 
ATOM     51  C   UNL A   1      42.267  32.697  30.249  1.00  0.00     0.029 A 
ATOM     52  C   UNL A   1      43.003  31.751  29.554  1.00  0.00     0.049 A 
ATOM     53  H   UNL A   1      42.445  29.804  28.963  1.00  0.00     0.167 HD
ATOM     54  C   UNL A   1      45.005  30.896  28.367  1.00  0.00     0.074 A 
ATOM     55  C   UNL A   1      46.334  31.048  27.808  1.00  0.00     0.031 C 
ATOM     56  C   UNL A   1      44.342  31.871  29.036  1.00  0.00     0.034 A 
BRANCH  43  57
ATOM     57  C   UNL A   1      38.625  30.346  30.812  1.00  0.00     0.023 A 
ATOM     58  C   UNL A   1      38.504  30.138  32.200  1.00  0.00     0.012 A 
ATOM     59  C   UNL A   1      37.608  31.046  30.128  1.00  0.00     0.148 A 
ATOM     60  C   UNL A   1      37.382  30.597  32.893  1.00  0.00     0.002 A 
ATOM     61  C   UNL A   1      36.518  31.544  30.833  1.00  0.00     0.091 A 
ATOM     62  F   UNL A   1      37.733  31.222  28.806  1.00  0.00    -0.205 F 
ATOM     63  C   UNL A   1      36.398  31.310  32.213  1.00  0.00     0.022 A 
BRANCH  61  64
ATOM     64  S   UNL A   1      35.242  32.553  30.072  1.00  0.00     0.127 S 
ATOM     65  O   UNL A   1      34.324  32.764  31.190  1.00  0.00    -0.237 OA
ATOM     66  O   UNL A   1      35.992  33.742  29.667  1.00  0.00    -0.237 OA
ATOM     67  O   UNL A   1      34.705  31.765  28.971  1.00  0.00    -0.744 OA
ENDBRANCH  61  64
ENDBRANCH  43  57
BRANCH  44  68
ATOM     68  C   UNL A   1      46.879  27.224  26.072  1.00  0.00     0.023 A 
ATOM     69  C   UNL A   1      47.026  27.500  24.700  1.00  0.00     0.012 A 
ATOM     70  C   UNL A   1      47.926  26.570  26.755  1.00  0.00     0.148 A 
ATOM     71  C   UNL A   1      48.183  27.122  24.017  1.00  0.00     0.002 A 
ATOM     72  C   UNL A   1      49.104  26.259  26.086  1.00  0.00     0.091 A 
ATOM     73  F   UNL A   1      47.762  26.297  28.057  1.00  0.00    -0.205 F 
ATOM     74  C   UNL A   1      49.227  26.518  24.712  1.00  0.00     0.022 A 
BRANCH  72  75
ATOM     75  S   UNL A   1      50.556  25.624  26.932  1.00  0.00     0.127 S 
ATOM     76  O   UNL A   1      50.039  24.401  27.539  1.00  0.00    -0.237 OA
ATOM     77  O   UNL A   1      51.485  25.415  25.820  1.00  0.00    -0.237 OA
ATOM     78  O   UNL A   1      50.960  26.670  27.862  1.00  0.00    -0.744 OA
ENDBRANCH  72  75
ENDBRANCH  44  68
BRANCH  56  79
ATOM     79  C   UNL A   1      45.043  33.189  29.230  1.00  0.00     0.023 A 
ATOM     80  C   UNL A   1      45.876  33.378  30.349  1.00  0.00     0.012 A 
ATOM     81  C   UNL A   1      44.960  34.197  28.249  1.00  0.00     0.148 A 
ATOM     82  C   UNL A   1      46.598  34.560  30.504  1.00  0.00     0.002 A 
ATOM     83  C   UNL A   1      45.727  35.349  28.381  1.00  0.00     0.091 A 
ATOM     84  F   UNL A   1      44.150  34.003  27.200  1.00  0.00    -0.205 F 
ATOM     85  C   UNL A   1      46.535  35.537  29.513  1.00  0.00     0.022 A 
BRANCH  83  86
ATOM     86  S   UNL A   1      45.798  36.613  27.107  1.00  0.00     0.127 S 
ATOM     87  O   UNL A   1      44.401  37.037  27.029  1.00  0.00    -0.237 OA
ATOM     88  O   UNL A   1      46.702  37.599  27.701  1.00  0.00    -0.237 OA
ATOM     89  O   UNL A   1      46.315  35.957  25.914  1.00  0.00    -0.744 OA
ENDBRANCH  83  86
ENDBRANCH  56  79
ENDBRANCH  30  31
ENDBRANCH  23  25
ENDBRANCH  22  23
ENDBRANCH   1  22
TORSDOF 15
ENDMDL
MODEL 3
REMARK VINA RESULT:     -12.6      5.254     10.124
REMARK SMILES Cc1cc(Cl)cc2c1O[C@H](C(F)(F)F)C(C(=O)OCCOC(=O)c1ccc(-c3c4nc(c(-c5cccc(S(=O)(=O)[O-])c5F)c5ccc([nH]5)c(-c5cccc(S(=O)(=O)[O-])c5F)c5nc(c(-c6cccc(S(=O)(=O)[O-])c6F)c6ccc3[nH]6)C=C5)C=C4)cc1)=C2
REMARK SMILES IDX 20 1 19 2 18 3 16 4 17 5 15 6 1 7 2 8 3 9 8 10 4 11 7 12
REMARK SMILES IDX 9 13 5 14 6 15 87 16 10 17 11 18 12 19 13 20 14 21 21 22
REMARK SMILES IDX 22 23 23 24 24 25 25 26 86 27 26 28 85 29 27 30 28 31 29 32
REMARK SMILES IDX 79 33 30 34 84 35 78 36 80 37 31 38 83 39 77 40 76 41 32 43
REMARK SMILES IDX 64 44 44 45 63 46 45 47 48 48 62 49 81 50 46 51 47 52 61 54
REMARK SMILES IDX 82 55 49 56 33 57 34 58 42 59 35 60 37 61 43 62 36 63 38 64
REMARK SMILES IDX 39 65 40 66 41 67 65 68 66 69 74 70 67 71 69 72 75 73 68 74
REMARK SMILES IDX 70 75 71 76 72 77 73 78 50 79 51 80 59 81 52 82 54 83 60 84
REMARK SMILES IDX 53 85 55 86 56 87 57 88 58 89
REMARK H PARENT 80 42 48 53
REMARK Flexibility Score: inf
ROOT
ATOM      1  C   UNL A   1      31.529  30.452  25.700  1.00  0.00     0.275 C 
ENDROOT
BRANCH   1   2
ATOM      2  C   UNL A   1      31.474  29.080  25.027  1.00  0.00     0.275 C 
BRANCH   2   3
ATOM      3  O   UNL A   1      32.371  28.141  25.662  1.00  0.00    -0.459 OA
BRANCH   3   4
ATOM      4  C   UNL A   1      31.774  27.189  26.415  1.00  0.00     0.338 C 
ATOM      5  O   UNL A   1      30.982  27.374  27.328  1.00  0.00    -0.246 OA
BRANCH   4   6
ATOM      6  C   UNL A   1      32.203  25.842  25.997  1.00  0.00     0.087 C 
ATOM      7  C   UNL A   1      32.528  21.246  23.740  1.00  0.00     0.048 C 
ATOM      8  C   UNL A   1      33.499  22.232  24.319  1.00  0.00    -0.007 A 
ATOM      9  C   UNL A   1      34.880  21.980  24.242  1.00  0.00     0.027 A 
ATOM     10  C   UNL A   1      33.049  23.411  24.934  1.00  0.00     0.131 A 
ATOM     11  C   UNL A   1      35.794  22.886  24.776  1.00  0.00     0.042 A 
ATOM     12  C   UNL A   1      33.975  24.319  25.451  1.00  0.00     0.019 A 
ATOM     13  O   UNL A   1      31.695  23.606  25.012  1.00  0.00    -0.475 OA
ATOM     14  Cl  UNL A   1      37.479  22.567  24.666  1.00  0.00    -0.084 Cl
ATOM     15  C   UNL A   1      35.348  24.054  25.384  1.00  0.00     0.032 A 
ATOM     16  C   UNL A   1      33.511  25.567  26.018  1.00  0.00     0.027 C 
ATOM     17  C   UNL A   1      31.186  24.909  25.414  1.00  0.00     0.316 C 
BRANCH  17  18
ATOM     18  C   UNL A   1      30.461  25.548  24.220  1.00  0.00     0.430 C 
ATOM     19  F   UNL A   1      29.877  24.606  23.439  1.00  0.00    -0.167 F 
ATOM     20  F   UNL A   1      29.468  26.379  24.623  1.00  0.00    -0.167 F 
ATOM     21  F   UNL A   1      31.295  26.264  23.434  1.00  0.00    -0.167 F 
ENDBRANCH  17  18
ENDBRANCH   4   6
ENDBRANCH   3   4
ENDBRANCH   2   3
ENDBRANCH   1   2
BRANCH   1  22
ATOM     22  O   UNL A   1      32.330  30.401  26.893  1.00  0.00    -0.458 OA
BRANCH  22  23
ATOM     23  C   UNL A   1      32.989  31.546  27.185  1.00  0.00     0.338 C 
ATOM     24  O   UNL A   1      32.522  32.671  27.237  1.00  0.00    -0.246 OA
BRANCH  23  25
ATOM     25  C   UNL A   1      34.381  31.258  27.556  1.00  0.00     0.060 A 
ATOM     26  C   UNL A   1      34.743  29.931  27.738  1.00  0.00     0.016 A 
ATOM     27  C   UNL A   1      35.241  32.277  27.952  1.00  0.00     0.016 A 
ATOM     28  C   UNL A   1      35.863  29.616  28.497  1.00  0.00     0.010 A 
ATOM     29  C   UNL A   1      36.461  31.946  28.556  1.00  0.00     0.010 A 
ATOM     30  C   UNL A   1      36.761  30.613  28.897  1.00  0.00    -0.014 A 
BRANCH  30  31
ATOM     31  C   UNL A   1      37.989  30.258  29.671  1.00  0.00     0.031 A 
ATOM     32  C   UNL A   1      39.049  29.368  29.066  1.00  0.00     0.074 A 
ATOM     33  C   UNL A   1      38.163  30.738  30.921  1.00  0.00     0.049 A 
ATOM     34  N   UNL A   1      40.082  28.807  29.640  1.00  0.00    -0.248 NA
ATOM     35  C   UNL A   1      38.926  29.051  27.632  1.00  0.00     0.031 C 
ATOM     36  C   UNL A   1      37.238  31.632  31.625  1.00  0.00     0.029 A 
ATOM     37  N   UNL A   1      39.175  30.543  31.830  1.00  0.00    -0.354 N 
ATOM     38  C   UNL A   1      40.683  28.015  28.667  1.00  0.00     0.074 A 
ATOM     39  C   UNL A   1      39.900  28.167  27.460  1.00  0.00     0.031 C 
ATOM     40  C   UNL A   1      37.744  31.947  32.824  1.00  0.00     0.029 A 
ATOM     41  C   UNL A   1      38.966  31.185  33.032  1.00  0.00     0.049 A 
ATOM     42  H   UNL A   1      39.973  29.999  31.642  1.00  0.00     0.167 HD
ATOM     43  C   UNL A   1      41.792  27.244  28.766  1.00  0.00     0.034 A 
ATOM     44  C   UNL A   1      39.643  31.130  34.196  1.00  0.00     0.034 A 
ATOM     45  C   UNL A   1      42.608  27.160  29.949  1.00  0.00     0.049 A 
ATOM     46  C   UNL A   1      40.854  30.247  34.287  1.00  0.00     0.074 A 
ATOM     47  C   UNL A   1      43.770  26.432  30.139  1.00  0.00     0.029 A 
ATOM     48  N   UNL A   1      42.362  27.835  31.134  1.00  0.00    -0.354 N 
ATOM     49  N   UNL A   1      41.415  29.523  33.351  1.00  0.00    -0.248 NA
ATOM     50  C   UNL A   1      41.529  30.177  35.590  1.00  0.00     0.031 C 
ATOM     51  C   UNL A   1      44.209  26.643  31.449  1.00  0.00     0.029 A 
ATOM     52  C   UNL A   1      43.343  27.532  32.064  1.00  0.00     0.049 A 
ATOM     53  H   UNL A   1      41.602  28.441  31.292  1.00  0.00     0.167 HD
ATOM     54  C   UNL A   1      42.522  28.926  33.942  1.00  0.00     0.074 A 
ATOM     55  C   UNL A   1      42.567  29.400  35.311  1.00  0.00     0.031 C 
ATOM     56  C   UNL A   1      43.405  28.049  33.407  1.00  0.00     0.034 A 
BRANCH  43  57
ATOM     57  C   UNL A   1      42.221  26.442  27.561  1.00  0.00     0.023 A 
ATOM     58  C   UNL A   1      43.082  27.015  26.605  1.00  0.00     0.012 A 
ATOM     59  C   UNL A   1      41.856  25.085  27.433  1.00  0.00     0.148 A 
ATOM     60  C   UNL A   1      43.554  26.261  25.529  1.00  0.00     0.002 A 
ATOM     61  C   UNL A   1      42.369  24.326  26.386  1.00  0.00     0.091 A 
ATOM     62  F   UNL A   1      41.025  24.559  28.344  1.00  0.00    -0.205 F 
ATOM     63  C   UNL A   1      43.208  24.916  25.427  1.00  0.00     0.022 A 
BRANCH  61  64
ATOM     64  S   UNL A   1      42.061  22.565  26.216  1.00  0.00     0.127 S 
ATOM     65  O   UNL A   1      42.629  22.044  27.459  1.00  0.00    -0.237 OA
ATOM     66  O   UNL A   1      40.601  22.513  26.146  1.00  0.00    -0.237 OA
ATOM     67  O   UNL A   1      42.747  22.149  25.000  1.00  0.00    -0.744 OA
ENDBRANCH  61  64
ENDBRANCH  43  57
BRANCH  44  68
ATOM     68  C   UNL A   1      39.185  31.945  35.360  1.00  0.00     0.023 A 
ATOM     69  C   UNL A   1      38.346  31.359  36.326  1.00  0.00     0.012 A 
ATOM     70  C   UNL A   1      39.624  33.273  35.549  1.00  0.00     0.148 A 
ATOM     71  C   UNL A   1      37.941  32.080  37.450  1.00  0.00     0.002 A 
ATOM     72  C   UNL A   1      39.274  33.962  36.704  1.00  0.00     0.091 A 
ATOM     73  F   UNL A   1      40.406  33.823  34.610  1.00  0.00    -0.205 F 
ATOM     74  C   UNL A   1      38.418  33.374  37.648  1.00  0.00     0.022 A 
BRANCH  72  75
ATOM     75  S   UNL A   1      39.965  35.568  37.117  1.00  0.00     0.127 S 
ATOM     76  O   UNL A   1      39.289  35.872  38.375  1.00  0.00    -0.237 OA
ATOM     77  O   UNL A   1      41.391  35.258  37.242  1.00  0.00    -0.237 OA
ATOM     78  O   UNL A   1      39.638  36.439  35.997  1.00  0.00    -0.744 OA
ENDBRANCH  72  75
ENDBRANCH  44  68
BRANCH  56  79
ATOM     79  C   UNL A   1      44.520  27.552  34.288  1.00  0.00     0.023 A 
ATOM     80  C   UNL A   1      45.730  28.270  34.353  1.00  0.00     0.012 A 
ATOM     81  C   UNL A   1      44.329  26.438  35.130  1.00  0.00     0.148 A 
ATOM     82  C   UNL A   1      46.743  27.873  35.224  1.00  0.00     0.002 A 
ATOM     83  C   UNL A   1      45.320  26.083  36.036  1.00  0.00     0.091 A 
ATOM     84  F   UNL A   1      43.176  25.761  35.041  1.00  0.00    -0.205 F 
ATOM     85  C   UNL A   1      46.532  26.791  36.075  1.00  0.00     0.022 A 
BRANCH  83  86
ATOM     86  S   UNL A   1      45.098  24.775  37.248  1.00  0.00     0.127 S 
ATOM     87  O   UNL A   1      44.152  25.390  38.178  1.00  0.00    -0.237 OA
ATOM     88  O   UNL A   1      44.540  23.694  36.436  1.00  0.00    -0.237 OA
ATOM     89  O   UNL A   1      46.420  24.504  37.797  1.00  0.00    -0.744 OA
ENDBRANCH  83  86
ENDBRANCH  56  79
ENDBRANCH  30  31
ENDBRANCH  23  25
ENDBRANCH  22  23
ENDBRANCH   1  22
TORSDOF 15
ENDMDL
