MODEL 1
REMARK VINA RESULT:     -12.7      0.000      0.000
REMARK SMILES O=C(CCC(=O)OCCOC(=O)c1ccc(-c2c3nc(c(-c4cccc(S(=O)(=O)[O-])c4F)c4ccc([nH]4)c(-c4cccc(S(=O)(=O)[O-])c4F)c4nc(c(-c5cccc(S(=O)(=O)[O-])c5F)c5ccc2[nH]5)C=C4)C=C3)cc1)/[NH+]=C1\S[C@H]2CS(=O)(=O)C[C@@H]2N1c1ccc2c(c1)OCO2
REMARK SMILES IDX 8 1 7 2 5 3 6 4 4 5 3 6 2 7 1 8 76 9 77 10 78 12 86 13 79 14
REMARK SMILES IDX 85 15 80 16 84 17 81 18 82 19 83 20 87 21 88 22 92 23 89 24
REMARK SMILES IDX 91 25 90 26 93 27 95 28 94 29 9 30 10 31 11 32 12 33 13 34
REMARK SMILES IDX 14 35 75 36 15 37 74 38 16 39 17 40 18 41 68 42 19 43 73 44
REMARK SMILES IDX 67 45 69 46 20 47 72 48 66 49 65 50 21 52 53 53 33 54 52 55
REMARK SMILES IDX 34 56 37 57 51 58 70 59 35 60 36 61 50 63 71 64 38 65 22 66
REMARK SMILES IDX 23 67 31 68 24 69 26 70 32 71 25 72 27 73 28 74 29 75 30 76
REMARK SMILES IDX 54 77 55 78 63 79 56 80 58 81 64 82 57 83 59 84 60 85 61 86
REMARK SMILES IDX 62 87 39 88 40 89 48 90 41 91 43 92 49 93 42 94 44 95 45 96
REMARK SMILES IDX 46 97 47 98
REMARK H PARENT 76 11 69 51 37 62
REMARK Flexibility Score: inf
ROOT
ATOM      1  C   UNL A   1      35.656  20.293  24.994  1.00  0.00     0.274 C 
ENDROOT
BRANCH   1   2
ATOM      2  O   UNL A   1      34.501  21.051  24.603  1.00  0.00    -0.462 OA
BRANCH   2   3
ATOM      3  C   UNL A   1      33.343  20.532  25.046  1.00  0.00     0.306 C 
ATOM      4  O   UNL A   1      33.215  19.384  25.458  1.00  0.00    -0.252 OA
BRANCH   3   5
ATOM      5  C   UNL A   1      32.196  21.494  24.971  1.00  0.00     0.135 C 
BRANCH   5   6
ATOM      6  C   UNL A   1      31.836  22.476  26.089  1.00  0.00     0.139 C 
BRANCH   6   7
ATOM      7  C   UNL A   1      32.584  23.742  26.533  1.00  0.00     0.308 C 
ATOM      8  O   UNL A   1      33.769  23.616  26.852  1.00  0.00    -0.247 OA
ATOM      9  N   UNL A   1      31.998  24.980  26.601  1.00  0.00    -0.204 N 
ATOM     10  C   UNL A   1      32.064  25.842  25.632  1.00  0.00     0.319 C 
ATOM     11  H   UNL A   1      31.506  25.225  27.418  1.00  0.00     0.316 HD
ATOM     12  S   UNL A   1      32.480  25.521  23.923  1.00  0.00    -0.029 SA
ATOM     13  N   UNL A   1      31.663  27.185  25.751  1.00  0.00    -0.216 N 
ATOM     14  C   UNL A   1      31.705  27.076  23.342  1.00  0.00     0.120 C 
ATOM     15  C   UNL A   1      30.972  27.637  24.561  1.00  0.00     0.212 C 
ATOM     16  C   UNL A   1      30.603  27.145  22.296  1.00  0.00     0.156 C 
ATOM     17  C   UNL A   1      30.677  29.072  24.214  1.00  0.00     0.188 C 
ATOM     18  S   UNL A   1      29.927  28.812  22.584  1.00  0.00     0.155 S 
ATOM     19  O   UNL A   1      30.524  29.735  21.646  1.00  0.00    -0.229 OA
ATOM     20  O   UNL A   1      28.497  28.702  22.774  1.00  0.00    -0.229 OA
BRANCH  13  21
ATOM     21  C   UNL A   1      32.538  28.090  26.371  1.00  0.00     0.132 A 
ATOM     22  C   UNL A   1      33.928  27.852  26.324  1.00  0.00     0.056 A 
ATOM     23  C   UNL A   1      32.052  29.278  26.936  1.00  0.00     0.102 A 
ATOM     24  C   UNL A   1      34.836  28.824  26.754  1.00  0.00     0.055 A 
ATOM     25  C   UNL A   1      32.965  30.228  27.314  1.00  0.00     0.170 A 
ATOM     26  C   UNL A   1      34.319  30.019  27.204  1.00  0.00     0.166 A 
ATOM     27  O   UNL A   1      32.661  31.485  27.732  1.00  0.00    -0.453 OA
ATOM     28  O   UNL A   1      35.026  31.139  27.519  1.00  0.00    -0.454 OA
ATOM     29  C   UNL A   1      33.950  32.103  27.566  1.00  0.00     0.468 C 
ENDBRANCH  13  21
ENDBRANCH   6   7
ENDBRANCH   5   6
ENDBRANCH   3   5
ENDBRANCH   2   3
ENDBRANCH   1   2
BRANCH   1  30
ATOM     30  C   UNL A   1      36.896  21.142  24.751  1.00  0.00     0.275 C 
BRANCH  30  31
ATOM     31  O   UNL A   1      37.447  21.777  25.910  1.00  0.00    -0.458 OA
BRANCH  31  32
ATOM     32  C   UNL A   1      38.784  21.669  26.025  1.00  0.00     0.338 C 
ATOM     33  O   UNL A   1      39.478  20.677  25.853  1.00  0.00    -0.246 OA
BRANCH  32  34
ATOM     34  C   UNL A   1      39.353  22.840  26.627  1.00  0.00     0.060 A 
ATOM     35  C   UNL A   1      40.348  22.696  27.582  1.00  0.00     0.016 A 
ATOM     36  C   UNL A   1      38.849  24.082  26.225  1.00  0.00     0.016 A 
ATOM     37  C   UNL A   1      40.899  23.846  28.101  1.00  0.00     0.010 A 
ATOM     38  C   UNL A   1      39.472  25.225  26.660  1.00  0.00     0.010 A 
ATOM     39  C   UNL A   1      40.502  25.097  27.590  1.00  0.00    -0.014 A 
BRANCH  39  40
ATOM     40  C   UNL A   1      41.273  26.279  27.966  1.00  0.00     0.031 A 
ATOM     41  C   UNL A   1      42.654  26.447  27.442  1.00  0.00     0.074 A 
ATOM     42  C   UNL A   1      40.654  27.144  28.789  1.00  0.00     0.049 A 
ATOM     43  N   UNL A   1      43.443  27.473  27.565  1.00  0.00    -0.248 NA
ATOM     44  C   UNL A   1      43.243  25.316  26.700  1.00  0.00     0.031 C 
ATOM     45  C   UNL A   1      39.332  26.925  29.397  1.00  0.00     0.029 A 
ATOM     46  N   UNL A   1      41.021  28.375  29.237  1.00  0.00    -0.354 N 
ATOM     47  C   UNL A   1      44.633  27.102  26.957  1.00  0.00     0.074 A 
ATOM     48  C   UNL A   1      44.475  25.751  26.476  1.00  0.00     0.031 C 
ATOM     49  C   UNL A   1      38.973  28.017  30.083  1.00  0.00     0.029 A 
ATOM     50  C   UNL A   1      40.056  28.985  30.004  1.00  0.00     0.049 A 
ATOM     51  H   UNL A   1      41.891  28.788  29.033  1.00  0.00     0.167 HD
ATOM     52  C   UNL A   1      45.745  27.854  26.815  1.00  0.00     0.034 A 
ATOM     53  C   UNL A   1      40.064  30.204  30.568  1.00  0.00     0.034 A 
ATOM     54  C   UNL A   1      45.813  29.206  27.296  1.00  0.00     0.049 A 
ATOM     55  C   UNL A   1      41.274  31.047  30.301  1.00  0.00     0.074 A 
ATOM     56  C   UNL A   1      46.837  30.122  27.163  1.00  0.00     0.029 A 
ATOM     57  N   UNL A   1      44.799  29.828  28.018  1.00  0.00    -0.354 N 
ATOM     58  N   UNL A   1      42.343  30.745  29.598  1.00  0.00    -0.248 NA
ATOM     59  C   UNL A   1      41.279  32.398  30.864  1.00  0.00     0.031 C 
ATOM     60  C   UNL A   1      46.453  31.287  27.834  1.00  0.00     0.029 A 
ATOM     61  C   UNL A   1      45.175  31.113  28.351  1.00  0.00     0.049 A 
ATOM     62  H   UNL A   1      43.940  29.412  28.257  1.00  0.00     0.167 HD
ATOM     63  C   UNL A   1      43.146  31.871  29.617  1.00  0.00     0.074 A 
ATOM     64  C   UNL A   1      42.417  32.875  30.376  1.00  0.00     0.031 C 
ATOM     65  C   UNL A   1      44.377  32.066  29.084  1.00  0.00     0.034 A 
BRANCH  52  66
ATOM     66  C   UNL A   1      46.935  27.238  26.132  1.00  0.00     0.023 A 
ATOM     67  C   UNL A   1      47.062  27.298  24.729  1.00  0.00     0.012 A 
ATOM     68  C   UNL A   1      47.945  26.614  26.888  1.00  0.00     0.148 A 
ATOM     69  C   UNL A   1      48.159  26.719  24.088  1.00  0.00     0.002 A 
ATOM     70  C   UNL A   1      49.058  26.082  26.248  1.00  0.00     0.091 A 
ATOM     71  F   UNL A   1      47.791  26.537  28.218  1.00  0.00    -0.205 F 
ATOM     72  C   UNL A   1      49.161  26.123  24.848  1.00  0.00     0.022 A 
BRANCH  70  73
ATOM     73  S   UNL A   1      50.436  25.354  27.140  1.00  0.00     0.127 S 
ATOM     74  O   UNL A   1      50.843  26.459  28.008  1.00  0.00    -0.237 OA
ATOM     75  O   UNL A   1      49.792  24.238  27.834  1.00  0.00    -0.237 OA
ATOM     76  O   UNL A   1      51.412  24.966  26.133  1.00  0.00    -0.744 OA
ENDBRANCH  70  73
ENDBRANCH  52  66
BRANCH  53  77
ATOM     77  C   UNL A   1      38.895  30.676  31.359  1.00  0.00     0.023 A 
ATOM     78  C   UNL A   1      38.756  30.302  32.709  1.00  0.00     0.012 A 
ATOM     79  C   UNL A   1      37.948  31.555  30.795  1.00  0.00     0.148 A 
ATOM     80  C   UNL A   1      37.681  30.764  33.470  1.00  0.00     0.002 A 
ATOM     81  C   UNL A   1      36.911  32.059  31.573  1.00  0.00     0.091 A 
ATOM     82  F   UNL A   1      38.089  31.900  29.507  1.00  0.00    -0.205 F 
ATOM     83  C   UNL A   1      36.765  31.651  32.907  1.00  0.00     0.022 A 
BRANCH  81  84
ATOM     84  S   UNL A   1      35.782  33.313  30.959  1.00  0.00     0.127 S 
ATOM     85  O   UNL A   1      35.945  34.373  31.949  1.00  0.00    -0.237 OA
ATOM     86  O   UNL A   1      36.340  33.610  29.638  1.00  0.00    -0.237 OA
ATOM     87  O   UNL A   1      34.475  32.670  30.920  1.00  0.00    -0.744 OA
ENDBRANCH  81  84
ENDBRANCH  53  77
BRANCH  65  88
ATOM     88  C   UNL A   1      44.981  33.422  29.289  1.00  0.00     0.023 A 
ATOM     89  C   UNL A   1      45.754  33.676  30.438  1.00  0.00     0.012 A 
ATOM     90  C   UNL A   1      44.843  34.411  28.299  1.00  0.00     0.148 A 
ATOM     91  C   UNL A   1      46.358  34.917  30.614  1.00  0.00     0.002 A 
ATOM     92  C   UNL A   1      45.496  35.622  28.453  1.00  0.00     0.091 A 
ATOM     93  F   UNL A   1      44.082  34.141  27.227  1.00  0.00    -0.205 F 
ATOM     94  C   UNL A   1      46.241  35.883  29.615  1.00  0.00     0.022 A 
BRANCH  92  95
ATOM     95  S   UNL A   1      45.497  36.873  27.169  1.00  0.00     0.127 S 
ATOM     96  O   UNL A   1      46.154  36.168  26.070  1.00  0.00    -0.237 OA
ATOM     97  O   UNL A   1      44.067  37.115  26.974  1.00  0.00    -0.237 OA
ATOM     98  O   UNL A   1      46.233  38.008  27.711  1.00  0.00    -0.744 OA
ENDBRANCH  92  95
ENDBRANCH  65  88
ENDBRANCH  39  40
ENDBRANCH  32  34
ENDBRANCH  31  32
ENDBRANCH  30  31
ENDBRANCH   1  30
TORSDOF 17
ENDMDL
MODEL 2
REMARK VINA RESULT:     -12.5      1.849      3.144
REMARK SMILES O=C(CCC(=O)OCCOC(=O)c1ccc(-c2c3nc(c(-c4cccc(S(=O)(=O)[O-])c4F)c4ccc([nH]4)c(-c4cccc(S(=O)(=O)[O-])c4F)c4nc(c(-c5cccc(S(=O)(=O)[O-])c5F)c5ccc2[nH]5)C=C4)C=C3)cc1)/[NH+]=C1\S[C@H]2CS(=O)(=O)C[C@@H]2N1c1ccc2c(c1)OCO2
REMARK SMILES IDX 8 1 7 2 5 3 6 4 4 5 3 6 2 7 1 8 76 9 77 10 78 12 86 13 79 14
REMARK SMILES IDX 85 15 80 16 84 17 81 18 82 19 83 20 87 21 88 22 92 23 89 24
REMARK SMILES IDX 91 25 90 26 93 27 95 28 94 29 9 30 10 31 11 32 12 33 13 34
REMARK SMILES IDX 14 35 75 36 15 37 74 38 16 39 17 40 18 41 68 42 19 43 73 44
REMARK SMILES IDX 67 45 69 46 20 47 72 48 66 49 65 50 21 52 53 53 33 54 52 55
REMARK SMILES IDX 34 56 37 57 51 58 70 59 35 60 36 61 50 63 71 64 38 65 22 66
REMARK SMILES IDX 23 67 31 68 24 69 26 70 32 71 25 72 27 73 28 74 29 75 30 76
REMARK SMILES IDX 54 77 55 78 63 79 56 80 58 81 64 82 57 83 59 84 60 85 61 86
REMARK SMILES IDX 62 87 39 88 40 89 48 90 41 91 43 92 49 93 42 94 44 95 45 96
REMARK SMILES IDX 46 97 47 98
REMARK H PARENT 76 11 69 51 37 62
REMARK Flexibility Score: inf
ROOT
ATOM      1  C   UNL A   1      35.855  21.561  24.449  1.00  0.00     0.274 C 
ENDROOT
BRANCH   1   2
ATOM      2  O   UNL A   1      35.900  22.971  24.182  1.00  0.00    -0.462 OA
BRANCH   2   3
ATOM      3  C   UNL A   1      34.889  23.655  24.744  1.00  0.00     0.306 C 
ATOM      4  O   UNL A   1      34.975  24.812  25.143  1.00  0.00    -0.252 OA
BRANCH   3   5
ATOM      5  C   UNL A   1      33.626  22.855  24.861  1.00  0.00     0.135 C 
BRANCH   5   6
ATOM      6  C   UNL A   1      32.592  22.730  23.738  1.00  0.00     0.139 C 
BRANCH   6   7
ATOM      7  C   UNL A   1      31.529  23.746  23.294  1.00  0.00     0.308 C 
ATOM      8  O   UNL A   1      30.387  23.322  23.102  1.00  0.00    -0.247 OA
ATOM      9  N   UNL A   1      31.795  25.077  23.091  1.00  0.00    -0.204 N 
ATOM     10  C   UNL A   1      31.604  25.976  24.008  1.00  0.00     0.319 C 
ATOM     11  H   UNL A   1      32.144  25.360  22.216  1.00  0.00     0.316 HD
ATOM     12  S   UNL A   1      31.419  25.712  25.766  1.00  0.00    -0.029 SA
ATOM     13  N   UNL A   1      31.660  27.361  23.766  1.00  0.00    -0.216 N 
ATOM     14  C   UNL A   1      31.845  27.447  26.170  1.00  0.00     0.120 C 
ATOM     15  C   UNL A   1      32.319  28.059  24.852  1.00  0.00     0.212 C 
ATOM     16  C   UNL A   1      32.981  27.857  27.094  1.00  0.00     0.156 C 
ATOM     17  C   UNL A   1      32.290  29.548  25.079  1.00  0.00     0.188 C 
ATOM     18  S   UNL A   1      33.212  29.606  26.639  1.00  0.00     0.155 S 
ATOM     19  O   UNL A   1      32.490  30.439  27.573  1.00  0.00    -0.229 OA
ATOM     20  O   UNL A   1      34.606  29.816  26.314  1.00  0.00    -0.229 OA
BRANCH  13  21
ATOM     21  C   UNL A   1      30.547  27.983  23.183  1.00  0.00     0.132 A 
ATOM     22  C   UNL A   1      29.250  27.556  23.538  1.00  0.00     0.056 A 
ATOM     23  C   UNL A   1      30.709  29.092  22.340  1.00  0.00     0.102 A 
ATOM     24  C   UNL A   1      28.122  28.276  23.132  1.00  0.00     0.055 A 
ATOM     25  C   UNL A   1      29.590  29.801  21.990  1.00  0.00     0.170 A 
ATOM     26  C   UNL A   1      28.332  29.419  22.394  1.00  0.00     0.166 A 
ATOM     27  O   UNL A   1      29.587  30.979  21.312  1.00  0.00    -0.453 OA
ATOM     28  O   UNL A   1      27.390  30.336  22.036  1.00  0.00    -0.454 OA
ATOM     29  C   UNL A   1      28.251  31.419  21.617  1.00  0.00     0.468 C 
ENDBRANCH  13  21
ENDBRANCH   6   7
ENDBRANCH   5   6
ENDBRANCH   3   5
ENDBRANCH   2   3
ENDBRANCH   1   2
BRANCH   1  30
ATOM     30  C   UNL A   1      37.235  21.111  24.903  1.00  0.00     0.275 C 
BRANCH  30  31
ATOM     31  O   UNL A   1      37.775  21.810  26.031  1.00  0.00    -0.458 OA
BRANCH  31  32
ATOM     32  C   UNL A   1      39.118  21.801  26.106  1.00  0.00     0.338 C 
ATOM     33  O   UNL A   1      39.880  20.871  25.881  1.00  0.00    -0.246 OA
BRANCH  32  34
ATOM     34  C   UNL A   1      39.616  22.993  26.730  1.00  0.00     0.060 A 
ATOM     35  C   UNL A   1      40.641  22.894  27.658  1.00  0.00     0.016 A 
ATOM     36  C   UNL A   1      39.014  24.205  26.376  1.00  0.00     0.016 A 
ATOM     37  C   UNL A   1      41.119  24.066  28.200  1.00  0.00     0.010 A 
ATOM     38  C   UNL A   1      39.563  25.378  26.832  1.00  0.00     0.010 A 
ATOM     39  C   UNL A   1      40.621  25.299  27.736  1.00  0.00    -0.014 A 
BRANCH  39  40
ATOM     40  C   UNL A   1      41.314  26.523  28.131  1.00  0.00     0.031 A 
ATOM     41  C   UNL A   1      42.710  26.751  27.675  1.00  0.00     0.074 A 
ATOM     42  C   UNL A   1      40.612  27.368  28.906  1.00  0.00     0.049 A 
ATOM     43  N   UNL A   1      43.442  27.816  27.821  1.00  0.00    -0.248 NA
ATOM     44  C   UNL A   1      43.392  25.639  26.984  1.00  0.00     0.031 C 
ATOM     45  C   UNL A   1      39.272  27.093  29.448  1.00  0.00     0.029 A 
ATOM     46  N   UNL A   1      40.895  28.622  29.350  1.00  0.00    -0.354 N 
ATOM     47  C   UNL A   1      44.679  27.495  27.282  1.00  0.00     0.074 A 
ATOM     48  C   UNL A   1      44.611  26.130  26.817  1.00  0.00     0.031 C 
ATOM     49  C   UNL A   1      38.825  28.177  30.095  1.00  0.00     0.029 A 
ATOM     50  C   UNL A   1      39.863  29.195  30.055  1.00  0.00     0.049 A 
ATOM     51  H   UNL A   1      41.753  29.075  29.184  1.00  0.00     0.167 HD
ATOM     52  C   UNL A   1      45.759  28.298  27.185  1.00  0.00     0.034 A 
ATOM     53  C   UNL A   1      39.782  30.421  30.598  1.00  0.00     0.034 A 
ATOM     54  C   UNL A   1      45.737  29.658  27.645  1.00  0.00     0.049 A 
ATOM     55  C   UNL A   1      40.963  31.319  30.379  1.00  0.00     0.074 A 
ATOM     56  C   UNL A   1      46.720  30.621  27.549  1.00  0.00     0.029 A 
ATOM     57  N   UNL A   1      44.657  30.241  28.303  1.00  0.00    -0.354 N 
ATOM     58  N   UNL A   1      42.081  31.059  29.738  1.00  0.00    -0.248 NA
ATOM     59  C   UNL A   1      40.873  32.677  30.919  1.00  0.00     0.031 C 
ATOM     60  C   UNL A   1      46.246  31.776  28.179  1.00  0.00     0.029 A 
ATOM     61  C   UNL A   1      44.953  31.548  28.632  1.00  0.00     0.049 A 
ATOM     62  H   UNL A   1      43.808  29.787  28.505  1.00  0.00     0.167 HD
ATOM     63  C   UNL A   1      42.826  32.224  29.779  1.00  0.00     0.074 A 
ATOM     64  C   UNL A   1      42.010  33.202  30.482  1.00  0.00     0.031 C 
ATOM     65  C   UNL A   1      44.072  32.471  29.307  1.00  0.00     0.034 A 
BRANCH  52  66
ATOM     66  C   UNL A   1      47.011  27.731  26.574  1.00  0.00     0.023 A 
ATOM     67  C   UNL A   1      47.974  27.093  27.383  1.00  0.00     0.012 A 
ATOM     68  C   UNL A   1      47.225  27.814  25.185  1.00  0.00     0.148 A 
ATOM     69  C   UNL A   1      49.143  26.574  26.824  1.00  0.00     0.002 A 
ATOM     70  C   UNL A   1      48.368  27.253  24.628  1.00  0.00     0.091 A 
ATOM     71  F   UNL A   1      46.315  28.453  24.436  1.00  0.00    -0.205 F 
ATOM     72  C   UNL A   1      49.333  26.644  25.447  1.00  0.00     0.022 A 
BRANCH  70  73
ATOM     73  S   UNL A   1      48.674  27.229  22.859  1.00  0.00     0.127 S 
ATOM     74  O   UNL A   1      48.348  25.843  22.521  1.00  0.00    -0.237 OA
ATOM     75  O   UNL A   1      47.714  28.219  22.372  1.00  0.00    -0.237 OA
ATOM     76  O   UNL A   1      50.073  27.595  22.685  1.00  0.00    -0.744 OA
ENDBRANCH  70  73
ENDBRANCH  52  66
BRANCH  53  77
ATOM     77  C   UNL A   1      38.553  30.847  31.320  1.00  0.00     0.023 A 
ATOM     78  C   UNL A   1      38.458  30.686  32.715  1.00  0.00     0.012 A 
ATOM     79  C   UNL A   1      37.493  31.477  30.634  1.00  0.00     0.148 A 
ATOM     80  C   UNL A   1      37.322  31.111  33.407  1.00  0.00     0.002 A 
ATOM     81  C   UNL A   1      36.390  31.950  31.335  1.00  0.00     0.091 A 
ATOM     82  F   UNL A   1      37.593  31.620  29.305  1.00  0.00    -0.205 F 
ATOM     83  C   UNL A   1      36.294  31.753  32.721  1.00  0.00     0.022 A 
BRANCH  81  84
ATOM     84  S   UNL A   1      35.097  32.912  30.541  1.00  0.00     0.127 S 
ATOM     85  O   UNL A   1      35.834  34.088  30.090  1.00  0.00    -0.237 OA
ATOM     86  O   UNL A   1      34.656  32.013  29.473  1.00  0.00    -0.237 OA
ATOM     87  O   UNL A   1      34.096  33.142  31.575  1.00  0.00    -0.744 OA
ENDBRANCH  81  84
ENDBRANCH  53  77
BRANCH  65  88
ATOM     88  C   UNL A   1      44.598  33.858  29.519  1.00  0.00     0.023 A 
ATOM     89  C   UNL A   1      45.271  34.174  30.715  1.00  0.00     0.012 A 
ATOM     90  C   UNL A   1      44.492  34.815  28.495  1.00  0.00     0.148 A 
ATOM     91  C   UNL A   1      45.804  35.445  30.901  1.00  0.00     0.002 A 
ATOM     92  C   UNL A   1      45.078  36.059  28.664  1.00  0.00     0.091 A 
ATOM     93  F   UNL A   1      43.828  34.485  27.377  1.00  0.00    -0.205 F 
ATOM     94  C   UNL A   1      45.721  36.381  29.871  1.00  0.00     0.022 A 
BRANCH  92  95
ATOM     95  S   UNL A   1      45.121  37.277  27.350  1.00  0.00     0.127 S 
ATOM     96  O   UNL A   1      45.816  38.387  27.998  1.00  0.00    -0.237 OA
ATOM     97  O   UNL A   1      45.896  36.588  26.317  1.00  0.00    -0.237 OA
ATOM     98  O   UNL A   1      43.733  37.534  26.992  1.00  0.00    -0.744 OA
ENDBRANCH  92  95
ENDBRANCH  65  88
ENDBRANCH  39  40
ENDBRANCH  32  34
ENDBRANCH  31  32
ENDBRANCH  30  31
ENDBRANCH   1  30
TORSDOF 17
ENDMDL
MODEL 3
REMARK VINA RESULT:     -11.7      3.003      5.125
REMARK SMILES O=C(CCC(=O)OCCOC(=O)c1ccc(-c2c3nc(c(-c4cccc(S(=O)(=O)[O-])c4F)c4ccc([nH]4)c(-c4cccc(S(=O)(=O)[O-])c4F)c4nc(c(-c5cccc(S(=O)(=O)[O-])c5F)c5ccc2[nH]5)C=C4)C=C3)cc1)/[NH+]=C1\S[C@H]2CS(=O)(=O)C[C@@H]2N1c1ccc2c(c1)OCO2
REMARK SMILES IDX 8 1 7 2 5 3 6 4 4 5 3 6 2 7 1 8 76 9 77 10 78 12 86 13 79 14
REMARK SMILES IDX 85 15 80 16 84 17 81 18 82 19 83 20 87 21 88 22 92 23 89 24
REMARK SMILES IDX 91 25 90 26 93 27 95 28 94 29 9 30 10 31 11 32 12 33 13 34
REMARK SMILES IDX 14 35 75 36 15 37 74 38 16 39 17 40 18 41 68 42 19 43 73 44
REMARK SMILES IDX 67 45 69 46 20 47 72 48 66 49 65 50 21 52 53 53 33 54 52 55
REMARK SMILES IDX 34 56 37 57 51 58 70 59 35 60 36 61 50 63 71 64 38 65 22 66
REMARK SMILES IDX 23 67 31 68 24 69 26 70 32 71 25 72 27 73 28 74 29 75 30 76
REMARK SMILES IDX 54 77 55 78 63 79 56 80 58 81 64 82 57 83 59 84 60 85 61 86
REMARK SMILES IDX 62 87 39 88 40 89 48 90 41 91 43 92 49 93 42 94 44 95 45 96
REMARK SMILES IDX 46 97 47 98
REMARK H PARENT 76 11 69 51 37 62
REMARK Flexibility Score: inf
ROOT
ATOM      1  C   UNL A   1      42.591  18.619  26.365  1.00  0.00     0.274 C 
ENDROOT
BRANCH   1   2
ATOM      2  O   UNL A   1      41.464  19.340  25.844  1.00  0.00    -0.462 OA
BRANCH   2   3
ATOM      3  C   UNL A   1      40.916  20.190  26.731  1.00  0.00     0.306 C 
ATOM      4  O   UNL A   1      40.959  20.041  27.947  1.00  0.00    -0.252 OA
BRANCH   3   5
ATOM      5  C   UNL A   1      40.216  21.348  26.084  1.00  0.00     0.135 C 
BRANCH   5   6
ATOM      6  C   UNL A   1      39.731  22.582  26.850  1.00  0.00     0.139 C 
BRANCH   6   7
ATOM      7  C   UNL A   1      38.623  23.575  26.469  1.00  0.00     0.308 C 
ATOM      8  O   UNL A   1      38.958  24.583  25.842  1.00  0.00    -0.247 OA
ATOM      9  N   UNL A   1      37.304  23.398  26.803  1.00  0.00    -0.204 N 
ATOM     10  C   UNL A   1      36.446  22.847  25.999  1.00  0.00     0.319 C 
ATOM     11  H   UNL A   1      36.997  23.702  27.687  1.00  0.00     0.316 HD
ATOM     12  S   UNL A   1      36.795  21.829  24.572  1.00  0.00    -0.029 SA
ATOM     13  N   UNL A   1      35.057  22.846  26.222  1.00  0.00    -0.216 N 
ATOM     14  C   UNL A   1      35.117  21.093  24.566  1.00  0.00     0.120 C 
ATOM     15  C   UNL A   1      34.466  21.572  25.863  1.00  0.00     0.212 C 
ATOM     16  C   UNL A   1      34.837  19.600  24.646  1.00  0.00     0.156 C 
ATOM     17  C   UNL A   1      32.994  21.312  25.682  1.00  0.00     0.188 C 
ATOM     18  S   UNL A   1      33.086  19.582  25.146  1.00  0.00     0.155 S 
ATOM     19  O   UNL A   1      32.258  19.416  23.973  1.00  0.00    -0.229 OA
ATOM     20  O   UNL A   1      32.952  18.753  26.324  1.00  0.00    -0.229 OA
BRANCH  13  21
ATOM     21  C   UNL A   1      34.330  24.003  25.909  1.00  0.00     0.132 A 
ATOM     22  C   UNL A   1      34.698  24.769  24.782  1.00  0.00     0.056 A 
ATOM     23  C   UNL A   1      33.180  24.343  26.637  1.00  0.00     0.102 A 
ATOM     24  C   UNL A   1      33.884  25.810  24.326  1.00  0.00     0.055 A 
ATOM     25  C   UNL A   1      32.382  25.342  26.145  1.00  0.00     0.170 A 
ATOM     26  C   UNL A   1      32.710  26.041  25.007  1.00  0.00     0.166 A 
ATOM     27  O   UNL A   1      31.164  25.688  26.639  1.00  0.00    -0.453 OA
ATOM     28  O   UNL A   1      31.715  26.895  24.639  1.00  0.00    -0.454 OA
ATOM     29  C   UNL A   1      30.662  26.437  25.517  1.00  0.00     0.468 C 
ENDBRANCH  13  21
ENDBRANCH   6   7
ENDBRANCH   5   6
ENDBRANCH   3   5
ENDBRANCH   2   3
ENDBRANCH   1   2
BRANCH   1  30
ATOM     30  C   UNL A   1      43.652  18.530  25.278  1.00  0.00     0.275 C 
BRANCH  30  31
ATOM     31  O   UNL A   1      44.690  19.515  25.345  1.00  0.00    -0.458 OA
BRANCH  31  32
ATOM     32  C   UNL A   1      44.552  20.535  24.477  1.00  0.00     0.338 C 
ATOM     33  O   UNL A   1      44.618  20.500  23.256  1.00  0.00    -0.246 OA
BRANCH  32  34
ATOM     34  C   UNL A   1      44.542  21.799  25.153  1.00  0.00     0.060 A 
ATOM     35  C   UNL A   1      44.980  21.869  26.467  1.00  0.00     0.016 A 
ATOM     36  C   UNL A   1      44.064  22.906  24.443  1.00  0.00     0.016 A 
ATOM     37  C   UNL A   1      44.997  23.110  27.063  1.00  0.00     0.010 A 
ATOM     38  C   UNL A   1      44.184  24.155  24.999  1.00  0.00     0.010 A 
ATOM     39  C   UNL A   1      44.660  24.249  26.306  1.00  0.00    -0.014 A 
BRANCH  39  40
ATOM     40  C   UNL A   1      44.928  25.567  26.874  1.00  0.00     0.031 A 
ATOM     41  C   UNL A   1      46.305  26.124  26.808  1.00  0.00     0.074 A 
ATOM     42  C   UNL A   1      43.875  26.187  27.435  1.00  0.00     0.049 A 
ATOM     43  N   UNL A   1      46.710  27.312  27.147  1.00  0.00    -0.248 NA
ATOM     44  C   UNL A   1      47.377  25.235  26.322  1.00  0.00     0.031 C 
ATOM     45  C   UNL A   1      42.540  25.592  27.599  1.00  0.00     0.029 A 
ATOM     46  N   UNL A   1      43.739  27.442  27.942  1.00  0.00    -0.354 N 
ATOM     47  C   UNL A   1      48.084  27.305  26.956  1.00  0.00     0.074 A 
ATOM     48  C   UNL A   1      48.452  25.991  26.487  1.00  0.00     0.031 C 
ATOM     49  C   UNL A   1      41.705  26.509  28.106  1.00  0.00     0.029 A 
ATOM     50  C   UNL A   1      42.457  27.730  28.347  1.00  0.00     0.049 A 
ATOM     51  H   UNL A   1      44.484  28.082  28.012  1.00  0.00     0.167 HD
ATOM     52  C   UNL A   1      48.940  28.330  27.153  1.00  0.00     0.034 A 
ATOM     53  C   UNL A   1      41.961  28.872  28.851  1.00  0.00     0.034 A 
ATOM     54  C   UNL A   1      48.489  29.621  27.594  1.00  0.00     0.049 A 
ATOM     55  C   UNL A   1      42.920  30.019  28.957  1.00  0.00     0.074 A 
ATOM     56  C   UNL A   1      49.217  30.780  27.766  1.00  0.00     0.029 A 
ATOM     57  N   UNL A   1      47.172  29.910  27.941  1.00  0.00    -0.354 N 
ATOM     58  N   UNL A   1      44.195  30.051  28.637  1.00  0.00    -0.248 NA
ATOM     59  C   UNL A   1      42.386  31.287  29.456  1.00  0.00     0.031 C 
ATOM     60  C   UNL A   1      48.345  31.761  28.249  1.00  0.00     0.029 A 
ATOM     61  C   UNL A   1      47.065  31.226  28.340  1.00  0.00     0.049 A 
ATOM     62  H   UNL A   1      46.426  29.269  27.907  1.00  0.00     0.167 HD
ATOM     63  C   UNL A   1      44.618  31.346  28.878  1.00  0.00     0.074 A 
ATOM     64  C   UNL A   1      43.447  32.075  29.340  1.00  0.00     0.031 C 
ATOM     65  C   UNL A   1      45.854  31.890  28.756  1.00  0.00     0.034 A 
BRANCH  52  66
ATOM     66  C   UNL A   1      50.403  28.091  26.898  1.00  0.00     0.023 A 
ATOM     67  C   UNL A   1      51.278  27.816  27.969  1.00  0.00     0.012 A 
ATOM     68  C   UNL A   1      50.909  28.119  25.585  1.00  0.00     0.148 A 
ATOM     69  C   UNL A   1      52.638  27.604  27.740  1.00  0.00     0.002 A 
ATOM     70  C   UNL A   1      52.255  27.860  25.359  1.00  0.00     0.091 A 
ATOM     71  F   UNL A   1      50.068  28.416  24.583  1.00  0.00    -0.205 F 
ATOM     72  C   UNL A   1      53.123  27.615  26.435  1.00  0.00     0.022 A 
BRANCH  70  73
ATOM     73  S   UNL A   1      52.965  27.782  23.711  1.00  0.00     0.127 S 
ATOM     74  O   UNL A   1      54.337  27.363  24.000  1.00  0.00    -0.237 OA
ATOM     75  O   UNL A   1      52.136  26.759  23.073  1.00  0.00    -0.237 OA
ATOM     76  O   UNL A   1      52.832  29.117  23.148  1.00  0.00    -0.744 OA
ENDBRANCH  70  73
ENDBRANCH  52  66
BRANCH  53  77
ATOM     77  C   UNL A   1      40.522  28.971  29.219  1.00  0.00     0.023 A 
ATOM     78  C   UNL A   1      39.541  29.082  28.215  1.00  0.00     0.012 A 
ATOM     79  C   UNL A   1      40.112  28.890  30.566  1.00  0.00     0.148 A 
ATOM     80  C   UNL A   1      38.186  29.144  28.547  1.00  0.00     0.002 A 
ATOM     81  C   UNL A   1      38.759  28.894  30.886  1.00  0.00     0.091 A 
ATOM     82  F   UNL A   1      41.057  28.789  31.512  1.00  0.00    -0.205 F 
ATOM     83  C   UNL A   1      37.794  29.039  29.879  1.00  0.00     0.022 A 
BRANCH  81  84
ATOM     84  S   UNL A   1      38.177  28.618  32.563  1.00  0.00     0.127 S 
ATOM     85  O   UNL A   1      36.833  29.185  32.510  1.00  0.00    -0.237 OA
ATOM     86  O   UNL A   1      38.228  27.158  32.671  1.00  0.00    -0.237 OA
ATOM     87  O   UNL A   1      39.129  29.310  33.422  1.00  0.00    -0.744 OA
ENDBRANCH  81  84
ENDBRANCH  53  77
BRANCH  65  88
ATOM     88  C   UNL A   1      45.975  33.342  29.105  1.00  0.00     0.023 A 
ATOM     89  C   UNL A   1      46.358  33.718  30.406  1.00  0.00     0.012 A 
ATOM     90  C   UNL A   1      45.788  34.321  28.113  1.00  0.00     0.148 A 
ATOM     91  C   UNL A   1      46.520  35.062  30.726  1.00  0.00     0.002 A 
ATOM     92  C   UNL A   1      46.010  35.653  28.424  1.00  0.00     0.091 A 
ATOM     93  F   UNL A   1      45.405  33.928  26.889  1.00  0.00    -0.205 F 
ATOM     94  C   UNL A   1      46.361  36.027  29.731  1.00  0.00     0.022 A 
BRANCH  92  95
ATOM     95  S   UNL A   1      45.943  36.943  27.181  1.00  0.00     0.127 S 
ATOM     96  O   UNL A   1      44.508  37.025  26.916  1.00  0.00    -0.237 OA
ATOM     97  O   UNL A   1      46.501  38.090  27.898  1.00  0.00    -0.237 OA
ATOM     98  O   UNL A   1      46.757  36.474  26.067  1.00  0.00    -0.744 OA
ENDBRANCH  92  95
ENDBRANCH  65  88
ENDBRANCH  39  40
ENDBRANCH  32  34
ENDBRANCH  31  32
ENDBRANCH  30  31
ENDBRANCH   1  30
TORSDOF 17
ENDMDL
