MODEL 1
REMARK VINA RESULT:     -12.5      0.000      0.000
REMARK SMILES CCOc1ccccc1-c1cc(C(=O)OCCOC(=O)c2ccc(-c3c4nc(c(-c5cccc(S(=O)(=O)[O-])c5F)c5ccc([nH]5)c(-c5cccc(S(=O)(=O)[O-])c5F)c5nc(c(-c6cccc(S(=O)(=O)[O-])c6F)c6ccc3[nH]6)C=C5)C=C4)cc2)c2cc(C)cc(C)c2n1
REMARK SMILES IDX 16 1 15 2 13 3 14 4 12 5 10 6 11 7 92 8 91 9 84 10 89 11
REMARK SMILES IDX 85 12 88 13 90 14 86 15 87 16 9 17 4 18 5 19 6 20 8 21 7 22
REMARK SMILES IDX 3 23 2 24 1 25 17 26 18 27 19 28 20 29 21 30 22 31 83 32
REMARK SMILES IDX 23 33 82 34 24 35 25 36 26 37 76 38 27 39 81 40 75 41 77 42
REMARK SMILES IDX 28 43 80 44 74 45 73 46 29 48 61 49 41 50 60 51 42 52 45 53
REMARK SMILES IDX 59 54 78 55 43 56 44 57 58 59 79 60 46 61 30 62 31 63 39 64
REMARK SMILES IDX 32 65 34 66 40 67 33 68 35 69 36 70 37 71 38 72 62 73 63 74
REMARK SMILES IDX 71 75 64 76 66 77 72 78 65 79 67 80 68 81 69 82 70 83 47 84
REMARK SMILES IDX 48 85 56 86 49 87 51 88 57 89 50 90 52 91 53 92 54 93 55 94
REMARK H PARENT 77 47 45 58
REMARK Flexibility Score: inf
ROOT
ATOM      1  C   UNL A   1      31.701  29.806  25.558  1.00  0.00     0.275 C 
ENDROOT
BRANCH   1   2
ATOM      2  O   UNL A   1      32.816  28.947  25.886  1.00  0.00    -0.458 OA
BRANCH   2   3
ATOM      3  C   UNL A   1      32.495  27.819  26.569  1.00  0.00     0.339 C 
ATOM      4  O   UNL A   1      31.915  27.765  27.641  1.00  0.00    -0.246 OA
BRANCH   3   5
ATOM      5  C   UNL A   1      32.991  26.609  25.892  1.00  0.00     0.071 A 
ATOM      6  C   UNL A   1      34.216  25.491  24.289  1.00  0.00     0.076 A 
ATOM      7  C   UNL A   1      33.696  26.683  24.704  1.00  0.00     0.045 A 
ATOM      8  N   UNL A   1      34.698  24.700  25.282  1.00  0.00    -0.247 NA
ATOM      9  C   UNL A   1      33.798  24.405  26.226  1.00  0.00     0.075 A 
ATOM     10  C   UNL A   1      32.782  25.330  26.433  1.00  0.00     0.015 A 
ATOM     11  C   UNL A   1      33.694  23.122  26.767  1.00  0.00    -0.024 A 
ATOM     12  C   UNL A   1      31.515  24.837  26.763  1.00  0.00     0.014 A 
ATOM     13  C   UNL A   1      32.435  22.654  27.158  1.00  0.00     0.009 A 
ATOM     14  C   UNL A   1      34.839  22.155  26.752  1.00  0.00     0.047 C 
ATOM     15  C   UNL A   1      31.323  23.477  27.017  1.00  0.00    -0.050 A 
ATOM     16  C   UNL A   1      29.956  22.871  26.929  1.00  0.00     0.044 C 
BRANCH   6  17
ATOM     17  C   UNL A   1      33.538  24.599  23.262  1.00  0.00     0.042 A 
ATOM     18  C   UNL A   1      32.142  24.595  22.999  1.00  0.00     0.128 A 
ATOM     19  C   UNL A   1      31.489  23.347  22.867  1.00  0.00     0.047 A 
ATOM     20  C   UNL A   1      32.180  22.139  22.882  1.00  0.00     0.004 A 
ATOM     21  C   UNL A   1      34.235  23.374  23.062  1.00  0.00     0.014 A 
ATOM     22  C   UNL A   1      33.562  22.157  22.919  1.00  0.00     0.001 A 
BRANCH  18  23
ATOM     23  O   UNL A   1      31.201  25.565  23.162  1.00  0.00    -0.493 OA
BRANCH  23  24
ATOM     24  C   UNL A   1      29.839  25.452  23.541  1.00  0.00     0.226 C 
ATOM     25  C   UNL A   1      29.011  26.678  23.857  1.00  0.00     0.049 C 
ENDBRANCH  23  24
ENDBRANCH  18  23
ENDBRANCH   6  17
ENDBRANCH   3   5
ENDBRANCH   2   3
ENDBRANCH   1   2
BRANCH   1  26
ATOM     26  C   UNL A   1      31.775  31.128  26.325  1.00  0.00     0.275 C 
BRANCH  26  27
ATOM     27  O   UNL A   1      32.732  31.009  27.391  1.00  0.00    -0.458 OA
BRANCH  27  28
ATOM     28  C   UNL A   1      33.494  32.101  27.660  1.00  0.00     0.338 C 
ATOM     29  O   UNL A   1      33.099  33.241  27.798  1.00  0.00    -0.246 OA
BRANCH  28  30
ATOM     30  C   UNL A   1      34.904  31.688  27.879  1.00  0.00     0.060 A 
ATOM     31  C   UNL A   1      35.189  30.354  28.119  1.00  0.00     0.016 A 
ATOM     32  C   UNL A   1      35.920  32.630  28.046  1.00  0.00     0.016 A 
ATOM     33  C   UNL A   1      36.398  30.001  28.712  1.00  0.00     0.010 A 
ATOM     34  C   UNL A   1      37.202  32.227  28.477  1.00  0.00     0.010 A 
ATOM     35  C   UNL A   1      37.453  30.909  28.891  1.00  0.00    -0.014 A 
BRANCH  35  36
ATOM     36  C   UNL A   1      38.741  30.467  29.545  1.00  0.00     0.031 A 
ATOM     37  C   UNL A   1      39.646  29.412  28.917  1.00  0.00     0.074 A 
ATOM     38  C   UNL A   1      39.165  31.048  30.695  1.00  0.00     0.049 A 
ATOM     39  N   UNL A   1      40.691  28.808  29.432  1.00  0.00    -0.248 NA
ATOM     40  C   UNL A   1      39.364  28.991  27.533  1.00  0.00     0.031 C 
ATOM     41  C   UNL A   1      38.470  32.115  31.423  1.00  0.00     0.029 A 
ATOM     42  N   UNL A   1      40.284  30.820  31.469  1.00  0.00    -0.354 N 
ATOM     43  C   UNL A   1      41.142  27.906  28.471  1.00  0.00     0.074 A 
ATOM     44  C   UNL A   1      40.287  28.062  27.318  1.00  0.00     0.031 C 
ATOM     45  C   UNL A   1      39.193  32.490  32.480  1.00  0.00     0.029 A 
ATOM     46  C   UNL A   1      40.289  31.551  32.638  1.00  0.00     0.049 A 
ATOM     47  H   UNL A   1      41.004  30.199  31.214  1.00  0.00     0.167 HD
ATOM     48  C   UNL A   1      42.166  27.019  28.539  1.00  0.00     0.034 A 
ATOM     49  C   UNL A   1      40.985  31.419  33.784  1.00  0.00     0.034 A 
ATOM     50  C   UNL A   1      43.040  26.867  29.673  1.00  0.00     0.049 A 
ATOM     51  C   UNL A   1      42.005  30.333  33.897  1.00  0.00     0.074 A 
ATOM     52  C   UNL A   1      44.102  25.991  29.826  1.00  0.00     0.029 A 
ATOM     53  N   UNL A   1      42.944  27.587  30.850  1.00  0.00    -0.354 N 
ATOM     54  N   UNL A   1      42.410  29.490  32.982  1.00  0.00    -0.248 NA
ATOM     55  C   UNL A   1      42.656  30.172  35.203  1.00  0.00     0.031 C 
ATOM     56  C   UNL A   1      44.616  26.148  31.117  1.00  0.00     0.029 A 
ATOM     57  C   UNL A   1      43.902  27.149  31.750  1.00  0.00     0.049 A 
ATOM     58  H   UNL A   1      42.293  28.304  31.023  1.00  0.00     0.167 HD
ATOM     59  C   UNL A   1      43.372  28.703  33.597  1.00  0.00     0.074 A 
ATOM     60  C   UNL A   1      43.512  29.192  34.953  1.00  0.00     0.031 C 
ATOM     61  C   UNL A   1      44.059  27.654  33.088  1.00  0.00     0.034 A 
BRANCH  48  62
ATOM     62  C   UNL A   1      42.398  26.094  27.369  1.00  0.00     0.023 A 
ATOM     63  C   UNL A   1      43.218  26.497  26.297  1.00  0.00     0.012 A 
ATOM     64  C   UNL A   1      41.906  24.773  27.405  1.00  0.00     0.148 A 
ATOM     65  C   UNL A   1      43.536  25.600  25.275  1.00  0.00     0.002 A 
ATOM     66  C   UNL A   1      42.257  23.876  26.404  1.00  0.00     0.091 A 
ATOM     67  F   UNL A   1      41.115  24.417  28.428  1.00  0.00    -0.205 F 
ATOM     68  C   UNL A   1      43.068  24.290  25.335  1.00  0.00     0.022 A 
BRANCH  66  69
ATOM     69  S   UNL A   1      41.768  22.147  26.434  1.00  0.00     0.127 S 
ATOM     70  O   UNL A   1      42.203  21.742  27.770  1.00  0.00    -0.237 OA
ATOM     71  O   UNL A   1      40.317  22.236  26.268  1.00  0.00    -0.237 OA
ATOM     72  O   UNL A   1      42.471  21.509  25.331  1.00  0.00    -0.744 OA
ENDBRANCH  66  69
ENDBRANCH  48  62
BRANCH  49  73
ATOM     73  C   UNL A   1      40.623  32.267  34.959  1.00  0.00     0.023 A 
ATOM     74  C   UNL A   1      41.334  33.449  35.230  1.00  0.00     0.012 A 
ATOM     75  C   UNL A   1      39.522  31.927  35.776  1.00  0.00     0.148 A 
ATOM     76  C   UNL A   1      40.957  34.271  36.294  1.00  0.00     0.002 A 
ATOM     77  C   UNL A   1      39.101  32.792  36.775  1.00  0.00     0.091 A 
ATOM     78  F   UNL A   1      38.882  30.772  35.535  1.00  0.00    -0.205 F 
ATOM     79  C   UNL A   1      39.829  33.957  37.050  1.00  0.00     0.022 A 
BRANCH  77  80
ATOM     80  S   UNL A   1      37.551  32.540  37.647  1.00  0.00     0.127 S 
ATOM     81  O   UNL A   1      37.533  31.090  37.817  1.00  0.00    -0.237 OA
ATOM     82  O   UNL A   1      37.763  33.302  38.880  1.00  0.00    -0.237 OA
ATOM     83  O   UNL A   1      36.522  33.096  36.778  1.00  0.00    -0.744 OA
ENDBRANCH  77  80
ENDBRANCH  49  73
BRANCH  61  84
ATOM     84  C   UNL A   1      45.051  26.978  33.993  1.00  0.00     0.023 A 
ATOM     85  C   UNL A   1      46.364  27.480  34.091  1.00  0.00     0.012 A 
ATOM     86  C   UNL A   1      44.672  25.866  34.768  1.00  0.00     0.148 A 
ATOM     87  C   UNL A   1      47.298  26.859  34.918  1.00  0.00     0.002 A 
ATOM     88  C   UNL A   1      45.594  25.282  35.628  1.00  0.00     0.091 A 
ATOM     89  F   UNL A   1      43.424  25.393  34.642  1.00  0.00    -0.205 F 
ATOM     90  C   UNL A   1      46.910  25.768  35.693  1.00  0.00     0.022 A 
BRANCH  88  91
ATOM     91  S   UNL A   1      45.161  23.929  36.725  1.00  0.00     0.127 S 
ATOM     92  O   UNL A   1      46.457  23.593  37.310  1.00  0.00    -0.237 OA
ATOM     93  O   UNL A   1      44.222  24.568  37.648  1.00  0.00    -0.237 OA
ATOM     94  O   UNL A   1      44.571  22.899  35.880  1.00  0.00    -0.744 OA
ENDBRANCH  88  91
ENDBRANCH  61  84
ENDBRANCH  35  36
ENDBRANCH  28  30
ENDBRANCH  27  28
ENDBRANCH  26  27
ENDBRANCH   1  26
TORSDOF 17
ENDMDL
MODEL 2
REMARK VINA RESULT:     -12.1      4.832      9.825
REMARK SMILES CCOc1ccccc1-c1cc(C(=O)OCCOC(=O)c2ccc(-c3c4nc(c(-c5cccc(S(=O)(=O)[O-])c5F)c5ccc([nH]5)c(-c5cccc(S(=O)(=O)[O-])c5F)c5nc(c(-c6cccc(S(=O)(=O)[O-])c6F)c6ccc3[nH]6)C=C5)C=C4)cc2)c2cc(C)cc(C)c2n1
REMARK SMILES IDX 16 1 15 2 13 3 14 4 12 5 10 6 11 7 92 8 91 9 84 10 89 11
REMARK SMILES IDX 85 12 88 13 90 14 86 15 87 16 9 17 4 18 5 19 6 20 8 21 7 22
REMARK SMILES IDX 3 23 2 24 1 25 17 26 18 27 19 28 20 29 21 30 22 31 83 32
REMARK SMILES IDX 23 33 82 34 24 35 25 36 26 37 76 38 27 39 81 40 75 41 77 42
REMARK SMILES IDX 28 43 80 44 74 45 73 46 29 48 61 49 41 50 60 51 42 52 45 53
REMARK SMILES IDX 59 54 78 55 43 56 44 57 58 59 79 60 46 61 30 62 31 63 39 64
REMARK SMILES IDX 32 65 34 66 40 67 33 68 35 69 36 70 37 71 38 72 62 73 63 74
REMARK SMILES IDX 71 75 64 76 66 77 72 78 65 79 67 80 68 81 69 82 70 83 47 84
REMARK SMILES IDX 48 85 56 86 49 87 51 88 57 89 50 90 52 91 53 92 54 93 55 94
REMARK H PARENT 77 47 45 58
REMARK Flexibility Score: inf
ROOT
ATOM      1  C   UNL A   1      36.129  21.032  25.018  1.00  0.00     0.275 C 
ENDROOT
BRANCH   1   2
ATOM      2  O   UNL A   1      36.158  22.461  25.232  1.00  0.00    -0.458 OA
BRANCH   2   3
ATOM      3  C   UNL A   1      35.716  23.211  24.192  1.00  0.00     0.339 C 
ATOM      4  O   UNL A   1      36.117  23.156  23.040  1.00  0.00    -0.246 OA
BRANCH   3   5
ATOM      5  C   UNL A   1      34.700  24.190  24.613  1.00  0.00     0.071 A 
ATOM      6  C   UNL A   1      33.280  25.165  26.147  1.00  0.00     0.076 A 
ATOM      7  C   UNL A   1      34.079  24.100  25.846  1.00  0.00     0.045 A 
ATOM      8  N   UNL A   1      33.760  26.371  25.748  1.00  0.00    -0.247 NA
ATOM      9  C   UNL A   1      34.007  26.450  24.436  1.00  0.00     0.075 A 
ATOM     10  C   UNL A   1      34.331  25.264  23.788  1.00  0.00     0.015 A 
ATOM     11  C   UNL A   1      33.671  27.582  23.691  1.00  0.00    -0.024 A 
ATOM     12  C   UNL A   1      33.878  25.099  22.475  1.00  0.00     0.014 A 
ATOM     13  C   UNL A   1      33.281  27.422  22.358  1.00  0.00     0.009 A 
ATOM     14  C   UNL A   1      33.514  28.933  24.321  1.00  0.00     0.047 C 
ATOM     15  C   UNL A   1      33.252  26.149  21.799  1.00  0.00    -0.050 A 
ATOM     16  C   UNL A   1      32.383  25.879  20.609  1.00  0.00     0.044 C 
BRANCH   6  17
ATOM     17  C   UNL A   1      31.775  25.163  25.937  1.00  0.00     0.042 A 
ATOM     18  C   UNL A   1      31.076  24.214  25.143  1.00  0.00     0.128 A 
ATOM     19  C   UNL A   1      30.075  24.685  24.261  1.00  0.00     0.047 A 
ATOM     20  C   UNL A   1      29.684  26.021  24.223  1.00  0.00     0.004 A 
ATOM     21  C   UNL A   1      31.211  26.468  26.024  1.00  0.00     0.014 A 
ATOM     22  C   UNL A   1      30.212  26.901  25.149  1.00  0.00     0.001 A 
BRANCH  18  23
ATOM     23  O   UNL A   1      31.388  22.933  24.805  1.00  0.00    -0.493 OA
BRANCH  23  24
ATOM     24  C   UNL A   1      31.848  22.408  23.569  1.00  0.00     0.226 C 
ATOM     25  C   UNL A   1      32.539  21.064  23.500  1.00  0.00     0.049 C 
ENDBRANCH  23  24
ENDBRANCH  18  23
ENDBRANCH   6  17
ENDBRANCH   3   5
ENDBRANCH   2   3
ENDBRANCH   1   2
BRANCH   1  26
ATOM     26  C   UNL A   1      37.541  20.444  25.001  1.00  0.00     0.275 C 
BRANCH  26  27
ATOM     27  O   UNL A   1      38.497  21.493  25.224  1.00  0.00    -0.458 OA
BRANCH  27  28
ATOM     28  C   UNL A   1      39.539  21.211  26.050  1.00  0.00     0.338 C 
ATOM     29  O   UNL A   1      40.178  20.179  26.079  1.00  0.00    -0.246 OA
BRANCH  28  30
ATOM     30  C   UNL A   1      39.875  22.409  26.862  1.00  0.00     0.060 A 
ATOM     31  C   UNL A   1      39.298  23.627  26.542  1.00  0.00     0.016 A 
ATOM     32  C   UNL A   1      40.901  22.382  27.808  1.00  0.00     0.016 A 
ATOM     33  C   UNL A   1      39.876  24.808  27.001  1.00  0.00     0.010 A 
ATOM     34  C   UNL A   1      41.354  23.579  28.402  1.00  0.00     0.010 A 
ATOM     35  C   UNL A   1      40.902  24.832  27.958  1.00  0.00    -0.014 A 
BRANCH  35  36
ATOM     36  C   UNL A   1      41.492  26.145  28.415  1.00  0.00     0.031 A 
ATOM     37  C   UNL A   1      40.647  27.220  29.090  1.00  0.00     0.074 A 
ATOM     38  C   UNL A   1      42.821  26.384  28.290  1.00  0.00     0.049 A 
ATOM     39  N   UNL A   1      40.967  28.458  29.385  1.00  0.00    -0.248 NA
ATOM     40  C   UNL A   1      39.278  26.866  29.508  1.00  0.00     0.031 C 
ATOM     41  C   UNL A   1      43.808  25.460  27.721  1.00  0.00     0.029 A 
ATOM     42  N   UNL A   1      43.582  27.486  28.624  1.00  0.00    -0.354 N 
ATOM     43  C   UNL A   1      39.835  29.036  29.956  1.00  0.00     0.074 A 
ATOM     44  C   UNL A   1      38.823  28.008  30.008  1.00  0.00     0.031 C 
ATOM     45  C   UNL A   1      45.029  25.992  27.804  1.00  0.00     0.029 A 
ATOM     46  C   UNL A   1      44.896  27.375  28.223  1.00  0.00     0.049 A 
ATOM     47  H   UNL A   1      43.223  28.270  29.099  1.00  0.00     0.167 HD
ATOM     48  C   UNL A   1      39.645  30.308  30.388  1.00  0.00     0.034 A 
ATOM     49  C   UNL A   1      45.872  28.290  28.062  1.00  0.00     0.034 A 
ATOM     50  C   UNL A   1      40.651  31.337  30.362  1.00  0.00     0.049 A 
ATOM     51  C   UNL A   1      45.596  29.719  28.398  1.00  0.00     0.074 A 
ATOM     52  C   UNL A   1      40.542  32.654  30.780  1.00  0.00     0.029 A 
ATOM     53  N   UNL A   1      41.936  31.178  29.877  1.00  0.00    -0.354 N 
ATOM     54  N   UNL A   1      44.521  30.243  28.929  1.00  0.00    -0.248 NA
ATOM     55  C   UNL A   1      46.662  30.685  28.105  1.00  0.00     0.031 C 
ATOM     56  C   UNL A   1      41.748  33.303  30.499  1.00  0.00     0.029 A 
ATOM     57  C   UNL A   1      42.619  32.382  29.947  1.00  0.00     0.049 A 
ATOM     58  H   UNL A   1      42.310  30.336  29.532  1.00  0.00     0.167 HD
ATOM     59  C   UNL A   1      44.782  31.600  29.043  1.00  0.00     0.074 A 
ATOM     60  C   UNL A   1      46.130  31.811  28.558  1.00  0.00     0.031 C 
ATOM     61  C   UNL A   1      43.967  32.585  29.490  1.00  0.00     0.034 A 
BRANCH  48  62
ATOM     62  C   UNL A   1      38.281  30.699  30.903  1.00  0.00     0.023 A 
ATOM     63  C   UNL A   1      37.954  30.514  32.261  1.00  0.00     0.012 A 
ATOM     64  C   UNL A   1      37.374  31.373  30.059  1.00  0.00     0.148 A 
ATOM     65  C   UNL A   1      36.742  30.988  32.767  1.00  0.00     0.002 A 
ATOM     66  C   UNL A   1      36.187  31.874  30.578  1.00  0.00     0.091 A 
ATOM     67  F   UNL A   1      37.701  31.524  28.767  1.00  0.00    -0.205 F 
ATOM     68  C   UNL A   1      35.867  31.678  31.931  1.00  0.00     0.022 A 
BRANCH  66  69
ATOM     69  S   UNL A   1      35.032  32.842  29.599  1.00  0.00     0.127 S 
ATOM     70  O   UNL A   1      35.912  33.863  29.031  1.00  0.00    -0.237 OA
ATOM     71  O   UNL A   1      34.543  31.856  28.637  1.00  0.00    -0.237 OA
ATOM     72  O   UNL A   1      34.029  33.337  30.531  1.00  0.00    -0.744 OA
ENDBRANCH  66  69
ENDBRANCH  48  62
BRANCH  49  73
ATOM     73  C   UNL A   1      47.158  27.880  27.421  1.00  0.00     0.023 A 
ATOM     74  C   UNL A   1      48.247  27.470  28.208  1.00  0.00     0.012 A 
ATOM     75  C   UNL A   1      47.274  27.838  26.014  1.00  0.00     0.148 A 
ATOM     76  C   UNL A   1      49.428  27.031  27.605  1.00  0.00     0.002 A 
ATOM     77  C   UNL A   1      48.416  27.319  25.423  1.00  0.00     0.091 A 
ATOM     78  F   UNL A   1      46.243  28.277  25.275  1.00  0.00    -0.205 F 
ATOM     79  C   UNL A   1      49.505  26.932  26.216  1.00  0.00     0.022 A 
BRANCH  77  80
ATOM     80  S   UNL A   1      48.498  26.987  23.660  1.00  0.00     0.127 S 
ATOM     81  O   UNL A   1      47.903  25.656  23.576  1.00  0.00    -0.237 OA
ATOM     82  O   UNL A   1      47.677  28.065  23.105  1.00  0.00    -0.237 OA
ATOM     83  O   UNL A   1      49.910  27.081  23.313  1.00  0.00    -0.744 OA
ENDBRANCH  77  80
ENDBRANCH  49  73
BRANCH  61  84
ATOM     84  C   UNL A   1      44.522  33.982  29.501  1.00  0.00     0.023 A 
ATOM     85  C   UNL A   1      45.134  34.482  30.668  1.00  0.00     0.012 A 
ATOM     86  C   UNL A   1      44.462  34.787  28.348  1.00  0.00     0.148 A 
ATOM     87  C   UNL A   1      45.644  35.778  30.698  1.00  0.00     0.002 A 
ATOM     88  C   UNL A   1      45.017  36.060  28.370  1.00  0.00     0.091 A 
ATOM     89  F   UNL A   1      43.857  34.297  27.257  1.00  0.00    -0.205 F 
ATOM     90  C   UNL A   1      45.594  36.562  29.547  1.00  0.00     0.022 A 
BRANCH  88  91
ATOM     91  S   UNL A   1      45.076  37.107  26.913  1.00  0.00     0.127 S 
ATOM     92  O   UNL A   1      45.908  38.215  27.376  1.00  0.00    -0.237 OA
ATOM     93  O   UNL A   1      45.715  36.233  25.929  1.00  0.00    -0.237 OA
ATOM     94  O   UNL A   1      43.693  37.450  26.608  1.00  0.00    -0.744 OA
ENDBRANCH  88  91
ENDBRANCH  61  84
ENDBRANCH  35  36
ENDBRANCH  28  30
ENDBRANCH  27  28
ENDBRANCH  26  27
ENDBRANCH   1  26
TORSDOF 17
ENDMDL
MODEL 3
REMARK VINA RESULT:     -12.0      1.583      2.619
REMARK SMILES CCOc1ccccc1-c1cc(C(=O)OCCOC(=O)c2ccc(-c3c4nc(c(-c5cccc(S(=O)(=O)[O-])c5F)c5ccc([nH]5)c(-c5cccc(S(=O)(=O)[O-])c5F)c5nc(c(-c6cccc(S(=O)(=O)[O-])c6F)c6ccc3[nH]6)C=C5)C=C4)cc2)c2cc(C)cc(C)c2n1
REMARK SMILES IDX 16 1 15 2 13 3 14 4 12 5 10 6 11 7 92 8 91 9 84 10 89 11
REMARK SMILES IDX 85 12 88 13 90 14 86 15 87 16 9 17 4 18 5 19 6 20 8 21 7 22
REMARK SMILES IDX 3 23 2 24 1 25 17 26 18 27 19 28 20 29 21 30 22 31 83 32
REMARK SMILES IDX 23 33 82 34 24 35 25 36 26 37 76 38 27 39 81 40 75 41 77 42
REMARK SMILES IDX 28 43 80 44 74 45 73 46 29 48 61 49 41 50 60 51 42 52 45 53
REMARK SMILES IDX 59 54 78 55 43 56 44 57 58 59 79 60 46 61 30 62 31 63 39 64
REMARK SMILES IDX 32 65 34 66 40 67 33 68 35 69 36 70 37 71 38 72 62 73 63 74
REMARK SMILES IDX 71 75 64 76 66 77 72 78 65 79 67 80 68 81 69 82 70 83 47 84
REMARK SMILES IDX 48 85 56 86 49 87 51 88 57 89 50 90 52 91 53 92 54 93 55 94
REMARK H PARENT 77 47 45 58
REMARK Flexibility Score: inf
ROOT
ATOM      1  C   UNL A   1      31.087  27.606  25.914  1.00  0.00     0.275 C 
ENDROOT
BRANCH   1   2
ATOM      2  O   UNL A   1      30.743  26.391  26.619  1.00  0.00    -0.458 OA
BRANCH   2   3
ATOM      3  C   UNL A   1      30.454  25.327  25.829  1.00  0.00     0.339 C 
ATOM      4  O   UNL A   1      29.443  25.177  25.162  1.00  0.00    -0.246 OA
BRANCH   3   5
ATOM      5  C   UNL A   1      31.496  24.289  25.903  1.00  0.00     0.071 A 
ATOM      6  C   UNL A   1      33.135  23.078  26.984  1.00  0.00     0.076 A 
ATOM      7  C   UNL A   1      32.331  24.182  27.001  1.00  0.00     0.045 A 
ATOM      8  N   UNL A   1      32.552  21.953  26.499  1.00  0.00    -0.247 NA
ATOM      9  C   UNL A   1      32.072  22.082  25.257  1.00  0.00     0.075 A 
ATOM     10  C   UNL A   1      31.676  23.356  24.870  1.00  0.00     0.015 A 
ATOM     11  C   UNL A   1      32.231  21.079  24.299  1.00  0.00    -0.024 A 
ATOM     12  C   UNL A   1      31.891  23.723  23.537  1.00  0.00     0.014 A 
ATOM     13  C   UNL A   1      32.381  21.445  22.957  1.00  0.00     0.009 A 
ATOM     14  C   UNL A   1      32.454  19.645  24.674  1.00  0.00     0.047 C 
ATOM     15  C   UNL A   1      32.351  22.790  22.605  1.00  0.00    -0.050 A 
ATOM     16  C   UNL A   1      33.001  23.239  21.332  1.00  0.00     0.044 C 
BRANCH   6  17
ATOM     17  C   UNL A   1      34.578  23.107  26.506  1.00  0.00     0.042 A 
ATOM     18  C   UNL A   1      35.107  24.070  25.605  1.00  0.00     0.128 A 
ATOM     19  C   UNL A   1      35.940  23.620  24.555  1.00  0.00     0.047 A 
ATOM     20  C   UNL A   1      36.339  22.291  24.438  1.00  0.00     0.004 A 
ATOM     21  C   UNL A   1      35.168  21.812  26.482  1.00  0.00     0.014 A 
ATOM     22  C   UNL A   1      36.001  21.398  25.438  1.00  0.00     0.001 A 
BRANCH  18  23
ATOM     23  O   UNL A   1      34.719  25.348  25.338  1.00  0.00    -0.493 OA
BRANCH  23  24
ATOM     24  C   UNL A   1      34.166  25.897  24.153  1.00  0.00     0.226 C 
ATOM     25  C   UNL A   1      33.943  27.387  24.012  1.00  0.00     0.049 C 
ENDBRANCH  23  24
ENDBRANCH  18  23
ENDBRANCH   6  17
ENDBRANCH   3   5
ENDBRANCH   2   3
ENDBRANCH   1   2
BRANCH   1  26
ATOM     26  C   UNL A   1      31.549  28.697  26.882  1.00  0.00     0.275 C 
BRANCH  26  27
ATOM     27  O   UNL A   1      32.499  29.548  26.223  1.00  0.00    -0.458 OA
BRANCH  27  28
ATOM     28  C   UNL A   1      32.863  30.685  26.872  1.00  0.00     0.338 C 
ATOM     29  O   UNL A   1      32.130  31.595  27.202  1.00  0.00    -0.246 OA
BRANCH  28  30
ATOM     30  C   UNL A   1      34.302  30.616  27.237  1.00  0.00     0.060 A 
ATOM     31  C   UNL A   1      34.940  29.387  27.245  1.00  0.00     0.016 A 
ATOM     32  C   UNL A   1      34.973  31.723  27.761  1.00  0.00     0.016 A 
ATOM     33  C   UNL A   1      36.132  29.231  27.948  1.00  0.00     0.010 A 
ATOM     34  C   UNL A   1      36.265  31.579  28.310  1.00  0.00     0.010 A 
ATOM     35  C   UNL A   1      36.848  30.313  28.483  1.00  0.00    -0.014 A 
BRANCH  35  36
ATOM     36  C   UNL A   1      38.134  30.080  29.240  1.00  0.00     0.031 A 
ATOM     37  C   UNL A   1      39.245  29.190  28.692  1.00  0.00     0.074 A 
ATOM     38  C   UNL A   1      38.366  30.713  30.416  1.00  0.00     0.049 A 
ATOM     39  N   UNL A   1      40.329  28.758  29.293  1.00  0.00    -0.248 NA
ATOM     40  C   UNL A   1      39.146  28.738  27.292  1.00  0.00     0.031 C 
ATOM     41  C   UNL A   1      37.452  31.648  31.081  1.00  0.00     0.029 A 
ATOM     42  N   UNL A   1      39.442  30.663  31.279  1.00  0.00    -0.354 N 
ATOM     43  C   UNL A   1      40.995  27.948  28.375  1.00  0.00     0.074 A 
ATOM     44  C   UNL A   1      40.220  27.972  27.157  1.00  0.00     0.031 C 
ATOM     45  C   UNL A   1      38.019  32.127  32.190  1.00  0.00     0.029 A 
ATOM     46  C   UNL A   1      39.236  31.377  32.440  1.00  0.00     0.049 A 
ATOM     47  H   UNL A   1      40.270  30.168  31.085  1.00  0.00     0.167 HD
ATOM     48  C   UNL A   1      42.140  27.236  28.530  1.00  0.00     0.034 A 
ATOM     49  C   UNL A   1      39.850  31.350  33.639  1.00  0.00     0.034 A 
ATOM     50  C   UNL A   1      42.934  27.219  29.731  1.00  0.00     0.049 A 
ATOM     51  C   UNL A   1      41.019  30.442  33.840  1.00  0.00     0.074 A 
ATOM     52  C   UNL A   1      44.108  26.525  29.974  1.00  0.00     0.029 A 
ATOM     53  N   UNL A   1      42.630  27.906  30.893  1.00  0.00    -0.354 N 
ATOM     54  N   UNL A   1      41.627  29.683  32.965  1.00  0.00    -0.248 NA
ATOM     55  C   UNL A   1      41.582  30.379  35.194  1.00  0.00     0.031 C 
ATOM     56  C   UNL A   1      44.485  26.753  31.301  1.00  0.00     0.029 A 
ATOM     57  C   UNL A   1      43.571  27.622  31.869  1.00  0.00     0.049 A 
ATOM     58  H   UNL A   1      41.859  28.507  31.009  1.00  0.00     0.167 HD
ATOM     59  C   UNL A   1      42.651  29.056  33.659  1.00  0.00     0.074 A 
ATOM     60  C   UNL A   1      42.602  29.551  35.018  1.00  0.00     0.031 C 
ATOM     61  C   UNL A   1      43.538  28.135  33.212  1.00  0.00     0.034 A 
BRANCH  48  62
ATOM     62  C   UNL A   1      42.611  26.370  27.388  1.00  0.00     0.023 A 
ATOM     63  C   UNL A   1      43.580  26.850  26.485  1.00  0.00     0.012 A 
ATOM     64  C   UNL A   1      42.184  25.029  27.296  1.00  0.00     0.148 A 
ATOM     65  C   UNL A   1      44.109  26.008  25.504  1.00  0.00     0.002 A 
ATOM     66  C   UNL A   1      42.742  24.189  26.342  1.00  0.00     0.091 A 
ATOM     67  F   UNL A   1      41.250  24.599  28.157  1.00  0.00    -0.205 F 
ATOM     68  C   UNL A   1      43.701  24.678  25.440  1.00  0.00     0.022 A 
BRANCH  66  69
ATOM     69  S   UNL A   1      42.338  22.441  26.231  1.00  0.00     0.127 S 
ATOM     70  O   UNL A   1      40.888  22.486  26.048  1.00  0.00    -0.237 OA
ATOM     71  O   UNL A   1      43.088  22.026  25.046  1.00  0.00    -0.237 OA
ATOM     72  O   UNL A   1      42.788  21.843  27.479  1.00  0.00    -0.744 OA
ENDBRANCH  66  69
ENDBRANCH  48  62
BRANCH  49  73
ATOM     73  C   UNL A   1      39.263  32.121  34.777  1.00  0.00     0.023 A 
ATOM     74  C   UNL A   1      38.305  31.530  35.618  1.00  0.00     0.012 A 
ATOM     75  C   UNL A   1      39.710  33.430  35.059  1.00  0.00     0.148 A 
ATOM     76  C   UNL A   1      37.802  32.231  36.716  1.00  0.00     0.002 A 
ATOM     77  C   UNL A   1      39.271  34.086  36.200  1.00  0.00     0.091 A 
ATOM     78  F   UNL A   1      40.590  33.999  34.221  1.00  0.00    -0.205 F 
ATOM     79  C   UNL A   1      38.300  33.497  37.021  1.00  0.00     0.022 A 
BRANCH  77  80
ATOM     80  S   UNL A   1      40.017  35.626  36.748  1.00  0.00     0.127 S 
ATOM     81  O   UNL A   1      41.431  35.266  36.820  1.00  0.00    -0.237 OA
ATOM     82  O   UNL A   1      39.669  36.541  35.659  1.00  0.00    -0.237 OA
ATOM     83  O   UNL A   1      39.370  35.940  38.014  1.00  0.00    -0.744 OA
ENDBRANCH  77  80
ENDBRANCH  49  73
BRANCH  61  84
ATOM     84  C   UNL A   1      44.549  27.622  34.197  1.00  0.00     0.023 A 
ATOM     85  C   UNL A   1      45.786  28.283  34.339  1.00  0.00     0.012 A 
ATOM     86  C   UNL A   1      44.263  26.503  35.002  1.00  0.00     0.148 A 
ATOM     87  C   UNL A   1      46.738  27.814  35.241  1.00  0.00     0.002 A 
ATOM     88  C   UNL A   1      45.197  26.071  35.935  1.00  0.00     0.091 A 
ATOM     89  F   UNL A   1      43.089  25.878  34.835  1.00  0.00    -0.205 F 
ATOM     90  C   UNL A   1      46.440  26.716  36.045  1.00  0.00     0.022 A 
BRANCH  88  91
ATOM     91  S   UNL A   1      44.867  24.720  37.070  1.00  0.00     0.127 S 
ATOM     92  O   UNL A   1      43.734  25.240  37.832  1.00  0.00    -0.237 OA
ATOM     93  O   UNL A   1      44.539  23.623  36.158  1.00  0.00    -0.237 OA
ATOM     94  O   UNL A   1      46.094  24.525  37.831  1.00  0.00    -0.744 OA
ENDBRANCH  88  91
ENDBRANCH  61  84
ENDBRANCH  35  36
ENDBRANCH  28  30
ENDBRANCH  27  28
ENDBRANCH  26  27
ENDBRANCH   1  26
TORSDOF 17
ENDMDL
