MODEL 1
REMARK VINA RESULT:     -10.5      0.000      0.000
REMARK SMILES C[C@H](C(=O)OCCOC(=O)c1ccc(-c2c3nc(c(-c4cccc(S(=O)(=O)[O-])c4F)c4ccc([nH]4)c(-c4cccc(S(=O)(=O)[O-])c4F)c4nc(c(-c5cccc(S(=O)(=O)[O-])c5F)c5ccc2[nH]5)C=C4)C=C3)cc1)[C@@H](C)[N@@H+](C)C[C@H]1C[C@H](O)C1
REMARK SMILES IDX 6 1 5 2 3 3 4 4 2 5 1 6 74 7 75 8 76 9 77 10 78 12 79 13
REMARK SMILES IDX 83 14 80 15 81 16 82 17 7 19 8 20 9 21 10 22 11 23 12 24
REMARK SMILES IDX 73 25 13 26 72 27 14 28 15 29 16 30 66 31 17 32 71 33 65 34
REMARK SMILES IDX 67 35 18 36 70 37 64 38 63 39 19 41 51 42 31 43 50 44 32 45
REMARK SMILES IDX 35 46 49 47 68 48 33 49 34 50 48 52 69 53 36 54 20 55 21 56
REMARK SMILES IDX 29 57 22 58 24 59 30 60 23 61 25 62 26 63 27 64 28 65 52 66
REMARK SMILES IDX 53 67 61 68 54 69 56 70 62 71 55 72 57 73 58 74 59 75 60 76
REMARK SMILES IDX 37 77 38 78 46 79 39 80 41 81 47 82 40 83 42 84 43 85 44 86
REMARK SMILES IDX 45 87
REMARK H PARENT 76 11 82 18 67 40 35 51
REMARK Flexibility Score: inf
ROOT
ATOM      1  C   UNL A   1      31.692  28.182  27.386  1.00  0.00     0.274 C 
ENDROOT
BRANCH   1   2
ATOM      2  O   UNL A   1      32.656  27.383  26.667  1.00  0.00    -0.462 OA
BRANCH   2   3
ATOM      3  C   UNL A   1      32.172  26.216  26.168  1.00  0.00     0.314 C 
ATOM      4  O   UNL A   1      31.472  25.428  26.795  1.00  0.00    -0.252 OA
BRANCH   3   5
ATOM      5  C   UNL A   1      32.586  25.945  24.737  1.00  0.00     0.154 C 
ATOM      6  C   UNL A   1      33.338  27.131  24.127  1.00  0.00     0.026 C 
BRANCH   5   7
ATOM      7  C   UNL A   1      33.345  24.618  24.479  1.00  0.00     0.194 C 
ATOM      8  C   UNL A   1      34.489  24.238  25.436  1.00  0.00     0.076 C 
BRANCH   7   9
ATOM      9  N   UNL A   1      32.397  23.498  24.237  1.00  0.00    -0.334 N 
ATOM     10  C   UNL A   1      31.147  23.893  23.604  1.00  0.00     0.332 C 
ATOM     11  H   UNL A   1      32.188  23.261  25.206  1.00  0.00     0.348 HD
BRANCH   9  12
ATOM     12  C   UNL A   1      32.914  22.200  23.761  1.00  0.00     0.265 C 
BRANCH  12  13
ATOM     13  C   UNL A   1      32.695  21.001  24.684  1.00  0.00     0.049 C 
ATOM     14  C   UNL A   1      34.003  20.367  25.246  1.00  0.00     0.041 C 
ATOM     15  C   UNL A   1      32.401  19.579  24.096  1.00  0.00     0.041 C 
ATOM     16  C   UNL A   1      33.286  18.997  25.217  1.00  0.00     0.115 C 
BRANCH  16  17
ATOM     17  O   UNL A   1      32.611  18.593  26.426  1.00  0.00    -0.393 OA
ATOM     18  H   UNL A   1      33.233  18.122  27.002  1.00  0.00     0.210 HD
ENDBRANCH  16  17
ENDBRANCH  12  13
ENDBRANCH   9  12
ENDBRANCH   7   9
ENDBRANCH   5   7
ENDBRANCH   3   5
ENDBRANCH   2   3
ENDBRANCH   1   2
BRANCH   1  19
ATOM     19  C   UNL A   1      31.552  29.566  26.767  1.00  0.00     0.275 C 
BRANCH  19  20
ATOM     20  O   UNL A   1      32.840  30.046  26.354  1.00  0.00    -0.458 OA
BRANCH  20  21
ATOM     21  C   UNL A   1      33.293  31.121  27.034  1.00  0.00     0.338 C 
ATOM     22  O   UNL A   1      32.696  32.167  27.253  1.00  0.00    -0.246 OA
BRANCH  21  23
ATOM     23  C   UNL A   1      34.652  30.867  27.526  1.00  0.00     0.060 A 
ATOM     24  C   UNL A   1      35.079  29.558  27.739  1.00  0.00     0.016 A 
ATOM     25  C   UNL A   1      35.447  31.942  27.918  1.00  0.00     0.016 A 
ATOM     26  C   UNL A   1      36.248  29.318  28.458  1.00  0.00     0.010 A 
ATOM     27  C   UNL A   1      36.676  31.695  28.534  1.00  0.00     0.010 A 
ATOM     28  C   UNL A   1      37.068  30.383  28.856  1.00  0.00    -0.014 A 
BRANCH  28  29
ATOM     29  C   UNL A   1      38.323  30.148  29.624  1.00  0.00     0.031 A 
ATOM     30  C   UNL A   1      39.398  29.256  29.055  1.00  0.00     0.074 A 
ATOM     31  C   UNL A   1      38.483  30.690  30.847  1.00  0.00     0.049 A 
ATOM     32  N   UNL A   1      40.446  28.744  29.648  1.00  0.00    -0.248 NA
ATOM     33  C   UNL A   1      39.267  28.872  27.640  1.00  0.00     0.031 C 
ATOM     34  C   UNL A   1      37.530  31.581  31.512  1.00  0.00     0.029 A 
ATOM     35  N   UNL A   1      39.498  30.552  31.762  1.00  0.00    -0.354 N 
ATOM     36  C   UNL A   1      41.045  27.911  28.711  1.00  0.00     0.074 A 
ATOM     37  C   UNL A   1      40.257  28.001  27.500  1.00  0.00     0.031 C 
ATOM     38  C   UNL A   1      38.009  31.921  32.717  1.00  0.00     0.029 A 
ATOM     39  C   UNL A   1      39.261  31.210  32.946  1.00  0.00     0.049 A 
ATOM     40  H   UNL A   1      40.315  30.031  31.587  1.00  0.00     0.167 HD
ATOM     41  C   UNL A   1      42.155  27.147  28.844  1.00  0.00     0.034 A 
ATOM     42  C   UNL A   1      39.948  31.210  34.105  1.00  0.00     0.034 A 
ATOM     43  C   UNL A   1      42.989  27.134  30.016  1.00  0.00     0.049 A 
ATOM     44  C   UNL A   1      41.195  30.380  34.216  1.00  0.00     0.074 A 
ATOM     45  C   UNL A   1      44.166  26.438  30.227  1.00  0.00     0.029 A 
ATOM     46  N   UNL A   1      42.746  27.866  31.167  1.00  0.00    -0.354 N 
ATOM     47  N   UNL A   1      41.770  29.632  33.305  1.00  0.00    -0.248 NA
ATOM     48  C   UNL A   1      41.891  30.396  35.510  1.00  0.00     0.031 C 
ATOM     49  C   UNL A   1      44.636  26.751  31.508  1.00  0.00     0.029 A 
ATOM     50  C   UNL A   1      43.752  27.643  32.092  1.00  0.00     0.049 A 
ATOM     51  H   UNL A   1      41.971  28.458  31.307  1.00  0.00     0.167 HD
ATOM     52  C   UNL A   1      42.903  29.102  33.909  1.00  0.00     0.074 A 
ATOM     53  C   UNL A   1      42.948  29.637  35.254  1.00  0.00     0.031 C 
ATOM     54  C   UNL A   1      43.810  28.230  33.406  1.00  0.00     0.034 A 
BRANCH  41  55
ATOM     55  C   UNL A   1      42.559  26.282  27.679  1.00  0.00     0.023 A 
ATOM     56  C   UNL A   1      43.459  26.781  26.719  1.00  0.00     0.012 A 
ATOM     57  C   UNL A   1      42.095  24.956  27.571  1.00  0.00     0.148 A 
ATOM     58  C   UNL A   1      43.875  25.980  25.654  1.00  0.00     0.002 A 
ATOM     59  C   UNL A   1      42.541  24.153  26.527  1.00  0.00     0.091 A 
ATOM     60  F   UNL A   1      41.217  24.508  28.479  1.00  0.00    -0.205 F 
ATOM     61  C   UNL A   1      43.426  24.665  25.565  1.00  0.00     0.022 A 
BRANCH  59  62
ATOM     62  S   UNL A   1      42.068  22.425  26.376  1.00  0.00     0.127 S 
ATOM     63  O   UNL A   1      42.742  22.042  25.136  1.00  0.00    -0.237 OA
ATOM     64  O   UNL A   1      42.641  21.836  27.586  1.00  0.00    -0.237 OA
ATOM     65  O   UNL A   1      40.613  22.417  26.333  1.00  0.00    -0.744 OA
ENDBRANCH  59  62
ENDBRANCH  41  55
BRANCH  42  66
ATOM     66  C   UNL A   1      39.476  32.052  35.242  1.00  0.00     0.023 A 
ATOM     67  C   UNL A   1      38.661  31.472  36.232  1.00  0.00     0.012 A 
ATOM     68  C   UNL A   1      39.876  33.395  35.382  1.00  0.00     0.148 A 
ATOM     69  C   UNL A   1      38.243  32.217  37.335  1.00  0.00     0.002 A 
ATOM     70  C   UNL A   1      39.507  34.113  36.513  1.00  0.00     0.091 A 
ATOM     71  F   UNL A   1      40.629  33.941  34.415  1.00  0.00    -0.205 F 
ATOM     72  C   UNL A   1      38.679  33.531  37.485  1.00  0.00     0.022 A 
BRANCH  70  73
ATOM     73  S   UNL A   1      40.157  35.755  36.843  1.00  0.00     0.127 S 
ATOM     74  O   UNL A   1      39.610  36.526  35.732  1.00  0.00    -0.237 OA
ATOM     75  O   UNL A   1      39.575  36.062  38.152  1.00  0.00    -0.237 OA
ATOM     76  O   UNL A   1      41.606  35.595  36.863  1.00  0.00    -0.744 OA
ENDBRANCH  70  73
ENDBRANCH  42  66
BRANCH  54  77
ATOM     77  C   UNL A   1      44.939  27.809  34.305  1.00  0.00     0.023 A 
ATOM     78  C   UNL A   1      46.111  28.588  34.351  1.00  0.00     0.012 A 
ATOM     79  C   UNL A   1      44.814  26.691  35.152  1.00  0.00     0.148 A 
ATOM     80  C   UNL A   1      47.153  28.247  35.211  1.00  0.00     0.002 A 
ATOM     81  C   UNL A   1      45.842  26.380  36.034  1.00  0.00     0.091 A 
ATOM     82  F   UNL A   1      43.699  25.949  35.075  1.00  0.00    -0.205 F 
ATOM     83  C   UNL A   1      47.014  27.151  36.060  1.00  0.00     0.022 A 
BRANCH  81  84
ATOM     84  S   UNL A   1      45.703  25.034  37.216  1.00  0.00     0.127 S 
ATOM     85  O   UNL A   1      47.106  24.713  37.470  1.00  0.00    -0.237 OA
ATOM     86  O   UNL A   1      45.010  25.668  38.339  1.00  0.00    -0.237 OA
ATOM     87  O   UNL A   1      44.929  23.999  36.544  1.00  0.00    -0.744 OA
ENDBRANCH  81  84
ENDBRANCH  54  77
ENDBRANCH  28  29
ENDBRANCH  21  23
ENDBRANCH  20  21
ENDBRANCH  19  20
ENDBRANCH   1  19
TORSDOF 19
ENDMDL
MODEL 2
REMARK VINA RESULT:     -10.5      5.362     10.137
REMARK SMILES C[C@H](C(=O)OCCOC(=O)c1ccc(-c2c3nc(c(-c4cccc(S(=O)(=O)[O-])c4F)c4ccc([nH]4)c(-c4cccc(S(=O)(=O)[O-])c4F)c4nc(c(-c5cccc(S(=O)(=O)[O-])c5F)c5ccc2[nH]5)C=C4)C=C3)cc1)[C@@H](C)[N@@H+](C)C[C@H]1C[C@H](O)C1
REMARK SMILES IDX 6 1 5 2 3 3 4 4 2 5 1 6 74 7 75 8 76 9 77 10 78 12 79 13
REMARK SMILES IDX 83 14 80 15 81 16 82 17 7 19 8 20 9 21 10 22 11 23 12 24
REMARK SMILES IDX 73 25 13 26 72 27 14 28 15 29 16 30 66 31 17 32 71 33 65 34
REMARK SMILES IDX 67 35 18 36 70 37 64 38 63 39 19 41 51 42 31 43 50 44 32 45
REMARK SMILES IDX 35 46 49 47 68 48 33 49 34 50 48 52 69 53 36 54 20 55 21 56
REMARK SMILES IDX 29 57 22 58 24 59 30 60 23 61 25 62 26 63 27 64 28 65 52 66
REMARK SMILES IDX 53 67 61 68 54 69 56 70 62 71 55 72 57 73 58 74 59 75 60 76
REMARK SMILES IDX 37 77 38 78 46 79 39 80 41 81 47 82 40 83 42 84 43 85 44 86
REMARK SMILES IDX 45 87
REMARK H PARENT 76 11 82 18 67 40 35 51
REMARK Flexibility Score: inf
ROOT
ATOM      1  C   UNL A   1      35.290  21.468  26.095  1.00  0.00     0.274 C 
ENDROOT
BRANCH   1   2
ATOM      2  O   UNL A   1      34.308  22.101  25.246  1.00  0.00    -0.462 OA
BRANCH   2   3
ATOM      3  C   UNL A   1      34.344  23.459  25.244  1.00  0.00     0.314 C 
ATOM      4  O   UNL A   1      35.162  24.134  25.861  1.00  0.00    -0.252 OA
BRANCH   3   5
ATOM      5  C   UNL A   1      33.257  24.099  24.408  1.00  0.00     0.154 C 
ATOM      6  C   UNL A   1      33.173  23.476  23.011  1.00  0.00     0.026 C 
BRANCH   5   7
ATOM      7  C   UNL A   1      31.852  24.191  25.057  1.00  0.00     0.194 C 
ATOM      8  C   UNL A   1      31.705  23.771  26.530  1.00  0.00     0.076 C 
BRANCH   7   9
ATOM      9  N   UNL A   1      31.211  25.499  24.761  1.00  0.00    -0.334 N 
ATOM     10  C   UNL A   1      30.114  25.429  23.807  1.00  0.00     0.332 C 
ATOM     11  H   UNL A   1      31.995  25.953  24.292  1.00  0.00     0.348 HD
BRANCH   9  12
ATOM     12  C   UNL A   1      30.977  26.458  25.858  1.00  0.00     0.265 C 
BRANCH  12  13
ATOM     13  C   UNL A   1      31.969  27.617  25.971  1.00  0.00     0.049 C 
ATOM     14  C   UNL A   1      32.510  28.144  24.608  1.00  0.00     0.041 C 
ATOM     15  C   UNL A   1      33.471  27.355  26.331  1.00  0.00     0.041 C 
ATOM     16  C   UNL A   1      33.843  28.463  25.324  1.00  0.00     0.115 C 
BRANCH  16  17
ATOM     17  O   UNL A   1      33.988  29.795  25.857  1.00  0.00    -0.393 OA
ATOM     18  H   UNL A   1      33.166  30.291  25.718  1.00  0.00     0.210 HD
ENDBRANCH  16  17
ENDBRANCH  12  13
ENDBRANCH   9  12
ENDBRANCH   7   9
ENDBRANCH   5   7
ENDBRANCH   3   5
ENDBRANCH   2   3
ENDBRANCH   1   2
BRANCH   1  19
ATOM     19  C   UNL A   1      36.334  20.726  25.272  1.00  0.00     0.275 C 
BRANCH  19  20
ATOM     20  O   UNL A   1      37.461  21.581  25.031  1.00  0.00    -0.458 OA
BRANCH  20  21
ATOM     21  C   UNL A   1      38.591  21.235  25.684  1.00  0.00     0.338 C 
ATOM     22  O   UNL A   1      39.115  20.129  25.725  1.00  0.00    -0.246 OA
BRANCH  21  23
ATOM     23  C   UNL A   1      39.162  22.408  26.355  1.00  0.00     0.060 A 
ATOM     24  C   UNL A   1      38.642  23.675  26.100  1.00  0.00     0.016 A 
ATOM     25  C   UNL A   1      40.315  22.259  27.124  1.00  0.00     0.016 A 
ATOM     26  C   UNL A   1      39.344  24.807  26.508  1.00  0.00     0.010 A 
ATOM     27  C   UNL A   1      40.950  23.394  27.631  1.00  0.00     0.010 A 
ATOM     28  C   UNL A   1      40.501  24.682  27.289  1.00  0.00    -0.014 A 
BRANCH  28  29
ATOM     29  C   UNL A   1      41.264  25.881  27.738  1.00  0.00     0.031 A 
ATOM     30  C   UNL A   1      40.586  26.935  28.576  1.00  0.00     0.074 A 
ATOM     31  C   UNL A   1      42.546  26.052  27.357  1.00  0.00     0.049 A 
ATOM     32  N   UNL A   1      40.993  28.143  28.872  1.00  0.00    -0.248 NA
ATOM     33  C   UNL A   1      39.268  26.596  29.137  1.00  0.00     0.031 C 
ATOM     34  C   UNL A   1      43.327  25.107  26.558  1.00  0.00     0.029 A 
ATOM     35  N   UNL A   1      43.412  27.096  27.574  1.00  0.00    -0.354 N 
ATOM     36  C   UNL A   1      39.949  28.735  29.574  1.00  0.00     0.074 A 
ATOM     37  C   UNL A   1      38.897  27.748  29.679  1.00  0.00     0.031 C 
ATOM     38  C   UNL A   1      44.558  25.604  26.364  1.00  0.00     0.029 A 
ATOM     39  C   UNL A   1      44.629  26.935  26.953  1.00  0.00     0.049 A 
ATOM     40  H   UNL A   1      43.184  27.883  28.120  1.00  0.00     0.167 HD
ATOM     41  C   UNL A   1      39.878  29.985  30.090  1.00  0.00     0.034 A 
ATOM     42  C   UNL A   1      45.672  27.780  26.829  1.00  0.00     0.034 A 
ATOM     43  C   UNL A   1      40.962  30.930  30.067  1.00  0.00     0.049 A 
ATOM     44  C   UNL A   1      45.580  29.149  27.440  1.00  0.00     0.074 A 
ATOM     45  C   UNL A   1      41.008  32.200  30.613  1.00  0.00     0.029 A 
ATOM     46  N   UNL A   1      42.198  30.701  29.483  1.00  0.00    -0.354 N 
ATOM     47  N   UNL A   1      44.602  29.676  28.137  1.00  0.00    -0.248 NA
ATOM     48  C   UNL A   1      46.735  30.038  27.254  1.00  0.00     0.031 C 
ATOM     49  C   UNL A   1      42.275  32.740  30.361  1.00  0.00     0.029 A 
ATOM     50  C   UNL A   1      43.017  31.803  29.659  1.00  0.00     0.049 A 
ATOM     51  H   UNL A   1      42.456  29.875  29.013  1.00  0.00     0.167 HD
ATOM     52  C   UNL A   1      45.029  30.950  28.486  1.00  0.00     0.074 A 
ATOM     53  C   UNL A   1      46.365  31.106  27.948  1.00  0.00     0.031 C 
ATOM     54  C   UNL A   1      44.365  31.917  29.166  1.00  0.00     0.034 A 
BRANCH  41  55
ATOM     55  C   UNL A   1      38.594  30.399  30.759  1.00  0.00     0.023 A 
ATOM     56  C   UNL A   1      38.399  30.124  32.126  1.00  0.00     0.012 A 
ATOM     57  C   UNL A   1      37.609  31.114  30.049  1.00  0.00     0.148 A 
ATOM     58  C   UNL A   1      37.232  30.534  32.772  1.00  0.00     0.002 A 
ATOM     59  C   UNL A   1      36.465  31.550  30.708  1.00  0.00     0.091 A 
ATOM     60  F   UNL A   1      37.800  31.342  28.742  1.00  0.00    -0.205 F 
ATOM     61  C   UNL A   1      36.272  31.256  32.067  1.00  0.00     0.022 A 
BRANCH  59  62
ATOM     62  S   UNL A   1      35.210  32.547  29.894  1.00  0.00     0.127 S 
ATOM     63  O   UNL A   1      34.721  31.627  28.868  1.00  0.00    -0.237 OA
ATOM     64  O   UNL A   1      34.263  32.806  30.979  1.00  0.00    -0.237 OA
ATOM     65  O   UNL A   1      35.902  33.730  29.404  1.00  0.00    -0.744 OA
ENDBRANCH  59  62
ENDBRANCH  41  55
BRANCH  42  66
ATOM     66  C   UNL A   1      46.902  27.332  26.116  1.00  0.00     0.023 A 
ATOM     67  C   UNL A   1      47.777  26.434  26.756  1.00  0.00     0.012 A 
ATOM     68  C   UNL A   1      47.177  27.735  24.795  1.00  0.00     0.148 A 
ATOM     69  C   UNL A   1      48.910  25.955  26.099  1.00  0.00     0.002 A 
ATOM     70  C   UNL A   1      48.274  27.207  24.125  1.00  0.00     0.091 A 
ATOM     71  F   UNL A   1      46.349  28.612  24.210  1.00  0.00    -0.205 F 
ATOM     72  C   UNL A   1      49.151  26.328  24.779  1.00  0.00     0.022 A 
BRANCH  70  73
ATOM     73  S   UNL A   1      48.557  27.523  22.378  1.00  0.00     0.127 S 
ATOM     74  O   UNL A   1      47.370  28.291  22.015  1.00  0.00    -0.237 OA
ATOM     75  O   UNL A   1      49.805  28.289  22.399  1.00  0.00    -0.237 OA
ATOM     76  O   UNL A   1      48.682  26.205  21.768  1.00  0.00    -0.744 OA
ENDBRANCH  70  73
ENDBRANCH  42  66
BRANCH  54  77
ATOM     77  C   UNL A   1      45.077  33.223  29.384  1.00  0.00     0.023 A 
ATOM     78  C   UNL A   1      45.881  33.388  30.528  1.00  0.00     0.012 A 
ATOM     79  C   UNL A   1      45.009  34.255  28.428  1.00  0.00     0.148 A 
ATOM     80  C   UNL A   1      46.589  34.572  30.730  1.00  0.00     0.002 A 
ATOM     81  C   UNL A   1      45.748  35.416  28.618  1.00  0.00     0.091 A 
ATOM     82  F   UNL A   1      44.218  34.086  27.358  1.00  0.00    -0.205 F 
ATOM     83  C   UNL A   1      46.532  35.580  29.771  1.00  0.00     0.022 A 
BRANCH  81  84
ATOM     84  S   UNL A   1      45.791  36.725  27.388  1.00  0.00     0.127 S 
ATOM     85  O   UNL A   1      46.339  36.028  26.227  1.00  0.00    -0.237 OA
ATOM     86  O   UNL A   1      44.379  37.094  27.267  1.00  0.00    -0.237 OA
ATOM     87  O   UNL A   1      46.634  37.770  27.955  1.00  0.00    -0.744 OA
ENDBRANCH  81  84
ENDBRANCH  54  77
ENDBRANCH  28  29
ENDBRANCH  21  23
ENDBRANCH  20  21
ENDBRANCH  19  20
ENDBRANCH   1  19
TORSDOF 19
ENDMDL
MODEL 3
REMARK VINA RESULT:     -10.5      4.855     10.038
REMARK SMILES C[C@H](C(=O)OCCOC(=O)c1ccc(-c2c3nc(c(-c4cccc(S(=O)(=O)[O-])c4F)c4ccc([nH]4)c(-c4cccc(S(=O)(=O)[O-])c4F)c4nc(c(-c5cccc(S(=O)(=O)[O-])c5F)c5ccc2[nH]5)C=C4)C=C3)cc1)[C@@H](C)[N@@H+](C)C[C@H]1C[C@H](O)C1
REMARK SMILES IDX 6 1 5 2 3 3 4 4 2 5 1 6 74 7 75 8 76 9 77 10 78 12 79 13
REMARK SMILES IDX 83 14 80 15 81 16 82 17 7 19 8 20 9 21 10 22 11 23 12 24
REMARK SMILES IDX 73 25 13 26 72 27 14 28 15 29 16 30 66 31 17 32 71 33 65 34
REMARK SMILES IDX 67 35 18 36 70 37 64 38 63 39 19 41 51 42 31 43 50 44 32 45
REMARK SMILES IDX 35 46 49 47 68 48 33 49 34 50 48 52 69 53 36 54 20 55 21 56
REMARK SMILES IDX 29 57 22 58 24 59 30 60 23 61 25 62 26 63 27 64 28 65 52 66
REMARK SMILES IDX 53 67 61 68 54 69 56 70 62 71 55 72 57 73 58 74 59 75 60 76
REMARK SMILES IDX 37 77 38 78 46 79 39 80 41 81 47 82 40 83 42 84 43 85 44 86
REMARK SMILES IDX 45 87
REMARK H PARENT 76 11 82 18 67 40 35 51
REMARK Flexibility Score: inf
ROOT
ATOM      1  C   UNL A   1      34.677  20.714  24.848  1.00  0.00     0.274 C 
ENDROOT
BRANCH   1   2
ATOM      2  O   UNL A   1      33.348  21.178  25.169  1.00  0.00    -0.462 OA
BRANCH   2   3
ATOM      3  C   UNL A   1      32.835  22.087  24.300  1.00  0.00     0.314 C 
ATOM      4  O   UNL A   1      33.091  22.127  23.101  1.00  0.00    -0.252 OA
BRANCH   3   5
ATOM      5  C   UNL A   1      31.901  23.090  24.944  1.00  0.00     0.154 C 
ATOM      6  C   UNL A   1      31.184  22.500  26.162  1.00  0.00     0.026 C 
BRANCH   5   7
ATOM      7  C   UNL A   1      32.505  24.478  25.279  1.00  0.00     0.194 C 
ATOM      8  C   UNL A   1      34.022  24.672  25.101  1.00  0.00     0.076 C 
BRANCH   7   9
ATOM      9  N   UNL A   1      31.707  25.572  24.664  1.00  0.00    -0.334 N 
ATOM     10  C   UNL A   1      30.907  25.162  23.519  1.00  0.00     0.332 C 
ATOM     11  H   UNL A   1      32.475  26.143  24.311  1.00  0.00     0.348 HD
BRANCH   9  12
ATOM     12  C   UNL A   1      31.032  26.555  25.533  1.00  0.00     0.265 C 
BRANCH  12  13
ATOM     13  C   UNL A   1      31.927  27.598  26.202  1.00  0.00     0.049 C 
ATOM     14  C   UNL A   1      31.394  28.135  27.564  1.00  0.00     0.041 C 
ATOM     15  C   UNL A   1      31.900  29.095  25.738  1.00  0.00     0.041 C 
ATOM     16  C   UNL A   1      32.044  29.495  27.220  1.00  0.00     0.115 C 
BRANCH  16  17
ATOM     17  O   UNL A   1      33.387  29.710  27.702  1.00  0.00    -0.393 OA
ATOM     18  H   UNL A   1      33.810  30.409  27.180  1.00  0.00     0.210 HD
ENDBRANCH  16  17
ENDBRANCH  12  13
ENDBRANCH   9  12
ENDBRANCH   7   9
ENDBRANCH   5   7
ENDBRANCH   3   5
ENDBRANCH   2   3
ENDBRANCH   1   2
BRANCH   1  19
ATOM     19  C   UNL A   1      35.714  21.330  25.776  1.00  0.00     0.275 C 
BRANCH  19  20
ATOM     20  O   UNL A   1      36.847  21.771  25.014  1.00  0.00    -0.458 OA
BRANCH  20  21
ATOM     21  C   UNL A   1      38.048  21.393  25.504  1.00  0.00     0.338 C 
ATOM     22  O   UNL A   1      38.583  20.298  25.393  1.00  0.00    -0.246 OA
BRANCH  21  23
ATOM     23  C   UNL A   1      38.681  22.518  26.203  1.00  0.00     0.060 A 
ATOM     24  C   UNL A   1      38.157  23.802  26.069  1.00  0.00     0.016 A 
ATOM     25  C   UNL A   1      39.887  22.314  26.870  1.00  0.00     0.016 A 
ATOM     26  C   UNL A   1      38.899  24.902  26.492  1.00  0.00     0.010 A 
ATOM     27  C   UNL A   1      40.572  23.410  27.398  1.00  0.00     0.010 A 
ATOM     28  C   UNL A   1      40.112  24.720  27.173  1.00  0.00    -0.014 A 
BRANCH  28  29
ATOM     29  C   UNL A   1      40.919  25.883  27.637  1.00  0.00     0.031 A 
ATOM     30  C   UNL A   1      40.284  26.948  28.495  1.00  0.00     0.074 A 
ATOM     31  C   UNL A   1      42.205  26.014  27.253  1.00  0.00     0.049 A 
ATOM     32  N   UNL A   1      40.735  28.136  28.808  1.00  0.00    -0.248 NA
ATOM     33  C   UNL A   1      38.956  26.648  29.057  1.00  0.00     0.031 C 
ATOM     34  C   UNL A   1      42.948  25.054  26.435  1.00  0.00     0.029 A 
ATOM     35  N   UNL A   1      43.108  27.023  27.482  1.00  0.00    -0.354 N 
ATOM     36  C   UNL A   1      39.716  28.754  29.524  1.00  0.00     0.074 A 
ATOM     37  C   UNL A   1      38.629  27.804  29.619  1.00  0.00     0.031 C 
ATOM     38  C   UNL A   1      44.195  25.510  26.243  1.00  0.00     0.029 A 
ATOM     39  C   UNL A   1      44.316  26.828  26.852  1.00  0.00     0.049 A 
ATOM     40  H   UNL A   1      42.911  27.808  28.041  1.00  0.00     0.167 HD
ATOM     41  C   UNL A   1      39.693  29.997  30.060  1.00  0.00     0.034 A 
ATOM     42  C   UNL A   1      45.389  27.636  26.737  1.00  0.00     0.034 A 
ATOM     43  C   UNL A   1      40.810  30.903  30.046  1.00  0.00     0.049 A 
ATOM     44  C   UNL A   1      45.349  28.998  27.370  1.00  0.00     0.074 A 
ATOM     45  C   UNL A   1      40.904  32.162  30.612  1.00  0.00     0.029 A 
ATOM     46  N   UNL A   1      42.034  30.638  29.453  1.00  0.00    -0.354 N 
ATOM     47  N   UNL A   1      44.394  29.549  28.079  1.00  0.00    -0.248 NA
ATOM     48  C   UNL A   1      46.534  29.847  27.192  1.00  0.00     0.031 C 
ATOM     49  C   UNL A   1      42.189  32.659  30.362  1.00  0.00     0.029 A 
ATOM     50  C   UNL A   1      42.893  31.707  29.642  1.00  0.00     0.049 A 
ATOM     51  H   UNL A   1      42.260  29.811  28.968  1.00  0.00     0.167 HD
ATOM     52  C   UNL A   1      44.867  30.801  28.446  1.00  0.00     0.074 A 
ATOM     53  C   UNL A   1      46.206  30.917  27.904  1.00  0.00     0.031 C 
ATOM     54  C   UNL A   1      44.243  31.780  29.145  1.00  0.00     0.034 A 
BRANCH  41  55
ATOM     55  C   UNL A   1      38.427  30.446  30.742  1.00  0.00     0.023 A 
ATOM     56  C   UNL A   1      38.237  30.174  32.110  1.00  0.00     0.012 A 
ATOM     57  C   UNL A   1      37.457  31.190  30.042  1.00  0.00     0.148 A 
ATOM     58  C   UNL A   1      37.089  30.617  32.767  1.00  0.00     0.002 A 
ATOM     59  C   UNL A   1      36.331  31.658  30.712  1.00  0.00     0.091 A 
ATOM     60  F   UNL A   1      37.641  31.416  28.733  1.00  0.00    -0.205 F 
ATOM     61  C   UNL A   1      36.143  31.367  32.073  1.00  0.00     0.022 A 
BRANCH  59  62
ATOM     62  S   UNL A   1      35.098  32.692  29.912  1.00  0.00     0.127 S 
ATOM     63  O   UNL A   1      35.905  33.829  29.473  1.00  0.00    -0.237 OA
ATOM     64  O   UNL A   1      34.621  31.831  28.828  1.00  0.00    -0.237 OA
ATOM     65  O   UNL A   1      34.101  32.980  30.933  1.00  0.00    -0.744 OA
ENDBRANCH  59  62
ENDBRANCH  41  55
BRANCH  42  66
ATOM     66  C   UNL A   1      46.598  27.155  26.011  1.00  0.00     0.023 A 
ATOM     67  C   UNL A   1      46.682  27.341  24.618  1.00  0.00     0.012 A 
ATOM     68  C   UNL A   1      47.687  26.577  26.693  1.00  0.00     0.148 A 
ATOM     69  C   UNL A   1      47.821  26.949  23.915  1.00  0.00     0.002 A 
ATOM     70  C   UNL A   1      48.843  26.244  25.996  1.00  0.00     0.091 A 
ATOM     71  F   UNL A   1      47.580  26.380  28.015  1.00  0.00    -0.205 F 
ATOM     72  C   UNL A   1      48.908  26.416  24.605  1.00  0.00     0.022 A 
BRANCH  70  73
ATOM     73  S   UNL A   1      50.331  25.698  26.841  1.00  0.00     0.127 S 
ATOM     74  O   UNL A   1      49.888  24.453  27.460  1.00  0.00    -0.237 OA
ATOM     75  O   UNL A   1      51.275  25.534  25.733  1.00  0.00    -0.237 OA
ATOM     76  O   UNL A   1      50.672  26.784  27.752  1.00  0.00    -0.744 OA
ENDBRANCH  70  73
ENDBRANCH  42  66
BRANCH  54  77
ATOM     77  C   UNL A   1      45.002  33.056  29.380  1.00  0.00     0.023 A 
ATOM     78  C   UNL A   1      45.821  33.172  30.519  1.00  0.00     0.012 A 
ATOM     79  C   UNL A   1      44.962  34.107  28.443  1.00  0.00     0.148 A 
ATOM     80  C   UNL A   1      46.572  34.326  30.736  1.00  0.00     0.002 A 
ATOM     81  C   UNL A   1      45.744  35.238  28.647  1.00  0.00     0.091 A 
ATOM     82  F   UNL A   1      44.157  33.986  27.377  1.00  0.00    -0.205 F 
ATOM     83  C   UNL A   1      46.542  35.353  29.795  1.00  0.00     0.022 A 
BRANCH  81  84
ATOM     84  S   UNL A   1      45.823  36.567  27.441  1.00  0.00     0.127 S 
ATOM     85  O   UNL A   1      46.775  37.483  28.065  1.00  0.00    -0.237 OA
ATOM     86  O   UNL A   1      46.327  35.884  26.248  1.00  0.00    -0.237 OA
ATOM     87  O   UNL A   1      44.458  37.063  27.312  1.00  0.00    -0.744 OA
ENDBRANCH  81  84
ENDBRANCH  54  77
ENDBRANCH  28  29
ENDBRANCH  21  23
ENDBRANCH  20  21
ENDBRANCH  19  20
ENDBRANCH   1  19
TORSDOF 19
ENDMDL
