MODEL 1
REMARK VINA RESULT:     -13.4      0.000      0.000
REMARK SMILES COc1ccc(/C=C2/C(=O)N(c3ccccc3)C(=O)N=C2OCCOC(=O)c2ccc(-c3c4nc(c(-c5cccc(S(=O)(=O)[O-])c5F)c5ccc([nH]5)c(-c5cccc(S(=O)(=O)[O-])c5F)c5nc(c(-c6cccc(S(=O)(=O)[O-])c6F)c6ccc3[nH]6)C=C5)C=C4)cc2)cc1C(=O)[O-]
REMARK SMILES IDX 24 1 23 2 22 3 21 4 7 5 8 6 9 7 10 8 11 9 20 10 18 11 19 12
REMARK SMILES IDX 6 13 3 14 4 15 92 16 5 17 91 18 2 19 1 20 93 21 94 22 95 23
REMARK SMILES IDX 12 24 13 25 17 26 14 27 16 28 15 29 25 30 26 31 27 32 28 33
REMARK SMILES IDX 29 34 90 35 30 36 89 37 31 38 32 39 33 40 83 41 34 42 88 43
REMARK SMILES IDX 82 44 84 45 35 46 87 47 81 48 80 49 36 51 68 52 48 53 67 54
REMARK SMILES IDX 49 55 52 56 66 57 85 58 50 59 51 60 65 62 86 63 53 64 37 65
REMARK SMILES IDX 38 66 46 67 39 68 41 69 47 70 40 71 42 72 43 73 44 74 45 75
REMARK SMILES IDX 69 76 70 77 78 78 71 79 73 80 79 81 72 82 74 83 75 84 76 85
REMARK SMILES IDX 77 86 54 87 55 88 63 89 56 90 58 91 64 92 57 93 59 94 60 95
REMARK SMILES IDX 61 96 62 97
REMARK H PARENT 84 50 52 61
REMARK Flexibility Score: inf
ROOT
ATOM      1  C   UNL A   1      35.948  21.534  25.990  1.00  0.00     0.274 C 
ENDROOT
BRANCH   1   2
ATOM      2  C   UNL A   1      35.132  22.797  26.287  1.00  0.00     0.273 C 
BRANCH   2   3
ATOM      3  O   UNL A   1      34.404  23.216  25.106  1.00  0.00    -0.473 OA
BRANCH   3   4
ATOM      4  C   UNL A   1      33.268  23.939  25.218  1.00  0.00     0.231 C 
ATOM      5  C   UNL A   1      31.788  22.272  23.989  1.00  0.00     0.027 C 
ATOM      6  C   UNL A   1      32.215  23.514  24.295  1.00  0.00     0.103 C 
ATOM      7  C   UNL A   1      31.459  24.668  23.720  1.00  0.00     0.272 C 
ATOM      8  O   UNL A   1      30.809  24.530  22.685  1.00  0.00    -0.268 OA
ATOM      9  N   UNL A   1      31.521  25.819  24.501  1.00  0.00    -0.226 N 
ATOM     10  N   UNL A   1      33.154  24.972  25.974  1.00  0.00    -0.156 NA
ATOM     11  C   UNL A   1      32.000  25.718  25.814  1.00  0.00     0.358 C 
ATOM     12  O   UNL A   1      31.477  26.251  26.785  1.00  0.00    -0.245 OA
BRANCH   5  13
ATOM     13  C   UNL A   1      32.225  20.926  24.414  1.00  0.00    -0.024 A 
ATOM     14  C   UNL A   1      33.270  18.374  25.027  1.00  0.00     0.127 A 
ATOM     15  C   UNL A   1      32.929  19.262  26.044  1.00  0.00     0.048 A 
ATOM     16  C   UNL A   1      32.943  18.689  23.707  1.00  0.00     0.040 A 
ATOM     17  C   UNL A   1      32.371  20.507  25.738  1.00  0.00     0.012 A 
ATOM     18  C   UNL A   1      32.471  19.978  23.405  1.00  0.00     0.022 A 
BRANCH  14  19
ATOM     19  O   UNL A   1      33.904  17.226  25.420  1.00  0.00    -0.496 OA
ATOM     20  C   UNL A   1      32.953  16.240  25.835  1.00  0.00     0.278 C 
ENDBRANCH  14  19
BRANCH  16  21
ATOM     21  C   UNL A   1      33.020  17.727  22.586  1.00  0.00     0.075 C 
ATOM     22  O   UNL A   1      33.821  16.813  22.487  1.00  0.00    -0.545 OA
ATOM     23  O   UNL A   1      32.178  18.022  21.582  1.00  0.00    -0.545 OA
ENDBRANCH  16  21
ENDBRANCH   5  13
BRANCH   9  24
ATOM     24  C   UNL A   1      31.029  27.064  23.977  1.00  0.00     0.054 A 
ATOM     25  C   UNL A   1      29.636  27.237  23.825  1.00  0.00     0.027 A 
ATOM     26  C   UNL A   1      31.866  28.057  23.452  1.00  0.00     0.027 A 
ATOM     27  C   UNL A   1      29.110  28.325  23.119  1.00  0.00     0.002 A 
ATOM     28  C   UNL A   1      31.336  29.168  22.783  1.00  0.00     0.002 A 
ATOM     29  C   UNL A   1      29.963  29.289  22.595  1.00  0.00     0.000 A 
ENDBRANCH   9  24
ENDBRANCH   3   4
ENDBRANCH   2   3
ENDBRANCH   1   2
BRANCH   1  30
ATOM     30  O   UNL A   1      37.122  21.889  25.238  1.00  0.00    -0.458 OA
BRANCH  30  31
ATOM     31  C   UNL A   1      38.284  21.365  25.688  1.00  0.00     0.338 C 
ATOM     32  O   UNL A   1      38.779  20.290  25.401  1.00  0.00    -0.246 OA
BRANCH  31  33
ATOM     33  C   UNL A   1      39.019  22.450  26.350  1.00  0.00     0.060 A 
ATOM     34  C   UNL A   1      38.594  23.736  26.038  1.00  0.00     0.016 A 
ATOM     35  C   UNL A   1      40.098  22.251  27.207  1.00  0.00     0.016 A 
ATOM     36  C   UNL A   1      39.250  24.838  26.559  1.00  0.00     0.010 A 
ATOM     37  C   UNL A   1      40.766  23.370  27.729  1.00  0.00     0.010 A 
ATOM     38  C   UNL A   1      40.363  24.675  27.382  1.00  0.00    -0.014 A 
BRANCH  38  39
ATOM     39  C   UNL A   1      41.170  25.878  27.715  1.00  0.00     0.031 A 
ATOM     40  C   UNL A   1      40.559  26.943  28.581  1.00  0.00     0.074 A 
ATOM     41  C   UNL A   1      42.470  25.972  27.370  1.00  0.00     0.049 A 
ATOM     42  N   UNL A   1      41.012  28.132  28.874  1.00  0.00    -0.248 NA
ATOM     43  C   UNL A   1      39.269  26.619  29.212  1.00  0.00     0.031 C 
ATOM     44  C   UNL A   1      43.234  24.949  26.657  1.00  0.00     0.029 A 
ATOM     45  N   UNL A   1      43.383  26.975  27.591  1.00  0.00    -0.354 N 
ATOM     46  C   UNL A   1      40.024  28.732  29.645  1.00  0.00     0.074 A 
ATOM     47  C   UNL A   1      38.965  27.761  29.812  1.00  0.00     0.031 C 
ATOM     48  C   UNL A   1      44.501  25.368  26.514  1.00  0.00     0.029 A 
ATOM     49  C   UNL A   1      44.618  26.725  27.037  1.00  0.00     0.049 A 
ATOM     50  H   UNL A   1      43.174  27.794  28.097  1.00  0.00     0.167 HD
ATOM     51  C   UNL A   1      40.000  29.982  30.160  1.00  0.00     0.034 A 
ATOM     52  C   UNL A   1      45.700  27.519  26.915  1.00  0.00     0.034 A 
ATOM     53  C   UNL A   1      41.084  30.919  30.046  1.00  0.00     0.049 A 
ATOM     54  C   UNL A   1      45.634  28.925  27.450  1.00  0.00     0.074 A 
ATOM     55  C   UNL A   1      41.144  32.225  30.495  1.00  0.00     0.029 A 
ATOM     56  N   UNL A   1      42.306  30.640  29.455  1.00  0.00    -0.354 N 
ATOM     57  N   UNL A   1      44.674  29.508  28.126  1.00  0.00    -0.248 NA
ATOM     58  C   UNL A   1      46.800  29.788  27.201  1.00  0.00     0.031 C 
ATOM     59  C   UNL A   1      42.402  32.741  30.164  1.00  0.00     0.029 A 
ATOM     60  C   UNL A   1      43.131  31.749  29.530  1.00  0.00     0.049 A 
ATOM     61  H   UNL A   1      42.551  29.781  29.042  1.00  0.00     0.167 HD
ATOM     62  C   UNL A   1      45.119  30.797  28.392  1.00  0.00     0.074 A 
ATOM     63  C   UNL A   1      46.452  30.901  27.834  1.00  0.00     0.031 C 
ATOM     64  C   UNL A   1      44.475  31.814  29.016  1.00  0.00     0.034 A 
BRANCH  51  65
ATOM     65  C   UNL A   1      38.746  30.418  30.866  1.00  0.00     0.023 A 
ATOM     66  C   UNL A   1      38.596  30.198  32.248  1.00  0.00     0.012 A 
ATOM     67  C   UNL A   1      37.726  31.076  30.152  1.00  0.00     0.148 A 
ATOM     68  C   UNL A   1      37.433  30.605  32.905  1.00  0.00     0.002 A 
ATOM     69  C   UNL A   1      36.589  31.513  30.819  1.00  0.00     0.091 A 
ATOM     70  F   UNL A   1      37.879  31.245  28.830  1.00  0.00    -0.205 F 
ATOM     71  C   UNL A   1      36.437  31.270  32.193  1.00  0.00     0.022 A 
BRANCH  69  72
ATOM     72  S   UNL A   1      35.286  32.436  29.999  1.00  0.00     0.127 S 
ATOM     73  O   UNL A   1      34.873  31.499  28.955  1.00  0.00    -0.237 OA
ATOM     74  O   UNL A   1      34.312  32.620  31.075  1.00  0.00    -0.237 OA
ATOM     75  O   UNL A   1      35.904  33.668  29.526  1.00  0.00    -0.744 OA
ENDBRANCH  69  72
ENDBRANCH  51  65
BRANCH  52  76
ATOM     76  C   UNL A   1      46.923  27.015  26.225  1.00  0.00     0.023 A 
ATOM     77  C   UNL A   1      47.084  27.216  24.841  1.00  0.00     0.012 A 
ATOM     78  C   UNL A   1      47.944  26.356  26.941  1.00  0.00     0.148 A 
ATOM     79  C   UNL A   1      48.229  26.761  24.183  1.00  0.00     0.002 A 
ATOM     80  C   UNL A   1      49.111  25.970  26.293  1.00  0.00     0.091 A 
ATOM     81  F   UNL A   1      47.759  26.129  28.249  1.00  0.00    -0.205 F 
ATOM     82  C   UNL A   1      49.249  26.155  24.912  1.00  0.00     0.022 A 
BRANCH  80  83
ATOM     83  S   UNL A   1      50.526  25.330  27.198  1.00  0.00     0.127 S 
ATOM     84  O   UNL A   1      50.868  26.458  28.060  1.00  0.00    -0.237 OA
ATOM     85  O   UNL A   1      49.951  24.176  27.893  1.00  0.00    -0.237 OA
ATOM     86  O   UNL A   1      51.509  24.981  26.180  1.00  0.00    -0.744 OA
ENDBRANCH  80  83
ENDBRANCH  52  76
BRANCH  64  87
ATOM     87  C   UNL A   1      45.205  33.121  29.159  1.00  0.00     0.023 A 
ATOM     88  C   UNL A   1      46.076  33.318  30.248  1.00  0.00     0.012 A 
ATOM     89  C   UNL A   1      45.099  34.116  28.166  1.00  0.00     0.148 A 
ATOM     90  C   UNL A   1      46.812  34.496  30.362  1.00  0.00     0.002 A 
ATOM     91  C   UNL A   1      45.869  35.268  28.263  1.00  0.00     0.091 A 
ATOM     92  F   UNL A   1      44.250  33.915  27.149  1.00  0.00    -0.205 F 
ATOM     93  C   UNL A   1      46.718  35.465  29.364  1.00  0.00     0.022 A 
BRANCH  91  94
ATOM     94  S   UNL A   1      45.881  36.524  26.978  1.00  0.00     0.127 S 
ATOM     95  O   UNL A   1      46.362  35.765  25.825  1.00  0.00    -0.237 OA
ATOM     96  O   UNL A   1      44.473  36.913  26.910  1.00  0.00    -0.237 OA
ATOM     97  O   UNL A   1      46.774  37.572  27.454  1.00  0.00    -0.744 OA
ENDBRANCH  91  94
ENDBRANCH  64  87
ENDBRANCH  38  39
ENDBRANCH  31  33
ENDBRANCH  30  31
ENDBRANCH   1  30
TORSDOF 17
ENDMDL
MODEL 2
REMARK VINA RESULT:     -13.2      4.752     10.333
REMARK SMILES COc1ccc(/C=C2/C(=O)N(c3ccccc3)C(=O)N=C2OCCOC(=O)c2ccc(-c3c4nc(c(-c5cccc(S(=O)(=O)[O-])c5F)c5ccc([nH]5)c(-c5cccc(S(=O)(=O)[O-])c5F)c5nc(c(-c6cccc(S(=O)(=O)[O-])c6F)c6ccc3[nH]6)C=C5)C=C4)cc2)cc1C(=O)[O-]
REMARK SMILES IDX 24 1 23 2 22 3 21 4 7 5 8 6 9 7 10 8 11 9 20 10 18 11 19 12
REMARK SMILES IDX 6 13 3 14 4 15 92 16 5 17 91 18 2 19 1 20 93 21 94 22 95 23
REMARK SMILES IDX 12 24 13 25 17 26 14 27 16 28 15 29 25 30 26 31 27 32 28 33
REMARK SMILES IDX 29 34 90 35 30 36 89 37 31 38 32 39 33 40 83 41 34 42 88 43
REMARK SMILES IDX 82 44 84 45 35 46 87 47 81 48 80 49 36 51 68 52 48 53 67 54
REMARK SMILES IDX 49 55 52 56 66 57 85 58 50 59 51 60 65 62 86 63 53 64 37 65
REMARK SMILES IDX 38 66 46 67 39 68 41 69 47 70 40 71 42 72 43 73 44 74 45 75
REMARK SMILES IDX 69 76 70 77 78 78 71 79 73 80 79 81 72 82 74 83 75 84 76 85
REMARK SMILES IDX 77 86 54 87 55 88 63 89 56 90 58 91 64 92 57 93 59 94 60 95
REMARK SMILES IDX 61 96 62 97
REMARK H PARENT 84 50 52 61
REMARK Flexibility Score: inf
ROOT
ATOM      1  C   UNL A   1      32.756  29.652  24.985  1.00  0.00     0.274 C 
ENDROOT
BRANCH   1   2
ATOM      2  C   UNL A   1      33.540  28.395  24.592  1.00  0.00     0.273 C 
BRANCH   2   3
ATOM      3  O   UNL A   1      32.775  27.205  24.908  1.00  0.00    -0.473 OA
BRANCH   3   4
ATOM      4  C   UNL A   1      32.977  26.057  24.225  1.00  0.00     0.231 C 
ATOM      5  C   UNL A   1      30.616  25.907  23.284  1.00  0.00     0.027 C 
ATOM      6  C   UNL A   1      31.736  25.389  23.830  1.00  0.00     0.103 C 
ATOM      7  C   UNL A   1      31.815  23.904  23.968  1.00  0.00     0.272 C 
ATOM      8  O   UNL A   1      30.788  23.231  24.033  1.00  0.00    -0.268 OA
ATOM      9  N   UNL A   1      33.117  23.411  23.938  1.00  0.00    -0.226 N 
ATOM     10  N   UNL A   1      34.136  25.534  24.039  1.00  0.00    -0.156 NA
ATOM     11  C   UNL A   1      34.149  24.257  23.507  1.00  0.00     0.358 C 
ATOM     12  O   UNL A   1      35.034  23.927  22.727  1.00  0.00    -0.245 OA
BRANCH   5  13
ATOM     13  C   UNL A   1      30.215  27.285  22.931  1.00  0.00    -0.024 A 
ATOM     14  C   UNL A   1      29.371  29.951  22.534  1.00  0.00     0.127 A 
ATOM     15  C   UNL A   1      30.578  29.505  22.003  1.00  0.00     0.048 A 
ATOM     16  C   UNL A   1      28.503  29.031  23.125  1.00  0.00     0.040 A 
ATOM     17  C   UNL A   1      30.972  28.173  22.164  1.00  0.00     0.012 A 
ATOM     18  C   UNL A   1      28.951  27.721  23.364  1.00  0.00     0.022 A 
BRANCH  14  19
ATOM     19  O   UNL A   1      29.121  31.292  22.413  1.00  0.00    -0.496 OA
ATOM     20  C   UNL A   1      28.614  31.598  21.110  1.00  0.00     0.278 C 
ENDBRANCH  14  19
BRANCH  16  21
ATOM     21  C   UNL A   1      27.102  29.335  23.488  1.00  0.00     0.075 C 
ATOM     22  O   UNL A   1      26.154  28.579  23.360  1.00  0.00    -0.545 OA
ATOM     23  O   UNL A   1      26.924  30.609  23.876  1.00  0.00    -0.545 OA
ENDBRANCH  16  21
ENDBRANCH   5  13
BRANCH   9  24
ATOM     24  C   UNL A   1      33.368  22.036  24.274  1.00  0.00     0.054 A 
ATOM     25  C   UNL A   1      34.572  21.704  24.932  1.00  0.00     0.027 A 
ATOM     26  C   UNL A   1      32.556  20.981  23.837  1.00  0.00     0.027 A 
ATOM     27  C   UNL A   1      34.976  20.372  25.084  1.00  0.00     0.002 A 
ATOM     28  C   UNL A   1      32.941  19.648  24.028  1.00  0.00     0.002 A 
ATOM     29  C   UNL A   1      34.160  19.344  24.628  1.00  0.00     0.000 A 
ENDBRANCH   9  24
ENDBRANCH   3   4
ENDBRANCH   2   3
ENDBRANCH   1   2
BRANCH   1  30
ATOM     30  O   UNL A   1      32.693  29.748  26.418  1.00  0.00    -0.458 OA
BRANCH  30  31
ATOM     31  C   UNL A   1      33.031  30.949  26.939  1.00  0.00     0.338 C 
ATOM     32  O   UNL A   1      32.305  31.904  27.147  1.00  0.00    -0.246 OA
BRANCH  31  33
ATOM     33  C   UNL A   1      34.376  30.808  27.511  1.00  0.00     0.060 A 
ATOM     34  C   UNL A   1      34.760  29.508  27.818  1.00  0.00     0.016 A 
ATOM     35  C   UNL A   1      35.225  31.878  27.779  1.00  0.00     0.016 A 
ATOM     36  C   UNL A   1      35.985  29.260  28.415  1.00  0.00     0.010 A 
ATOM     37  C   UNL A   1      36.463  31.625  28.391  1.00  0.00     0.010 A 
ATOM     38  C   UNL A   1      36.839  30.313  28.741  1.00  0.00    -0.014 A 
BRANCH  38  39
ATOM     39  C   UNL A   1      38.022  30.017  29.591  1.00  0.00     0.031 A 
ATOM     40  C   UNL A   1      39.133  29.183  29.020  1.00  0.00     0.074 A 
ATOM     41  C   UNL A   1      38.177  30.586  30.803  1.00  0.00     0.049 A 
ATOM     42  N   UNL A   1      40.179  28.677  29.617  1.00  0.00    -0.248 NA
ATOM     43  C   UNL A   1      39.063  28.889  27.579  1.00  0.00     0.031 C 
ATOM     44  C   UNL A   1      37.250  31.532  31.422  1.00  0.00     0.029 A 
ATOM     45  N   UNL A   1      39.188  30.460  31.726  1.00  0.00    -0.354 N 
ATOM     46  C   UNL A   1      40.840  27.931  28.651  1.00  0.00     0.074 A 
ATOM     47  C   UNL A   1      40.103  28.084  27.415  1.00  0.00     0.031 C 
ATOM     48  C   UNL A   1      37.740  31.914  32.611  1.00  0.00     0.029 A 
ATOM     49  C   UNL A   1      38.965  31.170  32.884  1.00  0.00     0.049 A 
ATOM     50  H   UNL A   1      39.994  29.914  31.574  1.00  0.00     0.167 HD
ATOM     51  C   UNL A   1      41.957  27.180  28.783  1.00  0.00     0.034 A 
ATOM     52  C   UNL A   1      39.640  31.175  34.051  1.00  0.00     0.034 A 
ATOM     53  C   UNL A   1      42.721  27.085  29.997  1.00  0.00     0.049 A 
ATOM     54  C   UNL A   1      40.851  30.293  34.196  1.00  0.00     0.074 A 
ATOM     55  C   UNL A   1      43.844  26.319  30.249  1.00  0.00     0.029 A 
ATOM     56  N   UNL A   1      42.450  27.795  31.156  1.00  0.00    -0.354 N 
ATOM     57  N   UNL A   1      41.438  29.542  33.295  1.00  0.00    -0.248 NA
ATOM     58  C   UNL A   1      41.492  30.252  35.520  1.00  0.00     0.031 C 
ATOM     59  C   UNL A   1      44.246  26.558  31.568  1.00  0.00     0.029 A 
ATOM     60  C   UNL A   1      43.386  27.489  32.127  1.00  0.00     0.049 A 
ATOM     61  H   UNL A   1      41.701  28.424  31.270  1.00  0.00     0.167 HD
ATOM     62  C   UNL A   1      42.519  28.949  33.936  1.00  0.00     0.074 A 
ATOM     63  C   UNL A   1      42.528  29.454  35.293  1.00  0.00     0.031 C 
ATOM     64  C   UNL A   1      43.409  28.045  33.456  1.00  0.00     0.034 A 
BRANCH  51  65
ATOM     65  C   UNL A   1      42.399  26.376  27.592  1.00  0.00     0.023 A 
ATOM     66  C   UNL A   1      43.224  26.956  26.610  1.00  0.00     0.012 A 
ATOM     67  C   UNL A   1      42.012  25.027  27.467  1.00  0.00     0.148 A 
ATOM     68  C   UNL A   1      43.637  26.209  25.506  1.00  0.00     0.002 A 
ATOM     69  C   UNL A   1      42.459  24.280  26.386  1.00  0.00     0.091 A 
ATOM     70  F   UNL A   1      41.200  24.507  28.399  1.00  0.00    -0.205 F 
ATOM     71  C   UNL A   1      43.263  24.871  25.399  1.00  0.00     0.022 A 
BRANCH  69  72
ATOM     72  S   UNL A   1      42.084  22.533  26.202  1.00  0.00     0.127 S 
ATOM     73  O   UNL A   1      42.805  22.205  24.973  1.00  0.00    -0.237 OA
ATOM     74  O   UNL A   1      42.661  21.963  27.420  1.00  0.00    -0.237 OA
ATOM     75  O   UNL A   1      40.632  22.442  26.121  1.00  0.00    -0.744 OA
ENDBRANCH  69  72
ENDBRANCH  51  65
BRANCH  52  76
ATOM     76  C   UNL A   1      39.161  32.017  35.187  1.00  0.00     0.023 A 
ATOM     77  C   UNL A   1      38.216  31.503  36.095  1.00  0.00     0.012 A 
ATOM     78  C   UNL A   1      39.658  33.322  35.387  1.00  0.00     0.148 A 
ATOM     79  C   UNL A   1      37.769  32.274  37.170  1.00  0.00     0.002 A 
ATOM     80  C   UNL A   1      39.262  34.056  36.498  1.00  0.00     0.091 A 
ATOM     81  F   UNL A   1      40.522  33.818  34.489  1.00  0.00    -0.205 F 
ATOM     82  C   UNL A   1      38.304  33.541  37.381  1.00  0.00     0.022 A 
BRANCH  80  83
ATOM     83  S   UNL A   1      40.028  35.626  36.915  1.00  0.00     0.127 S 
ATOM     84  O   UNL A   1      39.653  36.457  35.774  1.00  0.00    -0.237 OA
ATOM     85  O   UNL A   1      39.362  35.970  38.172  1.00  0.00    -0.237 OA
ATOM     86  O   UNL A   1      41.450  35.336  37.055  1.00  0.00    -0.744 OA
ENDBRANCH  80  83
ENDBRANCH  52  76
BRANCH  64  87
ATOM     87  C   UNL A   1      44.487  27.562  34.388  1.00  0.00     0.023 A 
ATOM     88  C   UNL A   1      45.690  28.285  34.495  1.00  0.00     0.012 A 
ATOM     89  C   UNL A   1      44.269  26.448  35.221  1.00  0.00     0.148 A 
ATOM     90  C   UNL A   1      46.674  27.891  35.401  1.00  0.00     0.002 A 
ATOM     91  C   UNL A   1      45.234  26.088  36.153  1.00  0.00     0.091 A 
ATOM     92  F   UNL A   1      43.124  25.764  35.088  1.00  0.00    -0.205 F 
ATOM     93  C   UNL A   1      46.441  26.801  36.238  1.00  0.00     0.022 A 
BRANCH  91  94
ATOM     94  S   UNL A   1      44.979  24.757  37.333  1.00  0.00     0.127 S 
ATOM     95  O   UNL A   1      46.209  24.819  38.122  1.00  0.00    -0.237 OA
ATOM     96  O   UNL A   1      43.777  25.196  38.042  1.00  0.00    -0.237 OA
ATOM     97  O   UNL A   1      44.804  23.549  36.540  1.00  0.00    -0.744 OA
ENDBRANCH  91  94
ENDBRANCH  64  87
ENDBRANCH  38  39
ENDBRANCH  31  33
ENDBRANCH  30  31
ENDBRANCH   1  30
TORSDOF 17
ENDMDL
MODEL 3
REMARK VINA RESULT:     -12.7      0.821      7.560
REMARK SMILES COc1ccc(/C=C2/C(=O)N(c3ccccc3)C(=O)N=C2OCCOC(=O)c2ccc(-c3c4nc(c(-c5cccc(S(=O)(=O)[O-])c5F)c5ccc([nH]5)c(-c5cccc(S(=O)(=O)[O-])c5F)c5nc(c(-c6cccc(S(=O)(=O)[O-])c6F)c6ccc3[nH]6)C=C5)C=C4)cc2)cc1C(=O)[O-]
REMARK SMILES IDX 24 1 23 2 22 3 21 4 7 5 8 6 9 7 10 8 11 9 20 10 18 11 19 12
REMARK SMILES IDX 6 13 3 14 4 15 92 16 5 17 91 18 2 19 1 20 93 21 94 22 95 23
REMARK SMILES IDX 12 24 13 25 17 26 14 27 16 28 15 29 25 30 26 31 27 32 28 33
REMARK SMILES IDX 29 34 90 35 30 36 89 37 31 38 32 39 33 40 83 41 34 42 88 43
REMARK SMILES IDX 82 44 84 45 35 46 87 47 81 48 80 49 36 51 68 52 48 53 67 54
REMARK SMILES IDX 49 55 52 56 66 57 85 58 50 59 51 60 65 62 86 63 53 64 37 65
REMARK SMILES IDX 38 66 46 67 39 68 41 69 47 70 40 71 42 72 43 73 44 74 45 75
REMARK SMILES IDX 69 76 70 77 78 78 71 79 73 80 79 81 72 82 74 83 75 84 76 85
REMARK SMILES IDX 77 86 54 87 55 88 63 89 56 90 58 91 64 92 57 93 59 94 60 95
REMARK SMILES IDX 61 96 62 97
REMARK H PARENT 84 50 52 61
REMARK Flexibility Score: inf
ROOT
ATOM      1  C   UNL A   1      36.533  21.208  25.628  1.00  0.00     0.274 C 
ENDROOT
BRANCH   1   2
ATOM      2  C   UNL A   1      35.598  22.343  26.061  1.00  0.00     0.273 C 
BRANCH   2   3
ATOM      3  O   UNL A   1      34.804  22.798  24.938  1.00  0.00    -0.473 OA
BRANCH   3   4
ATOM      4  C   UNL A   1      33.748  23.620  25.129  1.00  0.00     0.231 C 
ATOM      5  C   UNL A   1      32.034  22.083  24.044  1.00  0.00     0.027 C 
ATOM      6  C   UNL A   1      32.592  23.285  24.298  1.00  0.00     0.103 C 
ATOM      7  C   UNL A   1      31.897  24.496  23.768  1.00  0.00     0.272 C 
ATOM      8  O   UNL A   1      31.157  24.410  22.790  1.00  0.00    -0.268 OA
ATOM      9  N   UNL A   1      32.123  25.643  24.525  1.00  0.00    -0.226 N 
ATOM     10  N   UNL A   1      33.787  24.665  25.877  1.00  0.00    -0.156 NA
ATOM     11  C   UNL A   1      32.694  25.509  25.798  1.00  0.00     0.358 C 
ATOM     12  O   UNL A   1      32.299  26.093  26.800  1.00  0.00    -0.245 OA
BRANCH   5  13
ATOM     13  C   UNL A   1      32.384  20.706  24.452  1.00  0.00    -0.024 A 
ATOM     14  C   UNL A   1      33.272  18.092  25.044  1.00  0.00     0.127 A 
ATOM     15  C   UNL A   1      32.918  18.967  26.067  1.00  0.00     0.048 A 
ATOM     16  C   UNL A   1      33.032  18.457  23.718  1.00  0.00     0.040 A 
ATOM     17  C   UNL A   1      32.437  20.245  25.768  1.00  0.00     0.012 A 
ATOM     18  C   UNL A   1      32.639  19.775  23.430  1.00  0.00     0.022 A 
BRANCH  14  19
ATOM     19  O   UNL A   1      33.828  16.904  25.436  1.00  0.00    -0.496 OA
ATOM     20  C   UNL A   1      32.814  15.920  25.666  1.00  0.00     0.278 C 
ENDBRANCH  14  19
BRANCH  16  21
ATOM     21  C   UNL A   1      33.125  17.523  22.575  1.00  0.00     0.075 C 
ATOM     22  O   UNL A   1      34.028  16.727  22.379  1.00  0.00    -0.545 OA
ATOM     23  O   UNL A   1      32.155  17.708  21.666  1.00  0.00    -0.545 OA
ENDBRANCH  16  21
ENDBRANCH   5  13
BRANCH   9  24
ATOM     24  C   UNL A   1      31.702  26.924  24.024  1.00  0.00     0.054 A 
ATOM     25  C   UNL A   1      30.328  27.246  24.046  1.00  0.00     0.027 A 
ATOM     26  C   UNL A   1      32.564  27.806  23.362  1.00  0.00     0.027 A 
ATOM     27  C   UNL A   1      29.833  28.370  23.374  1.00  0.00     0.002 A 
ATOM     28  C   UNL A   1      32.073  28.954  22.727  1.00  0.00     0.002 A 
ATOM     29  C   UNL A   1      30.707  29.223  22.711  1.00  0.00     0.000 A 
ENDBRANCH   9  24
ENDBRANCH   3   4
ENDBRANCH   2   3
ENDBRANCH   1   2
BRANCH   1  30
ATOM     30  O   UNL A   1      37.796  21.758  25.217  1.00  0.00    -0.458 OA
BRANCH  30  31
ATOM     31  C   UNL A   1      38.861  21.400  25.967  1.00  0.00     0.338 C 
ATOM     32  O   UNL A   1      39.465  20.343  25.950  1.00  0.00    -0.246 OA
BRANCH  31  33
ATOM     33  C   UNL A   1      39.377  22.623  26.596  1.00  0.00     0.060 A 
ATOM     34  C   UNL A   1      38.775  23.806  26.184  1.00  0.00     0.016 A 
ATOM     35  C   UNL A   1      40.420  22.644  27.518  1.00  0.00     0.016 A 
ATOM     36  C   UNL A   1      39.218  25.025  26.667  1.00  0.00     0.010 A 
ATOM     37  C   UNL A   1      40.873  23.882  28.001  1.00  0.00     0.010 A 
ATOM     38  C   UNL A   1      40.292  25.086  27.554  1.00  0.00    -0.014 A 
BRANCH  38  39
ATOM     39  C   UNL A   1      40.879  26.419  27.852  1.00  0.00     0.031 A 
ATOM     40  C   UNL A   1      42.237  26.752  27.301  1.00  0.00     0.074 A 
ATOM     41  C   UNL A   1      40.171  27.374  28.487  1.00  0.00     0.049 A 
ATOM     42  N   UNL A   1      43.002  27.779  27.552  1.00  0.00    -0.248 NA
ATOM     43  C   UNL A   1      42.803  25.804  26.327  1.00  0.00     0.031 C 
ATOM     44  C   UNL A   1      38.790  27.241  28.947  1.00  0.00     0.029 A 
ATOM     45  N   UNL A   1      40.517  28.656  28.840  1.00  0.00    -0.354 N 
ATOM     46  C   UNL A   1      44.175  27.558  26.841  1.00  0.00     0.074 A 
ATOM     47  C   UNL A   1      44.005  26.319  26.114  1.00  0.00     0.031 C 
ATOM     48  C   UNL A   1      38.400  28.397  29.506  1.00  0.00     0.029 A 
ATOM     49  C   UNL A   1      39.529  29.320  29.531  1.00  0.00     0.049 A 
ATOM     50  H   UNL A   1      41.388  29.061  28.620  1.00  0.00     0.167 HD
ATOM     51  C   UNL A   1      45.295  28.315  26.805  1.00  0.00     0.034 A 
ATOM     52  C   UNL A   1      39.551  30.512  30.160  1.00  0.00     0.034 A 
ATOM     53  C   UNL A   1      45.432  29.578  27.478  1.00  0.00     0.049 A 
ATOM     54  C   UNL A   1      40.823  31.317  30.151  1.00  0.00     0.074 A 
ATOM     55  C   UNL A   1      46.539  30.404  27.540  1.00  0.00     0.029 A 
ATOM     56  N   UNL A   1      44.421  30.204  28.189  1.00  0.00    -0.354 N 
ATOM     57  N   UNL A   1      41.950  31.073  29.527  1.00  0.00    -0.248 NA
ATOM     58  C   UNL A   1      40.831  32.559  30.940  1.00  0.00     0.031 C 
ATOM     59  C   UNL A   1      46.200  31.528  28.301  1.00  0.00     0.029 A 
ATOM     60  C   UNL A   1      44.876  31.410  28.692  1.00  0.00     0.049 A 
ATOM     61  H   UNL A   1      43.515  29.845  28.318  1.00  0.00     0.167 HD
ATOM     62  C   UNL A   1      42.796  32.132  29.836  1.00  0.00     0.074 A 
ATOM     63  C   UNL A   1      42.041  33.038  30.676  1.00  0.00     0.031 C 
ATOM     64  C   UNL A   1      44.091  32.325  29.481  1.00  0.00     0.034 A 
BRANCH  51  65
ATOM     65  C   UNL A   1      46.470  27.779  26.037  1.00  0.00     0.023 A 
ATOM     66  C   UNL A   1      46.603  28.047  24.661  1.00  0.00     0.012 A 
ATOM     67  C   UNL A   1      47.464  27.030  26.697  1.00  0.00     0.148 A 
ATOM     68  C   UNL A   1      47.696  27.552  23.948  1.00  0.00     0.002 A 
ATOM     69  C   UNL A   1      48.569  26.575  25.990  1.00  0.00     0.091 A 
ATOM     70  F   UNL A   1      47.300  26.762  28.001  1.00  0.00    -0.205 F 
ATOM     71  C   UNL A   1      48.682  26.826  24.613  1.00  0.00     0.022 A 
BRANCH  69  72
ATOM     72  S   UNL A   1      49.919  25.690  26.777  1.00  0.00     0.127 S 
ATOM     73  O   UNL A   1      50.852  25.525  25.663  1.00  0.00    -0.237 OA
ATOM     74  O   UNL A   1      50.353  26.638  27.803  1.00  0.00    -0.237 OA
ATOM     75  O   UNL A   1      49.341  24.459  27.298  1.00  0.00    -0.744 OA
ENDBRANCH  69  72
ENDBRANCH  51  65
BRANCH  52  76
ATOM     76  C   UNL A   1      38.338  30.998  30.884  1.00  0.00     0.023 A 
ATOM     77  C   UNL A   1      38.248  30.855  32.281  1.00  0.00     0.012 A 
ATOM     78  C   UNL A   1      37.281  31.625  30.193  1.00  0.00     0.148 A 
ATOM     79  C   UNL A   1      37.126  31.315  32.973  1.00  0.00     0.002 A 
ATOM     80  C   UNL A   1      36.201  32.144  30.896  1.00  0.00     0.091 A 
ATOM     81  F   UNL A   1      37.357  31.713  28.858  1.00  0.00    -0.205 F 
ATOM     82  C   UNL A   1      36.112  31.975  32.284  1.00  0.00     0.022 A 
BRANCH  80  83
ATOM     83  S   UNL A   1      34.941  33.141  30.092  1.00  0.00     0.127 S 
ATOM     84  O   UNL A   1      34.082  33.505  31.215  1.00  0.00    -0.237 OA
ATOM     85  O   UNL A   1      35.729  34.244  29.537  1.00  0.00    -0.237 OA
ATOM     86  O   UNL A   1      34.345  32.272  29.085  1.00  0.00    -0.744 OA
ENDBRANCH  80  83
ENDBRANCH  52  76
BRANCH  64  87
ATOM     87  C   UNL A   1      44.771  33.573  29.972  1.00  0.00     0.023 A 
ATOM     88  C   UNL A   1      45.512  33.538  31.169  1.00  0.00     0.012 A 
ATOM     89  C   UNL A   1      44.751  34.753  29.201  1.00  0.00     0.148 A 
ATOM     90  C   UNL A   1      46.204  34.667  31.606  1.00  0.00     0.002 A 
ATOM     91  C   UNL A   1      45.479  35.859  29.620  1.00  0.00     0.091 A 
ATOM     92  F   UNL A   1      44.023  34.768  28.076  1.00  0.00    -0.205 F 
ATOM     93  C   UNL A   1      46.197  35.822  30.826  1.00  0.00     0.022 A 
BRANCH  91  94
ATOM     94  S   UNL A   1      45.603  37.355  28.632  1.00  0.00     0.127 S 
ATOM     95  O   UNL A   1      46.512  38.169  29.438  1.00  0.00    -0.237 OA
ATOM     96  O   UNL A   1      46.176  36.857  27.382  1.00  0.00    -0.237 OA
ATOM     97  O   UNL A   1      44.245  37.867  28.511  1.00  0.00    -0.744 OA
ENDBRANCH  91  94
ENDBRANCH  64  87
ENDBRANCH  38  39
ENDBRANCH  31  33
ENDBRANCH  30  31
ENDBRANCH   1  30
TORSDOF 17
ENDMDL
