MODEL 1
REMARK VINA RESULT:     -11.0      0.000      0.000
REMARK SMILES [NH3+][C@H](/C=C\c1ccccc1)C(=O)OCCOC(=O)c1ccc(-c2c3nc(c(-c4cccc(S(=O)(=O)[O-])c4F)c4ccc([nH]4)c(-c4cccc(S(=O)(=O)[O-])c4F)c4nc(c(-c5cccc(S(=O)(=O)[O-])c5F)c5ccc2[nH]5)C=C4)C=C3)cc1
REMARK SMILES IDX 15 1 14 2 13 3 11 4 12 5 2 6 1 7 3 11 4 12 5 13 6 14 10 15
REMARK SMILES IDX 7 16 9 17 8 18 16 19 17 20 18 21 19 22 20 23 81 24 21 25
REMARK SMILES IDX 80 26 22 27 23 28 24 29 74 30 25 31 79 32 73 33 75 34 26 35
REMARK SMILES IDX 78 36 72 37 71 38 27 40 59 41 39 42 58 43 40 44 43 45 57 46
REMARK SMILES IDX 76 47 41 48 42 49 56 51 77 52 44 53 28 54 29 55 37 56 30 57
REMARK SMILES IDX 32 58 38 59 31 60 33 61 34 62 35 63 36 64 60 65 61 66 69 67
REMARK SMILES IDX 62 68 64 69 70 70 63 71 65 72 66 73 67 74 68 75 45 76 46 77
REMARK SMILES IDX 54 78 47 79 49 80 55 81 48 82 50 83 51 84 52 85 53 86
REMARK H PARENT 1 8 1 9 1 10 75 39 43 50
REMARK Flexibility Score: inf
ROOT
ATOM      1  C   UNL A   1      40.671  19.586  26.193  1.00  0.00     0.275 C 
ENDROOT
BRANCH   1   2
ATOM      2  C   UNL A   1      42.143  19.177  26.265  1.00  0.00     0.274 C 
BRANCH   2   3
ATOM      3  O   UNL A   1      42.771  19.165  24.968  1.00  0.00    -0.457 OA
BRANCH   3   4
ATOM      4  C   UNL A   1      44.095  18.818  24.959  1.00  0.00     0.369 C 
ATOM      5  O   UNL A   1      44.595  17.981  25.704  1.00  0.00    -0.245 OA
BRANCH   4   6
ATOM      6  C   UNL A   1      44.916  19.643  23.935  1.00  0.00     0.315 C 
BRANCH   6   7
ATOM      7  N   UNL A   1      45.252  18.805  22.767  1.00  0.00    -0.343 N 
ATOM      8  H   UNL A   1      44.397  18.418  22.370  1.00  0.00     0.345 HD
ATOM      9  H   UNL A   1      45.865  18.045  23.060  1.00  0.00     0.345 HD
ATOM     10  H   UNL A   1      45.726  19.374  22.066  1.00  0.00     0.345 HD
ENDBRANCH   6   7
BRANCH   6  11
ATOM     11  C   UNL A   1      46.185  20.224  24.511  1.00  0.00     0.049 C 
ATOM     12  C   UNL A   1      46.382  21.489  24.924  1.00  0.00     0.010 C 
BRANCH  12  13
ATOM     13  C   UNL A   1      45.358  22.533  24.875  1.00  0.00    -0.026 A 
ATOM     14  C   UNL A   1      43.999  22.216  24.943  1.00  0.00     0.008 A 
ATOM     15  C   UNL A   1      45.748  23.873  24.815  1.00  0.00     0.008 A 
ATOM     16  C   UNL A   1      43.044  23.235  24.992  1.00  0.00     0.001 A 
ATOM     17  C   UNL A   1      44.797  24.891  24.890  1.00  0.00     0.001 A 
ATOM     18  C   UNL A   1      43.445  24.571  24.986  1.00  0.00     0.000 A 
ENDBRANCH  12  13
ENDBRANCH   6  11
ENDBRANCH   4   6
ENDBRANCH   3   4
ENDBRANCH   2   3
ENDBRANCH   1   2
BRANCH   1  19
ATOM     19  O   UNL A   1      40.383  20.678  27.081  1.00  0.00    -0.458 OA
BRANCH  19  20
ATOM     20  C   UNL A   1      39.638  21.676  26.553  1.00  0.00     0.338 C 
ATOM     21  O   UNL A   1      38.713  21.575  25.765  1.00  0.00    -0.246 OA
BRANCH  20  22
ATOM     22  C   UNL A   1      40.053  22.955  27.144  1.00  0.00     0.060 A 
ATOM     23  C   UNL A   1      39.522  24.128  26.616  1.00  0.00     0.016 A 
ATOM     24  C   UNL A   1      41.032  23.006  28.138  1.00  0.00     0.016 A 
ATOM     25  C   UNL A   1      40.000  25.364  27.048  1.00  0.00     0.010 A 
ATOM     26  C   UNL A   1      41.479  24.251  28.601  1.00  0.00     0.010 A 
ATOM     27  C   UNL A   1      40.985  25.444  28.043  1.00  0.00    -0.014 A 
BRANCH  27  28
ATOM     28  C   UNL A   1      41.482  26.773  28.494  1.00  0.00     0.031 A 
ATOM     29  C   UNL A   1      40.530  27.813  29.023  1.00  0.00     0.074 A 
ATOM     30  C   UNL A   1      42.799  27.055  28.420  1.00  0.00     0.049 A 
ATOM     31  N   UNL A   1      40.767  29.059  29.346  1.00  0.00    -0.248 NA
ATOM     32  C   UNL A   1      39.128  27.403  29.215  1.00  0.00     0.031 C 
ATOM     33  C   UNL A   1      43.832  26.138  27.938  1.00  0.00     0.029 A 
ATOM     34  N   UNL A   1      43.490  28.202  28.728  1.00  0.00    -0.354 N 
ATOM     35  C   UNL A   1      39.541  29.600  29.713  1.00  0.00     0.074 A 
ATOM     36  C   UNL A   1      38.562  28.541  29.597  1.00  0.00     0.031 C 
ATOM     37  C   UNL A   1      45.023  26.754  27.980  1.00  0.00     0.029 A 
ATOM     38  C   UNL A   1      44.831  28.130  28.426  1.00  0.00     0.049 A 
ATOM     39  H   UNL A   1      43.069  28.997  29.128  1.00  0.00     0.167 HD
ATOM     40  C   UNL A   1      39.260  30.861  30.119  1.00  0.00     0.034 A 
ATOM     41  C   UNL A   1      45.793  29.074  28.455  1.00  0.00     0.034 A 
ATOM     42  C   UNL A   1      40.242  31.895  30.310  1.00  0.00     0.049 A 
ATOM     43  C   UNL A   1      45.447  30.468  28.895  1.00  0.00     0.074 A 
ATOM     44  C   UNL A   1      40.055  33.174  30.805  1.00  0.00     0.029 A 
ATOM     45  N   UNL A   1      41.589  31.774  30.012  1.00  0.00    -0.354 N 
ATOM     46  N   UNL A   1      44.304  30.931  29.337  1.00  0.00    -0.248 NA
ATOM     47  C   UNL A   1      46.524  31.469  28.845  1.00  0.00     0.031 C 
ATOM     48  C   UNL A   1      41.289  33.834  30.792  1.00  0.00     0.029 A 
ATOM     49  C   UNL A   1      42.242  32.963  30.291  1.00  0.00     0.049 A 
ATOM     50  H   UNL A   1      42.018  30.963  29.655  1.00  0.00     0.167 HD
ATOM     51  C   UNL A   1      44.523  32.275  29.618  1.00  0.00     0.074 A 
ATOM     52  C   UNL A   1      45.917  32.543  29.335  1.00  0.00     0.031 C 
ATOM     53  C   UNL A   1      43.638  33.209  30.046  1.00  0.00     0.034 A 
BRANCH  40  54
ATOM     54  C   UNL A   1      37.827  31.204  30.421  1.00  0.00     0.023 A 
ATOM     55  C   UNL A   1      37.360  31.136  31.747  1.00  0.00     0.012 A 
ATOM     56  C   UNL A   1      36.978  31.691  29.408  1.00  0.00     0.148 A 
ATOM     57  C   UNL A   1      36.062  31.539  32.060  1.00  0.00     0.002 A 
ATOM     58  C   UNL A   1      35.696  32.118  29.732  1.00  0.00     0.091 A 
ATOM     59  F   UNL A   1      37.438  31.724  28.149  1.00  0.00    -0.205 F 
ATOM     60  C   UNL A   1      35.235  32.041  31.057  1.00  0.00     0.022 A 
BRANCH  58  61
ATOM     61  S   UNL A   1      34.583  32.837  28.518  1.00  0.00     0.127 S 
ATOM     62  O   UNL A   1      35.499  33.663  27.733  1.00  0.00    -0.237 OA
ATOM     63  O   UNL A   1      34.078  31.654  27.819  1.00  0.00    -0.237 OA
ATOM     64  O   UNL A   1      33.577  33.564  29.279  1.00  0.00    -0.744 OA
ENDBRANCH  58  61
ENDBRANCH  40  54
BRANCH  41  65
ATOM     65  C   UNL A   1      47.181  28.722  28.041  1.00  0.00     0.023 A 
ATOM     66  C   UNL A   1      48.187  28.597  29.017  1.00  0.00     0.012 A 
ATOM     67  C   UNL A   1      47.496  28.464  26.693  1.00  0.00     0.148 A 
ATOM     68  C   UNL A   1      49.485  28.233  28.654  1.00  0.00     0.002 A 
ATOM     69  C   UNL A   1      48.775  28.042  26.347  1.00  0.00     0.091 A 
ATOM     70  F   UNL A   1      46.538  28.623  25.768  1.00  0.00    -0.205 F 
ATOM     71  C   UNL A   1      49.775  27.939  27.324  1.00  0.00     0.022 A 
BRANCH  69  72
ATOM     72  S   UNL A   1      49.150  27.501  24.676  1.00  0.00     0.127 S 
ATOM     73  O   UNL A   1      47.945  27.894  23.952  1.00  0.00    -0.237 OA
ATOM     74  O   UNL A   1      50.345  28.282  24.350  1.00  0.00    -0.237 OA
ATOM     75  O   UNL A   1      49.397  26.069  24.797  1.00  0.00    -0.744 OA
ENDBRANCH  69  72
ENDBRANCH  41  65
BRANCH  53  76
ATOM     76  C   UNL A   1      44.142  34.616  30.221  1.00  0.00     0.023 A 
ATOM     77  C   UNL A   1      44.759  34.975  31.435  1.00  0.00     0.012 A 
ATOM     78  C   UNL A   1      44.080  35.551  29.170  1.00  0.00     0.148 A 
ATOM     79  C   UNL A   1      45.291  36.252  31.610  1.00  0.00     0.002 A 
ATOM     80  C   UNL A   1      44.645  36.811  29.338  1.00  0.00     0.091 A 
ATOM     81  F   UNL A   1      43.470  35.195  28.031  1.00  0.00    -0.205 F 
ATOM     82  C   UNL A   1      45.245  37.165  30.558  1.00  0.00     0.022 A 
BRANCH  80  83
ATOM     83  S   UNL A   1      44.703  38.022  28.012  1.00  0.00     0.127 S 
ATOM     84  O   UNL A   1      45.271  37.238  26.917  1.00  0.00    -0.237 OA
ATOM     85  O   UNL A   1      43.292  38.372  27.844  1.00  0.00    -0.237 OA
ATOM     86  O   UNL A   1      45.538  39.110  28.503  1.00  0.00    -0.744 OA
ENDBRANCH  80  83
ENDBRANCH  53  76
ENDBRANCH  27  28
ENDBRANCH  20  22
ENDBRANCH  19  20
ENDBRANCH   1  19
TORSDOF 17
ENDMDL
MODEL 2
REMARK VINA RESULT:     -11.0      5.756     11.080
REMARK SMILES [NH3+][C@H](/C=C\c1ccccc1)C(=O)OCCOC(=O)c1ccc(-c2c3nc(c(-c4cccc(S(=O)(=O)[O-])c4F)c4ccc([nH]4)c(-c4cccc(S(=O)(=O)[O-])c4F)c4nc(c(-c5cccc(S(=O)(=O)[O-])c5F)c5ccc2[nH]5)C=C4)C=C3)cc1
REMARK SMILES IDX 15 1 14 2 13 3 11 4 12 5 2 6 1 7 3 11 4 12 5 13 6 14 10 15
REMARK SMILES IDX 7 16 9 17 8 18 16 19 17 20 18 21 19 22 20 23 81 24 21 25
REMARK SMILES IDX 80 26 22 27 23 28 24 29 74 30 25 31 79 32 73 33 75 34 26 35
REMARK SMILES IDX 78 36 72 37 71 38 27 40 59 41 39 42 58 43 40 44 43 45 57 46
REMARK SMILES IDX 76 47 41 48 42 49 56 51 77 52 44 53 28 54 29 55 37 56 30 57
REMARK SMILES IDX 32 58 38 59 31 60 33 61 34 62 35 63 36 64 60 65 61 66 69 67
REMARK SMILES IDX 62 68 64 69 70 70 63 71 65 72 66 73 67 74 68 75 45 76 46 77
REMARK SMILES IDX 54 78 47 79 49 80 55 81 48 82 50 83 51 84 52 85 53 86
REMARK H PARENT 1 8 1 9 1 10 75 39 43 50
REMARK Flexibility Score: inf
ROOT
ATOM      1  C   UNL A   1      31.457  30.198  25.628  1.00  0.00     0.275 C 
ENDROOT
BRANCH   1   2
ATOM      2  C   UNL A   1      31.283  29.050  24.633  1.00  0.00     0.274 C 
BRANCH   2   3
ATOM      3  O   UNL A   1      32.531  28.653  24.033  1.00  0.00    -0.457 OA
BRANCH   3   4
ATOM      4  C   UNL A   1      33.007  27.430  24.420  1.00  0.00     0.369 C 
ATOM      5  O   UNL A   1      33.231  27.112  25.584  1.00  0.00    -0.245 OA
BRANCH   4   6
ATOM      6  C   UNL A   1      33.288  26.496  23.215  1.00  0.00     0.315 C 
BRANCH   6   7
ATOM      7  N   UNL A   1      32.939  27.182  21.955  1.00  0.00    -0.343 N 
ATOM      8  H   UNL A   1      31.979  26.953  21.699  1.00  0.00     0.345 HD
ATOM      9  H   UNL A   1      33.571  26.876  21.215  1.00  0.00     0.345 HD
ATOM     10  H   UNL A   1      33.027  28.190  22.081  1.00  0.00     0.345 HD
ENDBRANCH   6   7
BRANCH   6  11
ATOM     11  C   UNL A   1      32.549  25.182  23.286  1.00  0.00     0.049 C 
ATOM     12  C   UNL A   1      33.050  23.990  23.656  1.00  0.00     0.010 C 
BRANCH  12  13
ATOM     13  C   UNL A   1      34.441  23.778  24.057  1.00  0.00    -0.026 A 
ATOM     14  C   UNL A   1      34.861  24.021  25.367  1.00  0.00     0.008 A 
ATOM     15  C   UNL A   1      35.353  23.270  23.128  1.00  0.00     0.008 A 
ATOM     16  C   UNL A   1      36.170  23.719  25.750  1.00  0.00     0.001 A 
ATOM     17  C   UNL A   1      36.653  22.944  23.516  1.00  0.00     0.001 A 
ATOM     18  C   UNL A   1      37.058  23.163  24.830  1.00  0.00     0.000 A 
ENDBRANCH  12  13
ENDBRANCH   6  11
ENDBRANCH   4   6
ENDBRANCH   3   4
ENDBRANCH   2   3
ENDBRANCH   1   2
BRANCH   1  19
ATOM     19  O   UNL A   1      32.845  30.454  25.900  1.00  0.00    -0.458 OA
BRANCH  19  20
ATOM     20  C   UNL A   1      33.090  31.367  26.867  1.00  0.00     0.338 C 
ATOM     21  O   UNL A   1      32.350  32.257  27.253  1.00  0.00    -0.246 OA
BRANCH  20  22
ATOM     22  C   UNL A   1      34.394  31.085  27.481  1.00  0.00     0.060 A 
ATOM     23  C   UNL A   1      34.692  29.768  27.818  1.00  0.00     0.016 A 
ATOM     24  C   UNL A   1      35.271  32.118  27.815  1.00  0.00     0.016 A 
ATOM     25  C   UNL A   1      35.854  29.480  28.533  1.00  0.00     0.010 A 
ATOM     26  C   UNL A   1      36.459  31.818  28.496  1.00  0.00     0.010 A 
ATOM     27  C   UNL A   1      36.751  30.498  28.884  1.00  0.00    -0.014 A 
BRANCH  27  28
ATOM     28  C   UNL A   1      37.988  30.172  29.647  1.00  0.00     0.031 A 
ATOM     29  C   UNL A   1      39.020  29.235  29.076  1.00  0.00     0.074 A 
ATOM     30  C   UNL A   1      38.184  30.711  30.867  1.00  0.00     0.049 A 
ATOM     31  N   UNL A   1      40.092  28.746  29.645  1.00  0.00    -0.248 NA
ATOM     32  C   UNL A   1      38.824  28.788  27.686  1.00  0.00     0.031 C 
ATOM     33  C   UNL A   1      37.272  31.641  31.534  1.00  0.00     0.029 A 
ATOM     34  N   UNL A   1      39.203  30.539  31.772  1.00  0.00    -0.354 N 
ATOM     35  C   UNL A   1      40.661  27.886  28.714  1.00  0.00     0.074 A 
ATOM     36  C   UNL A   1      39.830  27.936  27.530  1.00  0.00     0.031 C 
ATOM     37  C   UNL A   1      37.768  31.955  32.740  1.00  0.00     0.029 A 
ATOM     38  C   UNL A   1      38.996  31.199  32.961  1.00  0.00     0.049 A 
ATOM     39  H   UNL A   1      40.004  29.996  31.588  1.00  0.00     0.167 HD
ATOM     40  C   UNL A   1      41.780  27.131  28.831  1.00  0.00     0.034 A 
ATOM     41  C   UNL A   1      39.686  31.168  34.119  1.00  0.00     0.034 A 
ATOM     42  C   UNL A   1      42.651  27.137  29.976  1.00  0.00     0.049 A 
ATOM     43  C   UNL A   1      40.914  30.309  34.223  1.00  0.00     0.074 A 
ATOM     44  C   UNL A   1      43.854  26.471  30.141  1.00  0.00     0.029 A 
ATOM     45  N   UNL A   1      42.416  27.835  31.148  1.00  0.00    -0.354 N 
ATOM     46  N   UNL A   1      41.493  29.584  33.298  1.00  0.00    -0.248 NA
ATOM     47  C   UNL A   1      41.588  30.266  35.531  1.00  0.00     0.031 C 
ATOM     48  C   UNL A   1      44.339  26.754  31.422  1.00  0.00     0.029 A 
ATOM     49  C   UNL A   1      43.439  27.598  32.051  1.00  0.00     0.049 A 
ATOM     50  H   UNL A   1      41.638  28.413  31.315  1.00  0.00     0.167 HD
ATOM     51  C   UNL A   1      42.597  29.001  33.908  1.00  0.00     0.074 A 
ATOM     52  C   UNL A   1      42.630  29.487  35.272  1.00  0.00     0.031 C 
ATOM     53  C   UNL A   1      43.487  28.118  33.392  1.00  0.00     0.034 A 
BRANCH  40  54
ATOM     54  C   UNL A   1      42.159  26.244  27.677  1.00  0.00     0.023 A 
ATOM     55  C   UNL A   1      43.031  26.730  26.683  1.00  0.00     0.012 A 
ATOM     56  C   UNL A   1      41.735  24.901  27.635  1.00  0.00     0.148 A 
ATOM     57  C   UNL A   1      43.467  25.893  25.657  1.00  0.00     0.002 A 
ATOM     58  C   UNL A   1      42.197  24.066  26.625  1.00  0.00     0.091 A 
ATOM     59  F   UNL A   1      40.886  24.469  28.579  1.00  0.00    -0.205 F 
ATOM     60  C   UNL A   1      43.061  24.560  25.634  1.00  0.00     0.022 A 
BRANCH  58  61
ATOM     61  S   UNL A   1      41.778  22.320  26.551  1.00  0.00     0.127 S 
ATOM     62  O   UNL A   1      42.283  21.842  27.838  1.00  0.00    -0.237 OA
ATOM     63  O   UNL A   1      40.319  22.354  26.444  1.00  0.00    -0.237 OA
ATOM     64  O   UNL A   1      42.458  21.795  25.376  1.00  0.00    -0.744 OA
ENDBRANCH  58  61
ENDBRANCH  40  54
BRANCH  41  65
ATOM     65  C   UNL A   1      39.214  31.977  35.279  1.00  0.00     0.023 A 
ATOM     66  C   UNL A   1      38.342  31.400  36.220  1.00  0.00     0.012 A 
ATOM     67  C   UNL A   1      39.663  33.297  35.477  1.00  0.00     0.148 A 
ATOM     68  C   UNL A   1      37.917  32.129  37.333  1.00  0.00     0.002 A 
ATOM     69  C   UNL A   1      39.285  33.995  36.618  1.00  0.00     0.091 A 
ATOM     70  F   UNL A   1      40.464  33.848  34.553  1.00  0.00    -0.205 F 
ATOM     71  C   UNL A   1      38.401  33.418  37.541  1.00  0.00     0.022 A 
BRANCH  69  72
ATOM     72  S   UNL A   1      40.007  35.593  37.007  1.00  0.00     0.127 S 
ATOM     73  O   UNL A   1      39.372  35.911  38.282  1.00  0.00    -0.237 OA
ATOM     74  O   UNL A   1      41.436  35.284  37.091  1.00  0.00    -0.237 OA
ATOM     75  O   UNL A   1      39.653  36.444  35.876  1.00  0.00    -0.744 OA
ENDBRANCH  69  72
ENDBRANCH  41  65
BRANCH  53  76
ATOM     76  C   UNL A   1      44.567  27.604  34.304  1.00  0.00     0.023 A 
ATOM     77  C   UNL A   1      45.740  28.364  34.472  1.00  0.00     0.012 A 
ATOM     78  C   UNL A   1      44.393  26.423  35.050  1.00  0.00     0.148 A 
ATOM     79  C   UNL A   1      46.735  27.948  35.355  1.00  0.00     0.002 A 
ATOM     80  C   UNL A   1      45.372  26.032  35.956  1.00  0.00     0.091 A 
ATOM     81  F   UNL A   1      43.278  25.703  34.860  1.00  0.00    -0.205 F 
ATOM     82  C   UNL A   1      46.546  26.789  36.106  1.00  0.00     0.022 A 
BRANCH  80  83
ATOM     83  S   UNL A   1      45.178  24.599  37.022  1.00  0.00     0.127 S 
ATOM     84  O   UNL A   1      45.027  23.520  36.047  1.00  0.00    -0.237 OA
ATOM     85  O   UNL A   1      46.442  24.581  37.759  1.00  0.00    -0.237 OA
ATOM     86  O   UNL A   1      44.007  24.871  37.844  1.00  0.00    -0.744 OA
ENDBRANCH  80  83
ENDBRANCH  53  76
ENDBRANCH  27  28
ENDBRANCH  20  22
ENDBRANCH  19  20
ENDBRANCH   1  19
TORSDOF 17
ENDMDL
MODEL 3
REMARK VINA RESULT:     -10.9      4.984     11.518
REMARK SMILES [NH3+][C@H](/C=C\c1ccccc1)C(=O)OCCOC(=O)c1ccc(-c2c3nc(c(-c4cccc(S(=O)(=O)[O-])c4F)c4ccc([nH]4)c(-c4cccc(S(=O)(=O)[O-])c4F)c4nc(c(-c5cccc(S(=O)(=O)[O-])c5F)c5ccc2[nH]5)C=C4)C=C3)cc1
REMARK SMILES IDX 15 1 14 2 13 3 11 4 12 5 2 6 1 7 3 11 4 12 5 13 6 14 10 15
REMARK SMILES IDX 7 16 9 17 8 18 16 19 17 20 18 21 19 22 20 23 81 24 21 25
REMARK SMILES IDX 80 26 22 27 23 28 24 29 74 30 25 31 79 32 73 33 75 34 26 35
REMARK SMILES IDX 78 36 72 37 71 38 27 40 59 41 39 42 58 43 40 44 43 45 57 46
REMARK SMILES IDX 76 47 41 48 42 49 56 51 77 52 44 53 28 54 29 55 37 56 30 57
REMARK SMILES IDX 32 58 38 59 31 60 33 61 34 62 35 63 36 64 60 65 61 66 69 67
REMARK SMILES IDX 62 68 64 69 70 70 63 71 65 72 66 73 67 74 68 75 45 76 46 77
REMARK SMILES IDX 54 78 47 79 49 80 55 81 48 82 50 83 51 84 52 85 53 86
REMARK H PARENT 1 8 1 9 1 10 75 39 43 50
REMARK Flexibility Score: inf
ROOT
ATOM      1  C   UNL A   1      33.554  33.711  28.283  1.00  0.00     0.275 C 
ENDROOT
BRANCH   1   2
ATOM      2  C   UNL A   1      33.753  34.580  29.526  1.00  0.00     0.274 C 
BRANCH   2   3
ATOM      3  O   UNL A   1      32.520  35.172  29.981  1.00  0.00    -0.457 OA
BRANCH   3   4
ATOM      4  C   UNL A   1      32.656  36.186  30.890  1.00  0.00     0.369 C 
ATOM      5  O   UNL A   1      32.897  37.352  30.593  1.00  0.00    -0.245 OA
BRANCH   4   6
ATOM      6  C   UNL A   1      32.525  35.691  32.353  1.00  0.00     0.315 C 
BRANCH   6   7
ATOM      7  N   UNL A   1      31.183  36.013  32.876  1.00  0.00    -0.343 N 
ATOM      8  H   UNL A   1      31.274  36.560  33.732  1.00  0.00     0.345 HD
ATOM      9  H   UNL A   1      30.680  35.149  33.076  1.00  0.00     0.345 HD
ATOM     10  H   UNL A   1      30.668  36.552  32.180  1.00  0.00     0.345 HD
ENDBRANCH   6   7
BRANCH   6  11
ATOM     11  C   UNL A   1      33.570  36.267  33.278  1.00  0.00     0.049 C 
ATOM     12  C   UNL A   1      34.790  35.763  33.537  1.00  0.00     0.010 C 
BRANCH  12  13
ATOM     13  C   UNL A   1      35.308  34.532  32.939  1.00  0.00    -0.026 A 
ATOM     14  C   UNL A   1      34.682  33.302  33.160  1.00  0.00     0.008 A 
ATOM     15  C   UNL A   1      36.413  34.595  32.087  1.00  0.00     0.008 A 
ATOM     16  C   UNL A   1      35.137  32.157  32.501  1.00  0.00     0.001 A 
ATOM     17  C   UNL A   1      36.851  33.457  31.409  1.00  0.00     0.001 A 
ATOM     18  C   UNL A   1      36.207  32.240  31.611  1.00  0.00     0.000 A 
ENDBRANCH  12  13
ENDBRANCH   6  11
ENDBRANCH   4   6
ENDBRANCH   3   4
ENDBRANCH   2   3
ENDBRANCH   1   2
BRANCH   1  19
ATOM     19  O   UNL A   1      34.750  32.988  27.948  1.00  0.00    -0.458 OA
BRANCH  19  20
ATOM     20  C   UNL A   1      34.606  31.649  27.828  1.00  0.00     0.338 C 
ATOM     21  O   UNL A   1      33.645  31.042  27.384  1.00  0.00    -0.246 OA
BRANCH  20  22
ATOM     22  C   UNL A   1      35.850  30.988  28.245  1.00  0.00     0.060 A 
ATOM     23  C   UNL A   1      35.758  29.750  28.874  1.00  0.00     0.016 A 
ATOM     24  C   UNL A   1      37.084  31.626  28.111  1.00  0.00     0.016 A 
ATOM     25  C   UNL A   1      36.899  29.160  29.415  1.00  0.00     0.010 A 
ATOM     26  C   UNL A   1      38.235  31.008  28.619  1.00  0.00     0.010 A 
ATOM     27  C   UNL A   1      38.152  29.779  29.298  1.00  0.00    -0.014 A 
BRANCH  27  28
ATOM     28  C   UNL A   1      39.361  29.134  29.880  1.00  0.00     0.031 A 
ATOM     29  C   UNL A   1      39.962  29.643  31.164  1.00  0.00     0.074 A 
ATOM     30  C   UNL A   1      39.932  28.089  29.247  1.00  0.00     0.049 A 
ATOM     31  N   UNL A   1      41.076  29.284  31.750  1.00  0.00    -0.248 NA
ATOM     32  C   UNL A   1      39.219  30.690  31.884  1.00  0.00     0.031 C 
ATOM     33  C   UNL A   1      39.448  27.489  28.004  1.00  0.00     0.029 A 
ATOM     34  N   UNL A   1      41.056  27.361  29.552  1.00  0.00    -0.354 N 
ATOM     35  C   UNL A   1      41.202  30.102  32.866  1.00  0.00     0.074 A 
ATOM     36  C   UNL A   1      40.039  30.963  32.892  1.00  0.00     0.031 C 
ATOM     37  C   UNL A   1      40.268  26.489  27.649  1.00  0.00     0.029 A 
ATOM     38  C   UNL A   1      41.372  26.419  28.600  1.00  0.00     0.049 A 
ATOM     39  H   UNL A   1      41.585  27.498  30.372  1.00  0.00     0.167 HD
ATOM     40  C   UNL A   1      42.192  30.126  33.790  1.00  0.00     0.034 A 
ATOM     41  C   UNL A   1      42.450  25.619  28.474  1.00  0.00     0.034 A 
ATOM     42  C   UNL A   1      43.310  29.221  33.812  1.00  0.00     0.049 A 
ATOM     43  C   UNL A   1      43.539  25.680  29.507  1.00  0.00     0.074 A 
ATOM     44  C   UNL A   1      44.311  29.118  34.764  1.00  0.00     0.029 A 
ATOM     45  N   UNL A   1      43.580  28.270  32.843  1.00  0.00    -0.354 N 
ATOM     46  N   UNL A   1      43.590  26.386  30.609  1.00  0.00    -0.248 NA
ATOM     47  C   UNL A   1      44.719  24.831  29.282  1.00  0.00     0.031 C 
ATOM     48  C   UNL A   1      45.197  28.113  34.360  1.00  0.00     0.029 A 
ATOM     49  C   UNL A   1      44.745  27.591  33.160  1.00  0.00     0.049 A 
ATOM     50  H   UNL A   1      43.026  28.103  32.046  1.00  0.00     0.167 HD
ATOM     51  C   UNL A   1      44.802  26.068  31.209  1.00  0.00     0.074 A 
ATOM     52  C   UNL A   1      45.439  25.075  30.370  1.00  0.00     0.031 C 
ATOM     53  C   UNL A   1      45.350  26.575  32.340  1.00  0.00     0.034 A 
BRANCH  40  54
ATOM     54  C   UNL A   1      42.109  31.150  34.889  1.00  0.00     0.023 A 
ATOM     55  C   UNL A   1      41.589  30.781  36.145  1.00  0.00     0.012 A 
ATOM     56  C   UNL A   1      42.640  32.442  34.707  1.00  0.00     0.148 A 
ATOM     57  C   UNL A   1      41.590  31.690  37.203  1.00  0.00     0.002 A 
ATOM     58  C   UNL A   1      42.663  33.332  35.775  1.00  0.00     0.091 A 
ATOM     59  F   UNL A   1      43.107  32.776  33.496  1.00  0.00    -0.205 F 
ATOM     60  C   UNL A   1      42.137  32.958  37.023  1.00  0.00     0.022 A 
BRANCH  58  61
ATOM     61  S   UNL A   1      43.404  34.964  35.653  1.00  0.00     0.127 S 
ATOM     62  O   UNL A   1      42.519  35.617  34.690  1.00  0.00    -0.237 OA
ATOM     63  O   UNL A   1      43.287  35.463  37.024  1.00  0.00    -0.237 OA
ATOM     64  O   UNL A   1      44.772  34.750  35.203  1.00  0.00    -0.744 OA
ENDBRANCH  58  61
ENDBRANCH  40  54
BRANCH  41  65
ATOM     65  C   UNL A   1      42.549  24.695  27.308  1.00  0.00     0.023 A 
ATOM     66  C   UNL A   1      43.220  25.113  26.145  1.00  0.00     0.012 A 
ATOM     67  C   UNL A   1      42.022  23.391  27.366  1.00  0.00     0.148 A 
ATOM     68  C   UNL A   1      43.356  24.251  25.055  1.00  0.00     0.002 A 
ATOM     69  C   UNL A   1      42.215  22.516  26.302  1.00  0.00     0.091 A 
ATOM     70  F   UNL A   1      41.352  23.017  28.466  1.00  0.00    -0.205 F 
ATOM     71  C   UNL A   1      42.869  22.948  25.140  1.00  0.00     0.022 A 
BRANCH  69  72
ATOM     72  S   UNL A   1      41.746  20.788  26.429  1.00  0.00     0.127 S 
ATOM     73  O   UNL A   1      42.547  20.177  25.373  1.00  0.00    -0.237 OA
ATOM     74  O   UNL A   1      42.161  20.444  27.791  1.00  0.00    -0.237 OA
ATOM     75  O   UNL A   1      40.301  20.780  26.234  1.00  0.00    -0.744 OA
ENDBRANCH  69  72
ENDBRANCH  41  65
BRANCH  53  76
ATOM     76  C   UNL A   1      46.715  26.081  32.735  1.00  0.00     0.023 A 
ATOM     77  C   UNL A   1      47.852  26.777  32.282  1.00  0.00     0.012 A 
ATOM     78  C   UNL A   1      46.873  24.989  33.610  1.00  0.00     0.148 A 
ATOM     79  C   UNL A   1      49.130  26.383  32.677  1.00  0.00     0.002 A 
ATOM     80  C   UNL A   1      48.148  24.624  34.030  1.00  0.00     0.091 A 
ATOM     81  F   UNL A   1      45.779  24.328  34.013  1.00  0.00    -0.205 F 
ATOM     82  C   UNL A   1      49.277  25.315  33.559  1.00  0.00     0.022 A 
BRANCH  80  83
ATOM     83  S   UNL A   1      48.426  23.313  35.226  1.00  0.00     0.127 S 
ATOM     84  O   UNL A   1      47.626  22.225  34.669  1.00  0.00    -0.237 OA
ATOM     85  O   UNL A   1      49.873  23.111  35.141  1.00  0.00    -0.237 OA
ATOM     86  O   UNL A   1      47.967  23.838  36.505  1.00  0.00    -0.744 OA
ENDBRANCH  80  83
ENDBRANCH  53  76
ENDBRANCH  27  28
ENDBRANCH  20  22
ENDBRANCH  19  20
ENDBRANCH   1  19
TORSDOF 17
ENDMDL
