MODEL 1
REMARK VINA RESULT:     -10.6      0.000      0.000
REMARK SMILES CC[C@H](C(=O)OCCOC(=O)c1ccc(-c2c3nc(c(-c4cccc(S(=O)(=O)[O-])c4F)c4ccc([nH]4)c(-c4cccc(S(=O)(=O)[O-])c4F)c4nc(c(-c5cccc(S(=O)(=O)[O-])c5F)c5ccc2[nH]5)C=C4)C=C3)cc1)[N@H+](C)[C@H]1CC[C@H]([NH3+])CC1
REMARK SMILES IDX 7 1 6 2 4 3 5 4 3 5 2 6 1 7 75 8 76 9 77 11 78 12 83 13
REMARK SMILES IDX 79 14 82 15 80 16 81 17 8 21 9 22 10 23 11 24 12 25 13 26
REMARK SMILES IDX 74 27 14 28 73 29 15 30 16 31 17 32 67 33 18 34 72 35 66 36
REMARK SMILES IDX 68 37 19 38 71 39 65 40 64 41 20 43 52 44 32 45 51 46 33 47
REMARK SMILES IDX 36 48 50 49 69 50 34 51 35 52 49 54 70 55 37 56 21 57 22 58
REMARK SMILES IDX 30 59 23 60 25 61 31 62 24 63 26 64 27 65 28 66 29 67 53 68
REMARK SMILES IDX 54 69 62 70 55 71 57 72 63 73 56 74 58 75 59 76 60 77 61 78
REMARK SMILES IDX 38 79 39 80 47 81 40 82 42 83 48 84 41 85 43 86 44 87 45 88
REMARK SMILES IDX 46 89
REMARK H PARENT 75 10 81 18 81 19 81 20 68 42 36 53
REMARK Flexibility Score: inf
ROOT
ATOM      1  C   UNL A   1      31.395  31.313  26.007  1.00  0.00     0.274 C 
ENDROOT
BRANCH   1   2
ATOM      2  O   UNL A   1      32.508  30.436  26.222  1.00  0.00    -0.458 OA
BRANCH   2   3
ATOM      3  C   UNL A   1      32.249  29.117  26.465  1.00  0.00     0.365 C 
ATOM      4  O   UNL A   1      31.475  28.713  27.320  1.00  0.00    -0.245 OA
BRANCH   3   5
ATOM      5  C   UNL A   1      33.027  28.273  25.425  1.00  0.00     0.294 C 
BRANCH   5   6
ATOM      6  C   UNL A   1      33.668  26.976  25.999  1.00  0.00     0.074 C 
ATOM      7  C   UNL A   1      32.857  25.690  25.878  1.00  0.00     0.011 C 
ENDBRANCH   5   6
BRANCH   5   8
ATOM      8  N   UNL A   1      32.386  28.176  24.070  1.00  0.00    -0.323 N 
ATOM      9  C   UNL A   1      33.101  28.890  23.010  1.00  0.00     0.333 C 
ATOM     10  H   UNL A   1      32.517  27.186  23.867  1.00  0.00     0.348 HD
BRANCH   8  11
ATOM     11  C   UNL A   1      30.922  28.278  23.996  1.00  0.00     0.184 C 
ATOM     12  C   UNL A   1      30.198  26.945  23.690  1.00  0.00     0.071 C 
ATOM     13  C   UNL A   1      30.419  29.361  23.028  1.00  0.00     0.071 C 
ATOM     14  C   UNL A   1      28.676  27.104  23.781  1.00  0.00     0.071 C 
ATOM     15  C   UNL A   1      28.914  29.552  23.188  1.00  0.00     0.071 C 
ATOM     16  C   UNL A   1      28.167  28.251  22.898  1.00  0.00     0.181 C 
BRANCH  16  17
ATOM     17  N   UNL A   1      26.734  28.461  23.101  1.00  0.00    -0.355 N 
ATOM     18  H   UNL A   1      26.314  28.802  22.236  1.00  0.00     0.344 HD
ATOM     19  H   UNL A   1      26.592  29.149  23.841  1.00  0.00     0.344 HD
ATOM     20  H   UNL A   1      26.295  27.579  23.368  1.00  0.00     0.344 HD
ENDBRANCH  16  17
ENDBRANCH   8  11
ENDBRANCH   5   8
ENDBRANCH   3   5
ENDBRANCH   2   3
ENDBRANCH   1   2
BRANCH   1  21
ATOM     21  C   UNL A   1      31.754  32.686  26.581  1.00  0.00     0.275 C 
BRANCH  21  22
ATOM     22  O   UNL A   1      32.670  32.564  27.689  1.00  0.00    -0.458 OA
BRANCH  22  23
ATOM     23  C   UNL A   1      33.752  33.387  27.655  1.00  0.00     0.338 C 
ATOM     24  O   UNL A   1      33.773  34.554  27.306  1.00  0.00    -0.246 OA
BRANCH  23  25
ATOM     25  C   UNL A   1      34.924  32.689  28.226  1.00  0.00     0.060 A 
ATOM     26  C   UNL A   1      34.754  31.397  28.739  1.00  0.00     0.016 A 
ATOM     27  C   UNL A   1      36.176  33.306  28.285  1.00  0.00     0.016 A 
ATOM     28  C   UNL A   1      35.837  30.698  29.262  1.00  0.00     0.010 A 
ATOM     29  C   UNL A   1      37.255  32.621  28.850  1.00  0.00     0.010 A 
ATOM     30  C   UNL A   1      37.089  31.315  29.339  1.00  0.00    -0.014 A 
BRANCH  30  31
ATOM     31  C   UNL A   1      38.196  30.625  30.032  1.00  0.00     0.031 A 
ATOM     32  C   UNL A   1      38.475  30.959  31.466  1.00  0.00     0.074 A 
ATOM     33  C   UNL A   1      38.935  29.707  29.384  1.00  0.00     0.049 A 
ATOM     34  N   UNL A   1      39.406  30.497  32.256  1.00  0.00    -0.248 NA
ATOM     35  C   UNL A   1      37.580  31.944  32.096  1.00  0.00     0.031 C 
ATOM     36  C   UNL A   1      38.732  29.286  27.998  1.00  0.00     0.029 A 
ATOM     37  N   UNL A   1      40.020  28.981  29.804  1.00  0.00    -0.354 N 
ATOM     38  C   UNL A   1      39.229  31.149  33.469  1.00  0.00     0.074 A 
ATOM     39  C   UNL A   1      38.102  32.043  33.310  1.00  0.00     0.031 C 
ATOM     40  C   UNL A   1      39.687  28.400  27.669  1.00  0.00     0.029 A 
ATOM     41  C   UNL A   1      40.582  28.213  28.811  1.00  0.00     0.049 A 
ATOM     42  H   UNL A   1      40.364  29.007  30.725  1.00  0.00     0.167 HD
ATOM     43  C   UNL A   1      39.940  31.011  34.611  1.00  0.00     0.034 A 
ATOM     44  C   UNL A   1      41.706  27.471  28.818  1.00  0.00     0.034 A 
ATOM     45  C   UNL A   1      41.063  30.126  34.757  1.00  0.00     0.049 A 
ATOM     46  C   UNL A   1      42.508  27.372  30.090  1.00  0.00     0.074 A 
ATOM     47  C   UNL A   1      41.833  29.892  35.882  1.00  0.00     0.029 A 
ATOM     48  N   UNL A   1      41.590  29.344  33.740  1.00  0.00    -0.354 N 
ATOM     49  N   UNL A   1      42.270  27.913  31.262  1.00  0.00    -0.248 NA
ATOM     50  C   UNL A   1      43.718  26.537  30.051  1.00  0.00     0.031 C 
ATOM     51  C   UNL A   1      42.851  28.999  35.534  1.00  0.00     0.029 A 
ATOM     52  C   UNL A   1      42.688  28.641  34.204  1.00  0.00     0.049 A 
ATOM     53  H   UNL A   1      41.236  29.297  32.824  1.00  0.00     0.167 HD
ATOM     54  C   UNL A   1      43.273  27.452  32.108  1.00  0.00     0.074 A 
ATOM     55  C   UNL A   1      44.114  26.577  31.316  1.00  0.00     0.031 C 
ATOM     56  C   UNL A   1      43.485  27.734  33.417  1.00  0.00     0.034 A 
BRANCH  43  57
ATOM     57  C   UNL A   1      39.523  31.846  35.793  1.00  0.00     0.023 A 
ATOM     58  C   UNL A   1      40.041  33.148  35.951  1.00  0.00     0.012 A 
ATOM     59  C   UNL A   1      38.593  31.353  36.728  1.00  0.00     0.148 A 
ATOM     60  C   UNL A   1      39.665  33.933  37.041  1.00  0.00     0.002 A 
ATOM     61  C   UNL A   1      38.189  32.157  37.786  1.00  0.00     0.091 A 
ATOM     62  F   UNL A   1      38.132  30.104  36.573  1.00  0.00    -0.205 F 
ATOM     63  C   UNL A   1      38.733  33.442  37.951  1.00  0.00     0.022 A 
BRANCH  61  64
ATOM     64  S   UNL A   1      36.938  31.645  38.967  1.00  0.00     0.127 S 
ATOM     65  O   UNL A   1      37.697  31.645  40.218  1.00  0.00    -0.237 OA
ATOM     66  O   UNL A   1      35.949  32.717  38.854  1.00  0.00    -0.237 OA
ATOM     67  O   UNL A   1      36.474  30.339  38.521  1.00  0.00    -0.744 OA
ENDBRANCH  61  64
ENDBRANCH  43  57
BRANCH  44  68
ATOM     68  C   UNL A   1      42.129  26.747  27.586  1.00  0.00     0.023 A 
ATOM     69  C   UNL A   1      42.760  27.453  26.544  1.00  0.00     0.012 A 
ATOM     70  C   UNL A   1      41.921  25.361  27.449  1.00  0.00     0.148 A 
ATOM     71  C   UNL A   1      43.147  26.797  25.374  1.00  0.00     0.002 A 
ATOM     72  C   UNL A   1      42.359  24.704  26.306  1.00  0.00     0.091 A 
ATOM     73  F   UNL A   1      41.305  24.710  28.447  1.00  0.00    -0.205 F 
ATOM     74  C   UNL A   1      42.956  25.423  25.259  1.00  0.00     0.022 A 
BRANCH  72  75
ATOM     75  S   UNL A   1      42.264  22.920  26.121  1.00  0.00     0.127 S 
ATOM     76  O   UNL A   1      42.905  22.719  24.823  1.00  0.00    -0.237 OA
ATOM     77  O   UNL A   1      43.042  22.457  27.271  1.00  0.00    -0.237 OA
ATOM     78  O   UNL A   1      40.847  22.591  26.180  1.00  0.00    -0.744 OA
ENDBRANCH  72  75
ENDBRANCH  44  68
BRANCH  56  79
ATOM     79  C   UNL A   1      44.644  27.056  34.103  1.00  0.00     0.023 A 
ATOM     80  C   UNL A   1      45.894  27.699  34.181  1.00  0.00     0.012 A 
ATOM     81  C   UNL A   1      44.464  25.813  34.745  1.00  0.00     0.148 A 
ATOM     82  C   UNL A   1      46.956  27.102  34.861  1.00  0.00     0.002 A 
ATOM     83  C   UNL A   1      45.509  25.251  35.464  1.00  0.00     0.091 A 
ATOM     84  F   UNL A   1      43.270  25.209  34.644  1.00  0.00    -0.205 F 
ATOM     85  C   UNL A   1      46.760  25.887  35.512  1.00  0.00     0.022 A 
BRANCH  83  86
ATOM     86  S   UNL A   1      45.320  23.740  36.419  1.00  0.00     0.127 S 
ATOM     87  O   UNL A   1      46.702  23.272  36.513  1.00  0.00    -0.237 OA
ATOM     88  O   UNL A   1      44.757  24.237  37.675  1.00  0.00    -0.237 OA
ATOM     89  O   UNL A   1      44.424  22.888  35.650  1.00  0.00    -0.744 OA
ENDBRANCH  83  86
ENDBRANCH  56  79
ENDBRANCH  30  31
ENDBRANCH  23  25
ENDBRANCH  22  23
ENDBRANCH  21  22
ENDBRANCH   1  21
TORSDOF 18
ENDMDL
MODEL 2
REMARK VINA RESULT:     -10.3      5.519      8.247
REMARK SMILES CC[C@H](C(=O)OCCOC(=O)c1ccc(-c2c3nc(c(-c4cccc(S(=O)(=O)[O-])c4F)c4ccc([nH]4)c(-c4cccc(S(=O)(=O)[O-])c4F)c4nc(c(-c5cccc(S(=O)(=O)[O-])c5F)c5ccc2[nH]5)C=C4)C=C3)cc1)[N@H+](C)[C@H]1CC[C@H]([NH3+])CC1
REMARK SMILES IDX 7 1 6 2 4 3 5 4 3 5 2 6 1 7 75 8 76 9 77 11 78 12 83 13
REMARK SMILES IDX 79 14 82 15 80 16 81 17 8 21 9 22 10 23 11 24 12 25 13 26
REMARK SMILES IDX 74 27 14 28 73 29 15 30 16 31 17 32 67 33 18 34 72 35 66 36
REMARK SMILES IDX 68 37 19 38 71 39 65 40 64 41 20 43 52 44 32 45 51 46 33 47
REMARK SMILES IDX 36 48 50 49 69 50 34 51 35 52 49 54 70 55 37 56 21 57 22 58
REMARK SMILES IDX 30 59 23 60 25 61 31 62 24 63 26 64 27 65 28 66 29 67 53 68
REMARK SMILES IDX 54 69 62 70 55 71 57 72 63 73 56 74 58 75 59 76 60 77 61 78
REMARK SMILES IDX 38 79 39 80 47 81 40 82 42 83 48 84 41 85 43 86 44 87 45 88
REMARK SMILES IDX 46 89
REMARK H PARENT 75 10 81 18 81 19 81 20 68 42 36 53
REMARK Flexibility Score: inf
ROOT
ATOM      1  C   UNL A   1      35.726  21.990  24.162  1.00  0.00     0.274 C 
ENDROOT
BRANCH   1   2
ATOM      2  O   UNL A   1      35.426  23.062  25.065  1.00  0.00    -0.458 OA
BRANCH   2   3
ATOM      3  C   UNL A   1      34.274  22.984  25.795  1.00  0.00     0.365 C 
ATOM      4  O   UNL A   1      34.233  22.945  27.017  1.00  0.00    -0.245 OA
BRANCH   3   5
ATOM      5  C   UNL A   1      33.076  23.046  24.816  1.00  0.00     0.294 C 
BRANCH   5   6
ATOM      6  C   UNL A   1      31.926  22.049  25.142  1.00  0.00     0.074 C 
ATOM      7  C   UNL A   1      30.797  22.561  26.031  1.00  0.00     0.011 C 
ENDBRANCH   5   6
BRANCH   5   8
ATOM      8  N   UNL A   1      32.680  24.426  24.375  1.00  0.00    -0.323 N 
ATOM      9  C   UNL A   1      33.127  24.782  23.026  1.00  0.00     0.333 C 
ATOM     10  H   UNL A   1      31.668  24.322  24.307  1.00  0.00     0.348 HD
BRANCH   8  11
ATOM     11  C   UNL A   1      32.777  25.513  25.358  1.00  0.00     0.184 C 
ATOM     12  C   UNL A   1      31.428  26.187  25.709  1.00  0.00     0.071 C 
ATOM     13  C   UNL A   1      33.804  26.597  24.993  1.00  0.00     0.071 C 
ATOM     14  C   UNL A   1      31.591  27.201  26.848  1.00  0.00     0.071 C 
ATOM     15  C   UNL A   1      34.002  27.551  26.167  1.00  0.00     0.071 C 
ATOM     16  C   UNL A   1      32.687  28.231  26.543  1.00  0.00     0.181 C 
BRANCH  16  17
ATOM     17  N   UNL A   1      32.907  29.105  27.696  1.00  0.00    -0.355 N 
ATOM     18  H   UNL A   1      33.863  29.457  27.678  1.00  0.00     0.344 HD
ATOM     19  H   UNL A   1      32.755  28.577  28.557  1.00  0.00     0.344 HD
ATOM     20  H   UNL A   1      32.254  29.888  27.658  1.00  0.00     0.344 HD
ENDBRANCH  16  17
ENDBRANCH   8  11
ENDBRANCH   5   8
ENDBRANCH   3   5
ENDBRANCH   2   3
ENDBRANCH   1   2
BRANCH   1  21
ATOM     21  C   UNL A   1      36.401  20.872  24.960  1.00  0.00     0.275 C 
BRANCH  21  22
ATOM     22  O   UNL A   1      37.184  21.407  26.047  1.00  0.00    -0.458 OA
BRANCH  22  23
ATOM     23  C   UNL A   1      38.525  21.191  25.974  1.00  0.00     0.338 C 
ATOM     24  O   UNL A   1      39.083  20.211  25.513  1.00  0.00    -0.246 OA
BRANCH  23  25
ATOM     25  C   UNL A   1      39.248  22.394  26.439  1.00  0.00     0.060 A 
ATOM     26  C   UNL A   1      38.771  23.655  26.059  1.00  0.00     0.016 A 
ATOM     27  C   UNL A   1      40.401  22.288  27.219  1.00  0.00     0.016 A 
ATOM     28  C   UNL A   1      39.409  24.811  26.498  1.00  0.00     0.010 A 
ATOM     29  C   UNL A   1      41.068  23.448  27.623  1.00  0.00     0.010 A 
ATOM     30  C   UNL A   1      40.573  24.713  27.265  1.00  0.00    -0.014 A 
BRANCH  30  31
ATOM     31  C   UNL A   1      41.327  25.938  27.597  1.00  0.00     0.031 A 
ATOM     32  C   UNL A   1      40.639  27.030  28.358  1.00  0.00     0.074 A 
ATOM     33  C   UNL A   1      42.614  26.064  27.226  1.00  0.00     0.049 A 
ATOM     34  N   UNL A   1      41.100  28.194  28.731  1.00  0.00    -0.248 NA
ATOM     35  C   UNL A   1      39.245  26.775  28.755  1.00  0.00     0.031 C 
ATOM     36  C   UNL A   1      43.387  25.052  26.508  1.00  0.00     0.029 A 
ATOM     37  N   UNL A   1      43.487  27.110  27.384  1.00  0.00    -0.354 N 
ATOM     38  C   UNL A   1      40.049  28.822  29.386  1.00  0.00     0.074 A 
ATOM     39  C   UNL A   1      38.924  27.912  29.356  1.00  0.00     0.031 C 
ATOM     40  C   UNL A   1      44.613  25.541  26.254  1.00  0.00     0.029 A 
ATOM     41  C   UNL A   1      44.700  26.907  26.769  1.00  0.00     0.049 A 
ATOM     42  H   UNL A   1      43.268  27.925  27.889  1.00  0.00     0.167 HD
ATOM     43  C   UNL A   1      40.026  30.046  29.962  1.00  0.00     0.034 A 
ATOM     44  C   UNL A   1      45.745  27.743  26.614  1.00  0.00     0.034 A 
ATOM     45  C   UNL A   1      41.146  30.946  29.980  1.00  0.00     0.049 A 
ATOM     46  C   UNL A   1      45.676  29.119  27.224  1.00  0.00     0.074 A 
ATOM     47  C   UNL A   1      41.234  32.198  30.563  1.00  0.00     0.029 A 
ATOM     48  N   UNL A   1      42.367  30.701  29.369  1.00  0.00    -0.354 N 
ATOM     49  N   UNL A   1      44.715  29.663  27.931  1.00  0.00    -0.248 NA
ATOM     50  C   UNL A   1      46.848  29.988  27.041  1.00  0.00     0.031 C 
ATOM     51  C   UNL A   1      42.496  32.726  30.270  1.00  0.00     0.029 A 
ATOM     52  C   UNL A   1      43.210  31.785  29.544  1.00  0.00     0.049 A 
ATOM     53  H   UNL A   1      42.600  29.878  28.884  1.00  0.00     0.167 HD
ATOM     54  C   UNL A   1      45.180  30.917  28.312  1.00  0.00     0.074 A 
ATOM     55  C   UNL A   1      46.517  31.047  27.767  1.00  0.00     0.031 C 
ATOM     56  C   UNL A   1      44.557  31.878  29.038  1.00  0.00     0.034 A 
BRANCH  43  57
ATOM     57  C   UNL A   1      38.742  30.481  30.616  1.00  0.00     0.023 A 
ATOM     58  C   UNL A   1      38.553  30.277  31.998  1.00  0.00     0.012 A 
ATOM     59  C   UNL A   1      37.737  31.124  29.868  1.00  0.00     0.148 A 
ATOM     60  C   UNL A   1      37.368  30.675  32.618  1.00  0.00     0.002 A 
ATOM     61  C   UNL A   1      36.580  31.558  30.500  1.00  0.00     0.091 A 
ATOM     62  F   UNL A   1      37.927  31.286  28.551  1.00  0.00    -0.205 F 
ATOM     63  C   UNL A   1      36.388  31.323  31.872  1.00  0.00     0.022 A 
BRANCH  61  64
ATOM     64  S   UNL A   1      35.292  32.469  29.642  1.00  0.00     0.127 S 
ATOM     65  O   UNL A   1      34.842  31.485  28.657  1.00  0.00    -0.237 OA
ATOM     66  O   UNL A   1      34.337  32.737  30.717  1.00  0.00    -0.237 OA
ATOM     67  O   UNL A   1      35.936  33.652  29.091  1.00  0.00    -0.744 OA
ENDBRANCH  61  64
ENDBRANCH  43  57
BRANCH  44  68
ATOM     68  C   UNL A   1      46.953  27.295  25.866  1.00  0.00     0.023 A 
ATOM     69  C   UNL A   1      47.895  26.459  26.496  1.00  0.00     0.012 A 
ATOM     70  C   UNL A   1      47.167  27.685  24.529  1.00  0.00     0.148 A 
ATOM     71  C   UNL A   1      49.043  26.044  25.818  1.00  0.00     0.002 A 
ATOM     72  C   UNL A   1      48.282  27.224  23.842  1.00  0.00     0.091 A 
ATOM     73  F   UNL A   1      46.266  28.494  23.952  1.00  0.00    -0.205 F 
ATOM     74  C   UNL A   1      49.231  26.418  24.490  1.00  0.00     0.022 A 
BRANCH  72  75
ATOM     75  S   UNL A   1      48.548  27.554  22.097  1.00  0.00     0.127 S 
ATOM     76  O   UNL A   1      48.799  26.213  21.573  1.00  0.00    -0.237 OA
ATOM     77  O   UNL A   1      47.264  28.138  21.704  1.00  0.00    -0.237 OA
ATOM     78  O   UNL A   1      49.673  28.475  22.036  1.00  0.00    -0.744 OA
ENDBRANCH  72  75
ENDBRANCH  44  68
BRANCH  56  79
ATOM     79  C   UNL A   1      45.322  33.143  29.335  1.00  0.00     0.023 A 
ATOM     80  C   UNL A   1      46.170  33.209  30.458  1.00  0.00     0.012 A 
ATOM     81  C   UNL A   1      45.262  34.237  28.448  1.00  0.00     0.148 A 
ATOM     82  C   UNL A   1      46.922  34.356  30.710  1.00  0.00     0.002 A 
ATOM     83  C   UNL A   1      46.053  35.354  28.677  1.00  0.00     0.091 A 
ATOM     84  F   UNL A   1      44.435  34.160  27.395  1.00  0.00    -0.205 F 
ATOM     85  C   UNL A   1      46.874  35.422  29.814  1.00  0.00     0.022 A 
BRANCH  83  86
ATOM     86  S   UNL A   1      46.134  36.731  27.524  1.00  0.00     0.127 S 
ATOM     87  O   UNL A   1      46.690  37.790  28.365  1.00  0.00    -0.237 OA
ATOM     88  O   UNL A   1      47.046  36.222  26.499  1.00  0.00    -0.237 OA
ATOM     89  O   UNL A   1      44.769  36.950  27.065  1.00  0.00    -0.744 OA
ENDBRANCH  83  86
ENDBRANCH  56  79
ENDBRANCH  30  31
ENDBRANCH  23  25
ENDBRANCH  22  23
ENDBRANCH  21  22
ENDBRANCH   1  21
TORSDOF 18
ENDMDL
MODEL 3
REMARK VINA RESULT:     -10.2      5.868      8.632
REMARK SMILES CC[C@H](C(=O)OCCOC(=O)c1ccc(-c2c3nc(c(-c4cccc(S(=O)(=O)[O-])c4F)c4ccc([nH]4)c(-c4cccc(S(=O)(=O)[O-])c4F)c4nc(c(-c5cccc(S(=O)(=O)[O-])c5F)c5ccc2[nH]5)C=C4)C=C3)cc1)[N@H+](C)[C@H]1CC[C@H]([NH3+])CC1
REMARK SMILES IDX 7 1 6 2 4 3 5 4 3 5 2 6 1 7 75 8 76 9 77 11 78 12 83 13
REMARK SMILES IDX 79 14 82 15 80 16 81 17 8 21 9 22 10 23 11 24 12 25 13 26
REMARK SMILES IDX 74 27 14 28 73 29 15 30 16 31 17 32 67 33 18 34 72 35 66 36
REMARK SMILES IDX 68 37 19 38 71 39 65 40 64 41 20 43 52 44 32 45 51 46 33 47
REMARK SMILES IDX 36 48 50 49 69 50 34 51 35 52 49 54 70 55 37 56 21 57 22 58
REMARK SMILES IDX 30 59 23 60 25 61 31 62 24 63 26 64 27 65 28 66 29 67 53 68
REMARK SMILES IDX 54 69 62 70 55 71 57 72 63 73 56 74 58 75 59 76 60 77 61 78
REMARK SMILES IDX 38 79 39 80 47 81 40 82 42 83 48 84 41 85 43 86 44 87 45 88
REMARK SMILES IDX 46 89
REMARK H PARENT 75 10 81 18 81 19 81 20 68 42 36 53
REMARK Flexibility Score: inf
ROOT
ATOM      1  C   UNL A   1      36.391  21.786  23.798  1.00  0.00     0.274 C 
ENDROOT
BRANCH   1   2
ATOM      2  O   UNL A   1      35.891  23.038  24.284  1.00  0.00    -0.458 OA
BRANCH   2   3
ATOM      3  C   UNL A   1      34.633  23.418  23.908  1.00  0.00     0.365 C 
ATOM      4  O   UNL A   1      34.346  23.849  22.800  1.00  0.00    -0.245 OA
BRANCH   3   5
ATOM      5  C   UNL A   1      33.668  23.119  25.081  1.00  0.00     0.294 C 
BRANCH   5   6
ATOM      6  C   UNL A   1      33.657  24.203  26.198  1.00  0.00     0.074 C 
ATOM      7  C   UNL A   1      33.847  25.651  25.759  1.00  0.00     0.011 C 
ENDBRANCH   5   6
BRANCH   5   8
ATOM      8  N   UNL A   1      32.343  22.530  24.687  1.00  0.00    -0.323 N 
ATOM      9  C   UNL A   1      31.186  23.169  25.317  1.00  0.00     0.333 C 
ATOM     10  H   UNL A   1      32.300  22.797  23.704  1.00  0.00     0.348 HD
BRANCH   8  11
ATOM     11  C   UNL A   1      32.250  21.068  24.577  1.00  0.00     0.184 C 
ATOM     12  C   UNL A   1      33.154  20.288  25.563  1.00  0.00     0.071 C 
ATOM     13  C   UNL A   1      32.474  20.532  23.154  1.00  0.00     0.071 C 
ATOM     14  C   UNL A   1      32.887  18.780  25.490  1.00  0.00     0.071 C 
ATOM     15  C   UNL A   1      32.133  19.047  23.090  1.00  0.00     0.071 C 
ATOM     16  C   UNL A   1      33.006  18.247  24.057  1.00  0.00     0.181 C 
BRANCH  16  17
ATOM     17  N   UNL A   1      32.623  16.836  23.999  1.00  0.00    -0.355 N 
ATOM     18  H   UNL A   1      31.748  16.700  24.503  1.00  0.00     0.344 HD
ATOM     19  H   UNL A   1      33.355  16.268  24.427  1.00  0.00     0.344 HD
ATOM     20  H   UNL A   1      32.503  16.556  23.025  1.00  0.00     0.344 HD
ENDBRANCH  16  17
ENDBRANCH   8  11
ENDBRANCH   5   8
ENDBRANCH   3   5
ENDBRANCH   2   3
ENDBRANCH   1   2
BRANCH   1  21
ATOM     21  C   UNL A   1      36.727  20.908  25.006  1.00  0.00     0.275 C 
BRANCH  21  22
ATOM     22  O   UNL A   1      37.386  21.671  26.038  1.00  0.00    -0.458 OA
BRANCH  22  23
ATOM     23  C   UNL A   1      38.717  21.436  26.189  1.00  0.00     0.338 C 
ATOM     24  O   UNL A   1      39.313  20.407  25.924  1.00  0.00    -0.246 OA
BRANCH  23  25
ATOM     25  C   UNL A   1      39.393  22.677  26.625  1.00  0.00     0.060 A 
ATOM     26  C   UNL A   1      38.923  23.905  26.143  1.00  0.00     0.016 A 
ATOM     27  C   UNL A   1      40.497  22.637  27.478  1.00  0.00     0.016 A 
ATOM     28  C   UNL A   1      39.516  25.096  26.549  1.00  0.00     0.010 A 
ATOM     29  C   UNL A   1      41.122  23.830  27.853  1.00  0.00     0.010 A 
ATOM     30  C   UNL A   1      40.632  25.063  27.390  1.00  0.00    -0.014 A 
BRANCH  30  31
ATOM     31  C   UNL A   1      41.347  26.319  27.695  1.00  0.00     0.031 A 
ATOM     32  C   UNL A   1      40.660  27.364  28.519  1.00  0.00     0.074 A 
ATOM     33  C   UNL A   1      42.599  26.513  27.242  1.00  0.00     0.049 A 
ATOM     34  N   UNL A   1      41.088  28.543  28.882  1.00  0.00    -0.248 NA
ATOM     35  C   UNL A   1      39.308  27.035  29.001  1.00  0.00     0.031 C 
ATOM     36  C   UNL A   1      43.371  25.550  26.457  1.00  0.00     0.029 A 
ATOM     37  N   UNL A   1      43.429  27.598  27.362  1.00  0.00    -0.354 N 
ATOM     38  C   UNL A   1      40.054  29.109  29.615  1.00  0.00     0.074 A 
ATOM     39  C   UNL A   1      38.975  28.146  29.642  1.00  0.00     0.031 C 
ATOM     40  C   UNL A   1      44.552  26.103  26.133  1.00  0.00     0.029 A 
ATOM     41  C   UNL A   1      44.607  27.464  26.665  1.00  0.00     0.049 A 
ATOM     42  H   UNL A   1      43.205  28.394  27.895  1.00  0.00     0.167 HD
ATOM     43  C   UNL A   1      40.011  30.322  30.214  1.00  0.00     0.034 A 
ATOM     44  C   UNL A   1      45.599  28.352  26.457  1.00  0.00     0.034 A 
ATOM     45  C   UNL A   1      41.086  31.276  30.174  1.00  0.00     0.049 A 
ATOM     46  C   UNL A   1      45.505  29.714  27.095  1.00  0.00     0.074 A 
ATOM     47  C   UNL A   1      41.152  32.521  30.773  1.00  0.00     0.029 A 
ATOM     48  N   UNL A   1      42.274  31.100  29.481  1.00  0.00    -0.354 N 
ATOM     49  N   UNL A   1      44.567  30.200  27.874  1.00  0.00    -0.248 NA
ATOM     50  C   UNL A   1      46.619  30.642  26.851  1.00  0.00     0.031 C 
ATOM     51  C   UNL A   1      42.365  33.115  30.407  1.00  0.00     0.029 A 
ATOM     52  C   UNL A   1      43.073  32.221  29.619  1.00  0.00     0.049 A 
ATOM     53  H   UNL A   1      42.513  30.296  28.966  1.00  0.00     0.167 HD
ATOM     54  C   UNL A   1      44.997  31.469  28.245  1.00  0.00     0.074 A 
ATOM     55  C   UNL A   1      46.286  31.672  27.616  1.00  0.00     0.031 C 
ATOM     56  C   UNL A   1      44.377  32.387  29.028  1.00  0.00     0.034 A 
BRANCH  43  57
ATOM     57  C   UNL A   1      38.754  30.685  30.958  1.00  0.00     0.023 A 
ATOM     58  C   UNL A   1      38.635  30.376  32.329  1.00  0.00     0.012 A 
ATOM     59  C   UNL A   1      37.704  31.361  30.308  1.00  0.00     0.148 A 
ATOM     60  C   UNL A   1      37.476  30.705  33.031  1.00  0.00     0.002 A 
ATOM     61  C   UNL A   1      36.572  31.727  31.025  1.00  0.00     0.091 A 
ATOM     62  F   UNL A   1      37.827  31.623  28.999  1.00  0.00    -0.205 F 
ATOM     63  C   UNL A   1      36.451  31.388  32.383  1.00  0.00     0.022 A 
BRANCH  61  64
ATOM     64  S   UNL A   1      35.231  32.673  30.298  1.00  0.00     0.127 S 
ATOM     65  O   UNL A   1      34.299  32.774  31.421  1.00  0.00    -0.237 OA
ATOM     66  O   UNL A   1      35.896  33.928  29.945  1.00  0.00    -0.237 OA
ATOM     67  O   UNL A   1      34.758  31.895  29.163  1.00  0.00    -0.744 OA
ENDBRANCH  61  64
ENDBRANCH  43  57
BRANCH  44  68
ATOM     68  C   UNL A   1      46.775  27.975  25.623  1.00  0.00     0.023 A 
ATOM     69  C   UNL A   1      46.699  28.082  24.221  1.00  0.00     0.012 A 
ATOM     70  C   UNL A   1      47.971  27.524  26.214  1.00  0.00     0.148 A 
ATOM     71  C   UNL A   1      47.783  27.715  23.421  1.00  0.00     0.002 A 
ATOM     72  C   UNL A   1      49.064  27.214  25.415  1.00  0.00     0.091 A 
ATOM     73  F   UNL A   1      48.017  27.414  27.550  1.00  0.00    -0.205 F 
ATOM     74  C   UNL A   1      48.967  27.292  24.017  1.00  0.00     0.022 A 
BRANCH  72  75
ATOM     75  S   UNL A   1      50.666  26.775  26.098  1.00  0.00     0.127 S 
ATOM     76  O   UNL A   1      51.548  26.984  24.953  1.00  0.00    -0.237 OA
ATOM     77  O   UNL A   1      50.812  27.755  27.176  1.00  0.00    -0.237 OA
ATOM     78  O   UNL A   1      50.539  25.397  26.551  1.00  0.00    -0.744 OA
ENDBRANCH  72  75
ENDBRANCH  44  68
BRANCH  56  79
ATOM     79  C   UNL A   1      45.099  33.683  29.297  1.00  0.00     0.023 A 
ATOM     80  C   UNL A   1      45.951  33.800  30.412  1.00  0.00     0.012 A 
ATOM     81  C   UNL A   1      44.995  34.758  28.391  1.00  0.00     0.148 A 
ATOM     82  C   UNL A   1      46.664  34.977  30.639  1.00  0.00     0.002 A 
ATOM     83  C   UNL A   1      45.748  35.907  28.594  1.00  0.00     0.091 A 
ATOM     84  F   UNL A   1      44.164  34.634  27.345  1.00  0.00    -0.205 F 
ATOM     85  C   UNL A   1      46.573  36.024  29.724  1.00  0.00     0.022 A 
BRANCH  83  86
ATOM     86  S   UNL A   1      45.772  37.265  27.417  1.00  0.00     0.127 S 
ATOM     87  O   UNL A   1      46.720  38.185  28.043  1.00  0.00    -0.237 OA
ATOM     88  O   UNL A   1      46.265  36.612  26.203  1.00  0.00    -0.237 OA
ATOM     89  O   UNL A   1      44.400  37.745  27.330  1.00  0.00    -0.744 OA
ENDBRANCH  83  86
ENDBRANCH  56  79
ENDBRANCH  30  31
ENDBRANCH  23  25
ENDBRANCH  22  23
ENDBRANCH  21  22
ENDBRANCH   1  21
TORSDOF 18
ENDMDL
