MODEL 1
REMARK VINA RESULT:     -10.6      0.000      0.000
REMARK SMILES CS(=O)(=O)c1ccc(/C=C(/C(=O)OCCOC(=O)c2ccc(-c3c4nc(c(-c5cccc(S(=O)(=O)[O-])c5F)c5ccc([nH]5)c(-c5cccc(S(=O)(=O)[O-])c5F)c5nc(c(-c6cccc(S(=O)(=O)[O-])c6F)c6ccc3[nH]6)C=C5)C=C4)cc2)c2ccc(-c3ccc(S(C)(=O)=O)cc3)cc2)cc1
REMARK SMILES IDX 14 1 13 2 11 3 12 4 10 5 9 6 8 7 5 8 6 9 99 10 7 11 98 12
REMARK SMILES IDX 2 13 1 14 3 15 4 16 82 17 83 18 97 19 84 20 96 21 85 22
REMARK SMILES IDX 86 23 87 24 95 25 88 26 94 27 89 28 90 29 91 30 92 31 93 32
REMARK SMILES IDX 15 33 16 34 17 35 18 36 19 37 20 38 81 39 21 40 80 41 22 42
REMARK SMILES IDX 23 43 24 44 74 45 25 46 79 47 73 48 75 49 26 50 78 51 72 52
REMARK SMILES IDX 71 53 27 55 59 56 39 57 58 58 40 59 43 60 57 61 76 62 41 63
REMARK SMILES IDX 42 64 56 66 77 67 44 68 28 69 29 70 37 71 30 72 32 73 38 74
REMARK SMILES IDX 31 75 33 76 34 77 35 78 36 79 60 80 61 81 69 82 62 83 64 84
REMARK SMILES IDX 70 85 63 86 65 87 66 88 67 89 68 90 45 91 46 92 54 93 47 94
REMARK SMILES IDX 49 95 55 96 48 97 50 98 51 99 52 100 53 101
REMARK H PARENT 75 54 43 65
REMARK Flexibility Score: inf
ROOT
ATOM      1  C   UNL A   1      42.975  21.126  26.262  1.00  0.00     0.275 C 
ENDROOT
BRANCH   1   2
ATOM      2  O   UNL A   1      41.727  20.650  25.718  1.00  0.00    -0.458 OA
BRANCH   2   3
ATOM      3  C   UNL A   1      40.686  20.650  26.592  1.00  0.00     0.338 C 
ATOM      4  O   UNL A   1      40.626  19.997  27.623  1.00  0.00    -0.246 OA
BRANCH   3   5
ATOM      5  C   UNL A   1      39.594  21.573  26.162  1.00  0.00     0.067 C 
ATOM      6  C   UNL A   1      38.569  21.073  25.434  1.00  0.00     0.024 C 
BRANCH   6   7
ATOM      7  C   UNL A   1      37.254  21.713  25.192  1.00  0.00    -0.025 A 
ATOM      8  C   UNL A   1      34.702  22.591  24.412  1.00  0.00     0.067 A 
ATOM      9  C   UNL A   1      34.895  22.058  25.685  1.00  0.00     0.021 A 
ATOM     10  C   UNL A   1      35.788  22.786  23.560  1.00  0.00     0.021 A 
ATOM     11  C   UNL A   1      36.172  21.658  26.079  1.00  0.00     0.009 A 
ATOM     12  C   UNL A   1      37.058  22.344  23.954  1.00  0.00     0.009 A 
BRANCH   8  13
ATOM     13  S   UNL A   1      33.034  22.951  23.926  1.00  0.00     0.175 S 
ATOM     14  C   UNL A   1      32.780  24.683  24.174  1.00  0.00     0.163 C 
ATOM     15  O   UNL A   1      32.166  22.262  24.867  1.00  0.00    -0.224 OA
ATOM     16  O   UNL A   1      32.954  22.704  22.503  1.00  0.00    -0.224 OA
ENDBRANCH   8  13
ENDBRANCH   6   7
BRANCH   5  17
ATOM     17  C   UNL A   1      39.601  22.939  26.715  1.00  0.00    -0.011 A 
ATOM     18  C   UNL A   1      38.620  23.850  26.305  1.00  0.00     0.009 A 
ATOM     19  C   UNL A   1      40.527  23.331  27.681  1.00  0.00     0.009 A 
ATOM     20  C   UNL A   1      38.558  25.128  26.870  1.00  0.00     0.009 A 
ATOM     21  C   UNL A   1      40.460  24.613  28.239  1.00  0.00     0.009 A 
ATOM     22  C   UNL A   1      39.481  25.546  27.845  1.00  0.00    -0.018 A 
BRANCH  22  23
ATOM     23  C   UNL A   1      39.428  26.908  28.429  1.00  0.00    -0.018 A 
ATOM     24  C   UNL A   1      39.891  28.033  27.717  1.00  0.00     0.010 A 
ATOM     25  C   UNL A   1      38.895  27.132  29.714  1.00  0.00     0.010 A 
ATOM     26  C   UNL A   1      39.794  29.326  28.245  1.00  0.00     0.021 A 
ATOM     27  C   UNL A   1      38.784  28.419  30.247  1.00  0.00     0.021 A 
ATOM     28  C   UNL A   1      39.227  29.511  29.504  1.00  0.00     0.067 A 
BRANCH  28  29
ATOM     29  S   UNL A   1      38.985  31.162  30.121  1.00  0.00     0.175 S 
ATOM     30  C   UNL A   1      38.143  30.934  31.661  1.00  0.00     0.163 C 
ATOM     31  O   UNL A   1      40.315  31.689  30.373  1.00  0.00    -0.224 OA
ATOM     32  O   UNL A   1      38.090  31.834  29.194  1.00  0.00    -0.224 OA
ENDBRANCH  28  29
ENDBRANCH  22  23
ENDBRANCH   5  17
ENDBRANCH   3   5
ENDBRANCH   2   3
ENDBRANCH   1   2
BRANCH   1  33
ATOM     33  C   UNL A   1      43.871  21.683  25.158  1.00  0.00     0.275 C 
BRANCH  33  34
ATOM     34  O   UNL A   1      43.518  23.050  24.884  1.00  0.00    -0.458 OA
BRANCH  34  35
ATOM     35  C   UNL A   1      44.550  23.891  24.648  1.00  0.00     0.338 C 
ATOM     36  O   UNL A   1      45.479  23.711  23.874  1.00  0.00    -0.246 OA
BRANCH  35  37
ATOM     37  C   UNL A   1      44.410  25.128  25.441  1.00  0.00     0.060 A 
ATOM     38  C   UNL A   1      45.529  25.887  25.762  1.00  0.00     0.016 A 
ATOM     39  C   UNL A   1      43.177  25.442  26.016  1.00  0.00     0.016 A 
ATOM     40  C   UNL A   1      45.443  26.851  26.770  1.00  0.00     0.010 A 
ATOM     41  C   UNL A   1      43.080  26.489  26.943  1.00  0.00     0.010 A 
ATOM     42  C   UNL A   1      44.227  27.163  27.398  1.00  0.00    -0.014 A 
BRANCH  42  43
ATOM     43  C   UNL A   1      44.162  28.121  28.555  1.00  0.00     0.031 A 
ATOM     44  C   UNL A   1      44.142  27.612  29.983  1.00  0.00     0.074 A 
ATOM     45  C   UNL A   1      44.126  29.458  28.365  1.00  0.00     0.049 A 
ATOM     46  N   UNL A   1      43.846  28.251  31.090  1.00  0.00    -0.248 NA
ATOM     47  C   UNL A   1      44.480  26.194  30.197  1.00  0.00     0.031 C 
ATOM     48  C   UNL A   1      44.174  30.136  27.071  1.00  0.00     0.029 A 
ATOM     49  N   UNL A   1      44.036  30.491  29.272  1.00  0.00    -0.354 N 
ATOM     50  C   UNL A   1      43.839  27.292  32.100  1.00  0.00     0.074 A 
ATOM     51  C   UNL A   1      44.199  26.034  31.484  1.00  0.00     0.031 C 
ATOM     52  C   UNL A   1      44.178  31.462  27.264  1.00  0.00     0.029 A 
ATOM     53  C   UNL A   1      44.001  31.736  28.684  1.00  0.00     0.049 A 
ATOM     54  H   UNL A   1      44.000  30.354  30.246  1.00  0.00     0.167 HD
ATOM     55  C   UNL A   1      43.565  27.443  33.419  1.00  0.00     0.034 A 
ATOM     56  C   UNL A   1      43.790  32.962  29.201  1.00  0.00     0.034 A 
ATOM     57  C   UNL A   1      43.338  28.710  34.063  1.00  0.00     0.049 A 
ATOM     58  C   UNL A   1      43.508  33.117  30.665  1.00  0.00     0.074 A 
ATOM     59  C   UNL A   1      43.172  28.967  35.414  1.00  0.00     0.029 A 
ATOM     60  N   UNL A   1      43.256  29.932  33.415  1.00  0.00    -0.354 N 
ATOM     61  N   UNL A   1      43.437  32.192  31.590  1.00  0.00    -0.248 NA
ATOM     62  C   UNL A   1      43.275  34.481  31.159  1.00  0.00     0.031 C 
ATOM     63  C   UNL A   1      43.009  30.345  35.584  1.00  0.00     0.029 A 
ATOM     64  C   UNL A   1      43.091  30.950  34.341  1.00  0.00     0.049 A 
ATOM     65  H   UNL A   1      43.309  30.058  32.440  1.00  0.00     0.167 HD
ATOM     66  C   UNL A   1      43.173  32.864  32.777  1.00  0.00     0.074 A 
ATOM     67  C   UNL A   1      43.109  34.274  32.457  1.00  0.00     0.031 C 
ATOM     68  C   UNL A   1      43.014  32.351  34.021  1.00  0.00     0.034 A 
BRANCH  55  69
ATOM     69  C   UNL A   1      43.528  26.210  34.287  1.00  0.00     0.023 A 
ATOM     70  C   UNL A   1      42.295  25.618  34.623  1.00  0.00     0.012 A 
ATOM     71  C   UNL A   1      44.726  25.583  34.688  1.00  0.00     0.148 A 
ATOM     72  C   UNL A   1      42.254  24.438  35.366  1.00  0.00     0.002 A 
ATOM     73  C   UNL A   1      44.678  24.385  35.393  1.00  0.00     0.091 A 
ATOM     74  F   UNL A   1      45.891  26.171  34.377  1.00  0.00    -0.205 F 
ATOM     75  C   UNL A   1      43.443  23.816  35.740  1.00  0.00     0.022 A 
BRANCH  73  76
ATOM     76  S   UNL A   1      46.161  23.472  35.838  1.00  0.00     0.127 S 
ATOM     77  O   UNL A   1      45.603  22.354  36.595  1.00  0.00    -0.237 OA
ATOM     78  O   UNL A   1      46.710  23.110  34.530  1.00  0.00    -0.237 OA
ATOM     79  O   UNL A   1      46.985  24.402  36.599  1.00  0.00    -0.744 OA
ENDBRANCH  73  76
ENDBRANCH  55  69
BRANCH  56  80
ATOM     80  C   UNL A   1      43.837  34.149  28.301  1.00  0.00     0.023 A 
ATOM     81  C   UNL A   1      42.637  34.677  27.790  1.00  0.00     0.012 A 
ATOM     82  C   UNL A   1      45.053  34.801  28.017  1.00  0.00     0.148 A 
ATOM     83  C   UNL A   1      42.650  35.834  27.010  1.00  0.00     0.002 A 
ATOM     84  C   UNL A   1      45.049  35.992  27.302  1.00  0.00     0.091 A 
ATOM     85  F   UNL A   1      46.189  34.263  28.484  1.00  0.00    -0.205 F 
ATOM     86  C   UNL A   1      43.851  36.502  26.783  1.00  0.00     0.022 A 
BRANCH  84  87
ATOM     87  S   UNL A   1      46.535  36.990  27.140  1.00  0.00     0.127 S 
ATOM     88  O   UNL A   1      47.408  36.398  28.149  1.00  0.00    -0.237 OA
ATOM     89  O   UNL A   1      46.932  36.737  25.754  1.00  0.00    -0.237 OA
ATOM     90  O   UNL A   1      46.099  38.359  27.388  1.00  0.00    -0.744 OA
ENDBRANCH  84  87
ENDBRANCH  56  80
BRANCH  68  91
ATOM     91  C   UNL A   1      42.762  33.323  35.141  1.00  0.00     0.023 A 
ATOM     92  C   UNL A   1      43.833  33.754  35.946  1.00  0.00     0.012 A 
ATOM     93  C   UNL A   1      41.472  33.843  35.367  1.00  0.00     0.148 A 
ATOM     94  C   UNL A   1      43.621  34.668  36.977  1.00  0.00     0.002 A 
ATOM     95  C   UNL A   1      41.276  34.786  36.369  1.00  0.00     0.091 A 
ATOM     96  F   UNL A   1      40.461  33.400  34.605  1.00  0.00    -0.205 F 
ATOM     97  C   UNL A   1      42.346  35.192  37.182  1.00  0.00     0.022 A 
BRANCH  95  98
ATOM     98  S   UNL A   1      39.685  35.576  36.637  1.00  0.00     0.127 S 
ATOM     99  O   UNL A   1      38.889  34.472  37.167  1.00  0.00    -0.237 OA
ATOM    100  O   UNL A   1      40.013  36.616  37.614  1.00  0.00    -0.237 OA
ATOM    101  O   UNL A   1      39.276  36.085  35.334  1.00  0.00    -0.744 OA
ENDBRANCH  95  98
ENDBRANCH  68  91
ENDBRANCH  42  43
ENDBRANCH  35  37
ENDBRANCH  34  35
ENDBRANCH  33  34
ENDBRANCH   1  33
TORSDOF 19
ENDMDL
MODEL 2
REMARK VINA RESULT:     -10.4      4.868     10.957
REMARK SMILES CS(=O)(=O)c1ccc(/C=C(/C(=O)OCCOC(=O)c2ccc(-c3c4nc(c(-c5cccc(S(=O)(=O)[O-])c5F)c5ccc([nH]5)c(-c5cccc(S(=O)(=O)[O-])c5F)c5nc(c(-c6cccc(S(=O)(=O)[O-])c6F)c6ccc3[nH]6)C=C5)C=C4)cc2)c2ccc(-c3ccc(S(C)(=O)=O)cc3)cc2)cc1
REMARK SMILES IDX 14 1 13 2 11 3 12 4 10 5 9 6 8 7 5 8 6 9 99 10 7 11 98 12
REMARK SMILES IDX 2 13 1 14 3 15 4 16 82 17 83 18 97 19 84 20 96 21 85 22
REMARK SMILES IDX 86 23 87 24 95 25 88 26 94 27 89 28 90 29 91 30 92 31 93 32
REMARK SMILES IDX 15 33 16 34 17 35 18 36 19 37 20 38 81 39 21 40 80 41 22 42
REMARK SMILES IDX 23 43 24 44 74 45 25 46 79 47 73 48 75 49 26 50 78 51 72 52
REMARK SMILES IDX 71 53 27 55 59 56 39 57 58 58 40 59 43 60 57 61 76 62 41 63
REMARK SMILES IDX 42 64 56 66 77 67 44 68 28 69 29 70 37 71 30 72 32 73 38 74
REMARK SMILES IDX 31 75 33 76 34 77 35 78 36 79 60 80 61 81 69 82 62 83 64 84
REMARK SMILES IDX 70 85 63 86 65 87 66 88 67 89 68 90 45 91 46 92 54 93 47 94
REMARK SMILES IDX 49 95 55 96 48 97 50 98 51 99 52 100 53 101
REMARK H PARENT 75 54 43 65
REMARK Flexibility Score: inf
ROOT
ATOM      1  C   UNL A   1      50.349  21.232  35.826  1.00  0.00     0.275 C 
ENDROOT
BRANCH   1   2
ATOM      2  O   UNL A   1      49.764  19.993  35.373  1.00  0.00    -0.458 OA
BRANCH   2   3
ATOM      3  C   UNL A   1      48.694  20.136  34.547  1.00  0.00     0.338 C 
ATOM      4  O   UNL A   1      48.657  19.804  33.372  1.00  0.00    -0.246 OA
BRANCH   3   5
ATOM      5  C   UNL A   1      47.521  20.739  35.248  1.00  0.00     0.067 C 
ATOM      6  C   UNL A   1      47.088  21.959  34.857  1.00  0.00     0.024 C 
BRANCH   6   7
ATOM      7  C   UNL A   1      45.782  22.584  35.175  1.00  0.00    -0.025 A 
ATOM      8  C   UNL A   1      43.513  24.170  35.658  1.00  0.00     0.067 A 
ATOM      9  C   UNL A   1      43.513  23.257  34.606  1.00  0.00     0.021 A 
ATOM     10  C   UNL A   1      44.595  24.228  36.536  1.00  0.00     0.021 A 
ATOM     11  C   UNL A   1      44.628  22.446  34.394  1.00  0.00     0.009 A 
ATOM     12  C   UNL A   1      45.725  23.436  36.288  1.00  0.00     0.009 A 
BRANCH   8  13
ATOM     13  S   UNL A   1      42.122  25.263  35.787  1.00  0.00     0.175 S 
ATOM     14  C   UNL A   1      42.256  26.098  37.339  1.00  0.00     0.163 C 
ATOM     15  O   UNL A   1      40.937  24.425  35.863  1.00  0.00    -0.224 OA
ATOM     16  O   UNL A   1      42.279  26.258  34.749  1.00  0.00    -0.224 OA
ENDBRANCH   8  13
ENDBRANCH   6   7
BRANCH   5  17
ATOM     17  C   UNL A   1      46.787  19.889  36.201  1.00  0.00    -0.011 A 
ATOM     18  C   UNL A   1      45.722  19.105  35.743  1.00  0.00     0.009 A 
ATOM     19  C   UNL A   1      47.164  19.801  37.541  1.00  0.00     0.009 A 
ATOM     20  C   UNL A   1      45.057  18.232  36.612  1.00  0.00     0.009 A 
ATOM     21  C   UNL A   1      46.491  18.928  38.405  1.00  0.00     0.009 A 
ATOM     22  C   UNL A   1      45.418  18.127  37.966  1.00  0.00    -0.018 A 
BRANCH  22  23
ATOM     23  C   UNL A   1      44.701  17.218  38.891  1.00  0.00    -0.018 A 
ATOM     24  C   UNL A   1      44.914  17.265  40.284  1.00  0.00     0.010 A 
ATOM     25  C   UNL A   1      43.762  16.281  38.414  1.00  0.00     0.010 A 
ATOM     26  C   UNL A   1      44.200  16.444  41.164  1.00  0.00     0.021 A 
ATOM     27  C   UNL A   1      43.035  15.464  39.284  1.00  0.00     0.021 A 
ATOM     28  C   UNL A   1      43.253  15.557  40.657  1.00  0.00     0.067 A 
BRANCH  28  29
ATOM     29  S   UNL A   1      42.253  14.607  41.781  1.00  0.00     0.175 S 
ATOM     30  C   UNL A   1      41.812  13.162  40.859  1.00  0.00     0.163 C 
ATOM     31  O   UNL A   1      43.134  14.231  42.872  1.00  0.00    -0.224 OA
ATOM     32  O   UNL A   1      41.051  15.382  42.038  1.00  0.00    -0.224 OA
ENDBRANCH  28  29
ENDBRANCH  22  23
ENDBRANCH   5  17
ENDBRANCH   3   5
ENDBRANCH   2   3
ENDBRANCH   1   2
BRANCH   1  33
ATOM     33  C   UNL A   1      51.407  21.723  34.841  1.00  0.00     0.275 C 
BRANCH  33  34
ATOM     34  O   UNL A   1      51.497  23.158  34.895  1.00  0.00    -0.458 OA
BRANCH  34  35
ATOM     35  C   UNL A   1      51.718  23.782  33.717  1.00  0.00     0.338 C 
ATOM     36  O   UNL A   1      52.785  23.876  33.126  1.00  0.00    -0.246 OA
BRANCH  35  37
ATOM     37  C   UNL A   1      50.463  24.338  33.174  1.00  0.00     0.060 A 
ATOM     38  C   UNL A   1      50.464  25.027  31.966  1.00  0.00     0.016 A 
ATOM     39  C   UNL A   1      49.308  24.323  33.958  1.00  0.00     0.016 A 
ATOM     40  C   UNL A   1      49.368  25.823  31.626  1.00  0.00     0.010 A 
ATOM     41  C   UNL A   1      48.171  25.034  33.547  1.00  0.00     0.010 A 
ATOM     42  C   UNL A   1      48.205  25.863  32.413  1.00  0.00    -0.014 A 
BRANCH  42  43
ATOM     43  C   UNL A   1      47.075  26.803  32.099  1.00  0.00     0.031 A 
ATOM     44  C   UNL A   1      46.800  28.007  32.980  1.00  0.00     0.074 A 
ATOM     45  C   UNL A   1      46.276  26.616  31.027  1.00  0.00     0.049 A 
ATOM     46  N   UNL A   1      45.744  28.784  33.020  1.00  0.00    -0.248 NA
ATOM     47  C   UNL A   1      47.838  28.375  33.958  1.00  0.00     0.031 C 
ATOM     48  C   UNL A   1      46.405  25.540  30.045  1.00  0.00     0.029 A 
ATOM     49  N   UNL A   1      45.184  27.330  30.585  1.00  0.00    -0.354 N 
ATOM     50  C   UNL A   1      45.937  29.642  34.100  1.00  0.00     0.074 A 
ATOM     51  C   UNL A   1      47.229  29.319  34.666  1.00  0.00     0.031 C 
ATOM     52  C   UNL A   1      45.482  25.697  29.088  1.00  0.00     0.029 A 
ATOM     53  C   UNL A   1      44.607  26.806  29.449  1.00  0.00     0.049 A 
ATOM     54  H   UNL A   1      44.848  28.138  31.036  1.00  0.00     0.167 HD
ATOM     55  C   UNL A   1      45.119  30.614  34.575  1.00  0.00     0.034 A 
ATOM     56  C   UNL A   1      43.474  27.125  28.794  1.00  0.00     0.034 A 
ATOM     57  C   UNL A   1      43.898  31.031  33.940  1.00  0.00     0.049 A 
ATOM     58  C   UNL A   1      42.589  28.215  29.319  1.00  0.00     0.074 A 
ATOM     59  C   UNL A   1      43.070  32.087  34.286  1.00  0.00     0.029 A 
ATOM     60  N   UNL A   1      43.331  30.432  32.828  1.00  0.00    -0.354 N 
ATOM     61  N   UNL A   1      42.754  28.967  30.379  1.00  0.00    -0.248 NA
ATOM     62  C   UNL A   1      41.364  28.502  28.562  1.00  0.00     0.031 C 
ATOM     63  C   UNL A   1      42.013  32.137  33.371  1.00  0.00     0.029 A 
ATOM     64  C   UNL A   1      42.191  31.123  32.445  1.00  0.00     0.049 A 
ATOM     65  H   UNL A   1      43.685  29.632  32.375  1.00  0.00     0.167 HD
ATOM     66  C   UNL A   1      41.665  29.830  30.404  1.00  0.00     0.074 A 
ATOM     67  C   UNL A   1      40.854  29.516  29.247  1.00  0.00     0.031 C 
ATOM     68  C   UNL A   1      41.378  30.802  31.302  1.00  0.00     0.034 A 
BRANCH  55  69
ATOM     69  C   UNL A   1      45.527  31.337  35.835  1.00  0.00     0.023 A 
ATOM     70  C   UNL A   1      46.342  32.483  35.760  1.00  0.00     0.012 A 
ATOM     71  C   UNL A   1      45.019  30.932  37.087  1.00  0.00     0.148 A 
ATOM     72  C   UNL A   1      46.666  33.199  36.913  1.00  0.00     0.002 A 
ATOM     73  C   UNL A   1      45.313  31.675  38.226  1.00  0.00     0.091 A 
ATOM     74  F   UNL A   1      44.261  29.827  37.143  1.00  0.00    -0.205 F 
ATOM     75  C   UNL A   1      46.143  32.804  38.142  1.00  0.00     0.022 A 
BRANCH  73  76
ATOM     76  S   UNL A   1      44.610  31.286  39.833  1.00  0.00     0.127 S 
ATOM     77  O   UNL A   1      45.287  32.254  40.694  1.00  0.00    -0.237 OA
ATOM     78  O   UNL A   1      43.185  31.549  39.624  1.00  0.00    -0.237 OA
ATOM     79  O   UNL A   1      44.934  29.887  40.079  1.00  0.00    -0.744 OA
ENDBRANCH  73  76
ENDBRANCH  55  69
BRANCH  56  80
ATOM     80  C   UNL A   1      43.117  26.379  27.555  1.00  0.00     0.023 A 
ATOM     81  C   UNL A   1      43.507  26.891  26.303  1.00  0.00     0.012 A 
ATOM     82  C   UNL A   1      42.468  25.131  27.617  1.00  0.00     0.148 A 
ATOM     83  C   UNL A   1      43.252  26.171  25.135  1.00  0.00     0.002 A 
ATOM     84  C   UNL A   1      42.284  24.388  26.457  1.00  0.00     0.091 A 
ATOM     85  F   UNL A   1      42.073  24.675  28.815  1.00  0.00    -0.205 F 
ATOM     86  C   UNL A   1      42.660  24.912  25.213  1.00  0.00     0.022 A 
BRANCH  84  87
ATOM     87  S   UNL A   1      41.702  22.688  26.519  1.00  0.00     0.127 S 
ATOM     88  O   UNL A   1      42.351  22.190  27.726  1.00  0.00    -0.237 OA
ATOM     89  O   UNL A   1      40.252  22.859  26.623  1.00  0.00    -0.237 OA
ATOM     90  O   UNL A   1      42.137  22.094  25.260  1.00  0.00    -0.744 OA
ENDBRANCH  84  87
ENDBRANCH  56  80
BRANCH  68  91
ATOM     91  C   UNL A   1      40.132  31.613  31.067  1.00  0.00     0.023 A 
ATOM     92  C   UNL A   1      40.201  32.795  30.307  1.00  0.00     0.012 A 
ATOM     93  C   UNL A   1      38.886  31.178  31.561  1.00  0.00     0.148 A 
ATOM     94  C   UNL A   1      39.054  33.548  30.064  1.00  0.00     0.002 A 
ATOM     95  C   UNL A   1      37.739  31.911  31.279  1.00  0.00     0.091 A 
ATOM     96  F   UNL A   1      38.847  30.061  32.303  1.00  0.00    -0.205 F 
ATOM     97  C   UNL A   1      37.822  33.102  30.540  1.00  0.00     0.022 A 
BRANCH  95  98
ATOM     98  S   UNL A   1      36.106  31.357  31.777  1.00  0.00     0.127 S 
ATOM     99  O   UNL A   1      36.006  31.899  33.130  1.00  0.00    -0.237 OA
ATOM    100  O   UNL A   1      35.240  32.008  30.792  1.00  0.00    -0.237 OA
ATOM    101  O   UNL A   1      36.138  29.903  31.678  1.00  0.00    -0.744 OA
ENDBRANCH  95  98
ENDBRANCH  68  91
ENDBRANCH  42  43
ENDBRANCH  35  37
ENDBRANCH  34  35
ENDBRANCH  33  34
ENDBRANCH   1  33
TORSDOF 19
ENDMDL
MODEL 3
REMARK VINA RESULT:     -10.2      4.522      9.135
REMARK SMILES CS(=O)(=O)c1ccc(/C=C(/C(=O)OCCOC(=O)c2ccc(-c3c4nc(c(-c5cccc(S(=O)(=O)[O-])c5F)c5ccc([nH]5)c(-c5cccc(S(=O)(=O)[O-])c5F)c5nc(c(-c6cccc(S(=O)(=O)[O-])c6F)c6ccc3[nH]6)C=C5)C=C4)cc2)c2ccc(-c3ccc(S(C)(=O)=O)cc3)cc2)cc1
REMARK SMILES IDX 14 1 13 2 11 3 12 4 10 5 9 6 8 7 5 8 6 9 99 10 7 11 98 12
REMARK SMILES IDX 2 13 1 14 3 15 4 16 82 17 83 18 97 19 84 20 96 21 85 22
REMARK SMILES IDX 86 23 87 24 95 25 88 26 94 27 89 28 90 29 91 30 92 31 93 32
REMARK SMILES IDX 15 33 16 34 17 35 18 36 19 37 20 38 81 39 21 40 80 41 22 42
REMARK SMILES IDX 23 43 24 44 74 45 25 46 79 47 73 48 75 49 26 50 78 51 72 52
REMARK SMILES IDX 71 53 27 55 59 56 39 57 58 58 40 59 43 60 57 61 76 62 41 63
REMARK SMILES IDX 42 64 56 66 77 67 44 68 28 69 29 70 37 71 30 72 32 73 38 74
REMARK SMILES IDX 31 75 33 76 34 77 35 78 36 79 60 80 61 81 69 82 62 83 64 84
REMARK SMILES IDX 70 85 63 86 65 87 66 88 67 89 68 90 45 91 46 92 54 93 47 94
REMARK SMILES IDX 49 95 55 96 48 97 50 98 51 99 52 100 53 101
REMARK H PARENT 75 54 43 65
REMARK Flexibility Score: inf
ROOT
ATOM      1  C   UNL A   1      34.302  34.931  27.957  1.00  0.00     0.275 C 
ENDROOT
BRANCH   1   2
ATOM      2  O   UNL A   1      34.103  33.504  28.029  1.00  0.00    -0.458 OA
BRANCH   2   3
ATOM      3  C   UNL A   1      35.232  32.780  28.249  1.00  0.00     0.338 C 
ATOM      4  O   UNL A   1      36.319  33.241  28.563  1.00  0.00    -0.246 OA
BRANCH   3   5
ATOM      5  C   UNL A   1      34.999  31.315  28.084  1.00  0.00     0.067 C 
ATOM      6  C   UNL A   1      33.785  30.893  27.659  1.00  0.00     0.024 C 
BRANCH   6   7
ATOM      7  C   UNL A   1      33.446  29.554  27.123  1.00  0.00    -0.025 A 
ATOM      8  C   UNL A   1      32.436  27.229  25.911  1.00  0.00     0.067 A 
ATOM      9  C   UNL A   1      33.643  27.772  25.475  1.00  0.00     0.021 A 
ATOM     10  C   UNL A   1      31.779  27.773  27.013  1.00  0.00     0.021 A 
ATOM     11  C   UNL A   1      34.158  28.906  26.106  1.00  0.00     0.009 A 
ATOM     12  C   UNL A   1      32.287  28.934  27.612  1.00  0.00     0.009 A 
BRANCH   8  13
ATOM     13  S   UNL A   1      31.772  25.873  24.979  1.00  0.00     0.175 S 
ATOM     14  C   UNL A   1      33.098  25.191  24.030  1.00  0.00     0.163 C 
ATOM     15  O   UNL A   1      30.827  26.440  24.031  1.00  0.00    -0.224 OA
ATOM     16  O   UNL A   1      31.369  24.868  25.939  1.00  0.00    -0.224 OA
ENDBRANCH   8  13
ENDBRANCH   6   7
BRANCH   5  17
ATOM     17  C   UNL A   1      36.163  30.421  28.215  1.00  0.00    -0.011 A 
ATOM     18  C   UNL A   1      37.092  30.346  27.170  1.00  0.00     0.009 A 
ATOM     19  C   UNL A   1      36.395  29.690  29.379  1.00  0.00     0.009 A 
ATOM     20  C   UNL A   1      38.245  29.564  27.299  1.00  0.00     0.009 A 
ATOM     21  C   UNL A   1      37.550  28.907  29.500  1.00  0.00     0.009 A 
ATOM     22  C   UNL A   1      38.500  28.819  28.463  1.00  0.00    -0.018 A 
BRANCH  22  23
ATOM     23  C   UNL A   1      39.711  27.974  28.593  1.00  0.00    -0.018 A 
ATOM     24  C   UNL A   1      40.916  28.487  29.113  1.00  0.00     0.010 A 
ATOM     25  C   UNL A   1      39.700  26.616  28.215  1.00  0.00     0.010 A 
ATOM     26  C   UNL A   1      42.046  27.679  29.285  1.00  0.00     0.021 A 
ATOM     27  C   UNL A   1      40.817  25.796  28.391  1.00  0.00     0.021 A 
ATOM     28  C   UNL A   1      41.983  26.332  28.935  1.00  0.00     0.067 A 
BRANCH  28  29
ATOM     29  S   UNL A   1      43.373  25.274  29.272  1.00  0.00     0.175 S 
ATOM     30  C   UNL A   1      44.603  25.783  28.105  1.00  0.00     0.163 C 
ATOM     31  O   UNL A   1      43.813  25.615  30.614  1.00  0.00    -0.224 OA
ATOM     32  O   UNL A   1      42.960  23.918  28.955  1.00  0.00    -0.224 OA
ENDBRANCH  28  29
ENDBRANCH  22  23
ENDBRANCH   5  17
ENDBRANCH   3   5
ENDBRANCH   2   3
ENDBRANCH   1   2
BRANCH   1  33
ATOM     33  C   UNL A   1      33.105  35.675  28.545  1.00  0.00     0.275 C 
BRANCH  33  34
ATOM     34  O   UNL A   1      32.580  34.947  29.669  1.00  0.00    -0.458 OA
BRANCH  34  35
ATOM     35  C   UNL A   1      32.585  35.600  30.852  1.00  0.00     0.338 C 
ATOM     36  O   UNL A   1      31.769  36.426  31.237  1.00  0.00    -0.246 OA
BRANCH  35  37
ATOM     37  C   UNL A   1      33.722  35.165  31.688  1.00  0.00     0.060 A 
ATOM     38  C   UNL A   1      34.296  36.039  32.603  1.00  0.00     0.016 A 
ATOM     39  C   UNL A   1      34.330  33.933  31.435  1.00  0.00     0.016 A 
ATOM     40  C   UNL A   1      35.553  35.747  33.140  1.00  0.00     0.010 A 
ATOM     41  C   UNL A   1      35.534  33.602  32.070  1.00  0.00     0.010 A 
ATOM     42  C   UNL A   1      36.211  34.535  32.875  1.00  0.00    -0.014 A 
BRANCH  42  43
ATOM     43  C   UNL A   1      37.607  34.274  33.367  1.00  0.00     0.031 A 
ATOM     44  C   UNL A   1      37.881  34.049  34.842  1.00  0.00     0.074 A 
ATOM     45  C   UNL A   1      38.658  34.223  32.520  1.00  0.00     0.049 A 
ATOM     46  N   UNL A   1      39.024  34.053  35.485  1.00  0.00    -0.248 NA
ATOM     47  C   UNL A   1      36.718  33.808  35.713  1.00  0.00     0.031 C 
ATOM     48  C   UNL A   1      38.589  34.378  31.068  1.00  0.00     0.029 A 
ATOM     49  N   UNL A   1      40.000  34.030  32.764  1.00  0.00    -0.354 N 
ATOM     50  C   UNL A   1      38.706  33.942  36.837  1.00  0.00     0.074 A 
ATOM     51  C   UNL A   1      37.266  33.833  36.921  1.00  0.00     0.031 C 
ATOM     52  C   UNL A   1      39.811  34.212  30.544  1.00  0.00     0.029 A 
ATOM     53  C   UNL A   1      40.776  34.070  31.627  1.00  0.00     0.049 A 
ATOM     54  H   UNL A   1      40.369  33.880  33.664  1.00  0.00     0.167 HD
ATOM     55  C   UNL A   1      39.535  33.927  37.910  1.00  0.00     0.034 A 
ATOM     56  C   UNL A   1      42.112  34.056  31.457  1.00  0.00     0.034 A 
ATOM     57  C   UNL A   1      40.972  33.900  37.828  1.00  0.00     0.049 A 
ATOM     58  C   UNL A   1      43.017  34.019  32.652  1.00  0.00     0.074 A 
ATOM     59  C   UNL A   1      41.885  33.763  38.861  1.00  0.00     0.029 A 
ATOM     60  N   UNL A   1      41.707  33.998  36.659  1.00  0.00    -0.354 N 
ATOM     61  N   UNL A   1      42.698  33.985  33.922  1.00  0.00    -0.248 NA
ATOM     62  C   UNL A   1      44.463  34.019  32.394  1.00  0.00     0.031 C 
ATOM     63  C   UNL A   1      43.172  33.759  38.312  1.00  0.00     0.029 A 
ATOM     64  C   UNL A   1      43.059  33.877  36.937  1.00  0.00     0.049 A 
ATOM     65  H   UNL A   1      41.325  34.134  35.762  1.00  0.00     0.167 HD
ATOM     66  C   UNL A   1      43.903  33.938  34.613  1.00  0.00     0.074 A 
ATOM     67  C   UNL A   1      44.957  33.935  33.621  1.00  0.00     0.031 C 
ATOM     68  C   UNL A   1      44.108  33.888  35.951  1.00  0.00     0.034 A 
BRANCH  55  69
ATOM     69  C   UNL A   1      38.919  33.901  39.287  1.00  0.00     0.023 A 
ATOM     70  C   UNL A   1      38.876  35.074  40.065  1.00  0.00     0.012 A 
ATOM     71  C   UNL A   1      38.298  32.730  39.768  1.00  0.00     0.148 A 
ATOM     72  C   UNL A   1      38.247  35.075  41.311  1.00  0.00     0.002 A 
ATOM     73  C   UNL A   1      37.636  32.751  40.992  1.00  0.00     0.091 A 
ATOM     74  F   UNL A   1      38.366  31.616  39.024  1.00  0.00    -0.205 F 
ATOM     75  C   UNL A   1      37.617  33.920  41.768  1.00  0.00     0.022 A 
BRANCH  73  76
ATOM     76  S   UNL A   1      36.726  31.332  41.616  1.00  0.00     0.127 S 
ATOM     77  O   UNL A   1      37.726  30.271  41.514  1.00  0.00    -0.237 OA
ATOM     78  O   UNL A   1      36.410  31.742  42.986  1.00  0.00    -0.237 OA
ATOM     79  O   UNL A   1      35.566  31.193  40.747  1.00  0.00    -0.744 OA
ENDBRANCH  73  76
ENDBRANCH  55  69
BRANCH  56  80
ATOM     80  C   UNL A   1      42.670  34.084  30.076  1.00  0.00     0.023 A 
ATOM     81  C   UNL A   1      42.890  35.322  29.444  1.00  0.00     0.012 A 
ATOM     82  C   UNL A   1      43.058  32.898  29.422  1.00  0.00     0.148 A 
ATOM     83  C   UNL A   1      43.484  35.376  28.182  1.00  0.00     0.002 A 
ATOM     84  C   UNL A   1      43.715  32.964  28.200  1.00  0.00     0.091 A 
ATOM     85  F   UNL A   1      42.809  31.726  30.025  1.00  0.00    -0.205 F 
ATOM     86  C   UNL A   1      43.915  34.200  27.570  1.00  0.00     0.022 A 
BRANCH  84  87
ATOM     87  S   UNL A   1      44.456  31.505  27.457  1.00  0.00     0.127 S 
ATOM     88  O   UNL A   1      43.376  30.530  27.563  1.00  0.00    -0.237 OA
ATOM     89  O   UNL A   1      44.745  31.961  26.096  1.00  0.00    -0.237 OA
ATOM     90  O   UNL A   1      45.646  31.239  28.255  1.00  0.00    -0.744 OA
ENDBRANCH  84  87
ENDBRANCH  56  80
BRANCH  68  91
ATOM     91  C   UNL A   1      45.533  33.815  36.429  1.00  0.00     0.023 A 
ATOM     92  C   UNL A   1      46.157  32.562  36.576  1.00  0.00     0.012 A 
ATOM     93  C   UNL A   1      46.266  34.990  36.688  1.00  0.00     0.148 A 
ATOM     94  C   UNL A   1      47.482  32.477  37.000  1.00  0.00     0.002 A 
ATOM     95  C   UNL A   1      47.600  34.899  37.069  1.00  0.00     0.091 A 
ATOM     96  F   UNL A   1      45.645  36.172  36.565  1.00  0.00    -0.205 F 
ATOM     97  C   UNL A   1      48.207  33.644  37.236  1.00  0.00     0.022 A 
BRANCH  95  98
ATOM     98  S   UNL A   1      48.626  36.353  37.304  1.00  0.00     0.127 S 
ATOM     99  O   UNL A   1      49.916  35.757  37.644  1.00  0.00    -0.237 OA
ATOM    100  O   UNL A   1      48.576  36.989  35.987  1.00  0.00    -0.237 OA
ATOM    101  O   UNL A   1      47.983  37.120  38.364  1.00  0.00    -0.744 OA
ENDBRANCH  95  98
ENDBRANCH  68  91
ENDBRANCH  42  43
ENDBRANCH  35  37
ENDBRANCH  34  35
ENDBRANCH  33  34
ENDBRANCH   1  33
TORSDOF 19
ENDMDL
