MODEL 1
REMARK VINA RESULT:     -10.0      0.000      0.000
REMARK SMILES CC(C)C[C@H](NC(=O)[C@H](Cc1ccccc1)NC(=O)CNC(=O)C[NH3+])C(=O)OCCOC(=O)c1ccc(-c2c3nc(c(-c4cccc(S(=O)(=O)[O-])c4F)c4ccc([nH]4)c(-c4cccc(S(=O)(=O)[O-])c4F)c4nc(c(-c5cccc(S(=O)(=O)[O-])c5F)c5ccc2[nH]5)C=C4)C=C3)cc1
REMARK SMILES IDX 26 1 27 2 5 3 4 4 2 5 1 6 3 7 6 8 7 9 8 11 9 12 17 13 18 14
REMARK SMILES IDX 19 16 20 17 21 18 22 19 23 21 24 22 25 23 10 27 11 28 12 29
REMARK SMILES IDX 16 30 13 31 15 32 14 33 28 34 29 35 30 36 31 37 32 38 33 39
REMARK SMILES IDX 34 40 35 41 96 42 36 43 95 44 37 45 38 46 39 47 89 48 40 49
REMARK SMILES IDX 94 50 88 51 90 52 41 53 93 54 87 55 86 56 42 58 74 59 54 60
REMARK SMILES IDX 73 61 55 62 58 63 72 64 91 65 56 66 57 67 71 69 92 70 59 71
REMARK SMILES IDX 43 72 44 73 52 74 45 75 47 76 53 77 46 78 48 79 49 80 50 81
REMARK SMILES IDX 51 82 75 83 76 84 84 85 77 86 79 87 85 88 78 89 80 90 81 91
REMARK SMILES IDX 82 92 83 93 60 94 61 95 69 96 62 97 64 98 70 99 63 100
REMARK SMILES IDX 65 101 66 102 67 103 68 104
REMARK H PARENT 6 10 17 15 21 20 25 24 25 25 25 26 90 57 58 68
REMARK Flexibility Score: inf
ROOT
ATOM      1  C   UNL A   1      31.657  27.797  26.817  1.00  0.00     0.328 C 
ATOM      2  O   UNL A   1      31.216  27.786  27.960  1.00  0.00    -0.250 OA
ENDROOT
BRANCH   1   3
ATOM      3  C   UNL A   1      32.021  26.522  26.024  1.00  0.00     0.192 C 
BRANCH   3   4
ATOM      4  C   UNL A   1      31.651  25.219  26.773  1.00  0.00     0.040 C 
BRANCH   4   5
ATOM      5  C   UNL A   1      30.600  24.253  26.164  1.00  0.00    -0.015 C 
ATOM      6  C   UNL A   1      30.822  24.026  24.662  1.00  0.00     0.007 C 
ATOM      7  C   UNL A   1      30.655  22.864  26.816  1.00  0.00     0.007 C 
ENDBRANCH   4   5
ENDBRANCH   3   4
BRANCH   3   8
ATOM      8  N   UNL A   1      33.404  26.606  25.474  1.00  0.00    -0.341 N 
ATOM      9  C   UNL A   1      33.723  26.545  24.128  1.00  0.00     0.243 C 
ATOM     10  H   UNL A   1      34.145  26.712  26.114  1.00  0.00     0.164 HD
ATOM     11  O   UNL A   1      34.058  27.569  23.537  1.00  0.00    -0.273 OA
BRANCH   9  12
ATOM     12  C   UNL A   1      33.721  25.161  23.454  1.00  0.00     0.175 C 
BRANCH  12  13
ATOM     13  N   UNL A   1      33.734  25.214  22.006  1.00  0.00    -0.342 N 
ATOM     14  C   UNL A   1      32.745  25.619  21.162  1.00  0.00     0.240 C 
ATOM     15  H   UNL A   1      34.569  24.919  21.576  1.00  0.00     0.164 HD
ATOM     16  O   UNL A   1      33.010  25.660  19.958  1.00  0.00    -0.273 OA
BRANCH  14  17
ATOM     17  C   UNL A   1      31.408  26.207  21.678  1.00  0.00     0.216 C 
BRANCH  17  18
ATOM     18  N   UNL A   1      31.342  27.614  22.062  1.00  0.00    -0.342 N 
ATOM     19  C   UNL A   1      30.411  28.355  22.734  1.00  0.00     0.275 C 
ATOM     20  H   UNL A   1      32.128  28.135  21.780  1.00  0.00     0.164 HD
ATOM     21  O   UNL A   1      30.748  29.493  23.072  1.00  0.00    -0.268 OA
BRANCH  19  22
ATOM     22  C   UNL A   1      28.987  27.833  22.981  1.00  0.00     0.360 C 
BRANCH  22  23
ATOM     23  N   UNL A   1      28.974  26.773  24.004  1.00  0.00    -0.350 N 
ATOM     24  H   UNL A   1      28.767  27.182  24.916  1.00  0.00     0.344 HD
ATOM     25  H   UNL A   1      29.887  26.318  24.035  1.00  0.00     0.344 HD
ATOM     26  H   UNL A   1      28.259  26.084  23.771  1.00  0.00     0.344 HD
ENDBRANCH  22  23
ENDBRANCH  19  22
ENDBRANCH  17  18
ENDBRANCH  14  17
ENDBRANCH  12  13
BRANCH  12  27
ATOM     27  C   UNL A   1      34.795  24.232  24.079  1.00  0.00     0.070 C 
BRANCH  27  28
ATOM     28  C   UNL A   1      34.327  22.969  24.764  1.00  0.00    -0.045 A 
ATOM     29  C   UNL A   1      33.666  21.968  24.046  1.00  0.00     0.004 A 
ATOM     30  C   UNL A   1      34.587  22.766  26.128  1.00  0.00     0.004 A 
ATOM     31  C   UNL A   1      33.279  20.784  24.680  1.00  0.00     0.000 A 
ATOM     32  C   UNL A   1      34.192  21.587  26.763  1.00  0.00     0.000 A 
ATOM     33  C   UNL A   1      33.540  20.595  26.036  1.00  0.00     0.000 A 
ENDBRANCH  27  28
ENDBRANCH  12  27
ENDBRANCH   9  12
ENDBRANCH   3   8
ENDBRANCH   1   3
BRANCH   1  34
ATOM     34  O   UNL A   1      31.873  28.946  26.112  1.00  0.00    -0.461 OA
BRANCH  34  35
ATOM     35  C   UNL A   1      31.702  30.155  26.880  1.00  0.00     0.274 C 
BRANCH  35  36
ATOM     36  C   UNL A   1      32.934  31.076  26.863  1.00  0.00     0.275 C 
BRANCH  36  37
ATOM     37  O   UNL A   1      34.014  30.620  27.702  1.00  0.00    -0.458 OA
BRANCH  37  38
ATOM     38  C   UNL A   1      35.029  31.508  27.850  1.00  0.00     0.338 C 
ATOM     39  O   UNL A   1      34.978  32.700  27.591  1.00  0.00    -0.246 OA
BRANCH  38  40
ATOM     40  C   UNL A   1      36.171  30.906  28.568  1.00  0.00     0.060 A 
ATOM     41  C   UNL A   1      37.416  31.523  28.402  1.00  0.00     0.016 A 
ATOM     42  C   UNL A   1      36.073  29.731  29.311  1.00  0.00     0.016 A 
ATOM     43  C   UNL A   1      38.564  30.991  28.967  1.00  0.00     0.010 A 
ATOM     44  C   UNL A   1      37.237  29.175  29.865  1.00  0.00     0.010 A 
ATOM     45  C   UNL A   1      38.488  29.796  29.683  1.00  0.00    -0.014 A 
BRANCH  45  46
ATOM     46  C   UNL A   1      39.748  29.165  30.132  1.00  0.00     0.031 A 
ATOM     47  C   UNL A   1      40.405  29.655  31.390  1.00  0.00     0.074 A 
ATOM     48  C   UNL A   1      40.258  28.118  29.458  1.00  0.00     0.049 A 
ATOM     49  N   UNL A   1      41.545  29.297  31.919  1.00  0.00    -0.248 NA
ATOM     50  C   UNL A   1      39.679  30.681  32.158  1.00  0.00     0.031 C 
ATOM     51  C   UNL A   1      39.664  27.513  28.266  1.00  0.00     0.029 A 
ATOM     52  N   UNL A   1      41.395  27.383  29.678  1.00  0.00    -0.354 N 
ATOM     53  C   UNL A   1      41.701  30.089  33.048  1.00  0.00     0.074 A 
ATOM     54  C   UNL A   1      40.532  30.937  33.139  1.00  0.00     0.031 C 
ATOM     55  C   UNL A   1      40.452  26.510  27.847  1.00  0.00     0.029 A 
ATOM     56  C   UNL A   1      41.626  26.432  28.712  1.00  0.00     0.049 A 
ATOM     57  H   UNL A   1      41.987  27.523  30.452  1.00  0.00     0.167 HD
ATOM     58  C   UNL A   1      42.725  30.102  33.933  1.00  0.00     0.034 A 
ATOM     59  C   UNL A   1      42.684  25.617  28.529  1.00  0.00     0.034 A 
ATOM     60  C   UNL A   1      43.859  29.221  33.862  1.00  0.00     0.049 A 
ATOM     61  C   UNL A   1      43.821  25.671  29.513  1.00  0.00     0.074 A 
ATOM     62  C   UNL A   1      44.943  29.145  34.717  1.00  0.00     0.029 A 
ATOM     63  N   UNL A   1      44.049  28.257  32.884  1.00  0.00    -0.354 N 
ATOM     64  N   UNL A   1      43.938  26.394  30.601  1.00  0.00    -0.248 NA
ATOM     65  C   UNL A   1      44.967  24.787  29.254  1.00  0.00     0.031 C 
ATOM     66  C   UNL A   1      45.798  28.140  34.248  1.00  0.00     0.029 A 
ATOM     67  C   UNL A   1      45.237  27.583  33.109  1.00  0.00     0.049 A 
ATOM     68  H   UNL A   1      43.431  28.078  32.138  1.00  0.00     0.167 HD
ATOM     69  C   UNL A   1      45.155  26.037  31.168  1.00  0.00     0.074 A 
ATOM     70  C   UNL A   1      45.727  25.013  30.318  1.00  0.00     0.031 C 
ATOM     71  C   UNL A   1      45.758  26.527  32.280  1.00  0.00     0.034 A 
BRANCH  58  72
ATOM     72  C   UNL A   1      42.660  31.096  35.059  1.00  0.00     0.023 A 
ATOM     73  C   UNL A   1      42.149  30.702  36.312  1.00  0.00     0.012 A 
ATOM     74  C   UNL A   1      43.142  32.408  34.888  1.00  0.00     0.148 A 
ATOM     75  C   UNL A   1      42.098  31.607  37.372  1.00  0.00     0.002 A 
ATOM     76  C   UNL A   1      43.121  33.294  35.959  1.00  0.00     0.091 A 
ATOM     77  F   UNL A   1      43.595  32.771  33.681  1.00  0.00    -0.205 F 
ATOM     78  C   UNL A   1      42.592  32.897  37.199  1.00  0.00     0.022 A 
BRANCH  76  79
ATOM     79  S   UNL A   1      43.793  34.955  35.850  1.00  0.00     0.127 S 
ATOM     80  O   UNL A   1      45.156  34.692  35.388  1.00  0.00    -0.237 OA
ATOM     81  O   UNL A   1      42.923  35.578  34.852  1.00  0.00    -0.237 OA
ATOM     82  O   UNL A   1      43.682  35.520  37.187  1.00  0.00    -0.744 OA
ENDBRANCH  76  79
ENDBRANCH  58  72
BRANCH  59  83
ATOM     83  C   UNL A   1      42.708  24.677  27.372  1.00  0.00     0.023 A 
ATOM     84  C   UNL A   1      43.345  25.061  26.177  1.00  0.00     0.012 A 
ATOM     85  C   UNL A   1      42.129  23.395  27.459  1.00  0.00     0.148 A 
ATOM     86  C   UNL A   1      43.386  24.195  25.083  1.00  0.00     0.002 A 
ATOM     87  C   UNL A   1      42.225  22.517  26.386  1.00  0.00     0.091 A 
ATOM     88  F   UNL A   1      41.500  23.055  28.593  1.00  0.00    -0.205 F 
ATOM     89  C   UNL A   1      42.838  22.919  25.192  1.00  0.00     0.022 A 
BRANCH  87  90
ATOM     90  S   UNL A   1      41.669  20.811  26.501  1.00  0.00     0.127 S 
ATOM     91  O   UNL A   1      42.341  20.198  25.360  1.00  0.00    -0.237 OA
ATOM     92  O   UNL A   1      42.185  20.406  27.810  1.00  0.00    -0.237 OA
ATOM     93  O   UNL A   1      40.215  20.874  26.431  1.00  0.00    -0.744 OA
ENDBRANCH  87  90
ENDBRANCH  59  83
BRANCH  71  94
ATOM     94  C   UNL A   1      47.098  25.950  32.654  1.00  0.00     0.023 A 
ATOM     95  C   UNL A   1      48.272  26.535  32.143  1.00  0.00     0.012 A 
ATOM     96  C   UNL A   1      47.195  24.884  33.569  1.00  0.00     0.148 A 
ATOM     97  C   UNL A   1      49.524  26.052  32.517  1.00  0.00     0.002 A 
ATOM     98  C   UNL A   1      48.447  24.435  33.970  1.00  0.00     0.091 A 
ATOM     99  F   UNL A   1      46.064  24.326  34.027  1.00  0.00    -0.205 F 
ATOM    100  C   UNL A   1      49.613  25.012  33.439  1.00  0.00     0.022 A 
BRANCH  98 101
ATOM    101  S   UNL A   1      48.650  23.161  35.220  1.00  0.00     0.127 S 
ATOM    102  O   UNL A   1      50.083  23.241  35.499  1.00  0.00    -0.237 OA
ATOM    103  O   UNL A   1      47.790  23.641  36.302  1.00  0.00    -0.237 OA
ATOM    104  O   UNL A   1      48.197  21.922  34.601  1.00  0.00    -0.744 OA
ENDBRANCH  98 101
ENDBRANCH  71  94
ENDBRANCH  45  46
ENDBRANCH  38  40
ENDBRANCH  37  38
ENDBRANCH  36  37
ENDBRANCH  35  36
ENDBRANCH  34  35
ENDBRANCH   1  34
TORSDOF 25
ENDMDL
MODEL 2
REMARK VINA RESULT:      -9.6      1.136      7.601
REMARK SMILES CC(C)C[C@H](NC(=O)[C@H](Cc1ccccc1)NC(=O)CNC(=O)C[NH3+])C(=O)OCCOC(=O)c1ccc(-c2c3nc(c(-c4cccc(S(=O)(=O)[O-])c4F)c4ccc([nH]4)c(-c4cccc(S(=O)(=O)[O-])c4F)c4nc(c(-c5cccc(S(=O)(=O)[O-])c5F)c5ccc2[nH]5)C=C4)C=C3)cc1
REMARK SMILES IDX 26 1 27 2 5 3 4 4 2 5 1 6 3 7 6 8 7 9 8 11 9 12 17 13 18 14
REMARK SMILES IDX 19 16 20 17 21 18 22 19 23 21 24 22 25 23 10 27 11 28 12 29
REMARK SMILES IDX 16 30 13 31 15 32 14 33 28 34 29 35 30 36 31 37 32 38 33 39
REMARK SMILES IDX 34 40 35 41 96 42 36 43 95 44 37 45 38 46 39 47 89 48 40 49
REMARK SMILES IDX 94 50 88 51 90 52 41 53 93 54 87 55 86 56 42 58 74 59 54 60
REMARK SMILES IDX 73 61 55 62 58 63 72 64 91 65 56 66 57 67 71 69 92 70 59 71
REMARK SMILES IDX 43 72 44 73 52 74 45 75 47 76 53 77 46 78 48 79 49 80 50 81
REMARK SMILES IDX 51 82 75 83 76 84 84 85 77 86 79 87 85 88 78 89 80 90 81 91
REMARK SMILES IDX 82 92 83 93 60 94 61 95 69 96 62 97 64 98 70 99 63 100
REMARK SMILES IDX 65 101 66 102 67 103 68 104
REMARK H PARENT 6 10 17 15 21 20 25 24 25 25 25 26 90 57 58 68
REMARK Flexibility Score: inf
ROOT
ATOM      1  C   UNL A   1      31.603  27.787  26.824  1.00  0.00     0.328 C 
ATOM      2  O   UNL A   1      31.144  27.766  27.959  1.00  0.00    -0.250 OA
ENDROOT
BRANCH   1   3
ATOM      3  C   UNL A   1      32.047  26.523  26.054  1.00  0.00     0.192 C 
BRANCH   3   4
ATOM      4  C   UNL A   1      31.773  25.214  26.834  1.00  0.00     0.040 C 
BRANCH   4   5
ATOM      5  C   UNL A   1      30.636  24.266  26.370  1.00  0.00    -0.015 C 
ATOM      6  C   UNL A   1      29.261  24.950  26.397  1.00  0.00     0.007 C 
ATOM      7  C   UNL A   1      30.843  23.787  24.926  1.00  0.00     0.007 C 
ENDBRANCH   4   5
ENDBRANCH   3   4
BRANCH   3   8
ATOM      8  N   UNL A   1      33.416  26.689  25.488  1.00  0.00    -0.341 N 
ATOM      9  C   UNL A   1      33.725  26.628  24.140  1.00  0.00     0.243 C 
ATOM     10  H   UNL A   1      34.154  26.854  26.118  1.00  0.00     0.164 HD
ATOM     11  O   UNL A   1      33.986  27.662  23.530  1.00  0.00    -0.273 OA
BRANCH   9  12
ATOM     12  C   UNL A   1      33.808  25.236  23.487  1.00  0.00     0.175 C 
BRANCH  12  13
ATOM     13  N   UNL A   1      33.816  25.268  22.038  1.00  0.00    -0.342 N 
ATOM     14  C   UNL A   1      32.794  25.571  21.191  1.00  0.00     0.240 C 
ATOM     15  H   UNL A   1      34.673  25.041  21.611  1.00  0.00     0.164 HD
ATOM     16  O   UNL A   1      33.053  25.617  19.985  1.00  0.00    -0.273 OA
BRANCH  14  17
ATOM     17  C   UNL A   1      31.410  26.047  21.700  1.00  0.00     0.216 C 
BRANCH  17  18
ATOM     18  N   UNL A   1      31.192  27.466  21.968  1.00  0.00    -0.342 N 
ATOM     19  C   UNL A   1      30.439  28.136  22.890  1.00  0.00     0.275 C 
ATOM     20  H   UNL A   1      31.688  28.060  21.359  1.00  0.00     0.164 HD
ATOM     21  O   UNL A   1      30.625  29.353  22.978  1.00  0.00    -0.268 OA
BRANCH  19  22
ATOM     22  C   UNL A   1      29.354  27.428  23.716  1.00  0.00     0.360 C 
BRANCH  22  23
ATOM     23  N   UNL A   1      28.013  27.659  23.151  1.00  0.00    -0.350 N 
ATOM     24  H   UNL A   1      27.599  28.485  23.583  1.00  0.00     0.344 HD
ATOM     25  H   UNL A   1      27.422  26.848  23.334  1.00  0.00     0.344 HD
ATOM     26  H   UNL A   1      28.088  27.805  22.144  1.00  0.00     0.344 HD
ENDBRANCH  22  23
ENDBRANCH  19  22
ENDBRANCH  17  18
ENDBRANCH  14  17
ENDBRANCH  12  13
BRANCH  12  27
ATOM     27  C   UNL A   1      34.939  24.386  24.123  1.00  0.00     0.070 C 
BRANCH  27  28
ATOM     28  C   UNL A   1      34.543  23.220  24.998  1.00  0.00    -0.045 A 
ATOM     29  C   UNL A   1      34.694  23.283  26.386  1.00  0.00     0.004 A 
ATOM     30  C   UNL A   1      33.978  22.067  24.429  1.00  0.00     0.004 A 
ATOM     31  C   UNL A   1      34.281  22.216  27.190  1.00  0.00     0.000 A 
ATOM     32  C   UNL A   1      33.574  20.999  25.231  1.00  0.00     0.000 A 
ATOM     33  C   UNL A   1      33.724  21.076  26.613  1.00  0.00     0.000 A 
ENDBRANCH  27  28
ENDBRANCH  12  27
ENDBRANCH   9  12
ENDBRANCH   3   8
ENDBRANCH   1   3
BRANCH   1  34
ATOM     34  O   UNL A   1      31.772  28.936  26.108  1.00  0.00    -0.461 OA
BRANCH  34  35
ATOM     35  C   UNL A   1      31.804  30.136  26.909  1.00  0.00     0.274 C 
BRANCH  35  36
ATOM     36  C   UNL A   1      33.105  30.943  26.758  1.00  0.00     0.275 C 
BRANCH  36  37
ATOM     37  O   UNL A   1      34.154  30.531  27.656  1.00  0.00    -0.458 OA
BRANCH  37  38
ATOM     38  C   UNL A   1      35.121  31.461  27.860  1.00  0.00     0.338 C 
ATOM     39  O   UNL A   1      35.025  32.656  27.624  1.00  0.00    -0.246 OA
BRANCH  38  40
ATOM     40  C   UNL A   1      36.264  30.896  28.607  1.00  0.00     0.060 A 
ATOM     41  C   UNL A   1      37.467  31.606  28.550  1.00  0.00     0.016 A 
ATOM     42  C   UNL A   1      36.211  29.673  29.273  1.00  0.00     0.016 A 
ATOM     43  C   UNL A   1      38.619  31.120  29.149  1.00  0.00     0.010 A 
ATOM     44  C   UNL A   1      37.380  29.164  29.860  1.00  0.00     0.010 A 
ATOM     45  C   UNL A   1      38.591  29.880  29.788  1.00  0.00    -0.014 A 
BRANCH  45  46
ATOM     46  C   UNL A   1      39.867  29.310  30.272  1.00  0.00     0.031 A 
ATOM     47  C   UNL A   1      40.501  28.182  29.510  1.00  0.00     0.074 A 
ATOM     48  C   UNL A   1      40.484  29.844  31.342  1.00  0.00     0.049 A 
ATOM     49  N   UNL A   1      41.571  27.490  29.799  1.00  0.00    -0.248 NA
ATOM     50  C   UNL A   1      39.846  27.786  28.252  1.00  0.00     0.031 C 
ATOM     51  C   UNL A   1      39.995  30.987  32.114  1.00  0.00     0.029 A 
ATOM     52  N   UNL A   1      41.653  29.492  31.966  1.00  0.00    -0.354 N 
ATOM     53  C   UNL A   1      41.688  26.542  28.792  1.00  0.00     0.074 A 
ATOM     54  C   UNL A   1      40.590  26.755  27.875  1.00  0.00     0.031 C 
ATOM     55  C   UNL A   1      40.849  31.230  33.121  1.00  0.00     0.029 A 
ATOM     56  C   UNL A   1      41.917  30.235  33.093  1.00  0.00     0.049 A 
ATOM     57  H   UNL A   1      42.246  28.777  31.639  1.00  0.00     0.167 HD
ATOM     58  C   UNL A   1      42.632  25.583  28.644  1.00  0.00     0.034 A 
ATOM     59  C   UNL A   1      42.891  30.100  34.015  1.00  0.00     0.034 A 
ATOM     60  C   UNL A   1      43.748  25.410  29.534  1.00  0.00     0.049 A 
ATOM     61  C   UNL A   1      43.912  29.009  33.840  1.00  0.00     0.074 A 
ATOM     62  C   UNL A   1      44.767  24.478  29.465  1.00  0.00     0.029 A 
ATOM     63  N   UNL A   1      43.995  26.193  30.651  1.00  0.00    -0.354 N 
ATOM     64  N   UNL A   1      44.038  28.145  32.861  1.00  0.00    -0.248 NA
ATOM     65  C   UNL A   1      44.935  28.881  34.888  1.00  0.00     0.031 C 
ATOM     66  C   UNL A   1      45.626  24.690  30.550  1.00  0.00     0.029 A 
ATOM     67  C   UNL A   1      45.148  25.763  31.285  1.00  0.00     0.049 A 
ATOM     68  H   UNL A   1      43.433  26.944  30.951  1.00  0.00     0.167 HD
ATOM     69  C   UNL A   1      45.164  27.389  33.162  1.00  0.00     0.074 A 
ATOM     70  C   UNL A   1      45.701  27.914  34.401  1.00  0.00     0.031 C 
ATOM     71  C   UNL A   1      45.695  26.339  32.487  1.00  0.00     0.034 A 
BRANCH  58  72
ATOM     72  C   UNL A   1      42.502  24.653  27.470  1.00  0.00     0.023 A 
ATOM     73  C   UNL A   1      43.206  24.924  26.280  1.00  0.00     0.012 A 
ATOM     74  C   UNL A   1      41.714  23.489  27.560  1.00  0.00     0.148 A 
ATOM     75  C   UNL A   1      43.110  24.062  25.188  1.00  0.00     0.002 A 
ATOM     76  C   UNL A   1      41.652  22.616  26.480  1.00  0.00     0.091 A 
ATOM     77  F   UNL A   1      41.029  23.265  28.689  1.00  0.00    -0.205 F 
ATOM     78  C   UNL A   1      42.342  22.905  25.291  1.00  0.00     0.022 A 
BRANCH  76  79
ATOM     79  S   UNL A   1      40.741  21.070  26.542  1.00  0.00     0.127 S 
ATOM     80  O   UNL A   1      41.556  20.212  25.683  1.00  0.00    -0.237 OA
ATOM     81  O   UNL A   1      40.795  20.734  27.965  1.00  0.00    -0.237 OA
ATOM     82  O   UNL A   1      39.407  21.372  26.043  1.00  0.00    -0.744 OA
ENDBRANCH  76  79
ENDBRANCH  58  72
BRANCH  59  83
ATOM     83  C   UNL A   1      42.947  31.032  35.178  1.00  0.00     0.023 A 
ATOM     84  C   UNL A   1      42.291  30.689  36.375  1.00  0.00     0.012 A 
ATOM     85  C   UNL A   1      43.671  32.239  35.114  1.00  0.00     0.148 A 
ATOM     86  C   UNL A   1      42.336  31.542  37.480  1.00  0.00     0.002 A 
ATOM     87  C   UNL A   1      43.760  33.055  36.236  1.00  0.00     0.091 A 
ATOM     88  F   UNL A   1      44.266  32.565  33.958  1.00  0.00    -0.205 F 
ATOM     89  C   UNL A   1      43.081  32.717  37.415  1.00  0.00     0.022 A 
BRANCH  87  90
ATOM     90  S   UNL A   1      44.815  34.510  36.272  1.00  0.00     0.127 S 
ATOM     91  O   UNL A   1      44.626  34.984  37.640  1.00  0.00    -0.237 OA
ATOM     92  O   UNL A   1      46.135  33.941  35.995  1.00  0.00    -0.237 OA
ATOM     93  O   UNL A   1      44.309  35.378  35.217  1.00  0.00    -0.744 OA
ENDBRANCH  87  90
ENDBRANCH  59  83
BRANCH  71  94
ATOM     94  C   UNL A   1      46.930  25.698  33.061  1.00  0.00     0.023 A 
ATOM     95  C   UNL A   1      46.802  24.746  34.091  1.00  0.00     0.012 A 
ATOM     96  C   UNL A   1      48.204  25.979  32.530  1.00  0.00     0.148 A 
ATOM     97  C   UNL A   1      47.927  24.101  34.602  1.00  0.00     0.002 A 
ATOM     98  C   UNL A   1      49.315  25.301  33.015  1.00  0.00     0.091 A 
ATOM     99  F   UNL A   1      48.305  26.904  31.565  1.00  0.00    -0.205 F 
ATOM    100  C   UNL A   1      49.180  24.368  34.056  1.00  0.00     0.022 A 
BRANCH  98 101
ATOM    101  S   UNL A   1      50.952  25.520  32.307  1.00  0.00     0.127 S 
ATOM    102  O   UNL A   1      51.755  24.613  33.124  1.00  0.00    -0.237 OA
ATOM    103  O   UNL A   1      50.757  25.084  30.924  1.00  0.00    -0.237 OA
ATOM    104  O   UNL A   1      51.259  26.937  32.450  1.00  0.00    -0.744 OA
ENDBRANCH  98 101
ENDBRANCH  71  94
ENDBRANCH  45  46
ENDBRANCH  38  40
ENDBRANCH  37  38
ENDBRANCH  36  37
ENDBRANCH  35  36
ENDBRANCH  34  35
ENDBRANCH   1  34
TORSDOF 25
ENDMDL
MODEL 3
REMARK VINA RESULT:      -9.4      1.390      2.397
REMARK SMILES CC(C)C[C@H](NC(=O)[C@H](Cc1ccccc1)NC(=O)CNC(=O)C[NH3+])C(=O)OCCOC(=O)c1ccc(-c2c3nc(c(-c4cccc(S(=O)(=O)[O-])c4F)c4ccc([nH]4)c(-c4cccc(S(=O)(=O)[O-])c4F)c4nc(c(-c5cccc(S(=O)(=O)[O-])c5F)c5ccc2[nH]5)C=C4)C=C3)cc1
REMARK SMILES IDX 26 1 27 2 5 3 4 4 2 5 1 6 3 7 6 8 7 9 8 11 9 12 17 13 18 14
REMARK SMILES IDX 19 16 20 17 21 18 22 19 23 21 24 22 25 23 10 27 11 28 12 29
REMARK SMILES IDX 16 30 13 31 15 32 14 33 28 34 29 35 30 36 31 37 32 38 33 39
REMARK SMILES IDX 34 40 35 41 96 42 36 43 95 44 37 45 38 46 39 47 89 48 40 49
REMARK SMILES IDX 94 50 88 51 90 52 41 53 93 54 87 55 86 56 42 58 74 59 54 60
REMARK SMILES IDX 73 61 55 62 58 63 72 64 91 65 56 66 57 67 71 69 92 70 59 71
REMARK SMILES IDX 43 72 44 73 52 74 45 75 47 76 53 77 46 78 48 79 49 80 50 81
REMARK SMILES IDX 51 82 75 83 76 84 84 85 77 86 79 87 85 88 78 89 80 90 81 91
REMARK SMILES IDX 82 92 83 93 60 94 61 95 69 96 62 97 64 98 70 99 63 100
REMARK SMILES IDX 65 101 66 102 67 103 68 104
REMARK H PARENT 6 10 17 15 21 20 25 24 25 25 25 26 90 57 58 68
REMARK Flexibility Score: inf
ROOT
ATOM      1  C   UNL A   1      32.332  28.787  25.175  1.00  0.00     0.328 C 
ATOM      2  O   UNL A   1      32.004  27.870  25.917  1.00  0.00    -0.250 OA
ENDROOT
BRANCH   1   3
ATOM      3  C   UNL A   1      32.233  28.723  23.634  1.00  0.00     0.192 C 
BRANCH   3   4
ATOM      4  C   UNL A   1      30.849  28.236  23.139  1.00  0.00     0.040 C 
BRANCH   4   5
ATOM      5  C   UNL A   1      29.636  29.203  23.173  1.00  0.00    -0.015 C 
ATOM      6  C   UNL A   1      29.650  30.195  22.001  1.00  0.00     0.007 C 
ATOM      7  C   UNL A   1      28.301  28.450  23.076  1.00  0.00     0.007 C 
ENDBRANCH   4   5
ENDBRANCH   3   4
BRANCH   3   8
ATOM      8  N   UNL A   1      33.426  28.052  23.044  1.00  0.00    -0.341 N 
ATOM      9  C   UNL A   1      33.401  26.835  22.385  1.00  0.00     0.243 C 
ATOM     10  H   UNL A   1      34.295  28.508  23.128  1.00  0.00     0.164 HD
ATOM     11  O   UNL A   1      33.512  26.805  21.161  1.00  0.00    -0.273 OA
BRANCH   9  12
ATOM     12  C   UNL A   1      33.319  25.558  23.241  1.00  0.00     0.175 C 
BRANCH  12  13
ATOM     13  N   UNL A   1      32.241  24.667  22.864  1.00  0.00    -0.342 N 
ATOM     14  C   UNL A   1      31.103  24.373  23.553  1.00  0.00     0.240 C 
ATOM     15  H   UNL A   1      32.344  24.216  21.995  1.00  0.00     0.164 HD
ATOM     16  O   UNL A   1      30.277  23.645  22.996  1.00  0.00    -0.273 OA
BRANCH  14  17
ATOM     17  C   UNL A   1      30.739  25.072  24.886  1.00  0.00     0.216 C 
BRANCH  17  18
ATOM     18  N   UNL A   1      30.042  24.320  25.926  1.00  0.00    -0.342 N 
ATOM     19  C   UNL A   1      30.439  23.346  26.798  1.00  0.00     0.275 C 
ATOM     20  H   UNL A   1      29.093  24.565  26.017  1.00  0.00     0.164 HD
ATOM     21  O   UNL A   1      29.646  23.049  27.695  1.00  0.00    -0.268 OA
BRANCH  19  22
ATOM     22  C   UNL A   1      31.768  22.594  26.620  1.00  0.00     0.360 C 
BRANCH  22  23
ATOM     23  N   UNL A   1      31.588  21.367  25.824  1.00  0.00    -0.350 N 
ATOM     24  H   UNL A   1      32.450  21.158  25.320  1.00  0.00     0.344 HD
ATOM     25  H   UNL A   1      30.828  21.502  25.157  1.00  0.00     0.344 HD
ATOM     26  H   UNL A   1      31.361  20.590  26.445  1.00  0.00     0.344 HD
ENDBRANCH  22  23
ENDBRANCH  19  22
ENDBRANCH  17  18
ENDBRANCH  14  17
ENDBRANCH  12  13
BRANCH  12  27
ATOM     27  C   UNL A   1      34.708  24.878  23.367  1.00  0.00     0.070 C 
BRANCH  27  28
ATOM     28  C   UNL A   1      34.855  23.746  24.356  1.00  0.00    -0.045 A 
ATOM     29  C   UNL A   1      34.692  22.417  23.952  1.00  0.00     0.004 A 
ATOM     30  C   UNL A   1      35.197  24.012  25.692  1.00  0.00     0.004 A 
ATOM     31  C   UNL A   1      34.876  21.375  24.866  1.00  0.00     0.000 A 
ATOM     32  C   UNL A   1      35.371  22.971  26.605  1.00  0.00     0.000 A 
ATOM     33  C   UNL A   1      35.213  21.652  26.190  1.00  0.00     0.000 A 
ENDBRANCH  27  28
ENDBRANCH  12  27
ENDBRANCH   9  12
ENDBRANCH   3   8
ENDBRANCH   1   3
BRANCH   1  34
ATOM     34  O   UNL A   1      32.824  29.976  25.630  1.00  0.00    -0.461 OA
BRANCH  34  35
ATOM     35  C   UNL A   1      33.786  29.852  26.698  1.00  0.00     0.274 C 
BRANCH  35  36
ATOM     36  C   UNL A   1      33.732  31.007  27.712  1.00  0.00     0.275 C 
BRANCH  36  37
ATOM     37  O   UNL A   1      34.848  31.916  27.620  1.00  0.00    -0.458 OA
BRANCH  37  38
ATOM     38  C   UNL A   1      35.174  32.530  28.786  1.00  0.00     0.338 C 
ATOM     39  O   UNL A   1      34.519  33.395  29.345  1.00  0.00    -0.246 OA
BRANCH  38  40
ATOM     40  C   UNL A   1      36.335  31.881  29.429  1.00  0.00     0.060 A 
ATOM     41  C   UNL A   1      37.602  32.340  29.052  1.00  0.00     0.016 A 
ATOM     42  C   UNL A   1      36.220  30.803  30.305  1.00  0.00     0.016 A 
ATOM     43  C   UNL A   1      38.756  31.744  29.537  1.00  0.00     0.010 A 
ATOM     44  C   UNL A   1      37.385  30.182  30.780  1.00  0.00     0.010 A 
ATOM     45  C   UNL A   1      38.657  30.642  30.386  1.00  0.00    -0.014 A 
BRANCH  45  46
ATOM     46  C   UNL A   1      39.897  29.924  30.754  1.00  0.00     0.031 A 
ATOM     47  C   UNL A   1      40.618  30.307  32.015  1.00  0.00     0.074 A 
ATOM     48  C   UNL A   1      40.332  28.896  30.003  1.00  0.00     0.049 A 
ATOM     49  N   UNL A   1      41.755  29.863  32.482  1.00  0.00    -0.248 NA
ATOM     50  C   UNL A   1      39.969  31.320  32.865  1.00  0.00     0.031 C 
ATOM     51  C   UNL A   1      39.671  28.392  28.800  1.00  0.00     0.029 A 
ATOM     52  N   UNL A   1      41.437  28.095  30.141  1.00  0.00    -0.354 N 
ATOM     53  C   UNL A   1      41.986  30.579  33.649  1.00  0.00     0.074 A 
ATOM     54  C   UNL A   1      40.865  31.476  33.829  1.00  0.00     0.031 C 
ATOM     55  C   UNL A   1      40.394  27.379  28.297  1.00  0.00     0.029 A 
ATOM     56  C   UNL A   1      41.589  27.193  29.115  1.00  0.00     0.049 A 
ATOM     57  H   UNL A   1      42.060  28.160  30.901  1.00  0.00     0.167 HD
ATOM     58  C   UNL A   1      43.037  30.490  34.497  1.00  0.00     0.034 A 
ATOM     59  C   UNL A   1      42.598  26.340  28.849  1.00  0.00     0.034 A 
ATOM     60  C   UNL A   1      44.123  29.561  34.336  1.00  0.00     0.049 A 
ATOM     61  C   UNL A   1      43.767  26.281  29.794  1.00  0.00     0.074 A 
ATOM     62  C   UNL A   1      45.229  29.382  35.147  1.00  0.00     0.029 A 
ATOM     63  N   UNL A   1      44.233  28.648  33.299  1.00  0.00    -0.354 N 
ATOM     64  N   UNL A   1      43.955  26.931  30.917  1.00  0.00    -0.248 NA
ATOM     65  C   UNL A   1      44.858  25.359  29.445  1.00  0.00     0.031 C 
ATOM     66  C   UNL A   1      46.016  28.366  34.591  1.00  0.00     0.029 A 
ATOM     67  C   UNL A   1      45.392  27.906  33.443  1.00  0.00     0.049 A 
ATOM     68  H   UNL A   1      43.583  28.544  32.566  1.00  0.00     0.167 HD
ATOM     69  C   UNL A   1      45.170  26.483  31.420  1.00  0.00     0.074 A 
ATOM     70  C   UNL A   1      45.662  25.484  30.493  1.00  0.00     0.031 C 
ATOM     71  C   UNL A   1      45.833  26.876  32.536  1.00  0.00     0.034 A 
BRANCH  58  72
ATOM     72  C   UNL A   1      43.058  31.418  35.680  1.00  0.00     0.023 A 
ATOM     73  C   UNL A   1      42.559  30.979  36.922  1.00  0.00     0.012 A 
ATOM     74  C   UNL A   1      43.609  32.709  35.571  1.00  0.00     0.148 A 
ATOM     75  C   UNL A   1      42.587  31.821  38.034  1.00  0.00     0.002 A 
ATOM     76  C   UNL A   1      43.666  33.529  36.691  1.00  0.00     0.091 A 
ATOM     77  F   UNL A   1      44.051  33.118  34.373  1.00  0.00    -0.205 F 
ATOM     78  C   UNL A   1      43.149  33.090  37.921  1.00  0.00     0.022 A 
BRANCH  76  79
ATOM     79  S   UNL A   1      44.429  35.155  36.658  1.00  0.00     0.127 S 
ATOM     80  O   UNL A   1      43.549  35.875  35.738  1.00  0.00    -0.237 OA
ATOM     81  O   UNL A   1      44.325  35.576  38.055  1.00  0.00    -0.237 OA
ATOM     82  O   UNL A   1      45.792  34.947  36.188  1.00  0.00    -0.744 OA
ENDBRANCH  76  79
ENDBRANCH  58  72
BRANCH  59  83
ATOM     83  C   UNL A   1      42.538  25.470  27.640  1.00  0.00     0.023 A 
ATOM     84  C   UNL A   1      42.997  25.964  26.404  1.00  0.00     0.012 A 
ATOM     85  C   UNL A   1      42.056  24.148  27.713  1.00  0.00     0.148 A 
ATOM     86  C   UNL A   1      42.957  25.165  25.260  1.00  0.00     0.002 A 
ATOM     87  C   UNL A   1      42.074  23.339  26.583  1.00  0.00     0.091 A 
ATOM     88  F   UNL A   1      41.595  23.702  28.890  1.00  0.00    -0.205 F 
ATOM     89  C   UNL A   1      42.508  23.850  25.351  1.00  0.00     0.022 A 
BRANCH  87  90
ATOM     90  S   UNL A   1      41.645  21.595  26.654  1.00  0.00     0.127 S 
ATOM     91  O   UNL A   1      42.269  21.082  25.438  1.00  0.00    -0.237 OA
ATOM     92  O   UNL A   1      42.284  21.171  27.900  1.00  0.00    -0.237 OA
ATOM     93  O   UNL A   1      40.188  21.558  26.692  1.00  0.00    -0.744 OA
ENDBRANCH  87  90
ENDBRANCH  59  83
BRANCH  71  94
ATOM     94  C   UNL A   1      47.152  26.214  32.830  1.00  0.00     0.023 A 
ATOM     95  C   UNL A   1      48.341  26.793  32.346  1.00  0.00     0.012 A 
ATOM     96  C   UNL A   1      47.220  25.070  33.648  1.00  0.00     0.148 A 
ATOM     97  C   UNL A   1      49.578  26.227  32.649  1.00  0.00     0.002 A 
ATOM     98  C   UNL A   1      48.460  24.536  33.981  1.00  0.00     0.091 A 
ATOM     99  F   UNL A   1      46.075  24.522  34.081  1.00  0.00    -0.205 F 
ATOM    100  C   UNL A   1      49.639  25.108  33.476  1.00  0.00     0.022 A 
BRANCH  98 101
ATOM    101  S   UNL A   1      48.630  23.151  35.113  1.00  0.00     0.127 S 
ATOM    102  O   UNL A   1      50.083  23.010  35.196  1.00  0.00    -0.237 OA
ATOM    103  O   UNL A   1      47.997  23.659  36.330  1.00  0.00    -0.237 OA
ATOM    104  O   UNL A   1      47.923  22.040  34.489  1.00  0.00    -0.744 OA
ENDBRANCH  98 101
ENDBRANCH  71  94
ENDBRANCH  45  46
ENDBRANCH  38  40
ENDBRANCH  37  38
ENDBRANCH  36  37
ENDBRANCH  35  36
ENDBRANCH  34  35
ENDBRANCH   1  34
TORSDOF 25
ENDMDL
