MODEL 1
REMARK VINA RESULT:     -12.2      0.000      0.000
REMARK SMILES Cc1nn(C)c(=O)c(C(=O)N2CCCC[C@H]2C(=O)OCCOC(=O)c2ccc(-c3c4nc(c(-c5cccc(S(=O)(=O)[O-])c5F)c5ccc([nH]5)c(-c5cccc(S(=O)(=O)[O-])c5F)c5nc(c(-c6cccc(S(=O)(=O)[O-])c6F)c6ccc3[nH]6)C=C5)C=C4)cc2)c1C
REMARK SMILES IDX 21 1 20 2 19 3 17 4 18 5 16 6 11 7 12 8 13 9 15 10 14 11
REMARK SMILES IDX 9 12 10 13 8 14 1 15 2 16 3 17 88 18 4 19 89 20 5 21 6 22
REMARK SMILES IDX 7 23 22 24 23 25 24 26 25 27 26 28 87 29 27 30 86 31 28 32
REMARK SMILES IDX 29 33 30 34 80 35 31 36 85 37 79 38 81 39 32 40 84 41 78 42
REMARK SMILES IDX 77 43 33 45 65 46 45 47 64 48 46 49 49 50 63 51 82 52 47 53
REMARK SMILES IDX 48 54 62 56 83 57 50 58 34 59 35 60 43 61 36 62 38 63 44 64
REMARK SMILES IDX 37 65 39 66 40 67 41 68 42 69 66 70 67 71 75 72 68 73 70 74
REMARK SMILES IDX 76 75 69 76 71 77 72 78 73 79 74 80 51 81 52 82 60 83 53 84
REMARK SMILES IDX 55 85 61 86 54 87 56 88 57 89 58 90 59 91
REMARK H PARENT 81 44 49 55
REMARK Flexibility Score: inf
ROOT
ATOM      1  C   UNL A   1      31.829  29.191  25.772  1.00  0.00     0.275 C 
ENDROOT
BRANCH   1   2
ATOM      2  C   UNL A   1      31.301  28.979  24.350  1.00  0.00     0.274 C 
BRANCH   2   3
ATOM      3  O   UNL A   1      32.018  27.916  23.685  1.00  0.00    -0.461 OA
BRANCH   3   4
ATOM      4  C   UNL A   1      31.268  27.142  22.853  1.00  0.00     0.328 C 
ATOM      5  O   UNL A   1      30.515  27.598  21.999  1.00  0.00    -0.250 OA
BRANCH   4   6
ATOM      6  C   UNL A   1      31.558  25.622  23.000  1.00  0.00     0.195 C 
ATOM      7  N   UNL A   1      32.767  25.256  23.776  1.00  0.00    -0.325 N 
ATOM      8  C   UNL A   1      32.725  25.695  25.175  1.00  0.00     0.121 C 
ATOM      9  C   UNL A   1      31.504  25.129  25.898  1.00  0.00     0.022 C 
ATOM     10  C   UNL A   1      30.330  24.976  23.675  1.00  0.00     0.037 C 
ATOM     11  C   UNL A   1      30.212  25.422  25.138  1.00  0.00     0.005 C 
BRANCH   7  12
ATOM     12  C   UNL A   1      33.763  24.347  23.419  1.00  0.00     0.260 C 
ATOM     13  O   UNL A   1      34.403  24.492  22.372  1.00  0.00    -0.269 OA
BRANCH  12  14
ATOM     14  C   UNL A   1      34.034  23.103  24.210  1.00  0.00     0.111 A 
ATOM     15  C   UNL A   1      32.892  19.549  24.786  1.00  0.00     0.069 C 
ATOM     16  C   UNL A   1      33.822  20.733  24.634  1.00  0.00     0.062 A 
ATOM     17  N   UNL A   1      35.033  20.581  25.056  1.00  0.00    -0.175 NA
ATOM     18  C   UNL A   1      33.309  21.986  24.007  1.00  0.00    -0.010 A 
ATOM     19  N   UNL A   1      35.841  21.683  25.063  1.00  0.00    -0.232 N 
ATOM     20  C   UNL A   1      32.151  21.838  23.080  1.00  0.00     0.047 C 
ATOM     21  C   UNL A   1      37.228  21.426  25.409  1.00  0.00     0.178 C 
ATOM     22  C   UNL A   1      35.365  22.980  24.892  1.00  0.00     0.279 A 
ATOM     23  O   UNL A   1      36.000  23.983  25.215  1.00  0.00    -0.267 OA
ENDBRANCH  12  14
ENDBRANCH   7  12
ENDBRANCH   4   6
ENDBRANCH   3   4
ENDBRANCH   2   3
ENDBRANCH   1   2
BRANCH   1  24
ATOM     24  O   UNL A   1      32.975  30.061  25.742  1.00  0.00    -0.458 OA
BRANCH  24  25
ATOM     25  C   UNL A   1      33.034  31.012  26.701  1.00  0.00     0.338 C 
ATOM     26  O   UNL A   1      32.220  31.896  26.901  1.00  0.00    -0.246 OA
BRANCH  25  27
ATOM     27  C   UNL A   1      34.255  30.837  27.511  1.00  0.00     0.060 A 
ATOM     28  C   UNL A   1      35.140  31.899  27.730  1.00  0.00     0.016 A 
ATOM     29  C   UNL A   1      34.560  29.564  27.992  1.00  0.00     0.016 A 
ATOM     30  C   UNL A   1      36.340  31.687  28.410  1.00  0.00     0.010 A 
ATOM     31  C   UNL A   1      35.739  29.362  28.712  1.00  0.00     0.010 A 
ATOM     32  C   UNL A   1      36.645  30.418  28.911  1.00  0.00    -0.014 A 
BRANCH  32  33
ATOM     33  C   UNL A   1      37.907  30.167  29.648  1.00  0.00     0.031 A 
ATOM     34  C   UNL A   1      38.939  29.243  29.068  1.00  0.00     0.074 A 
ATOM     35  C   UNL A   1      38.093  30.725  30.858  1.00  0.00     0.049 A 
ATOM     36  N   UNL A   1      40.012  28.750  29.628  1.00  0.00    -0.248 NA
ATOM     37  C   UNL A   1      38.733  28.812  27.675  1.00  0.00     0.031 C 
ATOM     38  C   UNL A   1      37.171  31.658  31.506  1.00  0.00     0.029 A 
ATOM     39  N   UNL A   1      39.105  30.566  31.772  1.00  0.00    -0.354 N 
ATOM     40  C   UNL A   1      40.589  27.920  28.674  1.00  0.00     0.074 A 
ATOM     41  C   UNL A   1      39.747  27.977  27.497  1.00  0.00     0.031 C 
ATOM     42  C   UNL A   1      37.650  31.977  32.719  1.00  0.00     0.029 A 
ATOM     43  C   UNL A   1      38.880  31.229  32.956  1.00  0.00     0.049 A 
ATOM     44  H   UNL A   1      39.912  30.030  31.597  1.00  0.00     0.167 HD
ATOM     45  C   UNL A   1      41.723  27.186  28.771  1.00  0.00     0.034 A 
ATOM     46  C   UNL A   1      39.566  31.205  34.116  1.00  0.00     0.034 A 
ATOM     47  C   UNL A   1      42.566  27.161  29.936  1.00  0.00     0.049 A 
ATOM     48  C   UNL A   1      40.801  30.351  34.211  1.00  0.00     0.074 A 
ATOM     49  C   UNL A   1      43.743  26.462  30.131  1.00  0.00     0.029 A 
ATOM     50  N   UNL A   1      42.321  27.868  31.104  1.00  0.00    -0.354 N 
ATOM     51  N   UNL A   1      41.363  29.610  33.287  1.00  0.00    -0.248 NA
ATOM     52  C   UNL A   1      41.504  30.339  35.502  1.00  0.00     0.031 C 
ATOM     53  C   UNL A   1      44.207  26.740  31.422  1.00  0.00     0.029 A 
ATOM     54  C   UNL A   1      43.323  27.620  32.027  1.00  0.00     0.049 A 
ATOM     55  H   UNL A   1      41.550  28.460  31.255  1.00  0.00     0.167 HD
ATOM     56  C   UNL A   1      42.490  29.051  33.877  1.00  0.00     0.074 A 
ATOM     57  C   UNL A   1      42.549  29.566  35.231  1.00  0.00     0.031 C 
ATOM     58  C   UNL A   1      43.382  28.173  33.357  1.00  0.00     0.034 A 
BRANCH  45  59
ATOM     59  C   UNL A   1      42.142  26.378  27.572  1.00  0.00     0.023 A 
ATOM     60  C   UNL A   1      42.909  26.989  26.560  1.00  0.00     0.012 A 
ATOM     61  C   UNL A   1      41.842  25.004  27.479  1.00  0.00     0.148 A 
ATOM     62  C   UNL A   1      43.355  26.250  25.464  1.00  0.00     0.002 A 
ATOM     63  C   UNL A   1      42.320  24.267  26.401  1.00  0.00     0.091 A 
ATOM     64  F   UNL A   1      41.091  24.448  28.440  1.00  0.00    -0.205 F 
ATOM     65  C   UNL A   1      43.070  24.889  25.390  1.00  0.00     0.022 A 
BRANCH  63  66
ATOM     66  S   UNL A   1      42.063  22.495  26.247  1.00  0.00     0.127 S 
ATOM     67  O   UNL A   1      42.778  22.199  25.006  1.00  0.00    -0.237 OA
ATOM     68  O   UNL A   1      42.707  21.982  27.458  1.00  0.00    -0.237 OA
ATOM     69  O   UNL A   1      40.621  22.301  26.199  1.00  0.00    -0.744 OA
ENDBRANCH  63  66
ENDBRANCH  45  59
BRANCH  46  70
ATOM     70  C   UNL A   1      39.108  32.045  35.259  1.00  0.00     0.023 A 
ATOM     71  C   UNL A   1      38.230  31.490  36.209  1.00  0.00     0.012 A 
ATOM     72  C   UNL A   1      39.596  33.352  35.457  1.00  0.00     0.148 A 
ATOM     73  C   UNL A   1      37.840  32.223  37.331  1.00  0.00     0.002 A 
ATOM     74  C   UNL A   1      39.252  34.055  36.607  1.00  0.00     0.091 A 
ATOM     75  F   UNL A   1      40.411  33.875  34.530  1.00  0.00    -0.205 F 
ATOM     76  C   UNL A   1      38.363  33.497  37.538  1.00  0.00     0.022 A 
BRANCH  74  77
ATOM     77  S   UNL A   1      40.000  35.634  37.028  1.00  0.00     0.127 S 
ATOM     78  O   UNL A   1      41.412  35.279  37.130  1.00  0.00    -0.237 OA
ATOM     79  O   UNL A   1      39.653  36.454  35.867  1.00  0.00    -0.237 OA
ATOM     80  O   UNL A   1      39.358  36.051  38.268  1.00  0.00    -0.744 OA
ENDBRANCH  74  77
ENDBRANCH  46  70
BRANCH  58  81
ATOM     81  C   UNL A   1      44.496  27.701  34.251  1.00  0.00     0.023 A 
ATOM     82  C   UNL A   1      45.685  28.455  34.326  1.00  0.00     0.012 A 
ATOM     83  C   UNL A   1      44.338  26.573  35.079  1.00  0.00     0.148 A 
ATOM     84  C   UNL A   1      46.708  28.080  35.195  1.00  0.00     0.002 A 
ATOM     85  C   UNL A   1      45.345  26.230  35.974  1.00  0.00     0.091 A 
ATOM     86  F   UNL A   1      43.209  25.856  34.977  1.00  0.00    -0.205 F 
ATOM     87  C   UNL A   1      46.533  26.977  36.028  1.00  0.00     0.022 A 
BRANCH  85  88
ATOM     88  S   UNL A   1      45.161  24.881  37.147  1.00  0.00     0.127 S 
ATOM     89  O   UNL A   1      44.994  23.733  36.258  1.00  0.00    -0.237 OA
ATOM     90  O   UNL A   1      46.435  24.913  37.866  1.00  0.00    -0.237 OA
ATOM     91  O   UNL A   1      44.003  25.222  37.963  1.00  0.00    -0.744 OA
ENDBRANCH  85  88
ENDBRANCH  58  81
ENDBRANCH  32  33
ENDBRANCH  25  27
ENDBRANCH  24  25
ENDBRANCH   1  24
TORSDOF 16
ENDMDL
MODEL 2
REMARK VINA RESULT:     -12.2      1.067      1.915
REMARK SMILES Cc1nn(C)c(=O)c(C(=O)N2CCCC[C@H]2C(=O)OCCOC(=O)c2ccc(-c3c4nc(c(-c5cccc(S(=O)(=O)[O-])c5F)c5ccc([nH]5)c(-c5cccc(S(=O)(=O)[O-])c5F)c5nc(c(-c6cccc(S(=O)(=O)[O-])c6F)c6ccc3[nH]6)C=C5)C=C4)cc2)c1C
REMARK SMILES IDX 21 1 20 2 19 3 17 4 18 5 16 6 11 7 12 8 13 9 15 10 14 11
REMARK SMILES IDX 9 12 10 13 8 14 1 15 2 16 3 17 88 18 4 19 89 20 5 21 6 22
REMARK SMILES IDX 7 23 22 24 23 25 24 26 25 27 26 28 87 29 27 30 86 31 28 32
REMARK SMILES IDX 29 33 30 34 80 35 31 36 85 37 79 38 81 39 32 40 84 41 78 42
REMARK SMILES IDX 77 43 33 45 65 46 45 47 64 48 46 49 49 50 63 51 82 52 47 53
REMARK SMILES IDX 48 54 62 56 83 57 50 58 34 59 35 60 43 61 36 62 38 63 44 64
REMARK SMILES IDX 37 65 39 66 40 67 41 68 42 69 66 70 67 71 75 72 68 73 70 74
REMARK SMILES IDX 76 75 69 76 71 77 72 78 73 79 74 80 51 81 52 82 60 83 53 84
REMARK SMILES IDX 55 85 61 86 54 87 56 88 57 89 58 90 59 91
REMARK H PARENT 81 44 49 55
REMARK Flexibility Score: inf
ROOT
ATOM      1  C   UNL A   1      31.484  30.127  25.736  1.00  0.00     0.275 C 
ENDROOT
BRANCH   1   2
ATOM      2  C   UNL A   1      31.408  28.844  24.903  1.00  0.00     0.274 C 
BRANCH   2   3
ATOM      3  O   UNL A   1      32.383  27.876  25.352  1.00  0.00    -0.461 OA
BRANCH   3   4
ATOM      4  C   UNL A   1      31.867  26.714  25.837  1.00  0.00     0.328 C 
ATOM      5  O   UNL A   1      30.813  26.650  26.462  1.00  0.00    -0.250 OA
BRANCH   4   6
ATOM      6  C   UNL A   1      32.674  25.457  25.408  1.00  0.00     0.195 C 
ATOM      7  N   UNL A   1      32.058  24.144  25.716  1.00  0.00    -0.325 N 
ATOM      8  C   UNL A   1      30.772  23.924  25.047  1.00  0.00     0.121 C 
ATOM      9  C   UNL A   1      30.908  24.043  23.530  1.00  0.00     0.022 C 
ATOM     10  C   UNL A   1      32.898  25.545  23.884  1.00  0.00     0.037 C 
ATOM     11  C   UNL A   1      31.580  25.354  23.124  1.00  0.00     0.005 C 
BRANCH   7  12
ATOM     12  C   UNL A   1      32.664  23.042  26.318  1.00  0.00     0.260 C 
ATOM     13  O   UNL A   1      32.567  22.856  27.536  1.00  0.00    -0.269 OA
BRANCH  12  14
ATOM     14  C   UNL A   1      33.546  22.098  25.558  1.00  0.00     0.111 A 
ATOM     15  C   UNL A   1      37.130  21.364  24.620  1.00  0.00     0.069 C 
ATOM     16  C   UNL A   1      35.689  21.123  25.012  1.00  0.00     0.062 A 
ATOM     17  N   UNL A   1      35.234  19.924  24.852  1.00  0.00    -0.175 NA
ATOM     18  C   UNL A   1      34.884  22.253  25.560  1.00  0.00    -0.010 A 
ATOM     19  N   UNL A   1      33.899  19.724  25.058  1.00  0.00    -0.232 N 
ATOM     20  C   UNL A   1      35.647  23.355  26.213  1.00  0.00     0.047 C 
ATOM     21  C   UNL A   1      33.469  18.337  25.007  1.00  0.00     0.178 C 
ATOM     22  C   UNL A   1      32.979  20.763  25.172  1.00  0.00     0.279 A 
ATOM     23  O   UNL A   1      31.767  20.613  25.028  1.00  0.00    -0.267 OA
ENDBRANCH  12  14
ENDBRANCH   7  12
ENDBRANCH   4   6
ENDBRANCH   3   4
ENDBRANCH   2   3
ENDBRANCH   1   2
BRANCH   1  24
ATOM     24  O   UNL A   1      32.859  30.519  25.903  1.00  0.00    -0.458 OA
BRANCH  24  25
ATOM     25  C   UNL A   1      33.119  31.393  26.901  1.00  0.00     0.338 C 
ATOM     26  O   UNL A   1      32.426  32.336  27.242  1.00  0.00    -0.246 OA
BRANCH  25  27
ATOM     27  C   UNL A   1      34.394  31.046  27.558  1.00  0.00     0.060 A 
ATOM     28  C   UNL A   1      34.660  29.739  27.981  1.00  0.00     0.016 A 
ATOM     29  C   UNL A   1      35.305  32.067  27.828  1.00  0.00     0.016 A 
ATOM     30  C   UNL A   1      35.825  29.453  28.694  1.00  0.00     0.010 A 
ATOM     31  C   UNL A   1      36.492  31.772  28.501  1.00  0.00     0.010 A 
ATOM     32  C   UNL A   1      36.753  30.467  28.953  1.00  0.00    -0.014 A 
BRANCH  32  33
ATOM     33  C   UNL A   1      38.005  30.189  29.698  1.00  0.00     0.031 A 
ATOM     34  C   UNL A   1      39.029  29.259  29.114  1.00  0.00     0.074 A 
ATOM     35  C   UNL A   1      38.187  30.726  30.918  1.00  0.00     0.049 A 
ATOM     36  N   UNL A   1      40.090  28.743  29.677  1.00  0.00    -0.248 NA
ATOM     37  C   UNL A   1      38.830  28.851  27.713  1.00  0.00     0.031 C 
ATOM     38  C   UNL A   1      37.271  31.662  31.571  1.00  0.00     0.029 A 
ATOM     39  N   UNL A   1      39.187  30.540  31.839  1.00  0.00    -0.354 N 
ATOM     40  C   UNL A   1      40.664  27.919  28.716  1.00  0.00     0.074 A 
ATOM     41  C   UNL A   1      39.835  28.005  27.533  1.00  0.00     0.031 C 
ATOM     42  C   UNL A   1      37.743  31.957  32.792  1.00  0.00     0.029 A 
ATOM     43  C   UNL A   1      38.960  31.188  33.030  1.00  0.00     0.049 A 
ATOM     44  H   UNL A   1      39.989  29.996  31.663  1.00  0.00     0.167 HD
ATOM     45  C   UNL A   1      41.787  27.168  28.814  1.00  0.00     0.034 A 
ATOM     46  C   UNL A   1      39.635  31.139  34.196  1.00  0.00     0.034 A 
ATOM     47  C   UNL A   1      42.618  27.114  29.986  1.00  0.00     0.049 A 
ATOM     48  C   UNL A   1      40.857  30.267  34.290  1.00  0.00     0.074 A 
ATOM     49  C   UNL A   1      43.784  26.397  30.181  1.00  0.00     0.029 A 
ATOM     50  N   UNL A   1      42.373  27.808  31.162  1.00  0.00    -0.354 N 
ATOM     51  N   UNL A   1      41.417  29.531  33.361  1.00  0.00    -0.248 NA
ATOM     52  C   UNL A   1      41.547  30.226  35.587  1.00  0.00     0.031 C 
ATOM     53  C   UNL A   1      44.239  26.649  31.480  1.00  0.00     0.029 A 
ATOM     54  C   UNL A   1      43.362  27.532  32.090  1.00  0.00     0.049 A 
ATOM     55  H   UNL A   1      41.608  28.408  31.314  1.00  0.00     0.167 HD
ATOM     56  C   UNL A   1      42.531  28.948  33.953  1.00  0.00     0.074 A 
ATOM     57  C   UNL A   1      42.584  29.442  35.315  1.00  0.00     0.031 C 
ATOM     58  C   UNL A   1      43.416  28.065  33.428  1.00  0.00     0.034 A 
BRANCH  45  59
ATOM     59  C   UNL A   1      42.206  26.371  27.607  1.00  0.00     0.023 A 
ATOM     60  C   UNL A   1      42.989  26.987  26.610  1.00  0.00     0.012 A 
ATOM     61  C   UNL A   1      41.890  25.003  27.492  1.00  0.00     0.148 A 
ATOM     62  C   UNL A   1      43.435  26.259  25.508  1.00  0.00     0.002 A 
ATOM     63  C   UNL A   1      42.369  24.275  26.408  1.00  0.00     0.091 A 
ATOM     64  F   UNL A   1      41.125  24.442  28.439  1.00  0.00    -0.205 F 
ATOM     65  C   UNL A   1      43.135  24.902  25.412  1.00  0.00     0.022 A 
BRANCH  63  66
ATOM     66  S   UNL A   1      42.092  22.508  26.227  1.00  0.00     0.127 S 
ATOM     67  O   UNL A   1      40.636  22.449  26.102  1.00  0.00    -0.237 OA
ATOM     68  O   UNL A   1      42.822  22.206  24.995  1.00  0.00    -0.237 OA
ATOM     69  O   UNL A   1      42.641  21.891  27.425  1.00  0.00    -0.744 OA
ENDBRANCH  63  66
ENDBRANCH  45  59
BRANCH  46  70
ATOM     70  C   UNL A   1      39.177  31.968  35.347  1.00  0.00     0.023 A 
ATOM     71  C   UNL A   1      38.352  31.385  36.327  1.00  0.00     0.012 A 
ATOM     72  C   UNL A   1      39.617  33.296  35.521  1.00  0.00     0.148 A 
ATOM     73  C   UNL A   1      37.965  32.111  37.455  1.00  0.00     0.002 A 
ATOM     74  C   UNL A   1      39.279  33.993  36.677  1.00  0.00     0.091 A 
ATOM     75  F   UNL A   1      40.382  33.844  34.566  1.00  0.00    -0.205 F 
ATOM     76  C   UNL A   1      38.442  33.406  37.638  1.00  0.00     0.022 A 
BRANCH  74  77
ATOM     77  S   UNL A   1      39.974  35.604  37.064  1.00  0.00     0.127 S 
ATOM     78  O   UNL A   1      39.303  35.927  38.319  1.00  0.00    -0.237 OA
ATOM     79  O   UNL A   1      41.400  35.299  37.189  1.00  0.00    -0.237 OA
ATOM     80  O   UNL A   1      39.644  36.455  35.928  1.00  0.00    -0.744 OA
ENDBRANCH  74  77
ENDBRANCH  46  70
BRANCH  58  81
ATOM     81  C   UNL A   1      44.515  27.565  34.326  1.00  0.00     0.023 A 
ATOM     82  C   UNL A   1      45.695  28.324  34.457  1.00  0.00     0.012 A 
ATOM     83  C   UNL A   1      44.349  26.403  35.103  1.00  0.00     0.148 A 
ATOM     84  C   UNL A   1      46.703  27.922  35.332  1.00  0.00     0.002 A 
ATOM     85  C   UNL A   1      45.339  26.031  36.005  1.00  0.00     0.091 A 
ATOM     86  F   UNL A   1      43.228  25.683  34.948  1.00  0.00    -0.205 F 
ATOM     87  C   UNL A   1      46.520  26.783  36.115  1.00  0.00     0.022 A 
BRANCH  85  88
ATOM     88  S   UNL A   1      45.142  24.633  37.118  1.00  0.00     0.127 S 
ATOM     89  O   UNL A   1      46.439  24.605  37.792  1.00  0.00    -0.237 OA
ATOM     90  O   UNL A   1      44.026  25.057  37.963  1.00  0.00    -0.237 OA
ATOM     91  O   UNL A   1      44.848  23.488  36.266  1.00  0.00    -0.744 OA
ENDBRANCH  85  88
ENDBRANCH  58  81
ENDBRANCH  32  33
ENDBRANCH  25  27
ENDBRANCH  24  25
ENDBRANCH   1  24
TORSDOF 16
ENDMDL
MODEL 3
REMARK VINA RESULT:     -12.2      4.744      9.882
REMARK SMILES Cc1nn(C)c(=O)c(C(=O)N2CCCC[C@H]2C(=O)OCCOC(=O)c2ccc(-c3c4nc(c(-c5cccc(S(=O)(=O)[O-])c5F)c5ccc([nH]5)c(-c5cccc(S(=O)(=O)[O-])c5F)c5nc(c(-c6cccc(S(=O)(=O)[O-])c6F)c6ccc3[nH]6)C=C5)C=C4)cc2)c1C
REMARK SMILES IDX 21 1 20 2 19 3 17 4 18 5 16 6 11 7 12 8 13 9 15 10 14 11
REMARK SMILES IDX 9 12 10 13 8 14 1 15 2 16 3 17 88 18 4 19 89 20 5 21 6 22
REMARK SMILES IDX 7 23 22 24 23 25 24 26 25 27 26 28 87 29 27 30 86 31 28 32
REMARK SMILES IDX 29 33 30 34 80 35 31 36 85 37 79 38 81 39 32 40 84 41 78 42
REMARK SMILES IDX 77 43 33 45 65 46 45 47 64 48 46 49 49 50 63 51 82 52 47 53
REMARK SMILES IDX 48 54 62 56 83 57 50 58 34 59 35 60 43 61 36 62 38 63 44 64
REMARK SMILES IDX 37 65 39 66 40 67 41 68 42 69 66 70 67 71 75 72 68 73 70 74
REMARK SMILES IDX 76 75 69 76 71 77 72 78 73 79 74 80 51 81 52 82 60 83 53 84
REMARK SMILES IDX 55 85 61 86 54 87 56 88 57 89 58 90 59 91
REMARK H PARENT 81 44 49 55
REMARK Flexibility Score: inf
ROOT
ATOM      1  C   UNL A   1      36.060  21.220  24.659  1.00  0.00     0.275 C 
ENDROOT
BRANCH   1   2
ATOM      2  C   UNL A   1      34.719  20.574  25.020  1.00  0.00     0.274 C 
BRANCH   2   3
ATOM      3  O   UNL A   1      33.783  21.561  25.507  1.00  0.00    -0.461 OA
BRANCH   3   4
ATOM      4  C   UNL A   1      32.504  21.418  25.062  1.00  0.00     0.328 C 
ATOM      5  O   UNL A   1      31.910  20.346  25.045  1.00  0.00    -0.250 OA
BRANCH   4   6
ATOM      6  C   UNL A   1      31.824  22.769  24.703  1.00  0.00     0.195 C 
ATOM      7  N   UNL A   1      32.500  23.995  25.189  1.00  0.00    -0.325 N 
ATOM      8  C   UNL A   1      33.849  24.180  24.647  1.00  0.00     0.121 C 
ATOM      9  C   UNL A   1      33.833  24.218  23.119  1.00  0.00     0.022 C 
ATOM     10  C   UNL A   1      31.722  22.844  23.165  1.00  0.00     0.037 C 
ATOM     11  C   UNL A   1      33.110  23.007  22.532  1.00  0.00     0.005 C 
BRANCH   7  12
ATOM     12  C   UNL A   1      31.922  25.078  25.852  1.00  0.00     0.260 C 
ATOM     13  O   UNL A   1      31.370  24.925  26.947  1.00  0.00    -0.269 OA
BRANCH  12  14
ATOM     14  C   UNL A   1      31.836  26.442  25.236  1.00  0.00     0.111 A 
ATOM     15  C   UNL A   1      29.819  28.604  22.886  1.00  0.00     0.069 C 
ATOM     16  C   UNL A   1      30.667  28.210  24.075  1.00  0.00     0.062 A 
ATOM     17  N   UNL A   1      31.215  29.170  24.744  1.00  0.00    -0.175 NA
ATOM     18  C   UNL A   1      30.816  26.766  24.418  1.00  0.00    -0.010 A 
ATOM     19  N   UNL A   1      32.101  28.829  25.726  1.00  0.00    -0.232 N 
ATOM     20  C   UNL A   1      29.722  25.860  23.965  1.00  0.00     0.047 C 
ATOM     21  C   UNL A   1      32.575  29.936  26.539  1.00  0.00     0.178 C 
ATOM     22  C   UNL A   1      32.629  27.548  25.868  1.00  0.00     0.279 A 
ATOM     23  O   UNL A   1      33.647  27.303  26.514  1.00  0.00    -0.267 OA
ENDBRANCH  12  14
ENDBRANCH   7  12
ENDBRANCH   4   6
ENDBRANCH   3   4
ENDBRANCH   2   3
ENDBRANCH   1   2
BRANCH   1  24
ATOM     24  O   UNL A   1      36.797  21.516  25.859  1.00  0.00    -0.458 OA
BRANCH  24  25
ATOM     25  C   UNL A   1      38.135  21.333  25.804  1.00  0.00     0.338 C 
ATOM     26  O   UNL A   1      38.719  20.350  25.384  1.00  0.00    -0.246 OA
BRANCH  25  27
ATOM     27  C   UNL A   1      38.830  22.523  26.333  1.00  0.00     0.060 A 
ATOM     28  C   UNL A   1      38.371  23.815  26.054  1.00  0.00     0.016 A 
ATOM     29  C   UNL A   1      40.011  22.342  27.052  1.00  0.00     0.016 A 
ATOM     30  C   UNL A   1      39.101  24.928  26.474  1.00  0.00     0.010 A 
ATOM     31  C   UNL A   1      40.717  23.455  27.512  1.00  0.00     0.010 A 
ATOM     32  C   UNL A   1      40.277  24.755  27.212  1.00  0.00    -0.014 A 
BRANCH  32  33
ATOM     33  C   UNL A   1      41.066  25.920  27.681  1.00  0.00     0.031 A 
ATOM     34  C   UNL A   1      40.398  26.999  28.484  1.00  0.00     0.074 A 
ATOM     35  C   UNL A   1      42.361  26.030  27.333  1.00  0.00     0.049 A 
ATOM     36  N   UNL A   1      40.856  28.173  28.827  1.00  0.00    -0.248 NA
ATOM     37  C   UNL A   1      39.033  26.720  28.961  1.00  0.00     0.031 C 
ATOM     38  C   UNL A   1      43.118  25.030  26.578  1.00  0.00     0.029 A 
ATOM     39  N   UNL A   1      43.262  27.044  27.542  1.00  0.00    -0.354 N 
ATOM     40  C   UNL A   1      39.824  28.792  29.524  1.00  0.00     0.074 A 
ATOM     41  C   UNL A   1      38.716  27.861  29.556  1.00  0.00     0.031 C 
ATOM     42  C   UNL A   1      44.363  25.487  26.373  1.00  0.00     0.029 A 
ATOM     43  C   UNL A   1      44.475  26.831  26.931  1.00  0.00     0.049 A 
ATOM     44  H   UNL A   1      43.059  27.845  28.078  1.00  0.00     0.167 HD
ATOM     45  C   UNL A   1      39.810  30.022  30.091  1.00  0.00     0.034 A 
ATOM     46  C   UNL A   1      45.543  27.642  26.800  1.00  0.00     0.034 A 
ATOM     47  C   UNL A   1      40.928  30.926  30.076  1.00  0.00     0.049 A 
ATOM     48  C   UNL A   1      45.488  29.018  27.406  1.00  0.00     0.074 A 
ATOM     49  C   UNL A   1      41.021  32.188  30.634  1.00  0.00     0.029 A 
ATOM     50  N   UNL A   1      42.150  30.663  29.473  1.00  0.00    -0.354 N 
ATOM     51  N   UNL A   1      44.527  29.572  28.103  1.00  0.00    -0.248 NA
ATOM     52  C   UNL A   1      46.667  29.876  27.218  1.00  0.00     0.031 C 
ATOM     53  C   UNL A   1      42.297  32.693  30.360  1.00  0.00     0.029 A 
ATOM     54  C   UNL A   1      43.002  31.741  29.641  1.00  0.00     0.049 A 
ATOM     55  H   UNL A   1      42.377  29.833  28.997  1.00  0.00     0.167 HD
ATOM     56  C   UNL A   1      44.984  30.838  28.449  1.00  0.00     0.074 A 
ATOM     57  C   UNL A   1      46.325  30.956  27.910  1.00  0.00     0.031 C 
ATOM     58  C   UNL A   1      44.347  31.823  29.128  1.00  0.00     0.034 A 
BRANCH  45  59
ATOM     59  C   UNL A   1      38.559  30.450  30.811  1.00  0.00     0.023 A 
ATOM     60  C   UNL A   1      38.408  30.143  32.178  1.00  0.00     0.012 A 
ATOM     61  C   UNL A   1      37.569  31.213  30.159  1.00  0.00     0.148 A 
ATOM     62  C   UNL A   1      37.284  30.572  32.882  1.00  0.00     0.002 A 
ATOM     63  C   UNL A   1      36.467  31.667  30.877  1.00  0.00     0.091 A 
ATOM     64  F   UNL A   1      37.719  31.473  28.853  1.00  0.00    -0.205 F 
ATOM     65  C   UNL A   1      36.320  31.342  32.236  1.00  0.00     0.022 A 
BRANCH  63  66
ATOM     66  S   UNL A   1      35.204  32.719  30.152  1.00  0.00     0.127 S 
ATOM     67  O   UNL A   1      34.343  32.983  31.304  1.00  0.00    -0.237 OA
ATOM     68  O   UNL A   1      35.984  33.872  29.698  1.00  0.00    -0.237 OA
ATOM     69  O   UNL A   1      34.596  31.939  29.084  1.00  0.00    -0.744 OA
ENDBRANCH  63  66
ENDBRANCH  45  59
BRANCH  46  70
ATOM     70  C   UNL A   1      46.760  27.149  26.092  1.00  0.00     0.023 A 
ATOM     71  C   UNL A   1      46.907  27.415  24.718  1.00  0.00     0.012 A 
ATOM     72  C   UNL A   1      47.801  26.496  26.780  1.00  0.00     0.148 A 
ATOM     73  C   UNL A   1      48.066  27.033  24.040  1.00  0.00     0.002 A 
ATOM     74  C   UNL A   1      48.978  26.174  26.113  1.00  0.00     0.091 A 
ATOM     75  F   UNL A   1      47.633  26.229  28.084  1.00  0.00    -0.205 F 
ATOM     76  C   UNL A   1      49.107  26.429  24.740  1.00  0.00     0.022 A 
BRANCH  74  77
ATOM     77  S   UNL A   1      50.424  25.536  26.971  1.00  0.00     0.127 S 
ATOM     78  O   UNL A   1      50.746  26.636  27.875  1.00  0.00    -0.237 OA
ATOM     79  O   UNL A   1      49.889  24.340  27.621  1.00  0.00    -0.237 OA
ATOM     80  O   UNL A   1      51.405  25.261  25.929  1.00  0.00    -0.744 OA
ENDBRANCH  74  77
ENDBRANCH  46  70
BRANCH  58  81
ATOM     81  C   UNL A   1      45.082  33.122  29.323  1.00  0.00     0.023 A 
ATOM     82  C   UNL A   1      45.924  33.274  30.443  1.00  0.00     0.012 A 
ATOM     83  C   UNL A   1      45.013  34.149  28.363  1.00  0.00     0.148 A 
ATOM     84  C   UNL A   1      46.669  34.439  30.615  1.00  0.00     0.002 A 
ATOM     85  C   UNL A   1      45.791  35.290  28.519  1.00  0.00     0.091 A 
ATOM     86  F   UNL A   1      44.189  33.994  27.315  1.00  0.00    -0.205 F 
ATOM     87  C   UNL A   1      46.613  35.441  29.648  1.00  0.00     0.022 A 
BRANCH  85  88
ATOM     88  S   UNL A   1      45.849  36.585  27.274  1.00  0.00     0.127 S 
ATOM     89  O   UNL A   1      46.349  35.856  26.109  1.00  0.00    -0.237 OA
ATOM     90  O   UNL A   1      44.448  36.995  27.179  1.00  0.00    -0.237 OA
ATOM     91  O   UNL A   1      46.739  37.607  27.808  1.00  0.00    -0.744 OA
ENDBRANCH  85  88
ENDBRANCH  58  81
ENDBRANCH  32  33
ENDBRANCH  25  27
ENDBRANCH  24  25
ENDBRANCH   1  24
TORSDOF 16
ENDMDL
