MODEL 1
REMARK VINA RESULT:     -12.0      0.000      0.000
REMARK SMILES O=C(OCCOC(=O)[C@H]1CCCN(C(=O)C2CCN(S(=O)(=O)c3ccccc3)CC2)C1)c1ccc(-c2c3nc(c(-c4cccc(S(=O)(=O)[O-])c4F)c4ccc([nH]4)c(-c4cccc(S(=O)(=O)[O-])c4F)c4nc(c(-c5cccc(S(=O)(=O)[O-])c5F)c5ccc2[nH]5)C=C4)C=C3)cc1
REMARK SMILES IDX 5 1 4 2 3 3 2 4 1 5 32 6 33 7 94 8 34 9 93 10 35 11 36 12
REMARK SMILES IDX 37 13 87 14 38 15 92 16 86 17 88 18 39 19 91 20 85 21 84 22
REMARK SMILES IDX 40 24 72 25 52 26 71 27 53 28 56 29 70 30 89 31 54 32 55 33
REMARK SMILES IDX 69 35 90 36 57 37 41 38 42 39 50 40 43 41 45 42 51 43 44 44
REMARK SMILES IDX 46 45 47 46 48 47 49 48 73 49 74 50 82 51 75 52 77 53 83 54
REMARK SMILES IDX 76 55 78 56 79 57 80 58 81 59 58 60 59 61 67 62 60 63 62 64
REMARK SMILES IDX 68 65 61 66 63 67 64 68 65 69 66 70 6 71 7 72 8 73 9 74
REMARK SMILES IDX 10 75 31 76 11 77 13 78 12 79 14 80 15 81 16 82 17 83 30 84
REMARK SMILES IDX 18 85 29 86 19 87 20 88 21 89 22 90 23 91 24 92 28 93 25 94
REMARK SMILES IDX 27 95 26 96
REMARK H PARENT 88 23 56 34
REMARK Flexibility Score: inf
ROOT
ATOM      1  C   UNL A   1      39.157  20.993  25.394  1.00  0.00     0.274 C 
ENDROOT
BRANCH   1   2
ATOM      2  C   UNL A   1      39.301  19.541  25.842  1.00  0.00     0.275 C 
BRANCH   2   3
ATOM      3  O   UNL A   1      40.620  18.998  25.670  1.00  0.00    -0.458 OA
BRANCH   3   4
ATOM      4  C   UNL A   1      41.768  19.302  26.320  1.00  0.00     0.338 C 
ATOM      5  O   UNL A   1      42.382  18.397  26.882  1.00  0.00    -0.246 OA
BRANCH   4   6
ATOM      6  C   UNL A   1      42.245  20.705  26.530  1.00  0.00     0.060 A 
ATOM      7  C   UNL A   1      42.299  21.397  27.741  1.00  0.00     0.016 A 
ATOM      8  C   UNL A   1      42.656  21.388  25.377  1.00  0.00     0.016 A 
ATOM      9  C   UNL A   1      42.814  22.703  27.805  1.00  0.00     0.010 A 
ATOM     10  C   UNL A   1      43.230  22.661  25.449  1.00  0.00     0.010 A 
ATOM     11  C   UNL A   1      43.288  23.350  26.659  1.00  0.00    -0.014 A 
BRANCH  11  12
ATOM     12  C   UNL A   1      43.704  24.778  26.708  1.00  0.00     0.031 A 
ATOM     13  C   UNL A   1      42.749  25.808  27.261  1.00  0.00     0.074 A 
ATOM     14  C   UNL A   1      44.922  25.164  26.273  1.00  0.00     0.049 A 
ATOM     15  N   UNL A   1      42.960  27.074  27.519  1.00  0.00    -0.248 NA
ATOM     16  C   UNL A   1      41.369  25.369  27.536  1.00  0.00     0.031 C 
ATOM     17  C   UNL A   1      45.902  24.302  25.608  1.00  0.00     0.029 A 
ATOM     18  N   UNL A   1      45.544  26.388  26.328  1.00  0.00    -0.354 N 
ATOM     19  C   UNL A   1      41.745  27.571  27.978  1.00  0.00     0.074 A 
ATOM     20  C   UNL A   1      40.779  26.505  27.869  1.00  0.00     0.031 C 
ATOM     21  C   UNL A   1      47.010  25.018  25.340  1.00  0.00     0.029 A 
ATOM     22  C   UNL A   1      46.826  26.384  25.827  1.00  0.00     0.049 A 
ATOM     23  H   UNL A   1      45.111  27.194  26.692  1.00  0.00     0.167 HD
ATOM     24  C   UNL A   1      41.461  28.778  28.522  1.00  0.00     0.034 A 
ATOM     25  C   UNL A   1      47.756  27.362  25.802  1.00  0.00     0.034 A 
ATOM     26  C   UNL A   1      42.426  29.825  28.684  1.00  0.00     0.049 A 
ATOM     27  C   UNL A   1      47.444  28.682  26.467  1.00  0.00     0.074 A 
ATOM     28  C   UNL A   1      42.268  31.065  29.272  1.00  0.00     0.029 A 
ATOM     29  N   UNL A   1      43.742  29.742  28.259  1.00  0.00    -0.354 N 
ATOM     30  N   UNL A   1      46.349  29.060  27.081  1.00  0.00    -0.248 NA
ATOM     31  C   UNL A   1      48.518  29.688  26.491  1.00  0.00     0.031 C 
ATOM     32  C   UNL A   1      43.496  31.734  29.206  1.00  0.00     0.029 A 
ATOM     33  C   UNL A   1      44.415  30.904  28.582  1.00  0.00     0.049 A 
ATOM     34  H   UNL A   1      44.138  28.970  27.795  1.00  0.00     0.167 HD
ATOM     35  C   UNL A   1      46.618  30.322  27.602  1.00  0.00     0.074 A 
ATOM     36  C   UNL A   1      47.987  30.636  27.250  1.00  0.00     0.031 C 
ATOM     37  C   UNL A   1      45.802  31.157  28.293  1.00  0.00     0.034 A 
BRANCH  24  38
ATOM     38  C   UNL A   1      40.071  28.962  29.070  1.00  0.00     0.023 A 
ATOM     39  C   UNL A   1      39.029  29.300  28.178  1.00  0.00     0.012 A 
ATOM     40  C   UNL A   1      39.793  28.841  30.443  1.00  0.00     0.148 A 
ATOM     41  C   UNL A   1      37.747  29.574  28.650  1.00  0.00     0.002 A 
ATOM     42  C   UNL A   1      38.500  29.074  30.902  1.00  0.00     0.091 A 
ATOM     43  F   UNL A   1      40.797  28.533  31.275  1.00  0.00    -0.205 F 
ATOM     44  C   UNL A   1      37.483  29.458  30.010  1.00  0.00     0.022 A 
BRANCH  42  45
ATOM     45  S   UNL A   1      38.032  28.897  32.627  1.00  0.00     0.127 S 
ATOM     46  O   UNL A   1      36.652  29.382  32.609  1.00  0.00    -0.237 OA
ATOM     47  O   UNL A   1      38.168  27.454  32.832  1.00  0.00    -0.237 OA
ATOM     48  O   UNL A   1      38.970  29.711  33.384  1.00  0.00    -0.744 OA
ENDBRANCH  42  45
ENDBRANCH  24  38
BRANCH  25  49
ATOM     49  C   UNL A   1      49.113  27.108  25.233  1.00  0.00     0.023 A 
ATOM     50  C   UNL A   1      50.138  26.624  26.071  1.00  0.00     0.012 A 
ATOM     51  C   UNL A   1      49.405  27.367  23.881  1.00  0.00     0.148 A 
ATOM     52  C   UNL A   1      51.437  26.451  25.589  1.00  0.00     0.002 A 
ATOM     53  C   UNL A   1      50.691  27.146  23.393  1.00  0.00     0.091 A 
ATOM     54  F   UNL A   1      48.426  27.837  23.095  1.00  0.00    -0.205 F 
ATOM     55  C   UNL A   1      51.713  26.708  24.249  1.00  0.00     0.022 A 
BRANCH  53  56
ATOM     56  S   UNL A   1      51.090  27.331  21.652  1.00  0.00     0.127 S 
ATOM     57  O   UNL A   1      50.816  28.747  21.426  1.00  0.00    -0.237 OA
ATOM     58  O   UNL A   1      52.506  26.962  21.616  1.00  0.00    -0.237 OA
ATOM     59  O   UNL A   1      50.218  26.389  20.961  1.00  0.00    -0.744 OA
ENDBRANCH  53  56
ENDBRANCH  25  49
BRANCH  37  60
ATOM     60  C   UNL A   1      46.367  32.472  28.759  1.00  0.00     0.023 A 
ATOM     61  C   UNL A   1      47.049  32.543  29.989  1.00  0.00     0.012 A 
ATOM     62  C   UNL A   1      46.321  33.606  27.924  1.00  0.00     0.148 A 
ATOM     63  C   UNL A   1      47.658  33.730  30.392  1.00  0.00     0.002 A 
ATOM     64  C   UNL A   1      46.974  34.770  28.310  1.00  0.00     0.091 A 
ATOM     65  F   UNL A   1      45.647  33.524  26.767  1.00  0.00    -0.205 F 
ATOM     66  C   UNL A   1      47.635  34.837  29.546  1.00  0.00     0.022 A 
BRANCH  64  67
ATOM     67  S   UNL A   1      47.083  36.204  27.231  1.00  0.00     0.127 S 
ATOM     68  O   UNL A   1      45.687  36.391  26.842  1.00  0.00    -0.237 OA
ATOM     69  O   UNL A   1      47.611  37.232  28.129  1.00  0.00    -0.237 OA
ATOM     70  O   UNL A   1      47.990  35.822  26.158  1.00  0.00    -0.744 OA
ENDBRANCH  64  67
ENDBRANCH  37  60
ENDBRANCH  11  12
ENDBRANCH   4   6
ENDBRANCH   3   4
ENDBRANCH   2   3
ENDBRANCH   1   2
BRANCH   1  71
ATOM     71  O   UNL A   1      37.834  21.508  25.580  1.00  0.00    -0.462 OA
BRANCH  71  72
ATOM     72  C   UNL A   1      37.747  22.859  25.760  1.00  0.00     0.310 C 
ATOM     73  O   UNL A   1      38.552  23.538  26.382  1.00  0.00    -0.252 OA
BRANCH  72  74
ATOM     74  C   UNL A   1      36.481  23.396  25.142  1.00  0.00     0.119 C 
ATOM     75  C   UNL A   1      36.209  22.637  23.837  1.00  0.00     0.019 C 
ATOM     76  C   UNL A   1      35.306  23.244  26.117  1.00  0.00     0.134 C 
ATOM     77  C   UNL A   1      34.856  23.023  23.254  1.00  0.00     0.022 C 
ATOM     78  N   UNL A   1      34.066  23.695  25.480  1.00  0.00    -0.342 N 
ATOM     79  C   UNL A   1      33.765  22.914  24.309  1.00  0.00     0.119 C 
BRANCH  78  80
ATOM     80  C   UNL A   1      33.200  24.557  26.125  1.00  0.00     0.225 C 
ATOM     81  O   UNL A   1      32.292  24.083  26.826  1.00  0.00    -0.275 OA
BRANCH  80  82
ATOM     82  C   UNL A   1      33.292  26.110  26.058  1.00  0.00     0.081 C 
ATOM     83  C   UNL A   1      32.052  26.856  26.516  1.00  0.00     0.030 C 
ATOM     84  C   UNL A   1      33.904  26.839  24.875  1.00  0.00     0.030 C 
ATOM     85  C   UNL A   1      31.015  26.981  25.424  1.00  0.00     0.103 C 
ATOM     86  C   UNL A   1      32.956  27.301  23.771  1.00  0.00     0.103 C 
ATOM     87  N   UNL A   1      31.520  27.518  24.117  1.00  0.00    -0.198 NA
BRANCH  87  88
ATOM     88  S   UNL A   1      30.331  27.217  22.875  1.00  0.00     0.243 S 
ATOM     89  O   UNL A   1      31.028  27.019  21.619  1.00  0.00    -0.207 OA
ATOM     90  O   UNL A   1      29.489  26.145  23.378  1.00  0.00    -0.207 OA
BRANCH  88  91
ATOM     91  C   UNL A   1      29.319  28.656  22.640  1.00  0.00     0.082 A 
ATOM     92  C   UNL A   1      29.892  29.821  22.123  1.00  0.00     0.022 A 
ATOM     93  C   UNL A   1      28.029  28.706  23.185  1.00  0.00     0.022 A 
ATOM     94  C   UNL A   1      29.153  31.007  22.104  1.00  0.00     0.001 A 
ATOM     95  C   UNL A   1      27.277  29.875  23.112  1.00  0.00     0.001 A 
ATOM     96  C   UNL A   1      27.840  31.026  22.575  1.00  0.00     0.000 A 
ENDBRANCH  88  91
ENDBRANCH  87  88
ENDBRANCH  80  82
ENDBRANCH  78  80
ENDBRANCH  72  74
ENDBRANCH  71  72
ENDBRANCH   1  71
TORSDOF 18
ENDMDL
MODEL 2
REMARK VINA RESULT:     -12.0      2.011      7.534
REMARK SMILES O=C(OCCOC(=O)[C@H]1CCCN(C(=O)C2CCN(S(=O)(=O)c3ccccc3)CC2)C1)c1ccc(-c2c3nc(c(-c4cccc(S(=O)(=O)[O-])c4F)c4ccc([nH]4)c(-c4cccc(S(=O)(=O)[O-])c4F)c4nc(c(-c5cccc(S(=O)(=O)[O-])c5F)c5ccc2[nH]5)C=C4)C=C3)cc1
REMARK SMILES IDX 5 1 4 2 3 3 2 4 1 5 32 6 33 7 94 8 34 9 93 10 35 11 36 12
REMARK SMILES IDX 37 13 87 14 38 15 92 16 86 17 88 18 39 19 91 20 85 21 84 22
REMARK SMILES IDX 40 24 72 25 52 26 71 27 53 28 56 29 70 30 89 31 54 32 55 33
REMARK SMILES IDX 69 35 90 36 57 37 41 38 42 39 50 40 43 41 45 42 51 43 44 44
REMARK SMILES IDX 46 45 47 46 48 47 49 48 73 49 74 50 82 51 75 52 77 53 83 54
REMARK SMILES IDX 76 55 78 56 79 57 80 58 81 59 58 60 59 61 67 62 60 63 62 64
REMARK SMILES IDX 68 65 61 66 63 67 64 68 65 69 66 70 6 71 7 72 8 73 9 74
REMARK SMILES IDX 10 75 31 76 11 77 13 78 12 79 14 80 15 81 16 82 17 83 30 84
REMARK SMILES IDX 18 85 29 86 19 87 20 88 21 89 22 90 23 91 24 92 28 93 25 94
REMARK SMILES IDX 27 95 26 96
REMARK H PARENT 88 23 56 34
REMARK Flexibility Score: inf
ROOT
ATOM      1  C   UNL A   1      39.365  21.324  25.878  1.00  0.00     0.274 C 
ENDROOT
BRANCH   1   2
ATOM      2  C   UNL A   1      39.796  19.869  26.041  1.00  0.00     0.275 C 
BRANCH   2   3
ATOM      3  O   UNL A   1      41.106  19.580  25.528  1.00  0.00    -0.458 OA
BRANCH   3   4
ATOM      4  C   UNL A   1      42.307  20.081  25.900  1.00  0.00     0.338 C 
ATOM      5  O   UNL A   1      43.259  19.309  26.007  1.00  0.00    -0.246 OA
BRANCH   4   6
ATOM      6  C   UNL A   1      42.503  21.496  26.348  1.00  0.00     0.060 A 
ATOM      7  C   UNL A   1      42.668  22.616  25.531  1.00  0.00     0.016 A 
ATOM      8  C   UNL A   1      42.544  21.695  27.735  1.00  0.00     0.016 A 
ATOM      9  C   UNL A   1      42.799  23.901  26.085  1.00  0.00     0.010 A 
ATOM     10  C   UNL A   1      42.607  22.980  28.285  1.00  0.00     0.010 A 
ATOM     11  C   UNL A   1      42.767  24.099  27.470  1.00  0.00    -0.014 A 
BRANCH  11  12
ATOM     12  C   UNL A   1      43.042  25.439  28.054  1.00  0.00     0.031 A 
ATOM     13  C   UNL A   1      44.461  25.955  28.086  1.00  0.00     0.074 A 
ATOM     14  C   UNL A   1      42.045  26.201  28.548  1.00  0.00     0.049 A 
ATOM     15  N   UNL A   1      44.900  27.141  28.422  1.00  0.00    -0.248 NA
ATOM     16  C   UNL A   1      45.531  25.010  27.719  1.00  0.00     0.031 C 
ATOM     17  C   UNL A   1      40.647  25.788  28.691  1.00  0.00     0.029 A 
ATOM     18  N   UNL A   1      42.057  27.490  29.023  1.00  0.00    -0.354 N 
ATOM     19  C   UNL A   1      46.285  27.075  28.309  1.00  0.00     0.074 A 
ATOM     20  C   UNL A   1      46.621  25.713  27.974  1.00  0.00     0.031 C 
ATOM     21  C   UNL A   1      39.933  26.812  29.193  1.00  0.00     0.029 A 
ATOM     22  C   UNL A   1      40.817  27.959  29.395  1.00  0.00     0.049 A 
ATOM     23  H   UNL A   1      42.878  28.030  29.091  1.00  0.00     0.167 HD
ATOM     24  C   UNL A   1      47.201  28.068  28.393  1.00  0.00     0.034 A 
ATOM     25  C   UNL A   1      40.436  29.185  29.810  1.00  0.00     0.034 A 
ATOM     26  C   UNL A   1      46.872  29.434  28.672  1.00  0.00     0.049 A 
ATOM     27  C   UNL A   1      41.459  30.296  29.839  1.00  0.00     0.074 A 
ATOM     28  C   UNL A   1      47.707  30.534  28.724  1.00  0.00     0.029 A 
ATOM     29  N   UNL A   1      45.589  29.886  28.938  1.00  0.00    -0.354 N 
ATOM     30  N   UNL A   1      42.732  30.256  29.527  1.00  0.00    -0.248 NA
ATOM     31  C   UNL A   1      40.980  31.636  30.217  1.00  0.00     0.031 C 
ATOM     32  C   UNL A   1      46.926  31.656  29.019  1.00  0.00     0.029 A 
ATOM     33  C   UNL A   1      45.604  31.252  29.143  1.00  0.00     0.049 A 
ATOM     34  H   UNL A   1      44.787  29.318  28.975  1.00  0.00     0.167 HD
ATOM     35  C   UNL A   1      43.192  31.565  29.625  1.00  0.00     0.074 A 
ATOM     36  C   UNL A   1      42.056  32.380  30.005  1.00  0.00     0.031 C 
ATOM     37  C   UNL A   1      44.444  32.051  29.437  1.00  0.00     0.034 A 
BRANCH  24  38
ATOM     38  C   UNL A   1      48.625  27.702  28.067  1.00  0.00     0.023 A 
ATOM     39  C   UNL A   1      49.463  27.245  29.109  1.00  0.00     0.012 A 
ATOM     40  C   UNL A   1      49.147  27.836  26.768  1.00  0.00     0.148 A 
ATOM     41  C   UNL A   1      50.812  26.986  28.877  1.00  0.00     0.002 A 
ATOM     42  C   UNL A   1      50.485  27.534  26.536  1.00  0.00     0.091 A 
ATOM     43  F   UNL A   1      48.340  28.283  25.797  1.00  0.00    -0.205 F 
ATOM     44  C   UNL A   1      51.321  27.128  27.591  1.00  0.00     0.022 A 
BRANCH  42  45
ATOM     45  S   UNL A   1      51.235  27.624  24.906  1.00  0.00     0.127 S 
ATOM     46  O   UNL A   1      51.087  29.044  24.590  1.00  0.00    -0.237 OA
ATOM     47  O   UNL A   1      52.609  27.200  25.179  1.00  0.00    -0.237 OA
ATOM     48  O   UNL A   1      50.474  26.714  24.062  1.00  0.00    -0.744 OA
ENDBRANCH  42  45
ENDBRANCH  24  38
BRANCH  25  49
ATOM     49  C   UNL A   1      39.004  29.473  30.124  1.00  0.00     0.023 A 
ATOM     50  C   UNL A   1      38.504  29.183  31.410  1.00  0.00     0.012 A 
ATOM     51  C   UNL A   1      38.130  30.004  29.158  1.00  0.00     0.148 A 
ATOM     52  C   UNL A   1      37.153  29.366  31.711  1.00  0.00     0.002 A 
ATOM     53  C   UNL A   1      36.794  30.230  29.479  1.00  0.00     0.091 A 
ATOM     54  F   UNL A   1      38.614  30.266  27.935  1.00  0.00    -0.205 F 
ATOM     55  C   UNL A   1      36.298  29.894  30.748  1.00  0.00     0.022 A 
BRANCH  53  56
ATOM     56  S   UNL A   1      35.665  31.027  28.332  1.00  0.00     0.127 S 
ATOM     57  O   UNL A   1      35.298  29.924  27.450  1.00  0.00    -0.237 OA
ATOM     58  O   UNL A   1      34.596  31.491  29.219  1.00  0.00    -0.237 OA
ATOM     59  O   UNL A   1      36.437  32.105  27.727  1.00  0.00    -0.744 OA
ENDBRANCH  53  56
ENDBRANCH  25  49
BRANCH  37  60
ATOM     60  C   UNL A   1      44.658  33.533  29.592  1.00  0.00     0.023 A 
ATOM     61  C   UNL A   1      45.052  34.056  30.839  1.00  0.00     0.012 A 
ATOM     62  C   UNL A   1      44.582  34.387  28.474  1.00  0.00     0.148 A 
ATOM     63  C   UNL A   1      45.345  35.411  30.976  1.00  0.00     0.002 A 
ATOM     64  C   UNL A   1      44.924  35.727  28.608  1.00  0.00     0.091 A 
ATOM     65  F   UNL A   1      44.183  33.875  27.300  1.00  0.00    -0.205 F 
ATOM     66  C   UNL A   1      45.298  36.243  29.860  1.00  0.00     0.022 A 
BRANCH  64  67
ATOM     67  S   UNL A   1      44.993  36.840  27.198  1.00  0.00     0.127 S 
ATOM     68  O   UNL A   1      43.594  36.876  26.779  1.00  0.00    -0.237 OA
ATOM     69  O   UNL A   1      45.484  38.079  27.801  1.00  0.00    -0.237 OA
ATOM     70  O   UNL A   1      45.918  36.225  26.255  1.00  0.00    -0.744 OA
ENDBRANCH  64  67
ENDBRANCH  37  60
ENDBRANCH  11  12
ENDBRANCH   4   6
ENDBRANCH   3   4
ENDBRANCH   2   3
ENDBRANCH   1   2
BRANCH   1  71
ATOM     71  O   UNL A   1      38.027  21.461  25.387  1.00  0.00    -0.462 OA
BRANCH  71  72
ATOM     72  C   UNL A   1      37.435  22.669  25.619  1.00  0.00     0.310 C 
ATOM     73  O   UNL A   1      37.988  23.637  26.122  1.00  0.00    -0.252 OA
BRANCH  72  74
ATOM     74  C   UNL A   1      35.977  22.628  25.235  1.00  0.00     0.119 C 
ATOM     75  C   UNL A   1      35.568  21.166  25.013  1.00  0.00     0.019 C 
ATOM     76  C   UNL A   1      35.118  23.275  26.329  1.00  0.00     0.134 C 
ATOM     77  C   UNL A   1      34.066  21.050  24.783  1.00  0.00     0.022 C 
ATOM     78  N   UNL A   1      33.699  23.160  25.984  1.00  0.00    -0.342 N 
ATOM     79  C   UNL A   1      33.297  21.782  25.872  1.00  0.00     0.119 C 
BRANCH  78  80
ATOM     80  C   UNL A   1      32.852  24.248  26.060  1.00  0.00     0.225 C 
ATOM     81  O   UNL A   1      31.649  24.059  26.303  1.00  0.00    -0.275 OA
BRANCH  80  82
ATOM     82  C   UNL A   1      33.303  25.729  25.883  1.00  0.00     0.081 C 
ATOM     83  C   UNL A   1      32.381  26.768  26.494  1.00  0.00     0.030 C 
ATOM     84  C   UNL A   1      33.856  26.260  24.572  1.00  0.00     0.030 C 
ATOM     85  C   UNL A   1      31.230  27.126  25.583  1.00  0.00     0.103 C 
ATOM     86  C   UNL A   1      32.869  26.922  23.615  1.00  0.00     0.103 C 
ATOM     87  N   UNL A   1      31.612  27.497  24.180  1.00  0.00    -0.198 NA
BRANCH  87  88
ATOM     88  S   UNL A   1      30.186  27.478  23.172  1.00  0.00     0.243 S 
ATOM     89  O   UNL A   1      30.609  27.389  21.788  1.00  0.00    -0.207 OA
ATOM     90  O   UNL A   1      29.333  26.429  23.706  1.00  0.00    -0.207 OA
BRANCH  88  91
ATOM     91  C   UNL A   1      29.323  29.022  23.312  1.00  0.00     0.082 A 
ATOM     92  C   UNL A   1      28.134  29.211  22.602  1.00  0.00     0.022 A 
ATOM     93  C   UNL A   1      29.939  30.119  23.928  1.00  0.00     0.022 A 
ATOM     94  C   UNL A   1      27.544  30.478  22.562  1.00  0.00     0.001 A 
ATOM     95  C   UNL A   1      29.318  31.366  23.933  1.00  0.00     0.001 A 
ATOM     96  C   UNL A   1      28.124  31.546  23.246  1.00  0.00     0.000 A 
ENDBRANCH  88  91
ENDBRANCH  87  88
ENDBRANCH  80  82
ENDBRANCH  78  80
ENDBRANCH  72  74
ENDBRANCH  71  72
ENDBRANCH   1  71
TORSDOF 18
ENDMDL
MODEL 3
REMARK VINA RESULT:     -11.7      5.571     11.861
REMARK SMILES O=C(OCCOC(=O)[C@H]1CCCN(C(=O)C2CCN(S(=O)(=O)c3ccccc3)CC2)C1)c1ccc(-c2c3nc(c(-c4cccc(S(=O)(=O)[O-])c4F)c4ccc([nH]4)c(-c4cccc(S(=O)(=O)[O-])c4F)c4nc(c(-c5cccc(S(=O)(=O)[O-])c5F)c5ccc2[nH]5)C=C4)C=C3)cc1
REMARK SMILES IDX 5 1 4 2 3 3 2 4 1 5 32 6 33 7 94 8 34 9 93 10 35 11 36 12
REMARK SMILES IDX 37 13 87 14 38 15 92 16 86 17 88 18 39 19 91 20 85 21 84 22
REMARK SMILES IDX 40 24 72 25 52 26 71 27 53 28 56 29 70 30 89 31 54 32 55 33
REMARK SMILES IDX 69 35 90 36 57 37 41 38 42 39 50 40 43 41 45 42 51 43 44 44
REMARK SMILES IDX 46 45 47 46 48 47 49 48 73 49 74 50 82 51 75 52 77 53 83 54
REMARK SMILES IDX 76 55 78 56 79 57 80 58 81 59 58 60 59 61 67 62 60 63 62 64
REMARK SMILES IDX 68 65 61 66 63 67 64 68 65 69 66 70 6 71 7 72 8 73 9 74
REMARK SMILES IDX 10 75 31 76 11 77 13 78 12 79 14 80 15 81 16 82 17 83 30 84
REMARK SMILES IDX 18 85 29 86 19 87 20 88 21 89 22 90 23 91 24 92 28 93 25 94
REMARK SMILES IDX 27 95 26 96
REMARK H PARENT 88 23 56 34
REMARK Flexibility Score: inf
ROOT
ATOM      1  C   UNL A   1      32.156  31.453  26.465  1.00  0.00     0.274 C 
ENDROOT
BRANCH   1   2
ATOM      2  C   UNL A   1      31.645  32.678  27.218  1.00  0.00     0.275 C 
BRANCH   2   3
ATOM      3  O   UNL A   1      32.586  33.761  27.292  1.00  0.00    -0.458 OA
BRANCH   3   4
ATOM      4  C   UNL A   1      33.087  34.393  28.379  1.00  0.00     0.338 C 
ATOM      5  O   UNL A   1      32.665  35.516  28.653  1.00  0.00    -0.246 OA
BRANCH   4   6
ATOM      6  C   UNL A   1      34.245  33.870  29.172  1.00  0.00     0.060 A 
ATOM      7  C   UNL A   1      35.572  34.294  29.091  1.00  0.00     0.016 A 
ATOM      8  C   UNL A   1      33.951  32.833  30.066  1.00  0.00     0.016 A 
ATOM      9  C   UNL A   1      36.558  33.746  29.930  1.00  0.00     0.010 A 
ATOM     10  C   UNL A   1      34.916  32.334  30.947  1.00  0.00     0.010 A 
ATOM     11  C   UNL A   1      36.241  32.760  30.870  1.00  0.00    -0.014 A 
BRANCH  11  12
ATOM     12  C   UNL A   1      37.308  32.087  31.658  1.00  0.00     0.031 A 
ATOM     13  C   UNL A   1      38.094  30.961  31.029  1.00  0.00     0.074 A 
ATOM     14  C   UNL A   1      37.590  32.473  32.920  1.00  0.00     0.049 A 
ATOM     15  N   UNL A   1      39.149  30.336  31.486  1.00  0.00    -0.248 NA
ATOM     16  C   UNL A   1      37.618  30.451  29.731  1.00  0.00     0.031 C 
ATOM     17  C   UNL A   1      36.840  33.463  33.696  1.00  0.00     0.029 A 
ATOM     18  N   UNL A   1      38.590  32.074  33.774  1.00  0.00    -0.354 N 
ATOM     19  C   UNL A   1      39.452  29.367  30.536  1.00  0.00     0.074 A 
ATOM     20  C   UNL A   1      38.417  29.416  29.532  1.00  0.00     0.031 C 
ATOM     21  C   UNL A   1      37.422  33.611  34.901  1.00  0.00     0.029 A 
ATOM     22  C   UNL A   1      38.592  32.740  34.979  1.00  0.00     0.049 A 
ATOM     23  H   UNL A   1      39.244  31.375  33.545  1.00  0.00     0.167 HD
ATOM     24  C   UNL A   1      40.533  28.557  30.450  1.00  0.00     0.034 A 
ATOM     25  C   UNL A   1      39.465  32.680  36.007  1.00  0.00     0.034 A 
ATOM     26  C   UNL A   1      41.593  28.539  31.413  1.00  0.00     0.049 A 
ATOM     27  C   UNL A   1      40.698  31.819  35.868  1.00  0.00     0.074 A 
ATOM     28  C   UNL A   1      42.763  27.804  31.401  1.00  0.00     0.029 A 
ATOM     29  N   UNL A   1      41.608  29.307  32.567  1.00  0.00    -0.354 N 
ATOM     30  N   UNL A   1      41.068  31.061  34.864  1.00  0.00    -0.248 NA
ATOM     31  C   UNL A   1      41.663  31.850  36.979  1.00  0.00     0.031 C 
ATOM     32  C   UNL A   1      43.491  28.133  32.549  1.00  0.00     0.029 A 
ATOM     33  C   UNL A   1      42.774  29.076  33.270  1.00  0.00     0.049 A 
ATOM     34  H   UNL A   1      40.895  29.925  32.843  1.00  0.00     0.167 HD
ATOM     35  C   UNL A   1      42.325  30.567  35.200  1.00  0.00     0.074 A 
ATOM     36  C   UNL A   1      42.663  31.128  36.492  1.00  0.00     0.031 C 
ATOM     37  C   UNL A   1      43.123  29.712  34.513  1.00  0.00     0.034 A 
BRANCH  24  38
ATOM     38  C   UNL A   1      40.649  27.715  29.207  1.00  0.00     0.023 A 
ATOM     39  C   UNL A   1      39.932  26.500  29.141  1.00  0.00     0.012 A 
ATOM     40  C   UNL A   1      41.475  28.089  28.131  1.00  0.00     0.148 A 
ATOM     41  C   UNL A   1      40.081  25.641  28.054  1.00  0.00     0.002 A 
ATOM     42  C   UNL A   1      41.586  27.246  27.030  1.00  0.00     0.091 A 
ATOM     43  F   UNL A   1      42.157  29.239  28.218  1.00  0.00    -0.205 F 
ATOM     44  C   UNL A   1      40.905  26.016  26.999  1.00  0.00     0.022 A 
BRANCH  42  45
ATOM     45  S   UNL A   1      42.573  27.655  25.587  1.00  0.00     0.127 S 
ATOM     46  O   UNL A   1      43.902  27.820  26.174  1.00  0.00    -0.237 OA
ATOM     47  O   UNL A   1      42.417  26.456  24.762  1.00  0.00    -0.237 OA
ATOM     48  O   UNL A   1      41.985  28.861  25.025  1.00  0.00    -0.744 OA
ENDBRANCH  42  45
ENDBRANCH  24  38
BRANCH  25  49
ATOM     49  C   UNL A   1      39.280  33.541  37.214  1.00  0.00     0.023 A 
ATOM     50  C   UNL A   1      39.805  34.849  37.221  1.00  0.00     0.012 A 
ATOM     51  C   UNL A   1      38.615  33.068  38.360  1.00  0.00     0.148 A 
ATOM     52  C   UNL A   1      39.719  35.650  38.361  1.00  0.00     0.002 A 
ATOM     53  C   UNL A   1      38.488  33.890  39.478  1.00  0.00     0.091 A 
ATOM     54  F   UNL A   1      38.128  31.819  38.346  1.00  0.00    -0.205 F 
ATOM     55  C   UNL A   1      39.056  35.173  39.489  1.00  0.00     0.022 A 
BRANCH  53  56
ATOM     56  S   UNL A   1      37.537  33.393  40.918  1.00  0.00     0.127 S 
ATOM     57  O   UNL A   1      36.260  33.012  40.322  1.00  0.00    -0.237 OA
ATOM     58  O   UNL A   1      38.328  32.280  41.445  1.00  0.00    -0.237 OA
ATOM     59  O   UNL A   1      37.519  34.565  41.784  1.00  0.00    -0.744 OA
ENDBRANCH  53  56
ENDBRANCH  25  49
BRANCH  37  60
ATOM     60  C   UNL A   1      44.458  29.357  35.110  1.00  0.00     0.023 A 
ATOM     61  C   UNL A   1      45.608  30.073  34.726  1.00  0.00     0.012 A 
ATOM     62  C   UNL A   1      44.550  28.393  36.134  1.00  0.00     0.148 A 
ATOM     63  C   UNL A   1      46.835  29.820  35.337  1.00  0.00     0.002 A 
ATOM     64  C   UNL A   1      45.766  28.182  36.772  1.00  0.00     0.091 A 
ATOM     65  F   UNL A   1      43.448  27.705  36.469  1.00  0.00    -0.205 F 
ATOM     66  C   UNL A   1      46.911  28.888  36.370  1.00  0.00     0.022 A 
BRANCH  64  67
ATOM     67  S   UNL A   1      45.925  27.079  38.182  1.00  0.00     0.127 S 
ATOM     68  O   UNL A   1      45.666  25.777  37.572  1.00  0.00    -0.237 OA
ATOM     69  O   UNL A   1      47.311  27.297  38.597  1.00  0.00    -0.237 OA
ATOM     70  O   UNL A   1      44.932  27.529  39.149  1.00  0.00    -0.744 OA
ENDBRANCH  64  67
ENDBRANCH  37  60
ENDBRANCH  11  12
ENDBRANCH   4   6
ENDBRANCH   3   4
ENDBRANCH   2   3
ENDBRANCH   1   2
BRANCH   1  71
ATOM     71  O   UNL A   1      31.764  30.217  27.072  1.00  0.00    -0.462 OA
BRANCH  71  72
ATOM     72  C   UNL A   1      32.669  29.200  26.977  1.00  0.00     0.310 C 
ATOM     73  O   UNL A   1      33.764  29.181  27.521  1.00  0.00    -0.252 OA
BRANCH  72  74
ATOM     74  C   UNL A   1      32.163  28.125  26.048  1.00  0.00     0.119 C 
ATOM     75  C   UNL A   1      31.281  27.158  26.849  1.00  0.00     0.019 C 
ATOM     76  C   UNL A   1      31.375  28.749  24.888  1.00  0.00     0.134 C 
ATOM     77  C   UNL A   1      30.609  26.146  25.929  1.00  0.00     0.022 C 
ATOM     78  N   UNL A   1      30.821  27.695  24.036  1.00  0.00    -0.342 N 
ATOM     79  C   UNL A   1      29.918  26.848  24.770  1.00  0.00     0.119 C 
BRANCH  78  80
ATOM     80  C   UNL A   1      30.955  27.739  22.661  1.00  0.00     0.225 C 
ATOM     81  O   UNL A   1      30.082  28.311  21.990  1.00  0.00    -0.275 OA
BRANCH  80  82
ATOM     82  C   UNL A   1      32.155  27.133  21.874  1.00  0.00     0.081 C 
ATOM     83  C   UNL A   1      31.899  25.779  21.238  1.00  0.00     0.030 C 
ATOM     84  C   UNL A   1      33.579  27.176  22.401  1.00  0.00     0.030 C 
ATOM     85  C   UNL A   1      32.101  24.637  22.208  1.00  0.00     0.103 C 
ATOM     86  C   UNL A   1      34.070  25.964  23.189  1.00  0.00     0.103 C 
ATOM     87  N   UNL A   1      33.403  24.649  22.953  1.00  0.00    -0.198 NA
BRANCH  87  88
ATOM     88  S   UNL A   1      33.307  23.535  24.294  1.00  0.00     0.243 S 
ATOM     89  O   UNL A   1      33.361  24.301  25.524  1.00  0.00    -0.207 OA
ATOM     90  O   UNL A   1      32.141  22.705  24.043  1.00  0.00    -0.207 OA
BRANCH  88  91
ATOM     91  C   UNL A   1      34.741  22.489  24.317  1.00  0.00     0.082 A 
ATOM     92  C   UNL A   1      34.727  21.322  25.086  1.00  0.00     0.022 A 
ATOM     93  C   UNL A   1      35.950  22.939  23.772  1.00  0.00     0.022 A 
ATOM     94  C   UNL A   1      35.904  20.589  25.255  1.00  0.00     0.001 A 
ATOM     95  C   UNL A   1      37.108  22.176  23.895  1.00  0.00     0.001 A 
ATOM     96  C   UNL A   1      37.086  21.003  24.641  1.00  0.00     0.000 A 
ENDBRANCH  88  91
ENDBRANCH  87  88
ENDBRANCH  80  82
ENDBRANCH  78  80
ENDBRANCH  72  74
ENDBRANCH  71  72
ENDBRANCH   1  71
TORSDOF 18
ENDMDL
