MODEL 1
REMARK VINA RESULT:     -11.9      0.000      0.000
REMARK SMILES O=C(Cc1c[nH]c(=O)n(Cc2ccccc2)c1=O)OCCOC(=O)c1ccc(-c2c3nc(c(-c4cccc(S(=O)(=O)[O-])c4F)c4ccc([nH]4)c(-c4cccc(S(=O)(=O)[O-])c4F)c4nc(c(-c5cccc(S(=O)(=O)[O-])c5F)c5ccc2[nH]5)C=C4)C=C3)cc1
REMARK SMILES IDX 20 1 19 2 2 3 1 4 3 5 4 6 5 7 17 8 6 9 9 10 18 11 7 12 8 14
REMARK SMILES IDX 10 15 11 16 12 17 16 18 13 19 15 20 14 21 21 22 22 23 23 24
REMARK SMILES IDX 24 25 25 26 26 27 87 28 27 29 86 30 28 31 29 32 30 33 80 34
REMARK SMILES IDX 31 35 85 36 79 37 81 38 32 39 84 40 78 41 77 42 33 44 65 45
REMARK SMILES IDX 45 46 64 47 46 48 49 49 63 50 82 51 47 52 48 53 62 55 83 56
REMARK SMILES IDX 50 57 34 58 35 59 43 60 36 61 38 62 44 63 37 64 39 65 40 66
REMARK SMILES IDX 41 67 42 68 66 69 67 70 75 71 68 72 70 73 76 74 69 75 71 76
REMARK SMILES IDX 72 77 73 78 74 79 51 80 52 81 60 82 53 83 55 84 61 85 54 86
REMARK SMILES IDX 56 87 57 88 58 89 59 90
REMARK H PARENT 6 13 81 43 49 54
REMARK Flexibility Score: inf
ROOT
ATOM      1  C   UNL A   1      31.439  30.047  25.539  1.00  0.00     0.274 C 
ENDROOT
BRANCH   1   2
ATOM      2  O   UNL A   1      32.096  28.826  25.932  1.00  0.00    -0.462 OA
BRANCH   2   3
ATOM      3  C   UNL A   1      31.424  27.869  26.629  1.00  0.00     0.310 C 
ATOM      4  O   UNL A   1      31.486  27.834  27.853  1.00  0.00    -0.252 OA
BRANCH   3   5
ATOM      5  C   UNL A   1      30.727  26.803  25.800  1.00  0.00     0.165 C 
BRANCH   5   6
ATOM      6  C   UNL A   1      31.415  26.449  24.525  1.00  0.00     0.045 A 
ATOM      7  C   UNL A   1      31.162  27.054  23.359  1.00  0.00     0.097 A 
ATOM      8  C   UNL A   1      32.544  25.485  24.586  1.00  0.00     0.260 A 
ATOM      9  N   UNL A   1      31.872  26.762  22.241  1.00  0.00    -0.314 N 
ATOM     10  N   UNL A   1      33.180  25.211  23.385  1.00  0.00    -0.256 N 
ATOM     11  O   UNL A   1      32.878  25.015  25.670  1.00  0.00    -0.269 OA
ATOM     12  C   UNL A   1      32.893  25.854  22.194  1.00  0.00     0.328 A 
ATOM     13  H   UNL A   1      31.637  27.233  21.409  1.00  0.00     0.171 HD
ATOM     14  O   UNL A   1      33.471  25.667  21.126  1.00  0.00    -0.248 OA
BRANCH  10  15
ATOM     15  C   UNL A   1      34.191  24.167  23.376  1.00  0.00     0.166 C 
BRANCH  15  16
ATOM     16  C   UNL A   1      33.523  22.809  23.447  1.00  0.00    -0.028 A 
ATOM     17  C   UNL A   1      33.926  21.868  24.406  1.00  0.00     0.005 A 
ATOM     18  C   UNL A   1      32.570  22.437  22.489  1.00  0.00     0.005 A 
ATOM     19  C   UNL A   1      33.400  20.578  24.399  1.00  0.00     0.000 A 
ATOM     20  C   UNL A   1      32.034  21.149  22.491  1.00  0.00     0.000 A 
ATOM     21  C   UNL A   1      32.454  20.219  23.441  1.00  0.00     0.000 A 
ENDBRANCH  15  16
ENDBRANCH  10  15
ENDBRANCH   5   6
ENDBRANCH   3   5
ENDBRANCH   2   3
ENDBRANCH   1   2
BRANCH   1  22
ATOM     22  C   UNL A   1      31.752  31.208  26.488  1.00  0.00     0.275 C 
BRANCH  22  23
ATOM     23  O   UNL A   1      32.932  30.933  27.265  1.00  0.00    -0.458 OA
BRANCH  23  24
ATOM     24  C   UNL A   1      33.682  32.018  27.599  1.00  0.00     0.338 C 
ATOM     25  O   UNL A   1      33.300  33.175  27.622  1.00  0.00    -0.246 OA
BRANCH  24  26
ATOM     26  C   UNL A   1      34.984  31.562  28.153  1.00  0.00     0.060 A 
ATOM     27  C   UNL A   1      36.087  32.416  28.258  1.00  0.00     0.016 A 
ATOM     28  C   UNL A   1      35.116  30.211  28.505  1.00  0.00     0.016 A 
ATOM     29  C   UNL A   1      37.309  31.920  28.725  1.00  0.00     0.010 A 
ATOM     30  C   UNL A   1      36.339  29.718  28.977  1.00  0.00     0.010 A 
ATOM     31  C   UNL A   1      37.443  30.572  29.102  1.00  0.00    -0.014 A 
BRANCH  31  32
ATOM     32  C   UNL A   1      38.679  30.118  29.790  1.00  0.00     0.031 A 
ATOM     33  C   UNL A   1      39.068  30.595  31.159  1.00  0.00     0.074 A 
ATOM     34  C   UNL A   1      39.482  29.255  29.137  1.00  0.00     0.049 A 
ATOM     35  N   UNL A   1      40.034  30.158  31.926  1.00  0.00    -0.248 NA
ATOM     36  C   UNL A   1      38.288  31.696  31.742  1.00  0.00     0.031 C 
ATOM     37  C   UNL A   1      39.258  28.776  27.771  1.00  0.00     0.029 A 
ATOM     38  N   UNL A   1      40.639  28.629  29.526  1.00  0.00    -0.354 N 
ATOM     39  C   UNL A   1      39.990  30.930  33.079  1.00  0.00     0.074 A 
ATOM     40  C   UNL A   1      38.905  31.875  32.907  1.00  0.00     0.031 C 
ATOM     41  C   UNL A   1      40.230  27.910  27.447  1.00  0.00     0.029 A 
ATOM     42  C   UNL A   1      41.149  27.779  28.575  1.00  0.00     0.049 A 
ATOM     43  H   UNL A   1      41.063  28.775  30.403  1.00  0.00     0.167 HD
ATOM     44  C   UNL A   1      40.770  30.842  34.184  1.00  0.00     0.034 A 
ATOM     45  C   UNL A   1      42.220  26.962  28.605  1.00  0.00     0.034 A 
ATOM     46  C   UNL A   1      41.836  29.890  34.361  1.00  0.00     0.049 A 
ATOM     47  C   UNL A   1      43.049  26.866  29.852  1.00  0.00     0.074 A 
ATOM     48  C   UNL A   1      42.600  29.663  35.494  1.00  0.00     0.029 A 
ATOM     49  N   UNL A   1      42.309  29.030  33.384  1.00  0.00    -0.354 N 
ATOM     50  N   UNL A   1      42.868  27.463  31.004  1.00  0.00    -0.248 NA
ATOM     51  C   UNL A   1      44.209  25.962  29.817  1.00  0.00     0.031 C 
ATOM     52  C   UNL A   1      43.548  28.680  35.197  1.00  0.00     0.029 A 
ATOM     53  C   UNL A   1      43.366  28.286  33.882  1.00  0.00     0.049 A 
ATOM     54  H   UNL A   1      41.948  28.959  32.471  1.00  0.00     0.167 HD
ATOM     55  C   UNL A   1      43.874  26.990  31.838  1.00  0.00     0.074 A 
ATOM     56  C   UNL A   1      44.658  26.051  31.064  1.00  0.00     0.031 C 
ATOM     57  C   UNL A   1      44.121  27.319  33.128  1.00  0.00     0.034 A 
BRANCH  44  58
ATOM     58  C   UNL A   1      40.469  31.747  35.348  1.00  0.00     0.023 A 
ATOM     59  C   UNL A   1      41.232  32.921  35.508  1.00  0.00     0.012 A 
ATOM     60  C   UNL A   1      39.347  31.529  36.171  1.00  0.00     0.148 A 
ATOM     61  C   UNL A   1      40.885  33.865  36.473  1.00  0.00     0.002 A 
ATOM     62  C   UNL A   1      38.992  32.487  37.114  1.00  0.00     0.091 A 
ATOM     63  F   UNL A   1      38.640  30.403  36.000  1.00  0.00    -0.205 F 
ATOM     64  C   UNL A   1      39.760  33.653  37.267  1.00  0.00     0.022 A 
BRANCH  62  65
ATOM     65  S   UNL A   1      37.524  32.347  38.141  1.00  0.00     0.127 S 
ATOM     66  O   UNL A   1      37.334  30.897  38.185  1.00  0.00    -0.237 OA
ATOM     67  O   UNL A   1      37.972  32.940  39.400  1.00  0.00    -0.237 OA
ATOM     68  O   UNL A   1      36.476  33.089  37.453  1.00  0.00    -0.744 OA
ENDBRANCH  62  65
ENDBRANCH  44  58
BRANCH  45  69
ATOM     69  C   UNL A   1      42.489  26.089  27.434  1.00  0.00     0.023 A 
ATOM     70  C   UNL A   1      43.293  26.582  26.389  1.00  0.00     0.012 A 
ATOM     71  C   UNL A   1      42.037  24.757  27.395  1.00  0.00     0.148 A 
ATOM     72  C   UNL A   1      43.642  25.760  25.318  1.00  0.00     0.002 A 
ATOM     73  C   UNL A   1      42.421  23.933  26.343  1.00  0.00     0.091 A 
ATOM     74  F   UNL A   1      41.278  24.316  28.407  1.00  0.00    -0.205 F 
ATOM     75  C   UNL A   1      43.215  24.436  25.301  1.00  0.00     0.022 A 
BRANCH  73  76
ATOM     76  S   UNL A   1      42.011  22.186  26.281  1.00  0.00     0.127 S 
ATOM     77  O   UNL A   1      40.560  22.226  26.119  1.00  0.00    -0.237 OA
ATOM     78  O   UNL A   1      42.752  21.751  25.096  1.00  0.00    -0.237 OA
ATOM     79  O   UNL A   1      42.484  21.621  27.536  1.00  0.00    -0.744 OA
ENDBRANCH  73  76
ENDBRANCH  45  69
BRANCH  57  80
ATOM     80  C   UNL A   1      45.285  26.666  33.823  1.00  0.00     0.023 A 
ATOM     81  C   UNL A   1      46.542  27.301  33.805  1.00  0.00     0.012 A 
ATOM     82  C   UNL A   1      45.101  25.511  34.608  1.00  0.00     0.148 A 
ATOM     83  C   UNL A   1      47.600  26.793  34.558  1.00  0.00     0.002 A 
ATOM     84  C   UNL A   1      46.151  25.030  35.382  1.00  0.00     0.091 A 
ATOM     85  F   UNL A   1      43.895  24.924  34.603  1.00  0.00    -0.205 F 
ATOM     86  C   UNL A   1      47.402  25.668  35.355  1.00  0.00     0.022 A 
BRANCH  84  87
ATOM     87  S   UNL A   1      45.978  23.632  36.497  1.00  0.00     0.127 S 
ATOM     88  O   UNL A   1      44.973  24.123  37.439  1.00  0.00    -0.237 OA
ATOM     89  O   UNL A   1      45.509  22.578  35.598  1.00  0.00    -0.237 OA
ATOM     90  O   UNL A   1      47.298  23.404  37.070  1.00  0.00    -0.744 OA
ENDBRANCH  84  87
ENDBRANCH  57  80
ENDBRANCH  31  32
ENDBRANCH  24  26
ENDBRANCH  23  24
ENDBRANCH  22  23
ENDBRANCH   1  22
TORSDOF 17
ENDMDL
MODEL 2
REMARK VINA RESULT:     -11.8      1.695      2.314
REMARK SMILES O=C(Cc1c[nH]c(=O)n(Cc2ccccc2)c1=O)OCCOC(=O)c1ccc(-c2c3nc(c(-c4cccc(S(=O)(=O)[O-])c4F)c4ccc([nH]4)c(-c4cccc(S(=O)(=O)[O-])c4F)c4nc(c(-c5cccc(S(=O)(=O)[O-])c5F)c5ccc2[nH]5)C=C4)C=C3)cc1
REMARK SMILES IDX 20 1 19 2 2 3 1 4 3 5 4 6 5 7 17 8 6 9 9 10 18 11 7 12 8 14
REMARK SMILES IDX 10 15 11 16 12 17 16 18 13 19 15 20 14 21 21 22 22 23 23 24
REMARK SMILES IDX 24 25 25 26 26 27 87 28 27 29 86 30 28 31 29 32 30 33 80 34
REMARK SMILES IDX 31 35 85 36 79 37 81 38 32 39 84 40 78 41 77 42 33 44 65 45
REMARK SMILES IDX 45 46 64 47 46 48 49 49 63 50 82 51 47 52 48 53 62 55 83 56
REMARK SMILES IDX 50 57 34 58 35 59 43 60 36 61 38 62 44 63 37 64 39 65 40 66
REMARK SMILES IDX 41 67 42 68 66 69 67 70 75 71 68 72 70 73 76 74 69 75 71 76
REMARK SMILES IDX 72 77 73 78 74 79 51 80 52 81 60 82 53 83 55 84 61 85 54 86
REMARK SMILES IDX 56 87 57 88 58 89 59 90
REMARK H PARENT 6 13 81 43 49 54
REMARK Flexibility Score: inf
ROOT
ATOM      1  C   UNL A   1      30.962  29.333  24.766  1.00  0.00     0.274 C 
ENDROOT
BRANCH   1   2
ATOM      2  O   UNL A   1      31.452  29.175  23.420  1.00  0.00    -0.462 OA
BRANCH   2   3
ATOM      3  C   UNL A   1      30.678  28.588  22.465  1.00  0.00     0.310 C 
ATOM      4  O   UNL A   1      29.898  29.260  21.800  1.00  0.00    -0.252 OA
BRANCH   3   5
ATOM      5  C   UNL A   1      30.753  27.073  22.382  1.00  0.00     0.165 C 
BRANCH   5   6
ATOM      6  C   UNL A   1      30.825  26.374  23.698  1.00  0.00     0.045 A 
ATOM      7  C   UNL A   1      29.749  25.935  24.359  1.00  0.00     0.097 A 
ATOM      8  C   UNL A   1      32.167  26.012  24.223  1.00  0.00     0.260 A 
ATOM      9  N   UNL A   1      29.864  25.228  25.511  1.00  0.00    -0.314 N 
ATOM     10  N   UNL A   1      32.190  25.332  25.430  1.00  0.00    -0.256 N 
ATOM     11  O   UNL A   1      33.167  26.292  23.566  1.00  0.00    -0.269 OA
ATOM     12  C   UNL A   1      31.056  24.893  26.091  1.00  0.00     0.328 A 
ATOM     13  H   UNL A   1      29.037  24.936  25.957  1.00  0.00     0.171 HD
ATOM     14  O   UNL A   1      31.046  24.247  27.136  1.00  0.00    -0.248 OA
BRANCH  10  15
ATOM     15  C   UNL A   1      33.482  25.090  26.048  1.00  0.00     0.166 C 
BRANCH  15  16
ATOM     16  C   UNL A   1      33.892  23.648  25.826  1.00  0.00    -0.028 A 
ATOM     17  C   UNL A   1      34.230  22.830  26.914  1.00  0.00     0.005 A 
ATOM     18  C   UNL A   1      34.041  23.146  24.526  1.00  0.00     0.005 A 
ATOM     19  C   UNL A   1      34.723  21.543  26.707  1.00  0.00     0.000 A 
ATOM     20  C   UNL A   1      34.522  21.852  24.321  1.00  0.00     0.000 A 
ATOM     21  C   UNL A   1      34.868  21.055  25.411  1.00  0.00     0.000 A 
ENDBRANCH  15  16
ENDBRANCH  10  15
ENDBRANCH   5   6
ENDBRANCH   3   5
ENDBRANCH   2   3
ENDBRANCH   1   2
BRANCH   1  22
ATOM     22  C   UNL A   1      31.415  30.652  25.400  1.00  0.00     0.275 C 
BRANCH  22  23
ATOM     23  O   UNL A   1      32.596  30.460  26.199  1.00  0.00    -0.458 OA
BRANCH  23  24
ATOM     24  C   UNL A   1      32.974  31.526  26.955  1.00  0.00     0.338 C 
ATOM     25  O   UNL A   1      32.294  32.506  27.205  1.00  0.00    -0.246 OA
BRANCH  24  26
ATOM     26  C   UNL A   1      34.266  31.219  27.624  1.00  0.00     0.060 A 
ATOM     27  C   UNL A   1      35.169  32.223  27.991  1.00  0.00     0.016 A 
ATOM     28  C   UNL A   1      34.609  29.874  27.816  1.00  0.00     0.016 A 
ATOM     29  C   UNL A   1      36.400  31.878  28.558  1.00  0.00     0.010 A 
ATOM     30  C   UNL A   1      35.839  29.531  28.387  1.00  0.00     0.010 A 
ATOM     31  C   UNL A   1      36.741  30.530  28.775  1.00  0.00    -0.014 A 
BRANCH  31  32
ATOM     32  C   UNL A   1      37.954  30.195  29.566  1.00  0.00     0.031 A 
ATOM     33  C   UNL A   1      38.185  30.713  30.956  1.00  0.00     0.074 A 
ATOM     34  C   UNL A   1      38.881  29.405  28.990  1.00  0.00     0.049 A 
ATOM     35  N   UNL A   1      39.121  30.370  31.803  1.00  0.00    -0.248 NA
ATOM     36  C   UNL A   1      37.264  31.742  31.460  1.00  0.00     0.031 C 
ATOM     37  C   UNL A   1      38.814  28.899  27.617  1.00  0.00     0.029 A 
ATOM     38  N   UNL A   1      40.054  28.888  29.480  1.00  0.00    -0.354 N 
ATOM     39  C   UNL A   1      38.913  31.141  32.939  1.00  0.00     0.074 A 
ATOM     40  C   UNL A   1      37.765  31.983  32.668  1.00  0.00     0.031 C 
ATOM     41  C   UNL A   1      39.883  28.124  27.384  1.00  0.00     0.029 A 
ATOM     42  C   UNL A   1      40.715  28.083  28.584  1.00  0.00     0.049 A 
ATOM     43  H   UNL A   1      40.390  29.078  30.386  1.00  0.00     0.167 HD
ATOM     44  C   UNL A   1      39.606  31.130  34.104  1.00  0.00     0.034 A 
ATOM     45  C   UNL A   1      41.849  27.367  28.711  1.00  0.00     0.034 A 
ATOM     46  C   UNL A   1      40.735  30.281  34.379  1.00  0.00     0.049 A 
ATOM     47  C   UNL A   1      42.579  27.354  30.022  1.00  0.00     0.074 A 
ATOM     48  C   UNL A   1      41.422  30.130  35.573  1.00  0.00     0.029 A 
ATOM     49  N   UNL A   1      41.362  29.462  33.455  1.00  0.00    -0.354 N 
ATOM     50  N   UNL A   1      42.252  27.939  31.148  1.00  0.00    -0.248 NA
ATOM     51  C   UNL A   1      43.815  26.559  30.092  1.00  0.00     0.031 C 
ATOM     52  C   UNL A   1      42.475  29.236  35.365  1.00  0.00     0.029 A 
ATOM     53  C   UNL A   1      42.437  28.820  34.046  1.00  0.00     0.049 A 
ATOM     54  H   UNL A   1      41.084  29.353  32.517  1.00  0.00     0.167 HD
ATOM     55  C   UNL A   1      43.225  27.564  32.066  1.00  0.00     0.074 A 
ATOM     56  C   UNL A   1      44.152  26.696  31.370  1.00  0.00     0.031 C 
ATOM     57  C   UNL A   1      43.336  27.921  33.368  1.00  0.00     0.034 A 
BRANCH  44  58
ATOM     58  C   UNL A   1      39.130  32.011  35.228  1.00  0.00     0.023 A 
ATOM     59  C   UNL A   1      38.274  31.462  36.203  1.00  0.00     0.012 A 
ATOM     60  C   UNL A   1      39.652  33.306  35.411  1.00  0.00     0.148 A 
ATOM     61  C   UNL A   1      37.940  32.190  37.343  1.00  0.00     0.002 A 
ATOM     62  C   UNL A   1      39.335  34.017  36.563  1.00  0.00     0.091 A 
ATOM     63  F   UNL A   1      40.463  33.806  34.467  1.00  0.00    -0.205 F 
ATOM     64  C   UNL A   1      38.478  33.462  37.528  1.00  0.00     0.022 A 
BRANCH  62  65
ATOM     65  S   UNL A   1      40.028  35.634  36.934  1.00  0.00     0.127 S 
ATOM     66  O   UNL A   1      39.401  35.933  38.221  1.00  0.00    -0.237 OA
ATOM     67  O   UNL A   1      41.459  35.345  37.006  1.00  0.00    -0.237 OA
ATOM     68  O   UNL A   1      39.633  36.504  35.835  1.00  0.00    -0.744 OA
ENDBRANCH  62  65
ENDBRANCH  44  58
BRANCH  45  69
ATOM     69  C   UNL A   1      42.290  26.516  27.577  1.00  0.00     0.023 A 
ATOM     70  C   UNL A   1      43.213  27.040  26.652  1.00  0.00     0.012 A 
ATOM     71  C   UNL A   1      41.880  25.174  27.466  1.00  0.00     0.148 A 
ATOM     72  C   UNL A   1      43.719  26.240  25.628  1.00  0.00     0.002 A 
ATOM     73  C   UNL A   1      42.417  24.373  26.465  1.00  0.00     0.091 A 
ATOM     74  F   UNL A   1      41.004  24.704  28.364  1.00  0.00    -0.205 F 
ATOM     75  C   UNL A   1      43.329  24.907  25.542  1.00  0.00     0.022 A 
BRANCH  73  76
ATOM     76  S   UNL A   1      42.060  22.619  26.332  1.00  0.00     0.127 S 
ATOM     77  O   UNL A   1      42.736  22.271  25.084  1.00  0.00    -0.237 OA
ATOM     78  O   UNL A   1      42.694  22.095  27.542  1.00  0.00    -0.237 OA
ATOM     79  O   UNL A   1      40.609  22.508  26.308  1.00  0.00    -0.744 OA
ENDBRANCH  73  76
ENDBRANCH  45  69
BRANCH  57  80
ATOM     80  C   UNL A   1      44.493  27.381  34.162  1.00  0.00     0.023 A 
ATOM     81  C   UNL A   1      45.693  28.117  34.219  1.00  0.00     0.012 A 
ATOM     82  C   UNL A   1      44.345  26.230  34.962  1.00  0.00     0.148 A 
ATOM     83  C   UNL A   1      46.729  27.714  35.061  1.00  0.00     0.002 A 
ATOM     84  C   UNL A   1      45.369  25.854  35.823  1.00  0.00     0.091 A 
ATOM     85  F   UNL A   1      43.194  25.546  34.885  1.00  0.00    -0.205 F 
ATOM     86  C   UNL A   1      46.563  26.592  35.870  1.00  0.00     0.022 A 
BRANCH  84  87
ATOM     87  S   UNL A   1      45.227  24.469  36.958  1.00  0.00     0.127 S 
ATOM     88  O   UNL A   1      46.547  24.462  37.588  1.00  0.00    -0.237 OA
ATOM     89  O   UNL A   1      44.136  24.898  37.831  1.00  0.00    -0.237 OA
ATOM     90  O   UNL A   1      44.932  23.300  36.139  1.00  0.00    -0.744 OA
ENDBRANCH  84  87
ENDBRANCH  57  80
ENDBRANCH  31  32
ENDBRANCH  24  26
ENDBRANCH  23  24
ENDBRANCH  22  23
ENDBRANCH   1  22
TORSDOF 17
ENDMDL
MODEL 3
REMARK VINA RESULT:     -11.6      5.352      8.683
REMARK SMILES O=C(Cc1c[nH]c(=O)n(Cc2ccccc2)c1=O)OCCOC(=O)c1ccc(-c2c3nc(c(-c4cccc(S(=O)(=O)[O-])c4F)c4ccc([nH]4)c(-c4cccc(S(=O)(=O)[O-])c4F)c4nc(c(-c5cccc(S(=O)(=O)[O-])c5F)c5ccc2[nH]5)C=C4)C=C3)cc1
REMARK SMILES IDX 20 1 19 2 2 3 1 4 3 5 4 6 5 7 17 8 6 9 9 10 18 11 7 12 8 14
REMARK SMILES IDX 10 15 11 16 12 17 16 18 13 19 15 20 14 21 21 22 22 23 23 24
REMARK SMILES IDX 24 25 25 26 26 27 87 28 27 29 86 30 28 31 29 32 30 33 80 34
REMARK SMILES IDX 31 35 85 36 79 37 81 38 32 39 84 40 78 41 77 42 33 44 65 45
REMARK SMILES IDX 45 46 64 47 46 48 49 49 63 50 82 51 47 52 48 53 62 55 83 56
REMARK SMILES IDX 50 57 34 58 35 59 43 60 36 61 38 62 44 63 37 64 39 65 40 66
REMARK SMILES IDX 41 67 42 68 66 69 67 70 75 71 68 72 70 73 76 74 69 75 71 76
REMARK SMILES IDX 72 77 73 78 74 79 51 80 52 81 60 82 53 83 55 84 61 85 54 86
REMARK SMILES IDX 56 87 57 88 58 89 59 90
REMARK H PARENT 6 13 81 43 49 54
REMARK Flexibility Score: inf
ROOT
ATOM      1  C   UNL A   1      38.037  21.464  25.343  1.00  0.00     0.274 C 
ENDROOT
BRANCH   1   2
ATOM      2  O   UNL A   1      36.857  21.594  24.527  1.00  0.00    -0.462 OA
BRANCH   2   3
ATOM      3  C   UNL A   1      36.514  22.797  23.987  1.00  0.00     0.310 C 
ATOM      4  O   UNL A   1      36.572  22.971  22.776  1.00  0.00    -0.252 OA
BRANCH   3   5
ATOM      5  C   UNL A   1      36.197  23.907  24.974  1.00  0.00     0.165 C 
BRANCH   5   6
ATOM      6  C   UNL A   1      34.816  23.873  25.537  1.00  0.00     0.045 A 
ATOM      7  C   UNL A   1      34.456  23.088  26.559  1.00  0.00     0.097 A 
ATOM      8  C   UNL A   1      33.835  24.871  25.039  1.00  0.00     0.260 A 
ATOM      9  N   UNL A   1      33.212  23.151  27.096  1.00  0.00    -0.314 N 
ATOM     10  N   UNL A   1      32.574  24.829  25.613  1.00  0.00    -0.256 N 
ATOM     11  O   UNL A   1      34.183  25.688  24.192  1.00  0.00    -0.269 OA
ATOM     12  C   UNL A   1      32.232  24.003  26.669  1.00  0.00     0.328 A 
ATOM     13  H   UNL A   1      33.001  22.544  27.842  1.00  0.00     0.171 HD
ATOM     14  O   UNL A   1      31.139  23.978  27.229  1.00  0.00    -0.248 OA
BRANCH  10  15
ATOM     15  C   UNL A   1      31.545  25.689  25.053  1.00  0.00     0.166 C 
BRANCH  15  16
ATOM     16  C   UNL A   1      31.720  27.101  25.574  1.00  0.00    -0.028 A 
ATOM     17  C   UNL A   1      31.826  27.342  26.952  1.00  0.00     0.005 A 
ATOM     18  C   UNL A   1      31.672  28.192  24.695  1.00  0.00     0.005 A 
ATOM     19  C   UNL A   1      31.867  28.646  27.443  1.00  0.00     0.000 A 
ATOM     20  C   UNL A   1      31.726  29.497  25.187  1.00  0.00     0.000 A 
ATOM     21  C   UNL A   1      31.816  29.722  26.560  1.00  0.00     0.000 A 
ENDBRANCH  15  16
ENDBRANCH  10  15
ENDBRANCH   5   6
ENDBRANCH   3   5
ENDBRANCH   2   3
ENDBRANCH   1   2
BRANCH   1  22
ATOM     22  C   UNL A   1      38.683  20.081  25.217  1.00  0.00     0.275 C 
BRANCH  22  23
ATOM     23  O   UNL A   1      39.397  19.737  26.418  1.00  0.00    -0.458 OA
BRANCH  23  24
ATOM     24  C   UNL A   1      40.755  19.769  26.324  1.00  0.00     0.338 C 
ATOM     25  O   UNL A   1      41.470  18.856  25.948  1.00  0.00    -0.246 OA
BRANCH  24  26
ATOM     26  C   UNL A   1      41.228  21.163  26.534  1.00  0.00     0.060 A 
ATOM     27  C   UNL A   1      41.877  21.887  25.527  1.00  0.00     0.016 A 
ATOM     28  C   UNL A   1      41.080  21.727  27.809  1.00  0.00     0.016 A 
ATOM     29  C   UNL A   1      42.361  23.171  25.796  1.00  0.00     0.010 A 
ATOM     30  C   UNL A   1      41.561  23.014  28.074  1.00  0.00     0.010 A 
ATOM     31  C   UNL A   1      42.195  23.752  27.066  1.00  0.00    -0.014 A 
BRANCH  31  32
ATOM     32  C   UNL A   1      42.526  25.187  27.269  1.00  0.00     0.031 A 
ATOM     33  C   UNL A   1      41.573  26.156  27.907  1.00  0.00     0.074 A 
ATOM     34  C   UNL A   1      43.727  25.622  26.843  1.00  0.00     0.049 A 
ATOM     35  N   UNL A   1      41.801  27.390  28.280  1.00  0.00    -0.248 NA
ATOM     36  C   UNL A   1      40.199  25.697  28.155  1.00  0.00     0.031 C 
ATOM     37  C   UNL A   1      44.713  24.799  26.137  1.00  0.00     0.029 A 
ATOM     38  N   UNL A   1      44.326  26.853  26.938  1.00  0.00    -0.354 N 
ATOM     39  C   UNL A   1      40.603  27.863  28.799  1.00  0.00     0.074 A 
ATOM     40  C   UNL A   1      39.643  26.784  28.683  1.00  0.00     0.031 C 
ATOM     41  C   UNL A   1      45.802  25.540  25.888  1.00  0.00     0.029 A 
ATOM     42  C   UNL A   1      45.593  26.889  26.407  1.00  0.00     0.049 A 
ATOM     43  H   UNL A   1      43.890  27.635  27.347  1.00  0.00     0.167 HD
ATOM     44  C   UNL A   1      40.339  29.077  29.340  1.00  0.00     0.034 A 
ATOM     45  C   UNL A   1      46.501  27.883  26.360  1.00  0.00     0.034 A 
ATOM     46  C   UNL A   1      41.299  30.142  29.472  1.00  0.00     0.049 A 
ATOM     47  C   UNL A   1      46.190  29.208  26.991  1.00  0.00     0.074 A 
ATOM     48  C   UNL A   1      41.141  31.363  30.109  1.00  0.00     0.029 A 
ATOM     49  N   UNL A   1      42.578  30.134  28.942  1.00  0.00    -0.354 N 
ATOM     50  N   UNL A   1      45.119  29.568  27.653  1.00  0.00    -0.248 NA
ATOM     51  C   UNL A   1      47.221  30.253  26.897  1.00  0.00     0.031 C 
ATOM     52  C   UNL A   1      42.317  32.100  29.947  1.00  0.00     0.029 A 
ATOM     53  C   UNL A   1      43.212  31.334  29.220  1.00  0.00     0.049 A 
ATOM     54  H   UNL A   1      42.978  29.387  28.441  1.00  0.00     0.167 HD
ATOM     55  C   UNL A   1      45.356  30.870  28.078  1.00  0.00     0.074 A 
ATOM     56  C   UNL A   1      46.675  31.236  27.605  1.00  0.00     0.031 C 
ATOM     57  C   UNL A   1      44.541  31.684  28.789  1.00  0.00     0.034 A 
BRANCH  44  58
ATOM     58  C   UNL A   1      38.971  29.323  29.915  1.00  0.00     0.023 A 
ATOM     59  C   UNL A   1      38.708  28.916  31.238  1.00  0.00     0.012 A 
ATOM     60  C   UNL A   1      38.015  30.091  29.221  1.00  0.00     0.148 A 
ATOM     61  C   UNL A   1      37.512  29.266  31.863  1.00  0.00     0.002 A 
ATOM     62  C   UNL A   1      36.836  30.458  29.860  1.00  0.00     0.091 A 
ATOM     63  F   UNL A   1      38.288  30.464  27.963  1.00  0.00    -0.205 F 
ATOM     64  C   UNL A   1      36.582  30.045  31.178  1.00  0.00     0.022 A 
BRANCH  62  65
ATOM     65  S   UNL A   1      35.601  31.517  29.095  1.00  0.00     0.127 S 
ATOM     66  O   UNL A   1      34.829  31.955  30.258  1.00  0.00    -0.237 OA
ATOM     67  O   UNL A   1      36.426  32.559  28.485  1.00  0.00    -0.237 OA
ATOM     68  O   UNL A   1      34.878  30.677  28.150  1.00  0.00    -0.744 OA
ENDBRANCH  62  65
ENDBRANCH  44  58
BRANCH  45  69
ATOM     69  C   UNL A   1      47.839  27.603  25.778  1.00  0.00     0.023 A 
ATOM     70  C   UNL A   1      48.869  27.154  26.626  1.00  0.00     0.012 A 
ATOM     71  C   UNL A   1      48.066  27.687  24.392  1.00  0.00     0.148 A 
ATOM     72  C   UNL A   1      50.109  26.793  26.102  1.00  0.00     0.002 A 
ATOM     73  C   UNL A   1      49.293  27.291  23.873  1.00  0.00     0.091 A 
ATOM     74  F   UNL A   1      47.065  28.115  23.611  1.00  0.00    -0.205 F 
ATOM     75  C   UNL A   1      50.317  26.853  24.726  1.00  0.00     0.022 A 
BRANCH  73  76
ATOM     76  S   UNL A   1      49.626  27.231  22.109  1.00  0.00     0.127 S 
ATOM     77  O   UNL A   1      48.670  26.222  21.660  1.00  0.00    -0.237 OA
ATOM     78  O   UNL A   1      49.314  28.601  21.702  1.00  0.00    -0.237 OA
ATOM     79  O   UNL A   1      51.029  26.862  21.981  1.00  0.00    -0.744 OA
ENDBRANCH  73  76
ENDBRANCH  45  69
BRANCH  57  80
ATOM     80  C   UNL A   1      45.028  33.068  29.126  1.00  0.00     0.023 A 
ATOM     81  C   UNL A   1      45.733  33.276  30.327  1.00  0.00     0.012 A 
ATOM     82  C   UNL A   1      44.914  34.119  28.194  1.00  0.00     0.148 A 
ATOM     83  C   UNL A   1      46.319  34.513  30.596  1.00  0.00     0.002 A 
ATOM     84  C   UNL A   1      45.528  35.338  28.455  1.00  0.00     0.091 A 
ATOM     85  F   UNL A   1      44.233  33.895  27.062  1.00  0.00    -0.205 F 
ATOM     86  C   UNL A   1      46.227  35.538  29.657  1.00  0.00     0.022 A 
BRANCH  84  87
ATOM     87  S   UNL A   1      45.532  36.698  27.280  1.00  0.00     0.127 S 
ATOM     88  O   UNL A   1      44.103  36.984  27.151  1.00  0.00    -0.237 OA
ATOM     89  O   UNL A   1      46.298  37.719  27.994  1.00  0.00    -0.237 OA
ATOM     90  O   UNL A   1      46.168  36.189  26.072  1.00  0.00    -0.744 OA
ENDBRANCH  84  87
ENDBRANCH  57  80
ENDBRANCH  31  32
ENDBRANCH  24  26
ENDBRANCH  23  24
ENDBRANCH  22  23
ENDBRANCH   1  22
TORSDOF 17
ENDMDL
