MODEL 1
REMARK VINA RESULT:     -11.9      0.000      0.000
REMARK SMILES Cc1ccc(C(=O)OCCOC(=O)c2ccc(-c3c4nc(c(-c5cccc(S(=O)(=O)[O-])c5F)c5ccc([nH]5)c(-c5cccc(S(=O)(=O)[O-])c5F)c5nc(c(-c6cccc(S(=O)(=O)[O-])c6F)c6ccc3[nH]6)C=C5)C=C4)cc2)c(Oc2cccc(F)c2C(N)=O)c1
REMARK SMILES IDX 9 1 8 2 6 3 7 4 5 5 1 6 2 7 3 8 89 9 4 10 77 11 78 12 79 13
REMARK SMILES IDX 80 14 85 15 81 16 83 17 82 18 84 19 86 20 87 21 88 22 10 25
REMARK SMILES IDX 11 26 12 27 13 28 14 29 15 30 76 31 16 32 75 33 17 34 18 35
REMARK SMILES IDX 19 36 69 37 20 38 74 39 68 40 70 41 21 42 73 43 67 44 66 45
REMARK SMILES IDX 22 47 54 48 34 49 53 50 35 51 38 52 52 53 71 54 36 55 37 56
REMARK SMILES IDX 51 58 72 59 39 60 23 61 24 62 32 63 25 64 27 65 33 66 26 67
REMARK SMILES IDX 28 68 29 69 30 70 31 71 55 72 56 73 64 74 57 75 59 76 65 77
REMARK SMILES IDX 58 78 60 79 61 80 62 81 63 82 40 83 41 84 49 85 42 86 44 87
REMARK SMILES IDX 50 88 43 89 45 90 46 91 47 92 48 93
REMARK H PARENT 87 23 87 24 70 46 38 57
REMARK Flexibility Score: inf
ROOT
ATOM      1  C   UNL A   1      36.153  23.564  25.741  1.00  0.00     0.275 C 
ENDROOT
BRANCH   1   2
ATOM      2  O   UNL A   1      35.299  22.908  24.803  1.00  0.00    -0.458 OA
BRANCH   2   3
ATOM      3  C   UNL A   1      34.386  23.632  24.132  1.00  0.00     0.342 C 
ATOM      4  O   UNL A   1      34.589  24.264  23.109  1.00  0.00    -0.246 OA
BRANCH   3   5
ATOM      5  C   UNL A   1      33.063  23.529  24.794  1.00  0.00     0.102 A 
ATOM      6  C   UNL A   1      29.577  22.842  27.216  1.00  0.00     0.044 C 
ATOM      7  C   UNL A   1      30.755  23.106  26.325  1.00  0.00    -0.047 A 
ATOM      8  C   UNL A   1      31.261  22.086  25.512  1.00  0.00     0.004 A 
ATOM      9  C   UNL A   1      31.354  24.373  26.292  1.00  0.00     0.051 A 
ATOM     10  C   UNL A   1      32.419  22.289  24.762  1.00  0.00     0.020 A 
ATOM     11  C   UNL A   1      32.528  24.580  25.555  1.00  0.00     0.142 A 
BRANCH  11  12
ATOM     12  O   UNL A   1      33.203  25.785  25.575  1.00  0.00    -0.455 OA
BRANCH  12  13
ATOM     13  C   UNL A   1      32.593  26.887  25.017  1.00  0.00     0.143 A 
ATOM     14  C   UNL A   1      32.501  26.878  23.617  1.00  0.00     0.048 A 
ATOM     15  C   UNL A   1      32.136  28.000  25.740  1.00  0.00     0.117 A 
ATOM     16  C   UNL A   1      31.902  27.940  22.939  1.00  0.00     0.007 A 
ATOM     17  C   UNL A   1      31.527  29.049  25.049  1.00  0.00     0.139 A 
ATOM     18  C   UNL A   1      31.406  29.023  23.660  1.00  0.00     0.040 A 
ATOM     19  F   UNL A   1      31.085  30.138  25.698  1.00  0.00    -0.206 F 
BRANCH  15  20
ATOM     20  C   UNL A   1      32.271  28.136  27.205  1.00  0.00     0.255 C 
ATOM     21  N   UNL A   1      33.433  28.695  27.661  1.00  0.00    -0.365 N 
ATOM     22  O   UNL A   1      31.393  27.782  27.980  1.00  0.00    -0.269 OA
ATOM     23  H   UNL A   1      34.128  28.974  27.023  1.00  0.00     0.159 HD
ATOM     24  H   UNL A   1      33.574  28.819  28.627  1.00  0.00     0.159 HD
ENDBRANCH  15  20
ENDBRANCH  12  13
ENDBRANCH  11  12
ENDBRANCH   3   5
ENDBRANCH   2   3
ENDBRANCH   1   2
BRANCH   1  25
ATOM     25  C   UNL A   1      37.682  23.627  25.514  1.00  0.00     0.275 C 
BRANCH  25  26
ATOM     26  O   UNL A   1      38.692  22.899  26.279  1.00  0.00    -0.458 OA
BRANCH  26  27
ATOM     27  C   UNL A   1      39.782  23.261  26.990  1.00  0.00     0.338 C 
ATOM     28  O   UNL A   1      40.665  22.471  27.306  1.00  0.00    -0.246 OA
BRANCH  27  29
ATOM     29  C   UNL A   1      39.873  24.661  27.368  1.00  0.00     0.060 A 
ATOM     30  C   UNL A   1      40.505  25.584  26.517  1.00  0.00     0.016 A 
ATOM     31  C   UNL A   1      39.212  25.044  28.527  1.00  0.00     0.016 A 
ATOM     32  C   UNL A   1      40.416  26.939  26.797  1.00  0.00     0.010 A 
ATOM     33  C   UNL A   1      38.976  26.375  28.714  1.00  0.00     0.010 A 
ATOM     34  C   UNL A   1      39.669  27.305  27.913  1.00  0.00    -0.014 A 
BRANCH  34  35
ATOM     35  C   UNL A   1      39.941  28.514  28.667  1.00  0.00     0.031 A 
ATOM     36  C   UNL A   1      39.044  29.663  28.629  1.00  0.00     0.074 A 
ATOM     37  C   UNL A   1      40.864  28.231  29.617  1.00  0.00     0.049 A 
ATOM     38  N   UNL A   1      39.335  30.811  29.123  1.00  0.00    -0.248 NA
ATOM     39  C   UNL A   1      37.732  29.626  27.990  1.00  0.00     0.031 C 
ATOM     40  C   UNL A   1      41.097  28.778  30.934  1.00  0.00     0.029 A 
ATOM     41  N   UNL A   1      41.878  27.264  29.482  1.00  0.00    -0.354 N 
ATOM     42  C   UNL A   1      38.147  31.509  29.225  1.00  0.00     0.074 A 
ATOM     43  C   UNL A   1      37.233  30.816  28.351  1.00  0.00     0.031 C 
ATOM     44  C   UNL A   1      42.323  28.381  31.340  1.00  0.00     0.029 A 
ATOM     45  C   UNL A   1      42.968  27.729  30.199  1.00  0.00     0.049 A 
ATOM     46  H   UNL A   1      41.824  26.420  28.977  1.00  0.00     0.167 HD
ATOM     47  C   UNL A   1      38.029  32.427  30.228  1.00  0.00     0.034 A 
ATOM     48  C   UNL A   1      44.074  28.163  29.517  1.00  0.00     0.034 A 
ATOM     49  C   UNL A   1      39.299  32.496  30.975  1.00  0.00     0.049 A 
ATOM     50  C   UNL A   1      44.244  29.653  29.725  1.00  0.00     0.074 A 
ATOM     51  C   UNL A   1      39.706  31.879  32.148  1.00  0.00     0.029 A 
ATOM     52  N   UNL A   1      40.458  32.945  30.348  1.00  0.00    -0.354 N 
ATOM     53  N   UNL A   1      43.276  30.449  30.086  1.00  0.00    -0.248 NA
ATOM     54  C   UNL A   1      45.512  30.350  29.564  1.00  0.00     0.031 C 
ATOM     55  C   UNL A   1      41.127  31.859  32.162  1.00  0.00     0.029 A 
ATOM     56  C   UNL A   1      41.586  32.475  31.008  1.00  0.00     0.049 A 
ATOM     57  H   UNL A   1      40.476  33.519  29.548  1.00  0.00     0.167 HD
ATOM     58  C   UNL A   1      43.738  31.726  30.193  1.00  0.00     0.074 A 
ATOM     59  C   UNL A   1      45.155  31.609  29.879  1.00  0.00     0.031 C 
ATOM     60  C   UNL A   1      42.920  32.777  30.497  1.00  0.00     0.034 A 
BRANCH  47  61
ATOM     61  C   UNL A   1      36.722  32.971  30.802  1.00  0.00     0.023 A 
ATOM     62  C   UNL A   1      36.376  32.532  32.102  1.00  0.00     0.012 A 
ATOM     63  C   UNL A   1      35.782  33.825  30.176  1.00  0.00     0.148 A 
ATOM     64  C   UNL A   1      35.150  32.827  32.708  1.00  0.00     0.002 A 
ATOM     65  C   UNL A   1      34.541  34.102  30.768  1.00  0.00     0.091 A 
ATOM     66  F   UNL A   1      36.093  34.429  29.026  1.00  0.00    -0.205 F 
ATOM     67  C   UNL A   1      34.219  33.595  32.030  1.00  0.00     0.022 A 
BRANCH  65  68
ATOM     68  S   UNL A   1      33.259  35.078  29.955  1.00  0.00     0.127 S 
ATOM     69  O   UNL A   1      32.348  35.376  31.062  1.00  0.00    -0.237 OA
ATOM     70  O   UNL A   1      34.010  36.231  29.461  1.00  0.00    -0.237 OA
ATOM     71  O   UNL A   1      32.683  34.221  28.924  1.00  0.00    -0.744 OA
ENDBRANCH  65  68
ENDBRANCH  47  61
BRANCH  48  72
ATOM     72  C   UNL A   1      44.332  27.447  28.208  1.00  0.00     0.023 A 
ATOM     73  C   UNL A   1      44.116  28.174  27.005  1.00  0.00     0.012 A 
ATOM     74  C   UNL A   1      45.080  26.257  28.127  1.00  0.00     0.148 A 
ATOM     75  C   UNL A   1      44.719  27.795  25.800  1.00  0.00     0.002 A 
ATOM     76  C   UNL A   1      45.673  25.881  26.914  1.00  0.00     0.091 A 
ATOM     77  F   UNL A   1      45.266  25.527  29.234  1.00  0.00    -0.205 F 
ATOM     78  C   UNL A   1      45.514  26.657  25.758  1.00  0.00     0.022 A 
BRANCH  76  79
ATOM     79  S   UNL A   1      46.788  24.468  26.853  1.00  0.00     0.127 S 
ATOM     80  O   UNL A   1      47.264  24.476  25.468  1.00  0.00    -0.237 OA
ATOM     81  O   UNL A   1      47.816  24.804  27.829  1.00  0.00    -0.237 OA
ATOM     82  O   UNL A   1      45.896  23.363  27.185  1.00  0.00    -0.744 OA
ENDBRANCH  76  79
ENDBRANCH  48  72
BRANCH  60  83
ATOM     83  C   UNL A   1      43.318  34.219  30.340  1.00  0.00     0.023 A 
ATOM     84  C   UNL A   1      43.831  34.963  31.418  1.00  0.00     0.012 A 
ATOM     85  C   UNL A   1      43.370  34.811  29.056  1.00  0.00     0.148 A 
ATOM     86  C   UNL A   1      44.306  36.265  31.245  1.00  0.00     0.002 A 
ATOM     87  C   UNL A   1      43.966  36.050  28.871  1.00  0.00     0.091 A 
ATOM     88  F   UNL A   1      42.834  34.178  28.002  1.00  0.00    -0.205 F 
ATOM     89  C   UNL A   1      44.400  36.798  29.967  1.00  0.00     0.022 A 
BRANCH  87  90
ATOM     90  S   UNL A   1      44.361  36.628  27.216  1.00  0.00     0.127 S 
ATOM     91  O   UNL A   1      43.036  36.893  26.662  1.00  0.00    -0.237 OA
ATOM     92  O   UNL A   1      45.161  37.825  27.483  1.00  0.00    -0.237 OA
ATOM     93  O   UNL A   1      45.110  35.537  26.607  1.00  0.00    -0.744 OA
ENDBRANCH  87  90
ENDBRANCH  60  83
ENDBRANCH  34  35
ENDBRANCH  27  29
ENDBRANCH  26  27
ENDBRANCH  25  26
ENDBRANCH   1  25
TORSDOF 17
ENDMDL
MODEL 2
REMARK VINA RESULT:     -11.6      2.204      3.005
REMARK SMILES Cc1ccc(C(=O)OCCOC(=O)c2ccc(-c3c4nc(c(-c5cccc(S(=O)(=O)[O-])c5F)c5ccc([nH]5)c(-c5cccc(S(=O)(=O)[O-])c5F)c5nc(c(-c6cccc(S(=O)(=O)[O-])c6F)c6ccc3[nH]6)C=C5)C=C4)cc2)c(Oc2cccc(F)c2C(N)=O)c1
REMARK SMILES IDX 9 1 8 2 6 3 7 4 5 5 1 6 2 7 3 8 89 9 4 10 77 11 78 12 79 13
REMARK SMILES IDX 80 14 85 15 81 16 83 17 82 18 84 19 86 20 87 21 88 22 10 25
REMARK SMILES IDX 11 26 12 27 13 28 14 29 15 30 76 31 16 32 75 33 17 34 18 35
REMARK SMILES IDX 19 36 69 37 20 38 74 39 68 40 70 41 21 42 73 43 67 44 66 45
REMARK SMILES IDX 22 47 54 48 34 49 53 50 35 51 38 52 52 53 71 54 36 55 37 56
REMARK SMILES IDX 51 58 72 59 39 60 23 61 24 62 32 63 25 64 27 65 33 66 26 67
REMARK SMILES IDX 28 68 29 69 30 70 31 71 55 72 56 73 64 74 57 75 59 76 65 77
REMARK SMILES IDX 58 78 60 79 61 80 62 81 63 82 40 83 41 84 49 85 42 86 44 87
REMARK SMILES IDX 50 88 43 89 45 90 46 91 47 92 48 93
REMARK H PARENT 87 23 87 24 70 46 38 57
REMARK Flexibility Score: inf
ROOT
ATOM      1  C   UNL A   1      36.049  22.304  26.078  1.00  0.00     0.275 C 
ENDROOT
BRANCH   1   2
ATOM      2  O   UNL A   1      35.216  21.787  25.040  1.00  0.00    -0.458 OA
BRANCH   2   3
ATOM      3  C   UNL A   1      33.930  22.175  24.979  1.00  0.00     0.342 C 
ATOM      4  O   UNL A   1      33.041  21.816  25.732  1.00  0.00    -0.246 OA
BRANCH   3   5
ATOM      5  C   UNL A   1      33.740  23.142  23.871  1.00  0.00     0.102 A 
ATOM      6  C   UNL A   1      32.480  25.806  20.739  1.00  0.00     0.044 C 
ATOM      7  C   UNL A   1      32.982  24.886  21.813  1.00  0.00    -0.047 A 
ATOM      8  C   UNL A   1      33.002  23.504  21.598  1.00  0.00     0.004 A 
ATOM      9  C   UNL A   1      33.439  25.398  23.035  1.00  0.00     0.051 A 
ATOM     10  C   UNL A   1      33.363  22.633  22.625  1.00  0.00     0.020 A 
ATOM     11  C   UNL A   1      33.787  24.531  24.079  1.00  0.00     0.142 A 
BRANCH  11  12
ATOM     12  O   UNL A   1      34.147  24.994  25.329  1.00  0.00    -0.455 OA
BRANCH  12  13
ATOM     13  C   UNL A   1      33.501  26.105  25.827  1.00  0.00     0.143 A 
ATOM     14  C   UNL A   1      34.270  27.277  25.875  1.00  0.00     0.048 A 
ATOM     15  C   UNL A   1      32.189  26.109  26.326  1.00  0.00     0.117 A 
ATOM     16  C   UNL A   1      33.722  28.465  26.359  1.00  0.00     0.007 A 
ATOM     17  C   UNL A   1      31.650  27.309  26.795  1.00  0.00     0.139 A 
ATOM     18  C   UNL A   1      32.406  28.480  26.811  1.00  0.00     0.040 A 
ATOM     19  F   UNL A   1      30.404  27.357  27.292  1.00  0.00    -0.206 F 
BRANCH  15  20
ATOM     20  C   UNL A   1      31.336  24.904  26.398  1.00  0.00     0.255 C 
ATOM     21  N   UNL A   1      30.451  24.721  25.371  1.00  0.00    -0.365 N 
ATOM     22  O   UNL A   1      31.415  24.099  27.316  1.00  0.00    -0.269 OA
ATOM     23  H   UNL A   1      30.402  25.379  24.641  1.00  0.00     0.159 HD
ATOM     24  H   UNL A   1      29.865  23.931  25.362  1.00  0.00     0.159 HD
ENDBRANCH  15  20
ENDBRANCH  12  13
ENDBRANCH  11  12
ENDBRANCH   3   5
ENDBRANCH   2   3
ENDBRANCH   1   2
BRANCH   1  25
ATOM     25  C   UNL A   1      37.376  23.027  25.746  1.00  0.00     0.275 C 
BRANCH  25  26
ATOM     26  O   UNL A   1      37.976  24.113  26.520  1.00  0.00    -0.458 OA
BRANCH  26  27
ATOM     27  C   UNL A   1      39.134  24.261  27.200  1.00  0.00     0.338 C 
ATOM     28  O   UNL A   1      39.984  23.381  27.268  1.00  0.00    -0.246 OA
BRANCH  27  29
ATOM     29  C   UNL A   1      39.339  25.540  27.859  1.00  0.00     0.060 A 
ATOM     30  C   UNL A   1      38.724  25.806  29.095  1.00  0.00     0.016 A 
ATOM     31  C   UNL A   1      40.247  26.411  27.273  1.00  0.00     0.016 A 
ATOM     32  C   UNL A   1      39.080  26.946  29.799  1.00  0.00     0.010 A 
ATOM     33  C   UNL A   1      40.724  27.438  28.034  1.00  0.00     0.010 A 
ATOM     34  C   UNL A   1      40.061  27.757  29.236  1.00  0.00    -0.014 A 
BRANCH  34  35
ATOM     35  C   UNL A   1      40.125  29.184  29.484  1.00  0.00     0.031 A 
ATOM     36  C   UNL A   1      39.090  30.095  29.007  1.00  0.00     0.074 A 
ATOM     37  C   UNL A   1      41.013  29.409  30.481  1.00  0.00     0.049 A 
ATOM     38  N   UNL A   1      39.197  31.373  29.039  1.00  0.00    -0.248 NA
ATOM     39  C   UNL A   1      37.838  29.635  28.415  1.00  0.00     0.031 C 
ATOM     40  C   UNL A   1      41.088  30.432  31.499  1.00  0.00     0.029 A 
ATOM     41  N   UNL A   1      42.152  28.619  30.730  1.00  0.00    -0.354 N 
ATOM     42  C   UNL A   1      37.924  31.879  28.858  1.00  0.00     0.074 A 
ATOM     43  C   UNL A   1      37.166  30.787  28.298  1.00  0.00     0.031 C 
ATOM     44  C   UNL A   1      42.327  30.396  32.038  1.00  0.00     0.029 A 
ATOM     45  C   UNL A   1      43.123  29.469  31.232  1.00  0.00     0.049 A 
ATOM     46  H   UNL A   1      42.240  27.650  30.577  1.00  0.00     0.167 HD
ATOM     47  C   UNL A   1      37.622  33.075  29.442  1.00  0.00     0.034 A 
ATOM     48  C   UNL A   1      44.205  29.775  30.449  1.00  0.00     0.034 A 
ATOM     49  C   UNL A   1      38.823  33.599  30.123  1.00  0.00     0.049 A 
ATOM     50  C   UNL A   1      44.165  31.244  30.084  1.00  0.00     0.074 A 
ATOM     51  C   UNL A   1      39.229  33.525  31.446  1.00  0.00     0.029 A 
ATOM     52  N   UNL A   1      39.951  33.948  29.386  1.00  0.00    -0.354 N 
ATOM     53  N   UNL A   1      43.081  31.968  30.110  1.00  0.00    -0.248 NA
ATOM     54  C   UNL A   1      45.339  32.008  29.687  1.00  0.00     0.031 C 
ATOM     55  C   UNL A   1      40.637  33.718  31.481  1.00  0.00     0.029 A 
ATOM     56  C   UNL A   1      41.085  33.923  30.186  1.00  0.00     0.049 A 
ATOM     57  H   UNL A   1      39.945  34.181  28.429  1.00  0.00     0.167 HD
ATOM     58  C   UNL A   1      43.365  33.246  29.735  1.00  0.00     0.074 A 
ATOM     59  C   UNL A   1      44.802  33.228  29.503  1.00  0.00     0.031 C 
ATOM     60  C   UNL A   1      42.399  34.205  29.614  1.00  0.00     0.034 A 
BRANCH  47  61
ATOM     61  C   UNL A   1      36.222  33.598  29.755  1.00  0.00     0.023 A 
ATOM     62  C   UNL A   1      35.485  34.116  28.663  1.00  0.00     0.012 A 
ATOM     63  C   UNL A   1      35.582  33.678  31.015  1.00  0.00     0.148 A 
ATOM     64  C   UNL A   1      34.250  34.757  28.809  1.00  0.00     0.002 A 
ATOM     65  C   UNL A   1      34.356  34.342  31.170  1.00  0.00     0.091 A 
ATOM     66  F   UNL A   1      36.116  33.065  32.074  1.00  0.00    -0.205 F 
ATOM     67  C   UNL A   1      33.693  34.892  30.068  1.00  0.00     0.022 A 
BRANCH  65  68
ATOM     68  S   UNL A   1      33.563  34.583  32.773  1.00  0.00     0.127 S 
ATOM     69  O   UNL A   1      33.442  33.210  33.267  1.00  0.00    -0.237 OA
ATOM     70  O   UNL A   1      34.542  35.401  33.487  1.00  0.00    -0.237 OA
ATOM     71  O   UNL A   1      32.285  35.234  32.505  1.00  0.00    -0.744 OA
ENDBRANCH  65  68
ENDBRANCH  47  61
BRANCH  48  72
ATOM     72  C   UNL A   1      44.637  28.672  29.507  1.00  0.00     0.023 A 
ATOM     73  C   UNL A   1      44.927  27.398  30.070  1.00  0.00     0.012 A 
ATOM     74  C   UNL A   1      44.438  28.739  28.115  1.00  0.00     0.148 A 
ATOM     75  C   UNL A   1      44.901  26.231  29.298  1.00  0.00     0.002 A 
ATOM     76  C   UNL A   1      44.422  27.566  27.349  1.00  0.00     0.091 A 
ATOM     77  F   UNL A   1      44.204  29.929  27.547  1.00  0.00    -0.205 F 
ATOM     78  C   UNL A   1      44.630  26.312  27.939  1.00  0.00     0.022 A 
BRANCH  76  79
ATOM     79  S   UNL A   1      43.975  27.631  25.606  1.00  0.00     0.127 S 
ATOM     80  O   UNL A   1      43.674  26.234  25.284  1.00  0.00    -0.237 OA
ATOM     81  O   UNL A   1      42.807  28.501  25.586  1.00  0.00    -0.237 OA
ATOM     82  O   UNL A   1      45.196  28.147  24.998  1.00  0.00    -0.744 OA
ENDBRANCH  76  79
ENDBRANCH  48  72
BRANCH  60  83
ATOM     83  C   UNL A   1      42.615  35.528  28.932  1.00  0.00     0.023 A 
ATOM     84  C   UNL A   1      41.939  35.865  27.745  1.00  0.00     0.012 A 
ATOM     85  C   UNL A   1      43.360  36.548  29.570  1.00  0.00     0.148 A 
ATOM     86  C   UNL A   1      42.055  37.134  27.175  1.00  0.00     0.002 A 
ATOM     87  C   UNL A   1      43.360  37.843  29.070  1.00  0.00     0.091 A 
ATOM     88  F   UNL A   1      44.080  36.269  30.666  1.00  0.00    -0.205 F 
ATOM     89  C   UNL A   1      42.742  38.132  27.852  1.00  0.00     0.022 A 
BRANCH  87  90
ATOM     90  S   UNL A   1      43.988  39.199  30.067  1.00  0.00     0.127 S 
ATOM     91  O   UNL A   1      43.499  38.852  31.398  1.00  0.00    -0.237 OA
ATOM     92  O   UNL A   1      45.437  39.071  29.896  1.00  0.00    -0.237 OA
ATOM     93  O   UNL A   1      43.423  40.400  29.464  1.00  0.00    -0.744 OA
ENDBRANCH  87  90
ENDBRANCH  60  83
ENDBRANCH  34  35
ENDBRANCH  27  29
ENDBRANCH  26  27
ENDBRANCH  25  26
ENDBRANCH   1  25
TORSDOF 17
ENDMDL
MODEL 3
REMARK VINA RESULT:     -11.5      4.170      9.888
REMARK SMILES Cc1ccc(C(=O)OCCOC(=O)c2ccc(-c3c4nc(c(-c5cccc(S(=O)(=O)[O-])c5F)c5ccc([nH]5)c(-c5cccc(S(=O)(=O)[O-])c5F)c5nc(c(-c6cccc(S(=O)(=O)[O-])c6F)c6ccc3[nH]6)C=C5)C=C4)cc2)c(Oc2cccc(F)c2C(N)=O)c1
REMARK SMILES IDX 9 1 8 2 6 3 7 4 5 5 1 6 2 7 3 8 89 9 4 10 77 11 78 12 79 13
REMARK SMILES IDX 80 14 85 15 81 16 83 17 82 18 84 19 86 20 87 21 88 22 10 25
REMARK SMILES IDX 11 26 12 27 13 28 14 29 15 30 76 31 16 32 75 33 17 34 18 35
REMARK SMILES IDX 19 36 69 37 20 38 74 39 68 40 70 41 21 42 73 43 67 44 66 45
REMARK SMILES IDX 22 47 54 48 34 49 53 50 35 51 38 52 52 53 71 54 36 55 37 56
REMARK SMILES IDX 51 58 72 59 39 60 23 61 24 62 32 63 25 64 27 65 33 66 26 67
REMARK SMILES IDX 28 68 29 69 30 70 31 71 55 72 56 73 64 74 57 75 59 76 65 77
REMARK SMILES IDX 58 78 60 79 61 80 62 81 63 82 40 83 41 84 49 85 42 86 44 87
REMARK SMILES IDX 50 88 43 89 45 90 46 91 47 92 48 93
REMARK H PARENT 87 23 87 24 70 46 38 57
REMARK Flexibility Score: inf
ROOT
ATOM      1  C   UNL A   1      33.515  28.628  27.473  1.00  0.00     0.275 C 
ENDROOT
BRANCH   1   2
ATOM      2  O   UNL A   1      33.420  27.512  26.587  1.00  0.00    -0.458 OA
BRANCH   2   3
ATOM      3  C   UNL A   1      32.214  26.972  26.341  1.00  0.00     0.342 C 
ATOM      4  O   UNL A   1      31.301  26.870  27.143  1.00  0.00    -0.246 OA
BRANCH   3   5
ATOM      5  C   UNL A   1      32.127  26.538  24.925  1.00  0.00     0.102 A 
ATOM      6  C   UNL A   1      32.532  25.573  20.755  1.00  0.00     0.044 C 
ATOM      7  C   UNL A   1      32.328  25.891  22.207  1.00  0.00    -0.047 A 
ATOM      8  C   UNL A   1      32.033  27.200  22.602  1.00  0.00     0.004 A 
ATOM      9  C   UNL A   1      32.423  24.884  23.177  1.00  0.00     0.051 A 
ATOM     10  C   UNL A   1      31.949  27.528  23.955  1.00  0.00     0.020 A 
ATOM     11  C   UNL A   1      32.358  25.207  24.539  1.00  0.00     0.142 A 
BRANCH  11  12
ATOM     12  O   UNL A   1      32.546  24.261  25.528  1.00  0.00    -0.455 OA
BRANCH  12  13
ATOM     13  C   UNL A   1      33.673  23.471  25.472  1.00  0.00     0.143 A 
ATOM     14  C   UNL A   1      34.873  24.111  25.814  1.00  0.00     0.048 A 
ATOM     15  C   UNL A   1      33.691  22.132  25.048  1.00  0.00     0.117 A 
ATOM     16  C   UNL A   1      36.081  23.412  25.794  1.00  0.00     0.007 A 
ATOM     17  C   UNL A   1      34.905  21.442  25.047  1.00  0.00     0.139 A 
ATOM     18  C   UNL A   1      36.092  22.071  25.419  1.00  0.00     0.040 A 
ATOM     19  F   UNL A   1      34.972  20.165  24.638  1.00  0.00    -0.206 F 
BRANCH  15  20
ATOM     20  C   UNL A   1      32.492  21.404  24.585  1.00  0.00     0.255 C 
ATOM     21  N   UNL A   1      32.330  21.292  23.232  1.00  0.00    -0.365 N 
ATOM     22  O   UNL A   1      31.684  20.913  25.362  1.00  0.00    -0.269 OA
ATOM     23  H   UNL A   1      32.990  21.694  22.623  1.00  0.00     0.159 HD
ATOM     24  H   UNL A   1      31.554  20.809  22.868  1.00  0.00     0.159 HD
ENDBRANCH  15  20
ENDBRANCH  12  13
ENDBRANCH  11  12
ENDBRANCH   3   5
ENDBRANCH   2   3
ENDBRANCH   1   2
BRANCH   1  25
ATOM     25  C   UNL A   1      34.305  29.896  27.073  1.00  0.00     0.275 C 
BRANCH  25  26
ATOM     26  O   UNL A   1      35.758  30.053  27.127  1.00  0.00    -0.458 OA
BRANCH  26  27
ATOM     27  C   UNL A   1      36.622  30.540  28.044  1.00  0.00     0.338 C 
ATOM     28  O   UNL A   1      36.389  31.538  28.716  1.00  0.00    -0.246 OA
BRANCH  27  29
ATOM     29  C   UNL A   1      37.868  29.811  28.210  1.00  0.00     0.060 A 
ATOM     30  C   UNL A   1      38.590  29.377  27.084  1.00  0.00     0.016 A 
ATOM     31  C   UNL A   1      38.350  29.677  29.505  1.00  0.00     0.016 A 
ATOM     32  C   UNL A   1      39.863  28.856  27.254  1.00  0.00     0.010 A 
ATOM     33  C   UNL A   1      39.660  29.327  29.662  1.00  0.00     0.010 A 
ATOM     34  C   UNL A   1      40.364  28.818  28.552  1.00  0.00    -0.014 A 
BRANCH  34  35
ATOM     35  C   UNL A   1      41.336  27.831  28.981  1.00  0.00     0.031 A 
ATOM     36  C   UNL A   1      41.130  26.404  28.762  1.00  0.00     0.074 A 
ATOM     37  C   UNL A   1      42.512  28.459  29.219  1.00  0.00     0.049 A 
ATOM     38  N   UNL A   1      41.864  25.490  29.284  1.00  0.00    -0.248 NA
ATOM     39  C   UNL A   1      40.043  25.874  27.946  1.00  0.00     0.031 C 
ATOM     40  C   UNL A   1      43.884  28.020  29.104  1.00  0.00     0.029 A 
ATOM     41  N   UNL A   1      42.632  29.783  29.681  1.00  0.00    -0.354 N 
ATOM     42  C   UNL A   1      41.608  24.329  28.581  1.00  0.00     0.074 A 
ATOM     43  C   UNL A   1      40.359  24.573  27.902  1.00  0.00     0.031 C 
ATOM     44  C   UNL A   1      44.663  28.908  29.761  1.00  0.00     0.029 A 
ATOM     45  C   UNL A   1      43.770  29.828  30.468  1.00  0.00     0.049 A 
ATOM     46  H   UNL A   1      42.024  30.532  29.483  1.00  0.00     0.167 HD
ATOM     47  C   UNL A   1      42.615  23.414  28.468  1.00  0.00     0.034 A 
ATOM     48  C   UNL A   1      43.634  29.967  31.824  1.00  0.00     0.034 A 
ATOM     49  C   UNL A   1      43.792  23.893  29.220  1.00  0.00     0.049 A 
ATOM     50  C   UNL A   1      44.110  28.705  32.511  1.00  0.00     0.074 A 
ATOM     51  C   UNL A   1      44.925  24.577  28.807  1.00  0.00     0.029 A 
ATOM     52  N   UNL A   1      43.728  24.039  30.603  1.00  0.00    -0.354 N 
ATOM     53  N   UNL A   1      44.190  27.544  31.922  1.00  0.00    -0.248 NA
ATOM     54  C   UNL A   1      44.551  28.660  33.899  1.00  0.00     0.031 C 
ATOM     55  C   UNL A   1      45.475  25.233  29.942  1.00  0.00     0.029 A 
ATOM     56  C   UNL A   1      44.689  24.938  31.045  1.00  0.00     0.049 A 
ATOM     57  H   UNL A   1      43.090  23.569  31.187  1.00  0.00     0.167 HD
ATOM     58  C   UNL A   1      44.654  26.608  32.796  1.00  0.00     0.074 A 
ATOM     59  C   UNL A   1      44.890  27.363  34.019  1.00  0.00     0.031 C 
ATOM     60  C   UNL A   1      44.777  25.290  32.459  1.00  0.00     0.034 A 
BRANCH  47  61
ATOM     61  C   UNL A   1      42.722  22.317  27.411  1.00  0.00     0.023 A 
ATOM     62  C   UNL A   1      41.873  21.196  27.580  1.00  0.00     0.012 A 
ATOM     63  C   UNL A   1      43.603  22.254  26.305  1.00  0.00     0.148 A 
ATOM     64  C   UNL A   1      41.951  20.051  26.781  1.00  0.00     0.002 A 
ATOM     65  C   UNL A   1      43.702  21.097  25.517  1.00  0.00     0.091 A 
ATOM     66  F   UNL A   1      44.317  23.328  25.960  1.00  0.00    -0.205 F 
ATOM     67  C   UNL A   1      42.884  19.990  25.760  1.00  0.00     0.022 A 
BRANCH  65  68
ATOM     68  S   UNL A   1      44.898  20.920  24.177  1.00  0.00     0.127 S 
ATOM     69  O   UNL A   1      44.528  22.020  23.284  1.00  0.00    -0.237 OA
ATOM     70  O   UNL A   1      46.173  21.103  24.869  1.00  0.00    -0.237 OA
ATOM     71  O   UNL A   1      44.683  19.594  23.608  1.00  0.00    -0.744 OA
ENDBRANCH  65  68
ENDBRANCH  47  61
BRANCH  48  72
ATOM     72  C   UNL A   1      42.431  30.776  32.260  1.00  0.00     0.023 A 
ATOM     73  C   UNL A   1      42.264  32.069  31.692  1.00  0.00     0.012 A 
ATOM     74  C   UNL A   1      41.322  30.200  32.908  1.00  0.00     0.148 A 
ATOM     75  C   UNL A   1      41.017  32.705  31.668  1.00  0.00     0.002 A 
ATOM     76  C   UNL A   1      40.080  30.848  32.886  1.00  0.00     0.091 A 
ATOM     77  F   UNL A   1      41.458  29.001  33.490  1.00  0.00    -0.205 F 
ATOM     78  C   UNL A   1      39.919  32.085  32.250  1.00  0.00     0.022 A 
BRANCH  76  79
ATOM     79  S   UNL A   1      38.620  30.025  33.544  1.00  0.00     0.127 S 
ATOM     80  O   UNL A   1      38.704  28.680  32.967  1.00  0.00    -0.237 OA
ATOM     81  O   UNL A   1      38.831  30.058  34.985  1.00  0.00    -0.237 OA
ATOM     82  O   UNL A   1      37.540  30.849  33.014  1.00  0.00    -0.744 OA
ENDBRANCH  76  79
ENDBRANCH  48  72
BRANCH  60  83
ATOM     83  C   UNL A   1      45.001  24.189  33.459  1.00  0.00     0.023 A 
ATOM     84  C   UNL A   1      44.014  23.222  33.724  1.00  0.00     0.012 A 
ATOM     85  C   UNL A   1      46.283  23.983  34.021  1.00  0.00     0.148 A 
ATOM     86  C   UNL A   1      44.263  22.138  34.567  1.00  0.00     0.002 A 
ATOM     87  C   UNL A   1      46.562  22.833  34.746  1.00  0.00     0.091 A 
ATOM     88  F   UNL A   1      47.244  24.905  33.860  1.00  0.00    -0.205 F 
ATOM     89  C   UNL A   1      45.545  21.927  35.056  1.00  0.00     0.022 A 
BRANCH  87  90
ATOM     90  S   UNL A   1      48.260  22.397  35.137  1.00  0.00     0.127 S 
ATOM     91  O   UNL A   1      48.618  23.415  36.120  1.00  0.00    -0.237 OA
ATOM     92  O   UNL A   1      48.121  21.045  35.682  1.00  0.00    -0.237 OA
ATOM     93  O   UNL A   1      48.964  22.453  33.863  1.00  0.00    -0.744 OA
ENDBRANCH  87  90
ENDBRANCH  60  83
ENDBRANCH  34  35
ENDBRANCH  27  29
ENDBRANCH  26  27
ENDBRANCH  25  26
ENDBRANCH   1  25
TORSDOF 17
ENDMDL
