MODEL 1
REMARK VINA RESULT:     -11.9      0.000      0.000
REMARK SMILES COc1cc(F)ccc1-c1ccc(=O)n(CC(=O)NCc2ccc(C(=O)OCCOC(=O)c3ccc(-c4c5nc(c(-c6cccc(S(=O)(=O)[O-])c6F)c6ccc([nH]6)c(-c6cccc(S(=O)(=O)[O-])c6F)c6nc(c(-c7cccc(S(=O)(=O)[O-])c7F)c7ccc4[nH]7)C=C6)C=C5)cc3)cc2)n1
REMARK SMILES IDX 27 1 25 2 26 3 24 4 21 5 22 6 97 7 23 8 96 9 20 10 19 11
REMARK SMILES IDX 17 12 18 13 16 15 15 16 10 17 11 18 98 19 12 20 13 21 14 22
REMARK SMILES IDX 9 23 3 24 4 25 5 26 8 27 6 28 7 29 2 30 1 31 28 32 29 33
REMARK SMILES IDX 30 34 31 35 32 36 33 37 34 38 95 39 35 40 94 41 36 42 37 43
REMARK SMILES IDX 38 44 88 45 39 46 93 47 87 48 89 49 40 50 92 51 86 52 85 53
REMARK SMILES IDX 41 55 73 56 53 57 72 58 54 59 57 60 71 61 90 62 55 63 56 64
REMARK SMILES IDX 70 66 91 67 58 68 42 69 43 70 51 71 44 72 46 73 52 74 45 75
REMARK SMILES IDX 47 76 48 77 49 78 50 79 74 80 75 81 83 82 76 83 78 84 84 85
REMARK SMILES IDX 77 86 79 87 80 88 81 89 82 90 59 91 60 92 68 93 61 94 63 95
REMARK SMILES IDX 69 96 62 97 64 98 65 99 66 100 67 101
REMARK H PARENT 19 14 89 54 57 65
REMARK Flexibility Score: inf
ROOT
ATOM      1  O   UNL A   1      42.448  20.966  25.393  1.00  0.00    -0.458 OA
ENDROOT
BRANCH   1   2
ATOM      2  C   UNL A   1      41.774  20.999  26.569  1.00  0.00     0.338 C 
ATOM      3  O   UNL A   1      42.220  20.679  27.660  1.00  0.00    -0.246 OA
BRANCH   2   4
ATOM      4  C   UNL A   1      40.420  21.585  26.387  1.00  0.00     0.060 A 
ATOM      5  C   UNL A   1      37.957  22.878  25.934  1.00  0.00    -0.029 A 
ATOM      6  C   UNL A   1      39.002  23.540  26.589  1.00  0.00     0.006 A 
ATOM      7  C   UNL A   1      38.154  21.549  25.527  1.00  0.00     0.006 A 
ATOM      8  C   UNL A   1      40.215  22.895  26.832  1.00  0.00     0.016 A 
ATOM      9  C   UNL A   1      39.377  20.905  25.751  1.00  0.00     0.016 A 
BRANCH   5  10
ATOM     10  C   UNL A   1      36.668  23.595  25.613  1.00  0.00     0.151 C 
BRANCH  10  11
ATOM     11  N   UNL A   1      35.691  23.453  26.667  1.00  0.00    -0.350 N 
ATOM     12  C   UNL A   1      34.398  23.026  26.600  1.00  0.00     0.242 C 
ATOM     13  O   UNL A   1      33.851  22.753  27.675  1.00  0.00    -0.273 OA
ATOM     14  H   UNL A   1      36.005  23.701  27.567  1.00  0.00     0.163 HD
BRANCH  12  15
ATOM     15  C   UNL A   1      33.723  22.711  25.264  1.00  0.00     0.248 C 
BRANCH  15  16
ATOM     16  N   UNL A   1      32.619  23.589  24.901  1.00  0.00    -0.220 N 
ATOM     17  C   UNL A   1      31.759  25.703  24.991  1.00  0.00     0.095 A 
ATOM     18  C   UNL A   1      30.791  25.436  23.913  1.00  0.00     0.037 A 
ATOM     19  N   UNL A   1      32.612  24.851  25.463  1.00  0.00    -0.169 NA
ATOM     20  C   UNL A   1      30.794  24.203  23.405  1.00  0.00     0.075 A 
ATOM     21  C   UNL A   1      31.754  23.189  23.889  1.00  0.00     0.267 A 
ATOM     22  O   UNL A   1      31.737  22.064  23.398  1.00  0.00    -0.268 OA
BRANCH  17  23
ATOM     23  C   UNL A   1      31.722  27.071  25.535  1.00  0.00     0.044 A 
ATOM     24  C   UNL A   1      31.780  28.164  24.657  1.00  0.00     0.131 A 
ATOM     25  C   UNL A   1      31.746  29.454  25.187  1.00  0.00     0.086 A 
ATOM     26  C   UNL A   1      31.683  29.628  26.570  1.00  0.00     0.126 A 
ATOM     27  C   UNL A   1      31.664  27.247  26.924  1.00  0.00     0.017 A 
ATOM     28  F   UNL A   1      31.663  30.867  27.078  1.00  0.00    -0.207 F 
ATOM     29  C   UNL A   1      31.643  28.540  27.440  1.00  0.00     0.040 A 
BRANCH  24  30
ATOM     30  O   UNL A   1      31.820  27.874  23.322  1.00  0.00    -0.496 OA
ATOM     31  C   UNL A   1      31.256  28.848  22.447  1.00  0.00     0.278 C 
ENDBRANCH  24  30
ENDBRANCH  17  23
ENDBRANCH  15  16
ENDBRANCH  12  15
ENDBRANCH  10  11
ENDBRANCH   5  10
ENDBRANCH   2   4
ENDBRANCH   1   2
BRANCH   1  32
ATOM     32  C   UNL A   1      43.884  21.018  25.490  1.00  0.00     0.275 C 
BRANCH  32  33
ATOM     33  C   UNL A   1      44.444  22.171  24.652  1.00  0.00     0.275 C 
BRANCH  33  34
ATOM     34  O   UNL A   1      43.794  23.415  24.968  1.00  0.00    -0.458 OA
BRANCH  34  35
ATOM     35  C   UNL A   1      44.612  24.477  25.160  1.00  0.00     0.338 C 
ATOM     36  O   UNL A   1      45.566  24.816  24.483  1.00  0.00    -0.246 OA
BRANCH  35  37
ATOM     37  C   UNL A   1      44.101  25.263  26.294  1.00  0.00     0.060 A 
ATOM     38  C   UNL A   1      44.367  26.626  26.416  1.00  0.00     0.016 A 
ATOM     39  C   UNL A   1      43.293  24.615  27.228  1.00  0.00     0.016 A 
ATOM     40  C   UNL A   1      43.829  27.336  27.497  1.00  0.00     0.010 A 
ATOM     41  C   UNL A   1      42.744  25.327  28.291  1.00  0.00     0.010 A 
ATOM     42  C   UNL A   1      43.006  26.696  28.443  1.00  0.00    -0.014 A 
BRANCH  42  43
ATOM     43  C   UNL A   1      42.385  27.451  29.568  1.00  0.00     0.031 A 
ATOM     44  C   UNL A   1      43.052  27.525  30.919  1.00  0.00     0.074 A 
ATOM     45  C   UNL A   1      41.171  28.013  29.400  1.00  0.00     0.049 A 
ATOM     46  N   UNL A   1      42.653  28.151  31.997  1.00  0.00    -0.248 NA
ATOM     47  C   UNL A   1      44.303  26.772  31.096  1.00  0.00     0.031 C 
ATOM     48  C   UNL A   1      40.358  27.914  28.186  1.00  0.00     0.029 A 
ATOM     49  N   UNL A   1      40.404  28.768  30.253  1.00  0.00    -0.354 N 
ATOM     50  C   UNL A   1      43.579  27.841  32.987  1.00  0.00     0.074 A 
ATOM     51  C   UNL A   1      44.541  26.939  32.390  1.00  0.00     0.031 C 
ATOM     52  C   UNL A   1      39.225  28.612  28.359  1.00  0.00     0.029 A 
ATOM     53  C   UNL A   1      39.220  29.198  29.698  1.00  0.00     0.049 A 
ATOM     54  H   UNL A   1      40.676  28.983  31.174  1.00  0.00     0.167 HD
ATOM     55  C   UNL A   1      43.650  28.294  34.262  1.00  0.00     0.034 A 
ATOM     56  C   UNL A   1      38.250  29.993  30.197  1.00  0.00     0.034 A 
ATOM     57  C   UNL A   1      42.743  29.256  34.829  1.00  0.00     0.049 A 
ATOM     58  C   UNL A   1      38.413  30.583  31.573  1.00  0.00     0.074 A 
ATOM     59  C   UNL A   1      42.805  29.864  36.071  1.00  0.00     0.029 A 
ATOM     60  N   UNL A   1      41.618  29.756  34.195  1.00  0.00    -0.354 N 
ATOM     61  N   UNL A   1      39.396  30.424  32.425  1.00  0.00    -0.248 NA
ATOM     62  C   UNL A   1      37.356  31.492  32.042  1.00  0.00     0.031 C 
ATOM     63  C   UNL A   1      41.715  30.732  36.188  1.00  0.00     0.029 A 
ATOM     64  C   UNL A   1      40.979  30.669  35.016  1.00  0.00     0.049 A 
ATOM     65  H   UNL A   1      41.317  29.500  33.294  1.00  0.00     0.167 HD
ATOM     66  C   UNL A   1      39.089  31.227  33.518  1.00  0.00     0.074 A 
ATOM     67  C   UNL A   1      37.841  31.893  33.211  1.00  0.00     0.031 C 
ATOM     68  C   UNL A   1      39.771  31.377  34.681  1.00  0.00     0.034 A 
BRANCH  55  69
ATOM     69  C   UNL A   1      44.807  27.837  35.114  1.00  0.00     0.023 A 
ATOM     70  C   UNL A   1      45.997  28.594  35.114  1.00  0.00     0.012 A 
ATOM     71  C   UNL A   1      44.689  26.735  35.984  1.00  0.00     0.148 A 
ATOM     72  C   UNL A   1      47.063  28.244  35.941  1.00  0.00     0.002 A 
ATOM     73  C   UNL A   1      45.741  26.418  36.839  1.00  0.00     0.091 A 
ATOM     74  F   UNL A   1      43.555  26.020  35.962  1.00  0.00    -0.205 F 
ATOM     75  C   UNL A   1      46.931  27.165  36.810  1.00  0.00     0.022 A 
BRANCH  73  76
ATOM     76  S   UNL A   1      45.640  25.105  38.061  1.00  0.00     0.127 S 
ATOM     77  O   UNL A   1      47.048  24.753  38.233  1.00  0.00    -0.237 OA
ATOM     78  O   UNL A   1      45.041  25.794  39.205  1.00  0.00    -0.237 OA
ATOM     79  O   UNL A   1      44.802  24.071  37.470  1.00  0.00    -0.744 OA
ENDBRANCH  73  76
ENDBRANCH  55  69
BRANCH  56  80
ATOM     80  C   UNL A   1      37.102  30.374  29.326  1.00  0.00     0.023 A 
ATOM     81  C   UNL A   1      36.330  29.357  28.731  1.00  0.00     0.012 A 
ATOM     82  C   UNL A   1      36.720  31.718  29.150  1.00  0.00     0.148 A 
ATOM     83  C   UNL A   1      35.209  29.671  27.962  1.00  0.00     0.002 A 
ATOM     84  C   UNL A   1      35.569  32.021  28.430  1.00  0.00     0.091 A 
ATOM     85  F   UNL A   1      37.474  32.673  29.710  1.00  0.00    -0.205 F 
ATOM     86  C   UNL A   1      34.821  31.000  27.823  1.00  0.00     0.022 A 
BRANCH  84  87
ATOM     87  S   UNL A   1      34.913  33.692  28.337  1.00  0.00     0.127 S 
ATOM     88  O   UNL A   1      35.488  34.172  27.084  1.00  0.00    -0.237 OA
ATOM     89  O   UNL A   1      33.469  33.454  28.302  1.00  0.00    -0.237 OA
ATOM     90  O   UNL A   1      35.372  34.360  29.548  1.00  0.00    -0.744 OA
ENDBRANCH  84  87
ENDBRANCH  56  80
BRANCH  68  91
ATOM     91  C   UNL A   1      39.205  32.303  35.726  1.00  0.00     0.023 A 
ATOM     92  C   UNL A   1      38.276  31.802  36.659  1.00  0.00     0.012 A 
ATOM     93  C   UNL A   1      39.689  33.619  35.868  1.00  0.00     0.148 A 
ATOM     94  C   UNL A   1      37.828  32.601  37.711  1.00  0.00     0.002 A 
ATOM     95  C   UNL A   1      39.268  34.395  36.943  1.00  0.00     0.091 A 
ATOM     96  F   UNL A   1      40.559  34.082  34.958  1.00  0.00    -0.205 F 
ATOM     97  C   UNL A   1      38.334  33.890  37.861  1.00  0.00     0.022 A 
BRANCH  95  98
ATOM     98  S   UNL A   1      39.937  36.032  37.270  1.00  0.00     0.127 S 
ATOM     99  O   UNL A   1      41.335  35.727  37.573  1.00  0.00    -0.237 OA
ATOM    100  O   UNL A   1      39.726  36.717  35.994  1.00  0.00    -0.237 OA
ATOM    101  O   UNL A   1      39.159  36.568  38.378  1.00  0.00    -0.744 OA
ENDBRANCH  95  98
ENDBRANCH  68  91
ENDBRANCH  42  43
ENDBRANCH  35  37
ENDBRANCH  34  35
ENDBRANCH  33  34
ENDBRANCH  32  33
ENDBRANCH   1  32
TORSDOF 20
ENDMDL
MODEL 2
REMARK VINA RESULT:     -11.8      3.924      8.365
REMARK SMILES COc1cc(F)ccc1-c1ccc(=O)n(CC(=O)NCc2ccc(C(=O)OCCOC(=O)c3ccc(-c4c5nc(c(-c6cccc(S(=O)(=O)[O-])c6F)c6ccc([nH]6)c(-c6cccc(S(=O)(=O)[O-])c6F)c6nc(c(-c7cccc(S(=O)(=O)[O-])c7F)c7ccc4[nH]7)C=C6)C=C5)cc3)cc2)n1
REMARK SMILES IDX 27 1 25 2 26 3 24 4 21 5 22 6 97 7 23 8 96 9 20 10 19 11
REMARK SMILES IDX 17 12 18 13 16 15 15 16 10 17 11 18 98 19 12 20 13 21 14 22
REMARK SMILES IDX 9 23 3 24 4 25 5 26 8 27 6 28 7 29 2 30 1 31 28 32 29 33
REMARK SMILES IDX 30 34 31 35 32 36 33 37 34 38 95 39 35 40 94 41 36 42 37 43
REMARK SMILES IDX 38 44 88 45 39 46 93 47 87 48 89 49 40 50 92 51 86 52 85 53
REMARK SMILES IDX 41 55 73 56 53 57 72 58 54 59 57 60 71 61 90 62 55 63 56 64
REMARK SMILES IDX 70 66 91 67 58 68 42 69 43 70 51 71 44 72 46 73 52 74 45 75
REMARK SMILES IDX 47 76 48 77 49 78 50 79 74 80 75 81 83 82 76 83 78 84 84 85
REMARK SMILES IDX 77 86 79 87 80 88 81 89 82 90 59 91 60 92 68 93 61 94 63 95
REMARK SMILES IDX 69 96 62 97 64 98 65 99 66 100 67 101
REMARK H PARENT 19 14 89 54 57 65
REMARK Flexibility Score: inf
ROOT
ATOM      1  O   UNL A   1      43.320  20.232  25.370  1.00  0.00    -0.458 OA
ENDROOT
BRANCH   1   2
ATOM      2  C   UNL A   1      42.555  20.191  26.489  1.00  0.00     0.338 C 
ATOM      3  O   UNL A   1      42.265  19.187  27.122  1.00  0.00    -0.246 OA
BRANCH   2   4
ATOM      4  C   UNL A   1      42.184  21.562  26.929  1.00  0.00     0.060 A 
ATOM      5  C   UNL A   1      41.256  24.094  27.746  1.00  0.00    -0.029 A 
ATOM      6  C   UNL A   1      40.821  23.527  26.542  1.00  0.00     0.006 A 
ATOM      7  C   UNL A   1      42.181  23.384  28.527  1.00  0.00     0.006 A 
ATOM      8  C   UNL A   1      41.295  22.283  26.127  1.00  0.00     0.016 A 
ATOM      9  C   UNL A   1      42.644  22.126  28.123  1.00  0.00     0.016 A 
BRANCH   5  10
ATOM     10  C   UNL A   1      40.695  25.410  28.228  1.00  0.00     0.151 C 
BRANCH  10  11
ATOM     11  N   UNL A   1      40.554  26.366  27.154  1.00  0.00    -0.350 N 
ATOM     12  C   UNL A   1      40.794  27.708  27.150  1.00  0.00     0.242 C 
ATOM     13  O   UNL A   1      40.841  28.256  26.043  1.00  0.00    -0.273 OA
ATOM     14  H   UNL A   1      40.238  25.993  26.300  1.00  0.00     0.163 HD
BRANCH  12  15
ATOM     15  C   UNL A   1      41.180  28.460  28.425  1.00  0.00     0.248 C 
BRANCH  15  16
ATOM     16  N   UNL A   1      40.071  28.807  29.304  1.00  0.00    -0.220 N 
ATOM     17  C   UNL A   1      37.909  29.526  29.447  1.00  0.00     0.095 A 
ATOM     18  C   UNL A   1      37.777  29.088  30.847  1.00  0.00     0.037 A 
ATOM     19  N   UNL A   1      38.973  29.404  28.719  1.00  0.00    -0.169 NA
ATOM     20  C   UNL A   1      38.858  28.541  31.403  1.00  0.00     0.075 A 
ATOM     21  C   UNL A   1      40.099  28.359  30.620  1.00  0.00     0.267 A 
ATOM     22  O   UNL A   1      41.077  27.847  31.156  1.00  0.00    -0.268 OA
BRANCH  17  23
ATOM     23  C   UNL A   1      36.699  30.134  28.868  1.00  0.00     0.044 A 
ATOM     24  C   UNL A   1      36.435  31.494  29.093  1.00  0.00     0.131 A 
ATOM     25  C   UNL A   1      35.284  32.056  28.539  1.00  0.00     0.086 A 
ATOM     26  C   UNL A   1      34.414  31.253  27.802  1.00  0.00     0.126 A 
ATOM     27  C   UNL A   1      35.821  29.328  28.132  1.00  0.00     0.017 A 
ATOM     28  F   UNL A   1      33.303  31.791  27.281  1.00  0.00    -0.207 F 
ATOM     29  C   UNL A   1      34.670  29.899  27.595  1.00  0.00     0.040 A 
BRANCH  24  30
ATOM     30  O   UNL A   1      37.368  32.187  29.813  1.00  0.00    -0.496 OA
ATOM     31  C   UNL A   1      37.633  33.520  29.386  1.00  0.00     0.278 C 
ENDBRANCH  24  30
ENDBRANCH  17  23
ENDBRANCH  15  16
ENDBRANCH  12  15
ENDBRANCH  10  11
ENDBRANCH   5  10
ENDBRANCH   2   4
ENDBRANCH   1   2
BRANCH   1  32
ATOM     32  C   UNL A   1      44.623  19.629  25.477  1.00  0.00     0.275 C 
BRANCH  32  33
ATOM     33  C   UNL A   1      45.642  20.383  24.619  1.00  0.00     0.275 C 
BRANCH  33  34
ATOM     34  O   UNL A   1      46.048  21.614  25.244  1.00  0.00    -0.458 OA
BRANCH  34  35
ATOM     35  C   UNL A   1      45.585  22.750  24.670  1.00  0.00     0.338 C 
ATOM     36  O   UNL A   1      45.288  22.928  23.502  1.00  0.00    -0.246 OA
BRANCH  35  37
ATOM     37  C   UNL A   1      45.381  23.758  25.722  1.00  0.00     0.060 A 
ATOM     38  C   UNL A   1      46.282  23.903  26.777  1.00  0.00     0.016 A 
ATOM     39  C   UNL A   1      44.282  24.608  25.610  1.00  0.00     0.016 A 
ATOM     40  C   UNL A   1      46.060  24.901  27.734  1.00  0.00     0.010 A 
ATOM     41  C   UNL A   1      44.075  25.612  26.553  1.00  0.00     0.010 A 
ATOM     42  C   UNL A   1      44.958  25.771  27.630  1.00  0.00    -0.014 A 
BRANCH  42  43
ATOM     43  C   UNL A   1      44.741  26.870  28.613  1.00  0.00     0.031 A 
ATOM     44  C   UNL A   1      44.785  28.316  28.190  1.00  0.00     0.074 A 
ATOM     45  C   UNL A   1      44.582  26.569  29.919  1.00  0.00     0.049 A 
ATOM     46  N   UNL A   1      44.604  29.390  28.916  1.00  0.00    -0.248 NA
ATOM     47  C   UNL A   1      45.110  28.597  26.782  1.00  0.00     0.031 C 
ATOM     48  C   UNL A   1      44.642  25.221  30.486  1.00  0.00     0.029 A 
ATOM     49  N   UNL A   1      44.348  27.376  31.005  1.00  0.00    -0.354 N 
ATOM     50  C   UNL A   1      44.827  30.470  28.069  1.00  0.00     0.074 A 
ATOM     51  C   UNL A   1      45.194  29.921  26.781  1.00  0.00     0.031 C 
ATOM     52  C   UNL A   1      44.414  25.290  31.807  1.00  0.00     0.029 A 
ATOM     53  C   UNL A   1      44.205  26.686  32.187  1.00  0.00     0.049 A 
ATOM     54  H   UNL A   1      44.286  28.357  30.943  1.00  0.00     0.167 HD
ATOM     55  C   UNL A   1      44.699  31.794  28.323  1.00  0.00     0.034 A 
ATOM     56  C   UNL A   1      43.915  27.119  33.431  1.00  0.00     0.034 A 
ATOM     57  C   UNL A   1      44.253  32.337  29.579  1.00  0.00     0.049 A 
ATOM     58  C   UNL A   1      43.656  28.585  33.662  1.00  0.00     0.074 A 
ATOM     59  C   UNL A   1      43.978  33.657  29.892  1.00  0.00     0.029 A 
ATOM     60  N   UNL A   1      44.007  31.594  30.722  1.00  0.00    -0.354 N 
ATOM     61  N   UNL A   1      43.690  29.572  32.800  1.00  0.00    -0.248 NA
ATOM     62  C   UNL A   1      43.283  28.993  35.025  1.00  0.00     0.031 C 
ATOM     63  C   UNL A   1      43.567  33.712  31.227  1.00  0.00     0.029 A 
ATOM     64  C   UNL A   1      43.580  32.426  31.742  1.00  0.00     0.049 A 
ATOM     65  H   UNL A   1      44.120  30.620  30.797  1.00  0.00     0.167 HD
ATOM     66  C   UNL A   1      43.320  30.710  33.507  1.00  0.00     0.074 A 
ATOM     67  C   UNL A   1      43.042  30.289  34.864  1.00  0.00     0.031 C 
ATOM     68  C   UNL A   1      43.243  31.993  33.074  1.00  0.00     0.034 A 
BRANCH  55  69
ATOM     69  C   UNL A   1      44.948  32.761  27.193  1.00  0.00     0.023 A 
ATOM     70  C   UNL A   1      43.912  33.018  26.271  1.00  0.00     0.012 A 
ATOM     71  C   UNL A   1      46.152  33.487  27.098  1.00  0.00     0.148 A 
ATOM     72  C   UNL A   1      44.078  33.956  25.255  1.00  0.00     0.002 A 
ATOM     73  C   UNL A   1      46.295  34.454  26.107  1.00  0.00     0.091 A 
ATOM     74  F   UNL A   1      47.131  33.222  27.975  1.00  0.00    -0.205 F 
ATOM     75  C   UNL A   1      45.264  34.681  25.180  1.00  0.00     0.022 A 
BRANCH  73  76
ATOM     76  S   UNL A   1      47.744  35.509  25.978  1.00  0.00     0.127 S 
ATOM     77  O   UNL A   1      48.259  35.473  27.346  1.00  0.00    -0.237 OA
ATOM     78  O   UNL A   1      48.563  34.789  25.001  1.00  0.00    -0.237 OA
ATOM     79  O   UNL A   1      47.257  36.804  25.523  1.00  0.00    -0.744 OA
ENDBRANCH  73  76
ENDBRANCH  55  69
BRANCH  56  80
ATOM     80  C   UNL A   1      43.728  26.122  34.524  1.00  0.00     0.023 A 
ATOM     81  C   UNL A   1      42.455  25.551  34.715  1.00  0.00     0.012 A 
ATOM     82  C   UNL A   1      44.806  25.678  35.314  1.00  0.00     0.148 A 
ATOM     83  C   UNL A   1      42.254  24.567  35.684  1.00  0.00     0.002 A 
ATOM     84  C   UNL A   1      44.612  24.658  36.239  1.00  0.00     0.091 A 
ATOM     85  F   UNL A   1      46.006  26.245  35.129  1.00  0.00    -0.205 F 
ATOM     86  C   UNL A   1      43.334  24.111  36.435  1.00  0.00     0.022 A 
BRANCH  84  87
ATOM     87  S   UNL A   1      45.978  23.905  37.132  1.00  0.00     0.127 S 
ATOM     88  O   UNL A   1      45.298  22.870  37.905  1.00  0.00    -0.237 OA
ATOM     89  O   UNL A   1      46.821  23.409  36.044  1.00  0.00    -0.237 OA
ATOM     90  O   UNL A   1      46.582  24.984  37.904  1.00  0.00    -0.744 OA
ENDBRANCH  84  87
ENDBRANCH  56  80
BRANCH  68  91
ATOM     91  C   UNL A   1      42.835  33.057  34.059  1.00  0.00     0.023 A 
ATOM     92  C   UNL A   1      43.831  33.814  34.708  1.00  0.00     0.012 A 
ATOM     93  C   UNL A   1      41.480  33.397  34.239  1.00  0.00     0.148 A 
ATOM     94  C   UNL A   1      43.483  34.884  35.531  1.00  0.00     0.002 A 
ATOM     95  C   UNL A   1      41.143  34.491  35.029  1.00  0.00     0.091 A 
ATOM     96  F   UNL A   1      40.547  32.653  33.626  1.00  0.00    -0.205 F 
ATOM     97  C   UNL A   1      42.142  35.231  35.680  1.00  0.00     0.022 A 
BRANCH  95  98
ATOM     98  S   UNL A   1      39.449  35.070  35.202  1.00  0.00     0.127 S 
ATOM     99  O   UNL A   1      39.650  36.448  35.649  1.00  0.00    -0.237 OA
ATOM    100  O   UNL A   1      38.933  34.941  33.839  1.00  0.00    -0.237 OA
ATOM    101  O   UNL A   1      38.820  34.183  36.172  1.00  0.00    -0.744 OA
ENDBRANCH  95  98
ENDBRANCH  68  91
ENDBRANCH  42  43
ENDBRANCH  35  37
ENDBRANCH  34  35
ENDBRANCH  33  34
ENDBRANCH  32  33
ENDBRANCH   1  32
TORSDOF 20
ENDMDL
MODEL 3
REMARK VINA RESULT:     -11.6      4.842     10.900
REMARK SMILES COc1cc(F)ccc1-c1ccc(=O)n(CC(=O)NCc2ccc(C(=O)OCCOC(=O)c3ccc(-c4c5nc(c(-c6cccc(S(=O)(=O)[O-])c6F)c6ccc([nH]6)c(-c6cccc(S(=O)(=O)[O-])c6F)c6nc(c(-c7cccc(S(=O)(=O)[O-])c7F)c7ccc4[nH]7)C=C6)C=C5)cc3)cc2)n1
REMARK SMILES IDX 27 1 25 2 26 3 24 4 21 5 22 6 97 7 23 8 96 9 20 10 19 11
REMARK SMILES IDX 17 12 18 13 16 15 15 16 10 17 11 18 98 19 12 20 13 21 14 22
REMARK SMILES IDX 9 23 3 24 4 25 5 26 8 27 6 28 7 29 2 30 1 31 28 32 29 33
REMARK SMILES IDX 30 34 31 35 32 36 33 37 34 38 95 39 35 40 94 41 36 42 37 43
REMARK SMILES IDX 38 44 88 45 39 46 93 47 87 48 89 49 40 50 92 51 86 52 85 53
REMARK SMILES IDX 41 55 73 56 53 57 72 58 54 59 57 60 71 61 90 62 55 63 56 64
REMARK SMILES IDX 70 66 91 67 58 68 42 69 43 70 51 71 44 72 46 73 52 74 45 75
REMARK SMILES IDX 47 76 48 77 49 78 50 79 74 80 75 81 83 82 76 83 78 84 84 85
REMARK SMILES IDX 77 86 79 87 80 88 81 89 82 90 59 91 60 92 68 93 61 94 63 95
REMARK SMILES IDX 69 96 62 97 64 98 65 99 66 100 67 101
REMARK H PARENT 19 14 89 54 57 65
REMARK Flexibility Score: inf
ROOT
ATOM      1  O   UNL A   1      35.642  33.819  32.343  1.00  0.00    -0.458 OA
ENDROOT
BRANCH   1   2
ATOM      2  C   UNL A   1      35.240  32.871  31.460  1.00  0.00     0.338 C 
ATOM      3  O   UNL A   1      34.093  32.676  31.091  1.00  0.00    -0.246 OA
BRANCH   2   4
ATOM      4  C   UNL A   1      36.407  32.142  30.897  1.00  0.00     0.060 A 
ATOM      5  C   UNL A   1      38.472  30.664  29.674  1.00  0.00    -0.029 A 
ATOM      6  C   UNL A   1      37.319  30.026  30.147  1.00  0.00     0.006 A 
ATOM      7  C   UNL A   1      38.587  32.053  29.841  1.00  0.00     0.006 A 
ATOM      8  C   UNL A   1      36.306  30.753  30.771  1.00  0.00     0.016 A 
ATOM      9  C   UNL A   1      37.563  32.789  30.449  1.00  0.00     0.016 A 
BRANCH   5  10
ATOM     10  C   UNL A   1      39.539  29.889  28.941  1.00  0.00     0.151 C 
BRANCH  10  11
ATOM     11  N   UNL A   1      39.243  28.476  28.886  1.00  0.00    -0.350 N 
ATOM     12  C   UNL A   1      40.092  27.410  28.902  1.00  0.00     0.242 C 
ATOM     13  O   UNL A   1      39.582  26.301  29.101  1.00  0.00    -0.273 OA
ATOM     14  H   UNL A   1      38.287  28.250  28.829  1.00  0.00     0.163 HD
BRANCH  12  15
ATOM     15  C   UNL A   1      41.611  27.592  28.873  1.00  0.00     0.248 C 
BRANCH  15  16
ATOM     16  N   UNL A   1      42.264  27.193  27.633  1.00  0.00    -0.220 N 
ATOM     17  C   UNL A   1      42.974  25.460  26.328  1.00  0.00     0.095 A 
ATOM     18  C   UNL A   1      43.105  26.314  25.134  1.00  0.00     0.037 A 
ATOM     19  N   UNL A   1      42.587  25.858  27.498  1.00  0.00    -0.169 NA
ATOM     20  C   UNL A   1      42.816  27.605  25.294  1.00  0.00     0.075 A 
ATOM     21  C   UNL A   1      42.354  28.120  26.601  1.00  0.00     0.267 A 
ATOM     22  O   UNL A   1      42.089  29.313  26.716  1.00  0.00    -0.268 OA
BRANCH  17  23
ATOM     23  C   UNL A   1      43.309  24.041  26.118  1.00  0.00     0.044 A 
ATOM     24  C   UNL A   1      42.280  23.088  26.077  1.00  0.00     0.131 A 
ATOM     25  C   UNL A   1      42.612  21.748  25.878  1.00  0.00     0.086 A 
ATOM     26  C   UNL A   1      43.953  21.384  25.753  1.00  0.00     0.126 A 
ATOM     27  C   UNL A   1      44.655  23.673  25.996  1.00  0.00     0.017 A 
ATOM     28  F   UNL A   1      44.271  20.095  25.574  1.00  0.00    -0.207 F 
ATOM     29  C   UNL A   1      44.974  22.331  25.811  1.00  0.00     0.040 A 
BRANCH  24  30
ATOM     30  O   UNL A   1      41.003  23.562  26.192  1.00  0.00    -0.496 OA
ATOM     31  C   UNL A   1      40.233  23.048  27.275  1.00  0.00     0.278 C 
ENDBRANCH  24  30
ENDBRANCH  17  23
ENDBRANCH  15  16
ENDBRANCH  12  15
ENDBRANCH  10  11
ENDBRANCH   5  10
ENDBRANCH   2   4
ENDBRANCH   1   2
BRANCH   1  32
ATOM     32  C   UNL A   1      34.927  33.858  33.592  1.00  0.00     0.275 C 
BRANCH  32  33
ATOM     33  C   UNL A   1      35.898  33.910  34.773  1.00  0.00     0.275 C 
BRANCH  33  34
ATOM     34  O   UNL A   1      36.632  32.680  34.905  1.00  0.00    -0.458 OA
BRANCH  34  35
ATOM     35  C   UNL A   1      37.838  32.773  35.515  1.00  0.00     0.338 C 
ATOM     36  O   UNL A   1      38.087  33.243  36.610  1.00  0.00    -0.246 OA
BRANCH  35  37
ATOM     37  C   UNL A   1      38.841  32.101  34.673  1.00  0.00     0.060 A 
ATOM     38  C   UNL A   1      38.488  31.077  33.795  1.00  0.00     0.016 A 
ATOM     39  C   UNL A   1      40.158  32.552  34.739  1.00  0.00     0.016 A 
ATOM     40  C   UNL A   1      39.476  30.494  32.991  1.00  0.00     0.010 A 
ATOM     41  C   UNL A   1      41.135  31.983  33.925  1.00  0.00     0.010 A 
ATOM     42  C   UNL A   1      40.809  30.944  33.042  1.00  0.00    -0.014 A 
BRANCH  42  43
ATOM     43  C   UNL A   1      41.857  30.366  32.154  1.00  0.00     0.031 A 
ATOM     44  C   UNL A   1      42.440  29.001  32.422  1.00  0.00     0.074 A 
ATOM     45  C   UNL A   1      42.349  31.106  31.139  1.00  0.00     0.049 A 
ATOM     46  N   UNL A   1      43.347  28.349  31.740  1.00  0.00    -0.248 NA
ATOM     47  C   UNL A   1      41.977  28.295  33.627  1.00  0.00     0.031 C 
ATOM     48  C   UNL A   1      41.965  32.487  30.841  1.00  0.00     0.029 A 
ATOM     49  N   UNL A   1      43.284  30.806  30.179  1.00  0.00    -0.354 N 
ATOM     50  C   UNL A   1      43.590  27.176  32.448  1.00  0.00     0.074 A 
ATOM     51  C   UNL A   1      42.761  27.225  33.634  1.00  0.00     0.031 C 
ATOM     52  C   UNL A   1      42.630  32.901  29.752  1.00  0.00     0.029 A 
ATOM     53  C   UNL A   1      43.499  31.825  29.279  1.00  0.00     0.049 A 
ATOM     54  H   UNL A   1      43.755  29.943  30.138  1.00  0.00     0.167 HD
ATOM     55  C   UNL A   1      44.395  26.135  32.124  1.00  0.00     0.034 A 
ATOM     56  C   UNL A   1      44.284  31.882  28.183  1.00  0.00     0.034 A 
ATOM     57  C   UNL A   1      45.154  26.049  30.905  1.00  0.00     0.049 A 
ATOM     58  C   UNL A   1      45.076  30.667  27.777  1.00  0.00     0.074 A 
ATOM     59  C   UNL A   1      45.903  24.984  30.435  1.00  0.00     0.029 A 
ATOM     60  N   UNL A   1      45.255  27.058  29.961  1.00  0.00    -0.354 N 
ATOM     61  N   UNL A   1      45.145  29.497  28.363  1.00  0.00    -0.248 NA
ATOM     62  C   UNL A   1      45.866  30.764  26.540  1.00  0.00     0.031 C 
ATOM     63  C   UNL A   1      46.459  25.350  29.206  1.00  0.00     0.029 A 
ATOM     64  C   UNL A   1      46.050  26.639  28.908  1.00  0.00     0.049 A 
ATOM     65  H   UNL A   1      44.826  27.940  30.029  1.00  0.00     0.167 HD
ATOM     66  C   UNL A   1      45.963  28.712  27.558  1.00  0.00     0.074 A 
ATOM     67  C   UNL A   1      46.348  29.531  26.428  1.00  0.00     0.031 C 
ATOM     68  C   UNL A   1      46.378  27.436  27.754  1.00  0.00     0.034 A 
BRANCH  55  69
ATOM     69  C   UNL A   1      44.427  24.947  33.053  1.00  0.00     0.023 A 
ATOM     70  C   UNL A   1      43.755  23.766  32.675  1.00  0.00     0.012 A 
ATOM     71  C   UNL A   1      45.194  24.958  34.235  1.00  0.00     0.148 A 
ATOM     72  C   UNL A   1      43.820  22.625  33.472  1.00  0.00     0.002 A 
ATOM     73  C   UNL A   1      45.289  23.802  35.003  1.00  0.00     0.091 A 
ATOM     74  F   UNL A   1      45.815  26.093  34.585  1.00  0.00    -0.205 F 
ATOM     75  C   UNL A   1      44.594  22.639  34.628  1.00  0.00     0.022 A 
BRANCH  73  76
ATOM     76  S   UNL A   1      46.332  23.685  36.461  1.00  0.00     0.127 S 
ATOM     77  O   UNL A   1      47.661  23.902  35.892  1.00  0.00    -0.237 OA
ATOM     78  O   UNL A   1      45.836  24.788  37.285  1.00  0.00    -0.237 OA
ATOM     79  O   UNL A   1      46.096  22.359  37.017  1.00  0.00    -0.744 OA
ENDBRANCH  73  76
ENDBRANCH  55  69
BRANCH  56  80
ATOM     80  C   UNL A   1      44.251  33.101  27.327  1.00  0.00     0.023 A 
ATOM     81  C   UNL A   1      43.516  33.071  26.126  1.00  0.00     0.012 A 
ATOM     82  C   UNL A   1      44.866  34.304  27.725  1.00  0.00     0.148 A 
ATOM     83  C   UNL A   1      43.407  34.211  25.328  1.00  0.00     0.002 A 
ATOM     84  C   UNL A   1      44.706  35.451  26.956  1.00  0.00     0.091 A 
ATOM     85  F   UNL A   1      45.574  34.310  28.863  1.00  0.00    -0.205 F 
ATOM     86  C   UNL A   1      43.989  35.403  25.750  1.00  0.00     0.022 A 
BRANCH  84  87
ATOM     87  S   UNL A   1      45.288  37.060  27.506  1.00  0.00     0.127 S 
ATOM     88  O   UNL A   1      44.237  37.946  27.014  1.00  0.00    -0.237 OA
ATOM     89  O   UNL A   1      45.325  36.894  28.959  1.00  0.00    -0.237 OA
ATOM     90  O   UNL A   1      46.602  37.229  26.898  1.00  0.00    -0.744 OA
ENDBRANCH  84  87
ENDBRANCH  56  80
BRANCH  68  91
ATOM     91  C   UNL A   1      47.293  26.817  26.729  1.00  0.00     0.023 A 
ATOM     92  C   UNL A   1      46.760  26.397  25.494  1.00  0.00     0.012 A 
ATOM     93  C   UNL A   1      48.686  26.774  26.932  1.00  0.00     0.148 A 
ATOM     94  C   UNL A   1      47.598  25.933  24.482  1.00  0.00     0.002 A 
ATOM     95  C   UNL A   1      49.519  26.348  25.903  1.00  0.00     0.091 A 
ATOM     96  F   UNL A   1      49.171  27.161  28.122  1.00  0.00    -0.205 F 
ATOM     97  C   UNL A   1      48.977  25.922  24.681  1.00  0.00     0.022 A 
BRANCH  95  98
ATOM     98  S   UNL A   1      51.312  26.390  26.035  1.00  0.00     0.127 S 
ATOM     99  O   UNL A   1      51.580  25.192  26.831  1.00  0.00    -0.237 OA
ATOM    100  O   UNL A   1      51.731  26.297  24.636  1.00  0.00    -0.237 OA
ATOM    101  O   UNL A   1      51.637  27.655  26.680  1.00  0.00    -0.744 OA
ENDBRANCH  95  98
ENDBRANCH  68  91
ENDBRANCH  42  43
ENDBRANCH  35  37
ENDBRANCH  34  35
ENDBRANCH  33  34
ENDBRANCH  32  33
ENDBRANCH   1  32
TORSDOF 20
ENDMDL
