MODEL 1
REMARK VINA RESULT:     -13.3      0.000      0.000
REMARK SMILES O=C(Cc1ccccc1)Nc1cccc(C(=O)Nc2ccccc2C(=O)OCCOC(=O)c2ccc(-c3c4nc(c(-c5cccc(S(=O)(=O)[O-])c5F)c5ccc([nH]5)c(-c5cccc(S(=O)(=O)[O-])c5F)c5nc(c(-c6cccc(S(=O)(=O)[O-])c6F)c6ccc3[nH]6)C=C5)C=C4)cc2)c1
REMARK SMILES IDX 28 1 27 2 25 3 26 4 24 5 19 6 20 7 21 8 23 9 22 10 18 11
REMARK SMILES IDX 16 12 17 13 15 15 11 16 12 17 96 18 13 19 14 20 10 21 1 22
REMARK SMILES IDX 2 23 3 25 4 26 5 27 9 28 6 29 8 30 7 31 29 32 30 33 31 34
REMARK SMILES IDX 32 35 33 36 34 37 95 38 35 39 94 40 36 41 37 42 38 43 88 44
REMARK SMILES IDX 39 45 93 46 87 47 89 48 40 49 92 50 86 51 85 52 41 54 73 55
REMARK SMILES IDX 53 56 72 57 54 58 57 59 71 60 90 61 55 62 56 63 70 65 91 66
REMARK SMILES IDX 58 67 42 68 43 69 51 70 44 71 46 72 52 73 45 74 47 75 48 76
REMARK SMILES IDX 49 77 50 78 74 79 75 80 83 81 76 82 78 83 84 84 77 85 79 86
REMARK SMILES IDX 80 87 81 88 82 89 59 90 60 91 68 92 61 93 63 94 69 95 62 96
REMARK SMILES IDX 64 97 65 98 66 99 67 100
REMARK H PARENT 18 14 10 24 89 53 57 64
REMARK Flexibility Score: inf
ROOT
ATOM      1  C   UNL A   1      31.186  29.903  24.594  1.00  0.00     0.275 C 
ENDROOT
BRANCH   1   2
ATOM      2  O   UNL A   1      30.033  30.238  23.787  1.00  0.00    -0.458 OA
BRANCH   2   3
ATOM      3  C   UNL A   1      29.915  29.492  22.661  1.00  0.00     0.340 C 
ATOM      4  O   UNL A   1      29.858  29.943  21.531  1.00  0.00    -0.246 OA
BRANCH   3   5
ATOM      5  C   UNL A   1      29.847  28.033  22.912  1.00  0.00     0.083 A 
ATOM      6  C   UNL A   1      30.836  27.111  22.540  1.00  0.00     0.056 A 
ATOM      7  C   UNL A   1      30.633  25.749  22.843  1.00  0.00     0.027 A 
ATOM      8  C   UNL A   1      29.542  25.321  23.605  1.00  0.00     0.002 A 
ATOM      9  C   UNL A   1      28.738  27.576  23.653  1.00  0.00     0.018 A 
ATOM     10  C   UNL A   1      28.597  26.240  24.022  1.00  0.00     0.001 A 
BRANCH   6  11
ATOM     11  N   UNL A   1      32.068  27.389  21.912  1.00  0.00    -0.321 N 
ATOM     12  C   UNL A   1      33.378  27.325  22.334  1.00  0.00     0.255 C 
ATOM     13  O   UNL A   1      34.243  27.869  21.645  1.00  0.00    -0.269 OA
ATOM     14  H   UNL A   1      31.972  27.691  20.980  1.00  0.00     0.170 HD
BRANCH  12  15
ATOM     15  C   UNL A   1      33.805  26.564  23.540  1.00  0.00     0.042 A 
ATOM     16  C   UNL A   1      34.331  24.484  24.662  1.00  0.00     0.041 A 
ATOM     17  C   UNL A   1      34.205  25.135  25.897  1.00  0.00     0.026 A 
ATOM     18  C   UNL A   1      34.223  25.229  23.485  1.00  0.00     0.040 A 
ATOM     19  C   UNL A   1      33.935  26.503  25.956  1.00  0.00     0.003 A 
ATOM     20  C   UNL A   1      33.721  27.215  24.779  1.00  0.00     0.014 A 
BRANCH  16  21
ATOM     21  N   UNL A   1      34.386  23.075  24.685  1.00  0.00    -0.326 N 
ATOM     22  O   UNL A   1      32.447  22.491  25.830  1.00  0.00    -0.274 OA
ATOM     23  C   UNL A   1      33.546  22.204  25.359  1.00  0.00     0.228 C 
ATOM     24  H   UNL A   1      35.108  22.660  24.159  1.00  0.00     0.169 HD
BRANCH  23  25
ATOM     25  C   UNL A   1      34.151  20.824  25.596  1.00  0.00     0.135 C 
BRANCH  25  26
ATOM     26  C   UNL A   1      33.691  19.765  24.626  1.00  0.00    -0.039 A 
ATOM     27  C   UNL A   1      34.369  18.540  24.547  1.00  0.00     0.004 A 
ATOM     28  C   UNL A   1      32.577  19.985  23.800  1.00  0.00     0.004 A 
ATOM     29  C   UNL A   1      33.940  17.555  23.658  1.00  0.00     0.000 A 
ATOM     30  C   UNL A   1      32.150  18.994  22.917  1.00  0.00     0.000 A 
ATOM     31  C   UNL A   1      32.830  17.781  22.846  1.00  0.00     0.000 A 
ENDBRANCH  25  26
ENDBRANCH  23  25
ENDBRANCH  16  21
ENDBRANCH  12  15
ENDBRANCH   6  11
ENDBRANCH   3   5
ENDBRANCH   2   3
ENDBRANCH   1   2
BRANCH   1  32
ATOM     32  C   UNL A   1      31.311  30.717  25.884  1.00  0.00     0.275 C 
BRANCH  32  33
ATOM     33  O   UNL A   1      32.500  30.381  26.622  1.00  0.00    -0.458 OA
BRANCH  33  34
ATOM     34  C   UNL A   1      33.113  31.441  27.191  1.00  0.00     0.338 C 
ATOM     35  O   UNL A   1      32.592  32.489  27.544  1.00  0.00    -0.246 OA
BRANCH  34  36
ATOM     36  C   UNL A   1      34.534  31.172  27.446  1.00  0.00     0.060 A 
ATOM     37  C   UNL A   1      34.897  29.855  27.695  1.00  0.00     0.016 A 
ATOM     38  C   UNL A   1      35.421  32.201  27.738  1.00  0.00     0.016 A 
ATOM     39  C   UNL A   1      36.037  29.560  28.413  1.00  0.00     0.010 A 
ATOM     40  C   UNL A   1      36.655  31.888  28.322  1.00  0.00     0.010 A 
ATOM     41  C   UNL A   1      36.944  30.570  28.726  1.00  0.00    -0.014 A 
BRANCH  41  42
ATOM     42  C   UNL A   1      38.145  30.228  29.527  1.00  0.00     0.031 A 
ATOM     43  C   UNL A   1      39.204  29.337  28.940  1.00  0.00     0.074 A 
ATOM     44  C   UNL A   1      38.302  30.759  30.757  1.00  0.00     0.049 A 
ATOM     45  N   UNL A   1      40.238  28.792  29.524  1.00  0.00    -0.248 NA
ATOM     46  C   UNL A   1      39.075  28.997  27.512  1.00  0.00     0.031 C 
ATOM     47  C   UNL A   1      37.373  31.690  31.407  1.00  0.00     0.029 A 
ATOM     48  N   UNL A   1      39.299  30.595  31.683  1.00  0.00    -0.354 N 
ATOM     49  C   UNL A   1      40.821  27.968  28.569  1.00  0.00     0.074 A 
ATOM     50  C   UNL A   1      40.042  28.104  27.358  1.00  0.00     0.031 C 
ATOM     51  C   UNL A   1      37.857  32.038  32.606  1.00  0.00     0.029 A 
ATOM     52  C   UNL A   1      39.065  31.267  32.860  1.00  0.00     0.049 A 
ATOM     53  H   UNL A   1      40.103  30.051  31.521  1.00  0.00     0.167 HD
ATOM     54  C   UNL A   1      41.907  27.170  28.699  1.00  0.00     0.034 A 
ATOM     55  C   UNL A   1      39.713  31.219  34.038  1.00  0.00     0.034 A 
ATOM     56  C   UNL A   1      42.707  27.106  29.892  1.00  0.00     0.049 A 
ATOM     57  C   UNL A   1      40.907  30.317  34.155  1.00  0.00     0.074 A 
ATOM     58  C   UNL A   1      43.854  26.367  30.121  1.00  0.00     0.029 A 
ATOM     59  N   UNL A   1      42.446  27.810  31.059  1.00  0.00    -0.354 N 
ATOM     60  N   UNL A   1      41.461  29.559  33.240  1.00  0.00    -0.248 NA
ATOM     61  C   UNL A   1      41.571  30.271  35.462  1.00  0.00     0.031 C 
ATOM     62  C   UNL A   1      44.263  26.596  31.440  1.00  0.00     0.029 A 
ATOM     63  C   UNL A   1      43.398  27.514  32.017  1.00  0.00     0.049 A 
ATOM     64  H   UNL A   1      41.691  28.430  31.185  1.00  0.00     0.167 HD
ATOM     65  C   UNL A   1      42.559  28.967  33.850  1.00  0.00     0.074 A 
ATOM     66  C   UNL A   1      42.604  29.480  35.206  1.00  0.00     0.031 C 
ATOM     67  C   UNL A   1      43.441  28.068  33.346  1.00  0.00     0.034 A 
BRANCH  54  68
ATOM     68  C   UNL A   1      42.273  26.284  27.534  1.00  0.00     0.023 A 
ATOM     69  C   UNL A   1      43.078  26.771  26.485  1.00  0.00     0.012 A 
ATOM     70  C   UNL A   1      41.836  24.944  27.503  1.00  0.00     0.148 A 
ATOM     71  C   UNL A   1      43.410  25.950  25.406  1.00  0.00     0.002 A 
ATOM     72  C   UNL A   1      42.214  24.118  26.450  1.00  0.00     0.091 A 
ATOM     73  F   UNL A   1      41.050  24.505  28.495  1.00  0.00    -0.205 F 
ATOM     74  C   UNL A   1      42.988  24.622  25.394  1.00  0.00     0.022 A 
BRANCH  72  75
ATOM     75  S   UNL A   1      41.789  22.373  26.388  1.00  0.00     0.127 S 
ATOM     76  O   UNL A   1      42.616  21.907  25.277  1.00  0.00    -0.237 OA
ATOM     77  O   UNL A   1      42.219  21.908  27.706  1.00  0.00    -0.237 OA
ATOM     78  O   UNL A   1      40.351  22.316  26.164  1.00  0.00    -0.744 OA
ENDBRANCH  72  75
ENDBRANCH  54  68
BRANCH  55  79
ATOM     79  C   UNL A   1      39.236  32.040  35.188  1.00  0.00     0.023 A 
ATOM     80  C   UNL A   1      38.324  31.483  36.105  1.00  0.00     0.012 A 
ATOM     81  C   UNL A   1      39.708  33.352  35.403  1.00  0.00     0.148 A 
ATOM     82  C   UNL A   1      37.869  32.227  37.195  1.00  0.00     0.002 A 
ATOM     83  C   UNL A   1      39.304  34.060  36.527  1.00  0.00     0.091 A 
ATOM     84  F   UNL A   1      40.563  33.873  34.510  1.00  0.00    -0.205 F 
ATOM     85  C   UNL A   1      38.368  33.509  37.413  1.00  0.00     0.022 A 
BRANCH  83  86
ATOM     86  S   UNL A   1      40.008  35.656  36.962  1.00  0.00     0.127 S 
ATOM     87  O   UNL A   1      39.615  36.476  35.819  1.00  0.00    -0.237 OA
ATOM     88  O   UNL A   1      39.313  35.967  38.212  1.00  0.00    -0.237 OA
ATOM     89  O   UNL A   1      41.438  35.428  37.117  1.00  0.00    -0.744 OA
ENDBRANCH  83  86
ENDBRANCH  55  79
BRANCH  67  90
ATOM     90  C   UNL A   1      44.555  27.625  34.256  1.00  0.00     0.023 A 
ATOM     91  C   UNL A   1      45.765  28.346  34.298  1.00  0.00     0.012 A 
ATOM     92  C   UNL A   1      44.388  26.506  35.096  1.00  0.00     0.148 A 
ATOM     93  C   UNL A   1      46.810  27.929  35.120  1.00  0.00     0.002 A 
ATOM     94  C   UNL A   1      45.411  26.131  35.956  1.00  0.00     0.091 A 
ATOM     95  F   UNL A   1      43.236  25.823  35.028  1.00  0.00    -0.205 F 
ATOM     96  C   UNL A   1      46.630  26.829  35.956  1.00  0.00     0.022 A 
BRANCH  94  97
ATOM     97  S   UNL A   1      45.225  24.793  37.138  1.00  0.00     0.127 S 
ATOM     98  O   UNL A   1      45.000  23.648  36.259  1.00  0.00    -0.237 OA
ATOM     99  O   UNL A   1      46.521  24.797  37.817  1.00  0.00    -0.237 OA
ATOM    100  O   UNL A   1      44.101  25.164  37.987  1.00  0.00    -0.744 OA
ENDBRANCH  94  97
ENDBRANCH  67  90
ENDBRANCH  41  42
ENDBRANCH  34  36
ENDBRANCH  33  34
ENDBRANCH  32  33
ENDBRANCH   1  32
TORSDOF 19
ENDMDL
MODEL 2
REMARK VINA RESULT:     -12.7      1.797      2.647
REMARK SMILES O=C(Cc1ccccc1)Nc1cccc(C(=O)Nc2ccccc2C(=O)OCCOC(=O)c2ccc(-c3c4nc(c(-c5cccc(S(=O)(=O)[O-])c5F)c5ccc([nH]5)c(-c5cccc(S(=O)(=O)[O-])c5F)c5nc(c(-c6cccc(S(=O)(=O)[O-])c6F)c6ccc3[nH]6)C=C5)C=C4)cc2)c1
REMARK SMILES IDX 28 1 27 2 25 3 26 4 24 5 19 6 20 7 21 8 23 9 22 10 18 11
REMARK SMILES IDX 16 12 17 13 15 15 11 16 12 17 96 18 13 19 14 20 10 21 1 22
REMARK SMILES IDX 2 23 3 25 4 26 5 27 9 28 6 29 8 30 7 31 29 32 30 33 31 34
REMARK SMILES IDX 32 35 33 36 34 37 95 38 35 39 94 40 36 41 37 42 38 43 88 44
REMARK SMILES IDX 39 45 93 46 87 47 89 48 40 49 92 50 86 51 85 52 41 54 73 55
REMARK SMILES IDX 53 56 72 57 54 58 57 59 71 60 90 61 55 62 56 63 70 65 91 66
REMARK SMILES IDX 58 67 42 68 43 69 51 70 44 71 46 72 52 73 45 74 47 75 48 76
REMARK SMILES IDX 49 77 50 78 74 79 75 80 83 81 76 82 78 83 84 84 77 85 79 86
REMARK SMILES IDX 80 87 81 88 82 89 59 90 60 91 68 92 61 93 63 94 69 95 62 96
REMARK SMILES IDX 64 97 65 98 66 99 67 100
REMARK H PARENT 18 14 10 24 89 53 57 64
REMARK Flexibility Score: inf
ROOT
ATOM      1  C   UNL A   1      31.720  29.826  25.525  1.00  0.00     0.275 C 
ENDROOT
BRANCH   1   2
ATOM      2  O   UNL A   1      32.917  29.013  25.483  1.00  0.00    -0.458 OA
BRANCH   2   3
ATOM      3  C   UNL A   1      32.696  27.698  25.732  1.00  0.00     0.340 C 
ATOM      4  O   UNL A   1      32.834  27.164  26.817  1.00  0.00    -0.246 OA
BRANCH   3   5
ATOM      5  C   UNL A   1      32.269  26.926  24.541  1.00  0.00     0.083 A 
ATOM      6  C   UNL A   1      31.384  25.838  24.569  1.00  0.00     0.056 A 
ATOM      7  C   UNL A   1      31.070  25.196  23.353  1.00  0.00     0.027 A 
ATOM      8  C   UNL A   1      31.517  25.692  22.125  1.00  0.00     0.002 A 
ATOM      9  C   UNL A   1      32.733  27.391  23.293  1.00  0.00     0.018 A 
ATOM     10  C   UNL A   1      32.343  26.800  22.094  1.00  0.00     0.001 A 
BRANCH   6  11
ATOM     11  N   UNL A   1      30.717  25.311  25.693  1.00  0.00    -0.321 N 
ATOM     12  C   UNL A   1      30.821  24.121  26.381  1.00  0.00     0.255 C 
ATOM     13  O   UNL A   1      29.931  23.827  27.181  1.00  0.00    -0.269 OA
ATOM     14  H   UNL A   1      30.035  25.918  26.063  1.00  0.00     0.170 HD
BRANCH  12  15
ATOM     15  C   UNL A   1      31.995  23.215  26.260  1.00  0.00     0.042 A 
ATOM     16  C   UNL A   1      33.137  21.346  25.228  1.00  0.00     0.041 A 
ATOM     17  C   UNL A   1      34.010  21.293  26.324  1.00  0.00     0.026 A 
ATOM     18  C   UNL A   1      32.192  22.372  25.159  1.00  0.00     0.040 A 
ATOM     19  C   UNL A   1      33.914  22.227  27.356  1.00  0.00     0.003 A 
ATOM     20  C   UNL A   1      32.899  23.179  27.331  1.00  0.00     0.014 A 
BRANCH  16  21
ATOM     21  N   UNL A   1      33.155  20.247  24.343  1.00  0.00    -0.326 N 
ATOM     22  O   UNL A   1      31.958  21.031  22.509  1.00  0.00    -0.274 OA
ATOM     23  C   UNL A   1      32.475  20.113  23.144  1.00  0.00     0.228 C 
ATOM     24  H   UNL A   1      33.717  19.484  24.610  1.00  0.00     0.169 HD
BRANCH  23  25
ATOM     25  C   UNL A   1      32.297  18.666  22.695  1.00  0.00     0.135 C 
BRANCH  25  26
ATOM     26  C   UNL A   1      32.879  17.643  23.639  1.00  0.00    -0.039 A 
ATOM     27  C   UNL A   1      34.082  16.997  23.321  1.00  0.00     0.004 A 
ATOM     28  C   UNL A   1      32.234  17.334  24.847  1.00  0.00     0.004 A 
ATOM     29  C   UNL A   1      34.628  16.058  24.196  1.00  0.00     0.000 A 
ATOM     30  C   UNL A   1      32.787  16.399  25.720  1.00  0.00     0.000 A 
ATOM     31  C   UNL A   1      33.982  15.762  25.395  1.00  0.00     0.000 A 
ENDBRANCH  25  26
ENDBRANCH  23  25
ENDBRANCH  16  21
ENDBRANCH  12  15
ENDBRANCH   6  11
ENDBRANCH   3   5
ENDBRANCH   2   3
ENDBRANCH   1   2
BRANCH   1  32
ATOM     32  C   UNL A   1      31.841  31.082  26.392  1.00  0.00     0.275 C 
BRANCH  32  33
ATOM     33  O   UNL A   1      32.813  30.922  27.442  1.00  0.00    -0.458 OA
BRANCH  33  34
ATOM     34  C   UNL A   1      33.607  31.999  27.624  1.00  0.00     0.338 C 
ATOM     35  O   UNL A   1      33.254  33.165  27.720  1.00  0.00    -0.246 OA
BRANCH  34  36
ATOM     36  C   UNL A   1      35.013  31.610  27.799  1.00  0.00     0.060 A 
ATOM     37  C   UNL A   1      35.276  30.268  28.038  1.00  0.00     0.016 A 
ATOM     38  C   UNL A   1      36.000  32.560  28.032  1.00  0.00     0.016 A 
ATOM     39  C   UNL A   1      36.427  29.878  28.692  1.00  0.00     0.010 A 
ATOM     40  C   UNL A   1      37.234  32.145  28.546  1.00  0.00     0.010 A 
ATOM     41  C   UNL A   1      37.433  30.809  28.943  1.00  0.00    -0.014 A 
BRANCH  41  42
ATOM     42  C   UNL A   1      38.645  30.368  29.677  1.00  0.00     0.031 A 
ATOM     43  C   UNL A   1      39.588  29.387  29.038  1.00  0.00     0.074 A 
ATOM     44  C   UNL A   1      38.919  30.888  30.891  1.00  0.00     0.049 A 
ATOM     45  N   UNL A   1      40.604  28.757  29.566  1.00  0.00    -0.248 NA
ATOM     46  C   UNL A   1      39.348  29.053  27.622  1.00  0.00     0.031 C 
ATOM     47  C   UNL A   1      38.112  31.898  31.585  1.00  0.00     0.029 A 
ATOM     48  N   UNL A   1      39.950  30.643  31.760  1.00  0.00    -0.354 N 
ATOM     49  C   UNL A   1      41.058  27.883  28.586  1.00  0.00     0.074 A 
ATOM     50  C   UNL A   1      40.224  28.080  27.421  1.00  0.00     0.031 C 
ATOM     51  C   UNL A   1      38.693  32.208  32.751  1.00  0.00     0.029 A 
ATOM     52  C   UNL A   1      39.844  31.337  32.942  1.00  0.00     0.049 A 
ATOM     53  H   UNL A   1      40.694  30.031  31.556  1.00  0.00     0.167 HD
ATOM     54  C   UNL A   1      42.077  26.994  28.660  1.00  0.00     0.034 A 
ATOM     55  C   UNL A   1      40.553  31.239  34.081  1.00  0.00     0.034 A 
ATOM     56  C   UNL A   1      42.937  26.867  29.805  1.00  0.00     0.049 A 
ATOM     57  C   UNL A   1      41.670  30.237  34.137  1.00  0.00     0.074 A 
ATOM     58  C   UNL A   1      44.028  26.033  29.975  1.00  0.00     0.029 A 
ATOM     59  N   UNL A   1      42.805  27.595  30.979  1.00  0.00    -0.354 N 
ATOM     60  N   UNL A   1      42.103  29.431  33.197  1.00  0.00    -0.248 NA
ATOM     61  C   UNL A   1      42.402  30.140  35.404  1.00  0.00     0.031 C 
ATOM     62  C   UNL A   1      44.531  26.232  31.265  1.00  0.00     0.029 A 
ATOM     63  C   UNL A   1      43.783  27.222  31.884  1.00  0.00     0.049 A 
ATOM     64  H   UNL A   1      42.115  28.278  31.143  1.00  0.00     0.167 HD
ATOM     65  C   UNL A   1      43.180  28.749  33.749  1.00  0.00     0.074 A 
ATOM     66  C   UNL A   1      43.348  29.263  35.095  1.00  0.00     0.031 C 
ATOM     67  C   UNL A   1      43.951  27.776  33.203  1.00  0.00     0.034 A 
BRANCH  54  68
ATOM     68  C   UNL A   1      42.297  26.076  27.484  1.00  0.00     0.023 A 
ATOM     69  C   UNL A   1      42.970  26.530  26.333  1.00  0.00     0.012 A 
ATOM     70  C   UNL A   1      41.858  24.737  27.543  1.00  0.00     0.148 A 
ATOM     71  C   UNL A   1      43.168  25.679  25.244  1.00  0.00     0.002 A 
ATOM     72  C   UNL A   1      42.103  23.882  26.475  1.00  0.00     0.091 A 
ATOM     73  F   UNL A   1      41.196  24.329  28.635  1.00  0.00    -0.205 F 
ATOM     74  C   UNL A   1      42.745  24.354  25.319  1.00  0.00     0.022 A 
BRANCH  72  75
ATOM     75  S   UNL A   1      41.671  22.138  26.513  1.00  0.00     0.127 S 
ATOM     76  O   UNL A   1      40.210  22.196  26.475  1.00  0.00    -0.237 OA
ATOM     77  O   UNL A   1      42.293  21.644  25.285  1.00  0.00    -0.237 OA
ATOM     78  O   UNL A   1      42.243  21.607  27.742  1.00  0.00    -0.744 OA
ENDBRANCH  72  75
ENDBRANCH  54  68
BRANCH  55  79
ATOM     79  C   UNL A   1      40.215  32.102  35.249  1.00  0.00     0.023 A 
ATOM     80  C   UNL A   1      40.956  33.277  35.478  1.00  0.00     0.012 A 
ATOM     81  C   UNL A   1      39.143  31.790  36.110  1.00  0.00     0.148 A 
ATOM     82  C   UNL A   1      40.655  34.107  36.560  1.00  0.00     0.002 A 
ATOM     83  C   UNL A   1      38.806  32.656  37.142  1.00  0.00     0.091 A 
ATOM     84  F   UNL A   1      38.459  30.658  35.888  1.00  0.00    -0.205 F 
ATOM     85  C   UNL A   1      39.574  33.804  37.383  1.00  0.00     0.022 A 
BRANCH  83  86
ATOM     86  S   UNL A   1      37.341  32.418  38.157  1.00  0.00     0.127 S 
ATOM     87  O   UNL A   1      37.245  30.962  38.205  1.00  0.00    -0.237 OA
ATOM     88  O   UNL A   1      37.735  33.053  39.416  1.00  0.00    -0.237 OA
ATOM     89  O   UNL A   1      36.262  33.103  37.458  1.00  0.00    -0.744 OA
ENDBRANCH  83  86
ENDBRANCH  55  79
BRANCH  67  90
ATOM     90  C   UNL A   1      45.074  27.243  34.051  1.00  0.00     0.023 A 
ATOM     91  C   UNL A   1      46.334  27.873  34.036  1.00  0.00     0.012 A 
ATOM     92  C   UNL A   1      44.868  26.129  34.889  1.00  0.00     0.148 A 
ATOM     93  C   UNL A   1      47.386  27.372  34.800  1.00  0.00     0.002 A 
ATOM     94  C   UNL A   1      45.904  25.671  35.692  1.00  0.00     0.091 A 
ATOM     95  F   UNL A   1      43.667  25.532  34.875  1.00  0.00    -0.205 F 
ATOM     96  C   UNL A   1      47.168  26.278  35.636  1.00  0.00     0.022 A 
BRANCH  94  97
ATOM     97  S   UNL A   1      45.680  24.336  36.872  1.00  0.00     0.127 S 
ATOM     98  O   UNL A   1      44.608  24.861  37.716  1.00  0.00    -0.237 OA
ATOM     99  O   UNL A   1      45.287  23.222  36.008  1.00  0.00    -0.237 OA
ATOM    100  O   UNL A   1      46.969  24.163  37.529  1.00  0.00    -0.744 OA
ENDBRANCH  94  97
ENDBRANCH  67  90
ENDBRANCH  41  42
ENDBRANCH  34  36
ENDBRANCH  33  34
ENDBRANCH  32  33
ENDBRANCH   1  32
TORSDOF 19
ENDMDL
MODEL 3
REMARK VINA RESULT:     -12.6      1.672      7.941
REMARK SMILES O=C(Cc1ccccc1)Nc1cccc(C(=O)Nc2ccccc2C(=O)OCCOC(=O)c2ccc(-c3c4nc(c(-c5cccc(S(=O)(=O)[O-])c5F)c5ccc([nH]5)c(-c5cccc(S(=O)(=O)[O-])c5F)c5nc(c(-c6cccc(S(=O)(=O)[O-])c6F)c6ccc3[nH]6)C=C5)C=C4)cc2)c1
REMARK SMILES IDX 28 1 27 2 25 3 26 4 24 5 19 6 20 7 21 8 23 9 22 10 18 11
REMARK SMILES IDX 16 12 17 13 15 15 11 16 12 17 96 18 13 19 14 20 10 21 1 22
REMARK SMILES IDX 2 23 3 25 4 26 5 27 9 28 6 29 8 30 7 31 29 32 30 33 31 34
REMARK SMILES IDX 32 35 33 36 34 37 95 38 35 39 94 40 36 41 37 42 38 43 88 44
REMARK SMILES IDX 39 45 93 46 87 47 89 48 40 49 92 50 86 51 85 52 41 54 73 55
REMARK SMILES IDX 53 56 72 57 54 58 57 59 71 60 90 61 55 62 56 63 70 65 91 66
REMARK SMILES IDX 58 67 42 68 43 69 51 70 44 71 46 72 52 73 45 74 47 75 48 76
REMARK SMILES IDX 49 77 50 78 74 79 75 80 83 81 76 82 78 83 84 84 77 85 79 86
REMARK SMILES IDX 80 87 81 88 82 89 59 90 60 91 68 92 61 93 63 94 69 95 62 96
REMARK SMILES IDX 64 97 65 98 66 99 67 100
REMARK H PARENT 18 14 10 24 89 53 57 64
REMARK Flexibility Score: inf
ROOT
ATOM      1  C   UNL A   1      31.642  30.029  25.283  1.00  0.00     0.275 C 
ENDROOT
BRANCH   1   2
ATOM      2  O   UNL A   1      32.908  29.345  25.138  1.00  0.00    -0.458 OA
BRANCH   2   3
ATOM      3  C   UNL A   1      32.863  28.030  25.467  1.00  0.00     0.340 C 
ATOM      4  O   UNL A   1      33.038  27.587  26.587  1.00  0.00    -0.246 OA
BRANCH   3   5
ATOM      5  C   UNL A   1      32.584  27.134  24.318  1.00  0.00     0.083 A 
ATOM      6  C   UNL A   1      31.671  26.070  24.338  1.00  0.00     0.056 A 
ATOM      7  C   UNL A   1      31.513  25.299  23.168  1.00  0.00     0.027 A 
ATOM      8  C   UNL A   1      32.144  25.646  21.970  1.00  0.00     0.002 A 
ATOM      9  C   UNL A   1      33.236  27.447  23.108  1.00  0.00     0.018 A 
ATOM     10  C   UNL A   1      33.001  26.731  21.937  1.00  0.00     0.001 A 
BRANCH   6  11
ATOM     11  N   UNL A   1      30.835  25.684  25.406  1.00  0.00    -0.321 N 
ATOM     12  C   UNL A   1      30.723  24.528  26.146  1.00  0.00     0.255 C 
ATOM     13  O   UNL A   1      29.727  24.382  26.859  1.00  0.00    -0.269 OA
ATOM     14  H   UNL A   1      30.199  26.385  25.677  1.00  0.00     0.170 HD
BRANCH  12  15
ATOM     15  C   UNL A   1      31.783  23.484  26.185  1.00  0.00     0.042 A 
ATOM     16  C   UNL A   1      34.098  22.817  26.431  1.00  0.00     0.041 A 
ATOM     17  C   UNL A   1      33.788  21.580  25.851  1.00  0.00     0.026 A 
ATOM     18  C   UNL A   1      33.070  23.729  26.682  1.00  0.00     0.040 A 
ATOM     19  C   UNL A   1      32.476  21.272  25.490  1.00  0.00     0.003 A 
ATOM     20  C   UNL A   1      31.476  22.228  25.643  1.00  0.00     0.014 A 
BRANCH  16  21
ATOM     21  N   UNL A   1      35.465  23.136  26.566  1.00  0.00    -0.326 N 
ATOM     22  O   UNL A   1      36.000  24.045  24.492  1.00  0.00    -0.274 OA
ATOM     23  C   UNL A   1      36.332  23.586  25.584  1.00  0.00     0.228 C 
ATOM     24  H   UNL A   1      35.850  23.026  27.466  1.00  0.00     0.169 HD
BRANCH  23  25
ATOM     25  C   UNL A   1      37.805  23.354  25.909  1.00  0.00     0.135 C 
BRANCH  25  26
ATOM     26  C   UNL A   1      38.263  21.927  25.750  1.00  0.00    -0.039 A 
ATOM     27  C   UNL A   1      37.464  21.003  25.062  1.00  0.00     0.004 A 
ATOM     28  C   UNL A   1      39.495  21.507  26.276  1.00  0.00     0.004 A 
ATOM     29  C   UNL A   1      37.889  19.685  24.904  1.00  0.00     0.000 A 
ATOM     30  C   UNL A   1      39.918  20.189  26.112  1.00  0.00     0.000 A 
ATOM     31  C   UNL A   1      39.116  19.279  25.427  1.00  0.00     0.000 A 
ENDBRANCH  25  26
ENDBRANCH  23  25
ENDBRANCH  16  21
ENDBRANCH  12  15
ENDBRANCH   6  11
ENDBRANCH   3   5
ENDBRANCH   2   3
ENDBRANCH   1   2
BRANCH   1  32
ATOM     32  C   UNL A   1      31.665  31.196  26.274  1.00  0.00     0.275 C 
BRANCH  32  33
ATOM     33  O   UNL A   1      32.598  30.975  27.348  1.00  0.00    -0.458 OA
BRANCH  33  34
ATOM     34  C   UNL A   1      33.468  31.990  27.538  1.00  0.00     0.338 C 
ATOM     35  O   UNL A   1      33.205  33.183  27.591  1.00  0.00    -0.246 OA
BRANCH  34  36
ATOM     36  C   UNL A   1      34.829  31.496  27.781  1.00  0.00     0.060 A 
ATOM     37  C   UNL A   1      34.990  30.126  27.940  1.00  0.00     0.016 A 
ATOM     38  C   UNL A   1      35.854  32.359  28.151  1.00  0.00     0.016 A 
ATOM     39  C   UNL A   1      36.063  29.616  28.641  1.00  0.00     0.010 A 
ATOM     40  C   UNL A   1      37.018  31.827  28.718  1.00  0.00     0.010 A 
ATOM     41  C   UNL A   1      37.103  30.457  29.030  1.00  0.00    -0.014 A 
BRANCH  41  42
ATOM     42  C   UNL A   1      38.228  29.887  29.811  1.00  0.00     0.031 A 
ATOM     43  C   UNL A   1      38.355  30.203  31.276  1.00  0.00     0.074 A 
ATOM     44  C   UNL A   1      39.102  29.051  29.214  1.00  0.00     0.049 A 
ATOM     45  N   UNL A   1      39.342  29.943  32.091  1.00  0.00    -0.248 NA
ATOM     46  C   UNL A   1      37.233  30.923  31.903  1.00  0.00     0.031 C 
ATOM     47  C   UNL A   1      39.043  28.618  27.813  1.00  0.00     0.029 A 
ATOM     48  N   UNL A   1      40.211  28.412  29.705  1.00  0.00    -0.354 N 
ATOM     49  C   UNL A   1      39.008  30.553  33.295  1.00  0.00     0.074 A 
ATOM     50  C   UNL A   1      37.716  31.175  33.112  1.00  0.00     0.031 C 
ATOM     51  C   UNL A   1      40.045  27.764  27.568  1.00  0.00     0.029 A 
ATOM     52  C   UNL A   1      40.885  27.682  28.754  1.00  0.00     0.049 A 
ATOM     53  H   UNL A   1      40.495  28.469  30.646  1.00  0.00     0.167 HD
ATOM     54  C   UNL A   1      39.723  30.590  34.444  1.00  0.00     0.034 A 
ATOM     55  C   UNL A   1      42.080  27.066  28.809  1.00  0.00     0.034 A 
ATOM     56  C   UNL A   1      40.974  29.904  34.624  1.00  0.00     0.049 A 
ATOM     57  C   UNL A   1      42.854  27.134  30.094  1.00  0.00     0.074 A 
ATOM     58  C   UNL A   1      41.763  29.834  35.757  1.00  0.00     0.029 A 
ATOM     59  N   UNL A   1      41.619  29.165  33.642  1.00  0.00    -0.354 N 
ATOM     60  N   UNL A   1      42.520  27.696  31.230  1.00  0.00    -0.248 NA
ATOM     61  C   UNL A   1      44.164  26.475  30.106  1.00  0.00     0.031 C 
ATOM     62  C   UNL A   1      42.904  29.085  35.448  1.00  0.00     0.029 A 
ATOM     63  C   UNL A   1      42.803  28.647  34.136  1.00  0.00     0.049 A 
ATOM     64  H   UNL A   1      41.282  29.029  32.727  1.00  0.00     0.167 HD
ATOM     65  C   UNL A   1      43.564  27.433  32.106  1.00  0.00     0.074 A 
ATOM     66  C   UNL A   1      44.529  26.636  31.371  1.00  0.00     0.031 C 
ATOM     67  C   UNL A   1      43.725  27.826  33.394  1.00  0.00     0.034 A 
BRANCH  54  68
ATOM     68  C   UNL A   1      39.184  31.420  35.582  1.00  0.00     0.023 A 
ATOM     69  C   UNL A   1      38.275  30.868  36.507  1.00  0.00     0.012 A 
ATOM     70  C   UNL A   1      39.614  32.752  35.749  1.00  0.00     0.148 A 
ATOM     71  C   UNL A   1      37.774  31.641  37.556  1.00  0.00     0.002 A 
ATOM     72  C   UNL A   1      39.150  33.499  36.826  1.00  0.00     0.091 A 
ATOM     73  F   UNL A   1      40.459  33.269  34.846  1.00  0.00    -0.205 F 
ATOM     74  C   UNL A   1      38.218  32.951  37.722  1.00  0.00     0.022 A 
BRANCH  72  75
ATOM     75  S   UNL A   1      39.728  35.165  37.169  1.00  0.00     0.127 S 
ATOM     76  O   UNL A   1      39.281  35.884  35.978  1.00  0.00    -0.237 OA
ATOM     77  O   UNL A   1      38.996  35.495  38.391  1.00  0.00    -0.237 OA
ATOM     78  O   UNL A   1      41.172  35.065  37.334  1.00  0.00    -0.744 OA
ENDBRANCH  72  75
ENDBRANCH  54  68
BRANCH  55  79
ATOM     79  C   UNL A   1      42.609  26.351  27.612  1.00  0.00     0.023 A 
ATOM     80  C   UNL A   1      43.188  27.091  26.564  1.00  0.00     0.012 A 
ATOM     81  C   UNL A   1      42.578  24.945  27.522  1.00  0.00     0.148 A 
ATOM     82  C   UNL A   1      43.699  26.446  25.436  1.00  0.00     0.002 A 
ATOM     83  C   UNL A   1      43.151  24.306  26.430  1.00  0.00     0.091 A 
ATOM     84  F   UNL A   1      42.007  24.256  28.521  1.00  0.00    -0.205 F 
ATOM     85  C   UNL A   1      43.692  25.055  25.375  1.00  0.00     0.022 A 
BRANCH  83  86
ATOM     86  S   UNL A   1      43.316  22.518  26.339  1.00  0.00     0.127 S 
ATOM     87  O   UNL A   1      42.675  22.224  25.060  1.00  0.00    -0.237 OA
ATOM     88  O   UNL A   1      44.770  22.343  26.355  1.00  0.00    -0.237 OA
ATOM     89  O   UNL A   1      42.641  21.999  27.520  1.00  0.00    -0.744 OA
ENDBRANCH  83  86
ENDBRANCH  55  79
BRANCH  67  90
ATOM     90  C   UNL A   1      44.969  27.355  34.099  1.00  0.00     0.023 A 
ATOM     91  C   UNL A   1      46.126  28.160  34.107  1.00  0.00     0.012 A 
ATOM     92  C   UNL A   1      44.979  26.123  34.781  1.00  0.00     0.148 A 
ATOM     93  C   UNL A   1      47.289  27.722  34.737  1.00  0.00     0.002 A 
ATOM     94  C   UNL A   1      46.124  25.719  35.457  1.00  0.00     0.091 A 
ATOM     95  F   UNL A   1      43.875  25.363  34.747  1.00  0.00    -0.205 F 
ATOM     96  C   UNL A   1      47.285  26.507  35.420  1.00  0.00     0.022 A 
BRANCH  94  97
ATOM     97  S   UNL A   1      46.172  24.223  36.447  1.00  0.00     0.127 S 
ATOM     98  O   UNL A   1      47.438  24.378  37.161  1.00  0.00    -0.237 OA
ATOM     99  O   UNL A   1      44.978  24.365  37.282  1.00  0.00    -0.237 OA
ATOM    100  O   UNL A   1      46.116  23.116  35.502  1.00  0.00    -0.744 OA
ENDBRANCH  94  97
ENDBRANCH  67  90
ENDBRANCH  41  42
ENDBRANCH  34  36
ENDBRANCH  33  34
ENDBRANCH  32  33
ENDBRANCH   1  32
TORSDOF 19
ENDMDL
