MODEL 1
REMARK VINA RESULT:     -12.3      0.000      0.000
REMARK SMILES O=C(OCCOC(=O)c1ccccc1Nc1cccc(C(F)(F)F)c1)c1ccc(-c2c3nc(c(-c4cccc(S(=O)(=O)[O-])c4F)c4ccc([nH]4)c(-c4cccc(S(=O)(=O)[O-])c4F)c4nc(c(-c5cccc(S(=O)(=O)[O-])c5F)c5ccc2[nH]5)C=C4)C=C3)cc1
REMARK SMILES IDX 4 1 3 2 2 3 1 4 26 5 27 6 88 7 28 8 87 9 29 10 30 11 31 12
REMARK SMILES IDX 81 13 32 14 86 15 80 16 82 17 33 18 85 19 79 20 78 21 34 23
REMARK SMILES IDX 66 24 46 25 65 26 47 27 50 28 64 29 83 30 48 31 49 32 63 34
REMARK SMILES IDX 84 35 51 36 35 37 36 38 44 39 37 40 39 41 45 42 38 43 40 44
REMARK SMILES IDX 41 45 42 46 43 47 67 48 68 49 76 50 69 51 71 52 77 53 70 54
REMARK SMILES IDX 72 55 73 56 74 57 75 58 52 59 53 60 61 61 54 62 56 63 62 64
REMARK SMILES IDX 55 65 57 66 58 67 59 68 60 69 5 70 6 71 7 72 8 73 9 74 10 75
REMARK SMILES IDX 14 76 11 77 13 78 12 79 15 80 16 82 17 83 25 84 18 85 20 86
REMARK SMILES IDX 19 87 21 88 22 89 23 90 24 91
REMARK H PARENT 82 22 50 33 15 81
REMARK Flexibility Score: inf
ROOT
ATOM      1  C   UNL A   1      32.445  30.111  25.876  1.00  0.00     0.275 C 
ENDROOT
BRANCH   1   2
ATOM      2  O   UNL A   1      32.325  31.261  26.730  1.00  0.00    -0.458 OA
BRANCH   2   3
ATOM      3  C   UNL A   1      33.268  31.952  27.411  1.00  0.00     0.338 C 
ATOM      4  O   UNL A   1      33.108  33.166  27.540  1.00  0.00    -0.246 OA
BRANCH   3   5
ATOM      5  C   UNL A   1      34.553  31.368  27.924  1.00  0.00     0.060 A 
ATOM      6  C   UNL A   1      34.788  30.031  28.262  1.00  0.00     0.016 A 
ATOM      7  C   UNL A   1      35.620  32.275  28.093  1.00  0.00     0.016 A 
ATOM      8  C   UNL A   1      36.035  29.610  28.738  1.00  0.00     0.010 A 
ATOM      9  C   UNL A   1      36.871  31.861  28.565  1.00  0.00     0.010 A 
ATOM     10  C   UNL A   1      37.075  30.524  28.906  1.00  0.00    -0.014 A 
BRANCH  10  11
ATOM     11  C   UNL A   1      38.311  30.094  29.599  1.00  0.00     0.031 A 
ATOM     12  C   UNL A   1      38.491  30.508  31.018  1.00  0.00     0.074 A 
ATOM     13  C   UNL A   1      39.233  29.342  28.976  1.00  0.00     0.049 A 
ATOM     14  N   UNL A   1      39.419  30.155  31.861  1.00  0.00    -0.248 NA
ATOM     15  C   UNL A   1      37.498  31.450  31.557  1.00  0.00     0.031 C 
ATOM     16  C   UNL A   1      39.117  28.927  27.593  1.00  0.00     0.029 A 
ATOM     17  N   UNL A   1      40.411  28.775  29.387  1.00  0.00    -0.354 N 
ATOM     18  C   UNL A   1      39.164  30.884  33.011  1.00  0.00     0.074 A 
ATOM     19  C   UNL A   1      37.973  31.667  32.772  1.00  0.00     0.031 C 
ATOM     20  C   UNL A   1      40.144  28.133  27.263  1.00  0.00     0.029 A 
ATOM     21  C   UNL A   1      41.010  27.986  28.424  1.00  0.00     0.049 A 
ATOM     22  H   UNL A   1      40.796  28.917  30.282  1.00  0.00     0.167 HD
ATOM     23  C   UNL A   1      39.892  30.918  34.149  1.00  0.00     0.034 A 
ATOM     24  C   UNL A   1      42.104  27.199  28.497  1.00  0.00     0.034 A 
ATOM     25  C   UNL A   1      41.091  30.151  34.336  1.00  0.00     0.049 A 
ATOM     26  C   UNL A   1      42.816  27.150  29.826  1.00  0.00     0.074 A 
ATOM     27  C   UNL A   1      41.942  30.131  35.423  1.00  0.00     0.029 A 
ATOM     28  N   UNL A   1      41.619  29.278  33.392  1.00  0.00    -0.354 N 
ATOM     29  N   UNL A   1      42.500  27.756  30.948  1.00  0.00    -0.248 NA
ATOM     30  C   UNL A   1      44.010  26.301  29.919  1.00  0.00     0.031 C 
ATOM     31  C   UNL A   1      43.001  29.266  35.125  1.00  0.00     0.029 A 
ATOM     32  C   UNL A   1      42.789  28.718  33.866  1.00  0.00     0.049 A 
ATOM     33  H   UNL A   1      41.217  29.087  32.514  1.00  0.00     0.167 HD
ATOM     34  C   UNL A   1      43.440  27.350  31.884  1.00  0.00     0.074 A 
ATOM     35  C   UNL A   1      44.312  26.407  31.208  1.00  0.00     0.031 C 
ATOM     36  C   UNL A   1      43.598  27.745  33.172  1.00  0.00     0.034 A 
BRANCH  23  37
ATOM     37  C   UNL A   1      39.429  31.875  35.210  1.00  0.00     0.023 A 
ATOM     38  C   UNL A   1      39.848  33.221  35.185  1.00  0.00     0.012 A 
ATOM     39  C   UNL A   1      38.639  31.414  36.279  1.00  0.00     0.148 A 
ATOM     40  C   UNL A   1      39.532  34.079  36.237  1.00  0.00     0.002 A 
ATOM     41  C   UNL A   1      38.289  32.288  37.300  1.00  0.00     0.091 A 
ATOM     42  F   UNL A   1      38.284  30.122  36.303  1.00  0.00    -0.205 F 
ATOM     43  C   UNL A   1      38.748  33.614  37.291  1.00  0.00     0.022 A 
BRANCH  41  44
ATOM     44  S   UNL A   1      37.237  31.795  38.670  1.00  0.00     0.127 S 
ATOM     45  O   UNL A   1      38.095  32.081  39.818  1.00  0.00    -0.237 OA
ATOM     46  O   UNL A   1      36.097  32.700  38.519  1.00  0.00    -0.237 OA
ATOM     47  O   UNL A   1      36.928  30.390  38.453  1.00  0.00    -0.744 OA
ENDBRANCH  41  44
ENDBRANCH  23  37
BRANCH  24  48
ATOM     48  C   UNL A   1      42.474  26.293  27.359  1.00  0.00     0.023 A 
ATOM     49  C   UNL A   1      43.356  26.770  26.366  1.00  0.00     0.012 A 
ATOM     50  C   UNL A   1      42.043  24.953  27.278  1.00  0.00     0.148 A 
ATOM     51  C   UNL A   1      43.787  25.952  25.320  1.00  0.00     0.002 A 
ATOM     52  C   UNL A   1      42.533  24.120  26.272  1.00  0.00     0.091 A 
ATOM     53  F   UNL A   1      41.179  24.502  28.199  1.00  0.00    -0.205 F 
ATOM     54  C   UNL A   1      43.390  24.621  25.282  1.00  0.00     0.022 A 
BRANCH  52  55
ATOM     55  S   UNL A   1      42.216  22.349  26.247  1.00  0.00     0.127 S 
ATOM     56  O   UNL A   1      42.718  21.935  27.555  1.00  0.00    -0.237 OA
ATOM     57  O   UNL A   1      40.759  22.303  26.104  1.00  0.00    -0.237 OA
ATOM     58  O   UNL A   1      42.943  21.840  25.092  1.00  0.00    -0.744 OA
ENDBRANCH  52  55
ENDBRANCH  24  48
BRANCH  36  59
ATOM     59  C   UNL A   1      44.756  27.164  33.935  1.00  0.00     0.023 A 
ATOM     60  C   UNL A   1      46.019  27.785  33.854  1.00  0.00     0.012 A 
ATOM     61  C   UNL A   1      44.565  26.087  34.820  1.00  0.00     0.148 A 
ATOM     62  C   UNL A   1      47.084  27.323  34.623  1.00  0.00     0.002 A 
ATOM     63  C   UNL A   1      45.618  25.664  35.621  1.00  0.00     0.091 A 
ATOM     64  F   UNL A   1      43.359  25.504  34.867  1.00  0.00    -0.205 F 
ATOM     65  C   UNL A   1      46.879  26.273  35.516  1.00  0.00     0.022 A 
BRANCH  63  66
ATOM     66  S   UNL A   1      45.422  24.395  36.875  1.00  0.00     0.127 S 
ATOM     67  O   UNL A   1      46.663  24.536  37.636  1.00  0.00    -0.237 OA
ATOM     68  O   UNL A   1      44.219  24.839  37.580  1.00  0.00    -0.237 OA
ATOM     69  O   UNL A   1      45.272  23.137  36.155  1.00  0.00    -0.744 OA
ENDBRANCH  63  66
ENDBRANCH  36  59
ENDBRANCH  10  11
ENDBRANCH   3   5
ENDBRANCH   2   3
ENDBRANCH   1   2
BRANCH   1  70
ATOM     70  C   UNL A   1      31.800  28.849  26.457  1.00  0.00     0.275 C 
BRANCH  70  71
ATOM     71  O   UNL A   1      32.702  27.731  26.503  1.00  0.00    -0.458 OA
BRANCH  71  72
ATOM     72  C   UNL A   1      32.088  26.517  26.404  1.00  0.00     0.340 C 
ATOM     73  O   UNL A   1      31.061  26.190  26.965  1.00  0.00    -0.246 OA
BRANCH  72  74
ATOM     74  C   UNL A   1      32.761  25.658  25.403  1.00  0.00     0.083 A 
ATOM     75  C   UNL A   1      33.930  25.015  25.854  1.00  0.00     0.018 A 
ATOM     76  C   UNL A   1      32.308  25.491  24.080  1.00  0.00     0.053 A 
ATOM     77  C   UNL A   1      34.678  24.223  24.991  1.00  0.00     0.001 A 
ATOM     78  C   UNL A   1      33.173  24.821  23.197  1.00  0.00     0.027 A 
ATOM     79  C   UNL A   1      34.318  24.155  23.652  1.00  0.00     0.002 A 
BRANCH  76  80
ATOM     80  N   UNL A   1      31.046  25.975  23.647  1.00  0.00    -0.355 N 
ATOM     81  H   UNL A   1      30.313  25.318  23.620  1.00  0.00     0.167 HD
BRANCH  80  82
ATOM     82  C   UNL A   1      30.719  27.291  23.252  1.00  0.00     0.039 A 
ATOM     83  C   UNL A   1      31.672  28.115  22.650  1.00  0.00     0.026 A 
ATOM     84  C   UNL A   1      29.400  27.758  23.361  1.00  0.00     0.039 A 
ATOM     85  C   UNL A   1      31.326  29.383  22.180  1.00  0.00     0.003 A 
ATOM     86  C   UNL A   1      29.026  29.017  22.854  1.00  0.00     0.058 A 
ATOM     87  C   UNL A   1      30.010  29.833  22.280  1.00  0.00     0.013 A 
BRANCH  86  88
ATOM     88  C   UNL A   1      27.590  29.486  22.909  1.00  0.00     0.416 C 
ATOM     89  F   UNL A   1      27.235  30.144  21.767  1.00  0.00    -0.166 F 
ATOM     90  F   UNL A   1      26.693  28.472  23.037  1.00  0.00    -0.166 F 
ATOM     91  F   UNL A   1      27.338  30.358  23.924  1.00  0.00    -0.166 F 
ENDBRANCH  86  88
ENDBRANCH  80  82
ENDBRANCH  76  80
ENDBRANCH  72  74
ENDBRANCH  71  72
ENDBRANCH  70  71
ENDBRANCH   1  70
TORSDOF 17
ENDMDL
MODEL 2
REMARK VINA RESULT:     -12.2      5.789     10.833
REMARK SMILES O=C(OCCOC(=O)c1ccccc1Nc1cccc(C(F)(F)F)c1)c1ccc(-c2c3nc(c(-c4cccc(S(=O)(=O)[O-])c4F)c4ccc([nH]4)c(-c4cccc(S(=O)(=O)[O-])c4F)c4nc(c(-c5cccc(S(=O)(=O)[O-])c5F)c5ccc2[nH]5)C=C4)C=C3)cc1
REMARK SMILES IDX 4 1 3 2 2 3 1 4 26 5 27 6 88 7 28 8 87 9 29 10 30 11 31 12
REMARK SMILES IDX 81 13 32 14 86 15 80 16 82 17 33 18 85 19 79 20 78 21 34 23
REMARK SMILES IDX 66 24 46 25 65 26 47 27 50 28 64 29 83 30 48 31 49 32 63 34
REMARK SMILES IDX 84 35 51 36 35 37 36 38 44 39 37 40 39 41 45 42 38 43 40 44
REMARK SMILES IDX 41 45 42 46 43 47 67 48 68 49 76 50 69 51 71 52 77 53 70 54
REMARK SMILES IDX 72 55 73 56 74 57 75 58 52 59 53 60 61 61 54 62 56 63 62 64
REMARK SMILES IDX 55 65 57 66 58 67 59 68 60 69 5 70 6 71 7 72 8 73 9 74 10 75
REMARK SMILES IDX 14 76 11 77 13 78 12 79 15 80 16 82 17 83 25 84 18 85 20 86
REMARK SMILES IDX 19 87 21 88 22 89 23 90 24 91
REMARK H PARENT 82 22 50 33 15 81
REMARK Flexibility Score: inf
ROOT
ATOM      1  C   UNL A   1      36.336  21.004  25.287  1.00  0.00     0.275 C 
ENDROOT
BRANCH   1   2
ATOM      2  O   UNL A   1      37.730  20.903  24.952  1.00  0.00    -0.458 OA
BRANCH   2   3
ATOM      3  C   UNL A   1      38.833  21.073  25.718  1.00  0.00     0.338 C 
ATOM      4  O   UNL A   1      39.442  20.065  26.078  1.00  0.00    -0.246 OA
BRANCH   3   5
ATOM      5  C   UNL A   1      39.305  22.393  26.257  1.00  0.00     0.060 A 
ATOM      6  C   UNL A   1      38.757  23.651  25.987  1.00  0.00     0.016 A 
ATOM      7  C   UNL A   1      40.427  22.346  27.110  1.00  0.00     0.016 A 
ATOM      8  C   UNL A   1      39.294  24.814  26.550  1.00  0.00     0.010 A 
ATOM      9  C   UNL A   1      40.969  23.504  27.679  1.00  0.00     0.010 A 
ATOM     10  C   UNL A   1      40.410  24.749  27.384  1.00  0.00    -0.014 A 
BRANCH  10  11
ATOM     11  C   UNL A   1      41.079  26.003  27.798  1.00  0.00     0.031 A 
ATOM     12  C   UNL A   1      42.431  26.285  27.243  1.00  0.00     0.074 A 
ATOM     13  C   UNL A   1      40.481  26.867  28.635  1.00  0.00     0.049 A 
ATOM     14  N   UNL A   1      43.155  27.362  27.360  1.00  0.00    -0.248 NA
ATOM     15  C   UNL A   1      43.055  25.209  26.457  1.00  0.00     0.031 C 
ATOM     16  C   UNL A   1      39.175  26.633  29.218  1.00  0.00     0.029 A 
ATOM     17  N   UNL A   1      40.842  28.094  29.128  1.00  0.00    -0.354 N 
ATOM     18  C   UNL A   1      44.349  27.069  26.722  1.00  0.00     0.074 A 
ATOM     19  C   UNL A   1      44.238  25.732  26.184  1.00  0.00     0.031 C 
ATOM     20  C   UNL A   1      38.805  27.690  29.954  1.00  0.00     0.029 A 
ATOM     21  C   UNL A   1      39.864  28.687  29.902  1.00  0.00     0.049 A 
ATOM     22  H   UNL A   1      41.715  28.512  28.948  1.00  0.00     0.167 HD
ATOM     23  C   UNL A   1      45.451  27.846  26.631  1.00  0.00     0.034 A 
ATOM     24  C   UNL A   1      39.818  29.915  30.459  1.00  0.00     0.034 A 
ATOM     25  C   UNL A   1      45.537  29.158  27.208  1.00  0.00     0.049 A 
ATOM     26  C   UNL A   1      41.008  30.812  30.222  1.00  0.00     0.074 A 
ATOM     27  C   UNL A   1      46.610  30.025  27.225  1.00  0.00     0.029 A 
ATOM     28  N   UNL A   1      44.500  29.781  27.893  1.00  0.00    -0.354 N 
ATOM     29  N   UNL A   1      42.090  30.570  29.517  1.00  0.00    -0.248 NA
ATOM     30  C   UNL A   1      40.974  32.151  30.825  1.00  0.00     0.031 C 
ATOM     31  C   UNL A   1      46.232  31.164  27.946  1.00  0.00     0.029 A 
ATOM     32  C   UNL A   1      44.909  31.021  28.345  1.00  0.00     0.049 A 
ATOM     33  H   UNL A   1      43.605  29.396  28.035  1.00  0.00     0.167 HD
ATOM     34  C   UNL A   1      42.855  31.725  29.573  1.00  0.00     0.074 A 
ATOM     35  C   UNL A   1      42.090  32.687  30.345  1.00  0.00     0.031 C 
ATOM     36  C   UNL A   1      44.092  31.964  29.070  1.00  0.00     0.034 A 
BRANCH  23  37
ATOM     37  C   UNL A   1      46.645  27.235  25.953  1.00  0.00     0.023 A 
ATOM     38  C   UNL A   1      47.476  26.335  26.652  1.00  0.00     0.012 A 
ATOM     39  C   UNL A   1      46.985  27.620  24.643  1.00  0.00     0.148 A 
ATOM     40  C   UNL A   1      48.656  25.870  26.075  1.00  0.00     0.002 A 
ATOM     41  C   UNL A   1      48.139  27.116  24.058  1.00  0.00     0.091 A 
ATOM     42  F   UNL A   1      46.203  28.507  24.013  1.00  0.00    -0.205 F 
ATOM     43  C   UNL A   1      48.985  26.256  24.777  1.00  0.00     0.022 A 
BRANCH  41  44
ATOM     44  S   UNL A   1      48.615  27.511  22.373  1.00  0.00     0.127 S 
ATOM     45  O   UNL A   1      49.880  28.214  22.580  1.00  0.00    -0.237 OA
ATOM     46  O   UNL A   1      48.746  26.183  21.773  1.00  0.00    -0.237 OA
ATOM     47  O   UNL A   1      47.532  28.317  21.828  1.00  0.00    -0.744 OA
ENDBRANCH  41  44
ENDBRANCH  23  37
BRANCH  24  48
ATOM     48  C   UNL A   1      38.567  30.410  31.125  1.00  0.00     0.023 A 
ATOM     49  C   UNL A   1      38.454  30.302  32.528  1.00  0.00     0.012 A 
ATOM     50  C   UNL A   1      37.528  31.052  30.420  1.00  0.00     0.148 A 
ATOM     51  C   UNL A   1      37.342  30.802  33.209  1.00  0.00     0.002 A 
ATOM     52  C   UNL A   1      36.455  31.613  31.114  1.00  0.00     0.091 A 
ATOM     53  F   UNL A   1      37.614  31.129  29.085  1.00  0.00    -0.205 F 
ATOM     54  C   UNL A   1      36.352  31.475  32.505  1.00  0.00     0.022 A 
BRANCH  52  55
ATOM     55  S   UNL A   1      35.224  32.649  30.308  1.00  0.00     0.127 S 
ATOM     56  O   UNL A   1      34.299  32.925  31.404  1.00  0.00    -0.237 OA
ATOM     57  O   UNL A   1      36.027  33.795  29.877  1.00  0.00    -0.237 OA
ATOM     58  O   UNL A   1      34.697  31.846  29.213  1.00  0.00    -0.744 OA
ENDBRANCH  52  55
ENDBRANCH  24  48
BRANCH  36  59
ATOM     59  C   UNL A   1      44.699  33.313  29.341  1.00  0.00     0.023 A 
ATOM     60  C   UNL A   1      45.428  33.518  30.529  1.00  0.00     0.012 A 
ATOM     61  C   UNL A   1      44.650  34.330  28.369  1.00  0.00     0.148 A 
ATOM     62  C   UNL A   1      46.078  34.728  30.759  1.00  0.00     0.002 A 
ATOM     63  C   UNL A   1      45.343  35.514  28.583  1.00  0.00     0.091 A 
ATOM     64  F   UNL A   1      43.937  34.116  27.254  1.00  0.00    -0.205 F 
ATOM     65  C   UNL A   1      46.047  35.719  29.781  1.00  0.00     0.022 A 
BRANCH  63  66
ATOM     66  S   UNL A   1      45.451  36.803  27.338  1.00  0.00     0.127 S 
ATOM     67  O   UNL A   1      44.044  37.160  27.157  1.00  0.00    -0.237 OA
ATOM     68  O   UNL A   1      46.257  37.819  28.015  1.00  0.00    -0.237 OA
ATOM     69  O   UNL A   1      46.093  36.193  26.181  1.00  0.00    -0.744 OA
ENDBRANCH  63  66
ENDBRANCH  36  59
ENDBRANCH  10  11
ENDBRANCH   3   5
ENDBRANCH   2   3
ENDBRANCH   1   2
BRANCH   1  70
ATOM     70  C   UNL A   1      35.598  22.097  24.510  1.00  0.00     0.275 C 
BRANCH  70  71
ATOM     71  O   UNL A   1      35.354  23.275  25.297  1.00  0.00    -0.458 OA
BRANCH  71  72
ATOM     72  C   UNL A   1      34.648  23.042  26.441  1.00  0.00     0.340 C 
ATOM     73  O   UNL A   1      35.117  22.729  27.517  1.00  0.00    -0.246 OA
BRANCH  72  74
ATOM     74  C   UNL A   1      33.211  23.349  26.255  1.00  0.00     0.083 A 
ATOM     75  C   UNL A   1      32.904  24.716  26.111  1.00  0.00     0.018 A 
ATOM     76  C   UNL A   1      32.195  22.374  26.242  1.00  0.00     0.053 A 
ATOM     77  C   UNL A   1      31.584  25.134  25.982  1.00  0.00     0.001 A 
ATOM     78  C   UNL A   1      30.870  22.844  26.274  1.00  0.00     0.027 A 
ATOM     79  C   UNL A   1      30.565  24.199  26.100  1.00  0.00     0.002 A 
BRANCH  76  80
ATOM     80  N   UNL A   1      32.482  20.985  26.202  1.00  0.00    -0.355 N 
ATOM     81  H   UNL A   1      32.691  20.558  27.065  1.00  0.00     0.167 HD
BRANCH  80  82
ATOM     82  C   UNL A   1      32.503  20.143  25.069  1.00  0.00     0.039 A 
ATOM     83  C   UNL A   1      32.134  20.627  23.812  1.00  0.00     0.026 A 
ATOM     84  C   UNL A   1      32.996  18.833  25.166  1.00  0.00     0.039 A 
ATOM     85  C   UNL A   1      32.238  19.820  22.677  1.00  0.00     0.003 A 
ATOM     86  C   UNL A   1      33.147  18.021  24.026  1.00  0.00     0.058 A 
ATOM     87  C   UNL A   1      32.742  18.524  22.782  1.00  0.00     0.013 A 
BRANCH  86  88
ATOM     88  C   UNL A   1      33.745  16.638  24.125  1.00  0.00     0.416 C 
ATOM     89  F   UNL A   1      34.120  16.166  22.900  1.00  0.00    -0.166 F 
ATOM     90  F   UNL A   1      34.866  16.585  24.893  1.00  0.00    -0.166 F 
ATOM     91  F   UNL A   1      32.888  15.705  24.626  1.00  0.00    -0.166 F 
ENDBRANCH  86  88
ENDBRANCH  80  82
ENDBRANCH  76  80
ENDBRANCH  72  74
ENDBRANCH  71  72
ENDBRANCH  70  71
ENDBRANCH   1  70
TORSDOF 17
ENDMDL
MODEL 3
REMARK VINA RESULT:     -12.1      4.365      6.913
REMARK SMILES O=C(OCCOC(=O)c1ccccc1Nc1cccc(C(F)(F)F)c1)c1ccc(-c2c3nc(c(-c4cccc(S(=O)(=O)[O-])c4F)c4ccc([nH]4)c(-c4cccc(S(=O)(=O)[O-])c4F)c4nc(c(-c5cccc(S(=O)(=O)[O-])c5F)c5ccc2[nH]5)C=C4)C=C3)cc1
REMARK SMILES IDX 4 1 3 2 2 3 1 4 26 5 27 6 88 7 28 8 87 9 29 10 30 11 31 12
REMARK SMILES IDX 81 13 32 14 86 15 80 16 82 17 33 18 85 19 79 20 78 21 34 23
REMARK SMILES IDX 66 24 46 25 65 26 47 27 50 28 64 29 83 30 48 31 49 32 63 34
REMARK SMILES IDX 84 35 51 36 35 37 36 38 44 39 37 40 39 41 45 42 38 43 40 44
REMARK SMILES IDX 41 45 42 46 43 47 67 48 68 49 76 50 69 51 71 52 77 53 70 54
REMARK SMILES IDX 72 55 73 56 74 57 75 58 52 59 53 60 61 61 54 62 56 63 62 64
REMARK SMILES IDX 55 65 57 66 58 67 59 68 60 69 5 70 6 71 7 72 8 73 9 74 10 75
REMARK SMILES IDX 14 76 11 77 13 78 12 79 15 80 16 82 17 83 25 84 18 85 20 86
REMARK SMILES IDX 19 87 21 88 22 89 23 90 24 91
REMARK H PARENT 82 22 50 33 15 81
REMARK Flexibility Score: inf
ROOT
ATOM      1  C   UNL A   1      33.094  34.188  28.588  1.00  0.00     0.275 C 
ENDROOT
BRANCH   1   2
ATOM      2  O   UNL A   1      33.610  33.316  27.568  1.00  0.00    -0.458 OA
BRANCH   2   3
ATOM      3  C   UNL A   1      33.829  31.981  27.583  1.00  0.00     0.338 C 
ATOM      4  O   UNL A   1      32.906  31.245  27.232  1.00  0.00    -0.246 OA
BRANCH   3   5
ATOM      5  C   UNL A   1      35.077  31.324  28.101  1.00  0.00     0.060 A 
ATOM      6  C   UNL A   1      35.207  30.002  28.537  1.00  0.00     0.016 A 
ATOM      7  C   UNL A   1      36.225  32.142  28.161  1.00  0.00     0.016 A 
ATOM      8  C   UNL A   1      36.430  29.508  29.005  1.00  0.00     0.010 A 
ATOM      9  C   UNL A   1      37.452  31.654  28.626  1.00  0.00     0.010 A 
ATOM     10  C   UNL A   1      37.552  30.334  29.066  1.00  0.00    -0.014 A 
BRANCH  10  11
ATOM     11  C   UNL A   1      38.771  29.849  29.752  1.00  0.00     0.031 A 
ATOM     12  C   UNL A   1      38.975  30.248  31.172  1.00  0.00     0.074 A 
ATOM     13  C   UNL A   1      39.658  29.061  29.121  1.00  0.00     0.049 A 
ATOM     14  N   UNL A   1      39.890  29.852  32.009  1.00  0.00    -0.248 NA
ATOM     15  C   UNL A   1      38.024  31.229  31.720  1.00  0.00     0.031 C 
ATOM     16  C   UNL A   1      39.518  28.658  27.737  1.00  0.00     0.029 A 
ATOM     17  N   UNL A   1      40.813  28.444  29.524  1.00  0.00    -0.354 N 
ATOM     18  C   UNL A   1      39.671  30.587  33.163  1.00  0.00     0.074 A 
ATOM     19  C   UNL A   1      38.513  31.420  32.934  1.00  0.00     0.031 C 
ATOM     20  C   UNL A   1      40.510  27.823  27.399  1.00  0.00     0.029 A 
ATOM     21  C   UNL A   1      41.373  27.634  28.555  1.00  0.00     0.049 A 
ATOM     22  H   UNL A   1      41.207  28.565  30.418  1.00  0.00     0.167 HD
ATOM     23  C   UNL A   1      40.404  30.584  34.298  1.00  0.00     0.034 A 
ATOM     24  C   UNL A   1      42.433  26.802  28.620  1.00  0.00     0.034 A 
ATOM     25  C   UNL A   1      41.571  29.767  34.477  1.00  0.00     0.049 A 
ATOM     26  C   UNL A   1      43.149  26.716  29.945  1.00  0.00     0.074 A 
ATOM     27  C   UNL A   1      42.425  29.706  35.560  1.00  0.00     0.029 A 
ATOM     28  N   UNL A   1      42.057  28.876  33.527  1.00  0.00    -0.354 N 
ATOM     29  N   UNL A   1      42.863  27.330  31.072  1.00  0.00    -0.248 NA
ATOM     30  C   UNL A   1      44.306  25.817  30.030  1.00  0.00     0.031 C 
ATOM     31  C   UNL A   1      43.445  28.798  35.253  1.00  0.00     0.029 A 
ATOM     32  C   UNL A   1      43.205  28.265  33.993  1.00  0.00     0.049 A 
ATOM     33  H   UNL A   1      41.644  28.706  32.649  1.00  0.00     0.167 HD
ATOM     34  C   UNL A   1      43.789  26.880  32.002  1.00  0.00     0.074 A 
ATOM     35  C   UNL A   1      44.618  25.904  31.317  1.00  0.00     0.031 C 
ATOM     36  C   UNL A   1      43.969  27.262  33.291  1.00  0.00     0.034 A 
BRANCH  23  37
ATOM     37  C   UNL A   1      39.987  31.555  35.366  1.00  0.00     0.023 A 
ATOM     38  C   UNL A   1      40.634  32.802  35.485  1.00  0.00     0.012 A 
ATOM     39  C   UNL A   1      39.001  31.193  36.302  1.00  0.00     0.148 A 
ATOM     40  C   UNL A   1      40.344  33.650  36.553  1.00  0.00     0.002 A 
ATOM     41  C   UNL A   1      38.684  32.063  37.337  1.00  0.00     0.091 A 
ATOM     42  F   UNL A   1      38.427  29.987  36.193  1.00  0.00    -0.205 F 
ATOM     43  C   UNL A   1      39.366  33.283  37.475  1.00  0.00     0.022 A 
BRANCH  41  44
ATOM     44  S   UNL A   1      37.400  31.702  38.539  1.00  0.00     0.127 S 
ATOM     45  O   UNL A   1      36.395  32.711  38.210  1.00  0.00    -0.237 OA
ATOM     46  O   UNL A   1      37.028  30.332  38.185  1.00  0.00    -0.237 OA
ATOM     47  O   UNL A   1      38.024  31.842  39.846  1.00  0.00    -0.744 OA
ENDBRANCH  41  44
ENDBRANCH  23  37
BRANCH  24  48
ATOM     48  C   UNL A   1      42.760  25.886  27.477  1.00  0.00     0.023 A 
ATOM     49  C   UNL A   1      43.718  26.297  26.525  1.00  0.00     0.012 A 
ATOM     50  C   UNL A   1      42.211  24.593  27.352  1.00  0.00     0.148 A 
ATOM     51  C   UNL A   1      44.110  25.462  25.477  1.00  0.00     0.002 A 
ATOM     52  C   UNL A   1      42.659  23.736  26.346  1.00  0.00     0.091 A 
ATOM     53  F   UNL A   1      41.277  24.207  28.232  1.00  0.00    -0.205 F 
ATOM     54  C   UNL A   1      43.594  24.174  25.398  1.00  0.00     0.022 A 
BRANCH  52  55
ATOM     55  S   UNL A   1      42.182  22.004  26.272  1.00  0.00     0.127 S 
ATOM     56  O   UNL A   1      42.511  21.543  27.618  1.00  0.00    -0.237 OA
ATOM     57  O   UNL A   1      40.749  22.095  25.986  1.00  0.00    -0.237 OA
ATOM     58  O   UNL A   1      42.969  21.429  25.190  1.00  0.00    -0.744 OA
ENDBRANCH  52  55
ENDBRANCH  24  48
BRANCH  36  59
ATOM     59  C   UNL A   1      45.105  26.630  34.046  1.00  0.00     0.023 A 
ATOM     60  C   UNL A   1      46.367  27.257  34.051  1.00  0.00     0.012 A 
ATOM     61  C   UNL A   1      44.891  25.490  34.843  1.00  0.00     0.148 A 
ATOM     62  C   UNL A   1      47.409  26.742  34.818  1.00  0.00     0.002 A 
ATOM     63  C   UNL A   1      45.919  25.012  35.645  1.00  0.00     0.091 A 
ATOM     64  F   UNL A   1      43.686  24.903  34.810  1.00  0.00    -0.205 F 
ATOM     65  C   UNL A   1      47.180  25.629  35.625  1.00  0.00     0.022 A 
BRANCH  63  66
ATOM     66  S   UNL A   1      45.689  23.654  36.796  1.00  0.00     0.127 S 
ATOM     67  O   UNL A   1      44.969  22.684  35.972  1.00  0.00    -0.237 OA
ATOM     68  O   UNL A   1      47.068  23.282  37.114  1.00  0.00    -0.237 OA
ATOM     69  O   UNL A   1      44.936  24.199  37.918  1.00  0.00    -0.744 OA
ENDBRANCH  63  66
ENDBRANCH  36  59
ENDBRANCH  10  11
ENDBRANCH   3   5
ENDBRANCH   2   3
ENDBRANCH   1   2
BRANCH   1  70
ATOM     70  C   UNL A   1      34.183  34.929  29.368  1.00  0.00     0.275 C 
BRANCH  70  71
ATOM     71  O   UNL A   1      34.686  34.172  30.482  1.00  0.00    -0.458 OA
BRANCH  71  72
ATOM     72  C   UNL A   1      34.294  34.649  31.698  1.00  0.00     0.340 C 
ATOM     73  O   UNL A   1      33.199  35.103  31.967  1.00  0.00    -0.246 OA
BRANCH  72  74
ATOM     74  C   UNL A   1      35.340  34.427  32.723  1.00  0.00     0.083 A 
ATOM     75  C   UNL A   1      34.867  34.010  33.982  1.00  0.00     0.018 A 
ATOM     76  C   UNL A   1      36.715  34.631  32.498  1.00  0.00     0.053 A 
ATOM     77  C   UNL A   1      35.748  33.818  35.040  1.00  0.00     0.001 A 
ATOM     78  C   UNL A   1      37.552  34.587  33.627  1.00  0.00     0.027 A 
ATOM     79  C   UNL A   1      37.087  34.142  34.871  1.00  0.00     0.002 A 
BRANCH  76  80
ATOM     80  N   UNL A   1      37.240  34.874  31.202  1.00  0.00    -0.355 N 
ATOM     81  H   UNL A   1      36.612  35.243  30.539  1.00  0.00     0.167 HD
BRANCH  80  82
ATOM     82  C   UNL A   1      38.560  34.650  30.753  1.00  0.00     0.039 A 
ATOM     83  C   UNL A   1      38.883  34.758  29.399  1.00  0.00     0.026 A 
ATOM     84  C   UNL A   1      39.593  34.419  31.674  1.00  0.00     0.039 A 
ATOM     85  C   UNL A   1      40.204  34.623  28.967  1.00  0.00     0.003 A 
ATOM     86  C   UNL A   1      40.935  34.323  31.259  1.00  0.00     0.058 A 
ATOM     87  C   UNL A   1      41.226  34.408  29.891  1.00  0.00     0.013 A 
BRANCH  86  88
ATOM     88  C   UNL A   1      42.052  34.146  32.262  1.00  0.00     0.416 C 
ATOM     89  F   UNL A   1      41.842  34.897  33.383  1.00  0.00    -0.166 F 
ATOM     90  F   UNL A   1      42.188  32.867  32.702  1.00  0.00    -0.166 F 
ATOM     91  F   UNL A   1      43.273  34.528  31.793  1.00  0.00    -0.166 F 
ENDBRANCH  86  88
ENDBRANCH  80  82
ENDBRANCH  76  80
ENDBRANCH  72  74
ENDBRANCH  71  72
ENDBRANCH  70  71
ENDBRANCH   1  70
TORSDOF 17
ENDMDL
