MODEL 1
REMARK VINA RESULT:     -11.7      0.000      0.000
REMARK SMILES O=C(OCCOC(=O)c1cc(Br)cn(Cc2cccc(F)c2)c1=O)c1ccc(-c2c3nc(c(-c4cccc(S(=O)(=O)[O-])c4F)c4ccc([nH]4)c(-c4cccc(S(=O)(=O)[O-])c4F)c4nc(c(-c5cccc(S(=O)(=O)[O-])c5F)c5ccc2[nH]5)C=C4)C=C3)cc1
REMARK SMILES IDX 4 1 3 2 2 3 1 4 25 5 26 6 87 7 27 8 86 9 28 10 29 11 30 12
REMARK SMILES IDX 80 13 31 14 85 15 79 16 81 17 32 18 84 19 78 20 77 21 33 23
REMARK SMILES IDX 65 24 45 25 64 26 46 27 49 28 63 29 82 30 47 31 48 32 62 34
REMARK SMILES IDX 83 35 50 36 34 37 35 38 43 39 36 40 38 41 44 42 37 43 39 44
REMARK SMILES IDX 40 45 41 46 42 47 66 48 67 49 75 50 68 51 70 52 76 53 69 54
REMARK SMILES IDX 71 55 72 56 73 57 74 58 51 59 52 60 60 61 53 62 55 63 61 64
REMARK SMILES IDX 54 65 56 66 57 67 58 68 59 69 5 70 6 71 7 72 8 73 9 74 10 75
REMARK SMILES IDX 23 76 11 77 14 78 24 79 12 80 13 81 15 82 16 83 17 84 22 85
REMARK SMILES IDX 18 86 20 87 19 88 21 89
REMARK H PARENT 81 22 49 33
REMARK Flexibility Score: inf
ROOT
ATOM      1  C   UNL A   1      43.958  21.438  25.214  1.00  0.00     0.275 C 
ENDROOT
BRANCH   1   2
ATOM      2  O   UNL A   1      43.515  22.729  24.753  1.00  0.00    -0.458 OA
BRANCH   2   3
ATOM      3  C   UNL A   1      44.125  23.929  24.916  1.00  0.00     0.338 C 
ATOM      4  O   UNL A   1      45.199  24.140  24.357  1.00  0.00    -0.246 OA
BRANCH   3   5
ATOM      5  C   UNL A   1      43.652  24.922  25.925  1.00  0.00     0.060 A 
ATOM      6  C   UNL A   1      42.650  24.482  26.804  1.00  0.00     0.016 A 
ATOM      7  C   UNL A   1      44.151  26.217  26.087  1.00  0.00     0.016 A 
ATOM      8  C   UNL A   1      42.083  25.354  27.738  1.00  0.00     0.010 A 
ATOM      9  C   UNL A   1      43.587  27.092  27.026  1.00  0.00     0.010 A 
ATOM     10  C   UNL A   1      42.535  26.677  27.847  1.00  0.00    -0.014 A 
BRANCH  10  11
ATOM     11  C   UNL A   1      42.053  27.529  28.958  1.00  0.00     0.031 A 
ATOM     12  C   UNL A   1      40.950  28.533  28.805  1.00  0.00     0.074 A 
ATOM     13  C   UNL A   1      42.639  27.374  30.160  1.00  0.00     0.049 A 
ATOM     14  N   UNL A   1      40.213  29.058  29.751  1.00  0.00    -0.248 NA
ATOM     15  C   UNL A   1      40.580  28.970  27.453  1.00  0.00     0.031 C 
ATOM     16  C   UNL A   1      43.783  26.502  30.433  1.00  0.00     0.029 A 
ATOM     17  N   UNL A   1      42.379  27.977  31.361  1.00  0.00    -0.354 N 
ATOM     18  C   UNL A   1      39.195  29.747  29.103  1.00  0.00     0.074 A 
ATOM     19  C   UNL A   1      39.484  29.689  27.690  1.00  0.00     0.031 C 
ATOM     20  C   UNL A   1      44.163  26.671  31.707  1.00  0.00     0.029 A 
ATOM     21  C   UNL A   1      43.290  27.657  32.335  1.00  0.00     0.049 A 
ATOM     22  H   UNL A   1      41.615  28.579  31.510  1.00  0.00     0.167 HD
ATOM     23  C   UNL A   1      38.080  30.265  29.669  1.00  0.00     0.034 A 
ATOM     24  C   UNL A   1      43.425  28.130  33.587  1.00  0.00     0.034 A 
ATOM     25  C   UNL A   1      37.940  30.485  31.086  1.00  0.00     0.049 A 
ATOM     26  C   UNL A   1      42.396  29.070  34.124  1.00  0.00     0.074 A 
ATOM     27  C   UNL A   1      36.860  31.003  31.782  1.00  0.00     0.029 A 
ATOM     28  N   UNL A   1      38.956  30.301  32.008  1.00  0.00    -0.354 N 
ATOM     29  N   UNL A   1      41.265  29.435  33.572  1.00  0.00    -0.248 NA
ATOM     30  C   UNL A   1      42.632  29.645  35.453  1.00  0.00     0.031 C 
ATOM     31  C   UNL A   1      37.246  31.181  33.116  1.00  0.00     0.029 A 
ATOM     32  C   UNL A   1      38.564  30.774  33.246  1.00  0.00     0.049 A 
ATOM     33  H   UNL A   1      39.831  29.893  31.811  1.00  0.00     0.167 HD
ATOM     34  C   UNL A   1      40.638  30.258  34.494  1.00  0.00     0.074 A 
ATOM     35  C   UNL A   1      41.520  30.347  35.641  1.00  0.00     0.031 C 
ATOM     36  C   UNL A   1      39.435  30.872  34.390  1.00  0.00     0.034 A 
BRANCH  23  37
ATOM     37  C   UNL A   1      36.864  30.502  28.816  1.00  0.00     0.023 A 
ATOM     38  C   UNL A   1      36.309  29.362  28.191  1.00  0.00     0.012 A 
ATOM     39  C   UNL A   1      36.177  31.723  28.744  1.00  0.00     0.148 A 
ATOM     40  C   UNL A   1      35.083  29.426  27.532  1.00  0.00     0.002 A 
ATOM     41  C   UNL A   1      34.953  31.782  28.078  1.00  0.00     0.091 A 
ATOM     42  F   UNL A   1      36.727  32.800  29.321  1.00  0.00    -0.205 F 
ATOM     43  C   UNL A   1      34.402  30.635  27.479  1.00  0.00     0.022 A 
BRANCH  41  44
ATOM     44  S   UNL A   1      33.976  33.289  28.001  1.00  0.00     0.127 S 
ATOM     45  O   UNL A   1      32.772  32.829  27.313  1.00  0.00    -0.237 OA
ATOM     46  O   UNL A   1      33.785  33.619  29.415  1.00  0.00    -0.237 OA
ATOM     47  O   UNL A   1      34.796  34.245  27.268  1.00  0.00    -0.744 OA
ENDBRANCH  41  44
ENDBRANCH  23  37
BRANCH  24  48
ATOM     48  C   UNL A   1      44.603  27.691  34.374  1.00  0.00     0.023 A 
ATOM     49  C   UNL A   1      45.763  28.481  34.399  1.00  0.00     0.012 A 
ATOM     50  C   UNL A   1      44.498  26.572  35.227  1.00  0.00     0.148 A 
ATOM     51  C   UNL A   1      46.800  28.172  35.280  1.00  0.00     0.002 A 
ATOM     52  C   UNL A   1      45.515  26.297  36.129  1.00  0.00     0.091 A 
ATOM     53  F   UNL A   1      43.377  25.839  35.172  1.00  0.00    -0.205 F 
ATOM     54  C   UNL A   1      46.671  27.094  36.154  1.00  0.00     0.022 A 
BRANCH  52  55
ATOM     55  S   UNL A   1      45.379  25.009  37.374  1.00  0.00     0.127 S 
ATOM     56  O   UNL A   1      44.193  25.433  38.113  1.00  0.00    -0.237 OA
ATOM     57  O   UNL A   1      45.199  23.815  36.548  1.00  0.00    -0.237 OA
ATOM     58  O   UNL A   1      46.629  25.045  38.123  1.00  0.00    -0.744 OA
ENDBRANCH  52  55
ENDBRANCH  24  48
BRANCH  36  59
ATOM     59  C   UNL A   1      38.987  31.739  35.530  1.00  0.00     0.023 A 
ATOM     60  C   UNL A   1      38.175  31.181  36.536  1.00  0.00     0.012 A 
ATOM     61  C   UNL A   1      39.446  33.063  35.660  1.00  0.00     0.148 A 
ATOM     62  C   UNL A   1      37.819  31.934  37.654  1.00  0.00     0.002 A 
ATOM     63  C   UNL A   1      39.120  33.793  36.797  1.00  0.00     0.091 A 
ATOM     64  F   UNL A   1      40.200  33.578  34.679  1.00  0.00    -0.205 F 
ATOM     65  C   UNL A   1      38.302  33.232  37.791  1.00  0.00     0.022 A 
BRANCH  63  66
ATOM     66  S   UNL A   1      39.777  35.438  37.095  1.00  0.00     0.127 S 
ATOM     67  O   UNL A   1      39.093  35.812  38.332  1.00  0.00    -0.237 OA
ATOM     68  O   UNL A   1      41.210  35.182  37.242  1.00  0.00    -0.237 OA
ATOM     69  O   UNL A   1      39.424  36.225  35.920  1.00  0.00    -0.744 OA
ENDBRANCH  63  66
ENDBRANCH  36  59
ENDBRANCH  10  11
ENDBRANCH   3   5
ENDBRANCH   2   3
ENDBRANCH   1   2
BRANCH   1  70
ATOM     70  C   UNL A   1      42.939  20.677  26.062  1.00  0.00     0.275 C 
BRANCH  70  71
ATOM     71  O   UNL A   1      41.587  20.954  25.683  1.00  0.00    -0.458 OA
BRANCH  71  72
ATOM     72  C   UNL A   1      40.657  20.787  26.658  1.00  0.00     0.343 C 
ATOM     73  O   UNL A   1      40.777  20.072  27.646  1.00  0.00    -0.246 OA
BRANCH  72  74
ATOM     74  C   UNL A   1      39.536  21.721  26.469  1.00  0.00     0.126 A 
ATOM     75  C   UNL A   1      39.626  22.905  27.101  1.00  0.00     0.038 A 
ATOM     76  C   UNL A   1      38.376  21.433  25.579  1.00  0.00     0.265 A 
ATOM     77  C   UNL A   1      38.636  23.934  26.896  1.00  0.00     0.035 A 
ATOM     78  N   UNL A   1      37.445  22.472  25.447  1.00  0.00    -0.309 N 
ATOM     79  O   UNL A   1      38.270  20.339  25.032  1.00  0.00    -0.268 OA
ATOM     80  Br  UNL A   1      38.891  25.582  27.725  1.00  0.00    -0.049 Br
ATOM     81  C   UNL A   1      37.597  23.693  26.086  1.00  0.00     0.105 A 
BRANCH  78  82
ATOM     82  C   UNL A   1      36.258  22.258  24.619  1.00  0.00     0.161 C 
BRANCH  82  83
ATOM     83  C   UNL A   1      34.999  22.748  25.287  1.00  0.00    -0.025 A 
ATOM     84  C   UNL A   1      34.251  23.796  24.734  1.00  0.00     0.006 A 
ATOM     85  C   UNL A   1      34.567  22.154  26.482  1.00  0.00     0.044 A 
ATOM     86  C   UNL A   1      33.090  24.245  25.366  1.00  0.00     0.003 A 
ATOM     87  C   UNL A   1      33.414  22.612  27.103  1.00  0.00     0.123 A 
ATOM     88  C   UNL A   1      32.673  23.653  26.556  1.00  0.00     0.039 A 
ATOM     89  F   UNL A   1      33.007  22.045  28.247  1.00  0.00    -0.207 F 
ENDBRANCH  82  83
ENDBRANCH  78  82
ENDBRANCH  72  74
ENDBRANCH  71  72
ENDBRANCH  70  71
ENDBRANCH   1  70
TORSDOF 16
ENDMDL
MODEL 2
REMARK VINA RESULT:     -11.6      5.173      9.046
REMARK SMILES O=C(OCCOC(=O)c1cc(Br)cn(Cc2cccc(F)c2)c1=O)c1ccc(-c2c3nc(c(-c4cccc(S(=O)(=O)[O-])c4F)c4ccc([nH]4)c(-c4cccc(S(=O)(=O)[O-])c4F)c4nc(c(-c5cccc(S(=O)(=O)[O-])c5F)c5ccc2[nH]5)C=C4)C=C3)cc1
REMARK SMILES IDX 4 1 3 2 2 3 1 4 25 5 26 6 87 7 27 8 86 9 28 10 29 11 30 12
REMARK SMILES IDX 80 13 31 14 85 15 79 16 81 17 32 18 84 19 78 20 77 21 33 23
REMARK SMILES IDX 65 24 45 25 64 26 46 27 49 28 63 29 82 30 47 31 48 32 62 34
REMARK SMILES IDX 83 35 50 36 34 37 35 38 43 39 36 40 38 41 44 42 37 43 39 44
REMARK SMILES IDX 40 45 41 46 42 47 66 48 67 49 75 50 68 51 70 52 76 53 69 54
REMARK SMILES IDX 71 55 72 56 73 57 74 58 51 59 52 60 60 61 53 62 55 63 61 64
REMARK SMILES IDX 54 65 56 66 57 67 58 68 59 69 5 70 6 71 7 72 8 73 9 74 10 75
REMARK SMILES IDX 23 76 11 77 14 78 24 79 12 80 13 81 15 82 16 83 17 84 22 85
REMARK SMILES IDX 18 86 20 87 19 88 21 89
REMARK H PARENT 81 22 49 33
REMARK Flexibility Score: inf
ROOT
ATOM      1  C   UNL A   1      39.069  20.193  25.355  1.00  0.00     0.275 C 
ENDROOT
BRANCH   1   2
ATOM      2  O   UNL A   1      40.112  19.575  26.133  1.00  0.00    -0.458 OA
BRANCH   2   3
ATOM      3  C   UNL A   1      41.393  19.990  26.292  1.00  0.00     0.338 C 
ATOM      4  O   UNL A   1      42.287  19.154  26.405  1.00  0.00    -0.246 OA
BRANCH   3   5
ATOM      5  C   UNL A   1      41.731  21.419  26.557  1.00  0.00     0.060 A 
ATOM      6  C   UNL A   1      41.698  21.825  27.900  1.00  0.00     0.016 A 
ATOM      7  C   UNL A   1      42.112  22.357  25.593  1.00  0.00     0.016 A 
ATOM      8  C   UNL A   1      41.925  23.158  28.252  1.00  0.00     0.010 A 
ATOM      9  C   UNL A   1      42.344  23.695  25.944  1.00  0.00     0.010 A 
ATOM     10  C   UNL A   1      42.234  24.113  27.273  1.00  0.00    -0.014 A 
BRANCH  10  11
ATOM     11  C   UNL A   1      42.647  25.476  27.680  1.00  0.00     0.031 A 
ATOM     12  C   UNL A   1      44.068  25.953  27.633  1.00  0.00     0.074 A 
ATOM     13  C   UNL A   1      41.685  26.316  28.103  1.00  0.00     0.049 A 
ATOM     14  N   UNL A   1      44.492  27.191  27.612  1.00  0.00    -0.248 NA
ATOM     15  C   UNL A   1      45.142  24.956  27.545  1.00  0.00     0.031 C 
ATOM     16  C   UNL A   1      40.276  25.960  28.287  1.00  0.00     0.029 A 
ATOM     17  N   UNL A   1      41.756  27.626  28.493  1.00  0.00    -0.354 N 
ATOM     18  C   UNL A   1      45.853  27.123  27.341  1.00  0.00     0.074 A 
ATOM     19  C   UNL A   1      46.211  25.724  27.339  1.00  0.00     0.031 C 
ATOM     20  C   UNL A   1      39.628  27.010  28.811  1.00  0.00     0.029 A 
ATOM     21  C   UNL A   1      40.573  28.107  28.994  1.00  0.00     0.049 A 
ATOM     22  H   UNL A   1      42.574  28.169  28.421  1.00  0.00     0.167 HD
ATOM     23  C   UNL A   1      46.667  28.154  27.014  1.00  0.00     0.034 A 
ATOM     24  C   UNL A   1      40.288  29.290  29.566  1.00  0.00     0.034 A 
ATOM     25  C   UNL A   1      46.321  29.536  27.234  1.00  0.00     0.049 A 
ATOM     26  C   UNL A   1      41.338  30.353  29.600  1.00  0.00     0.074 A 
ATOM     27  C   UNL A   1      47.059  30.672  26.946  1.00  0.00     0.029 A 
ATOM     28  N   UNL A   1      45.182  29.959  27.899  1.00  0.00    -0.354 N 
ATOM     29  N   UNL A   1      42.517  30.344  29.028  1.00  0.00    -0.248 NA
ATOM     30  C   UNL A   1      41.026  31.590  30.323  1.00  0.00     0.031 C 
ATOM     31  C   UNL A   1      46.388  31.776  27.487  1.00  0.00     0.029 A 
ATOM     32  C   UNL A   1      45.236  31.324  28.110  1.00  0.00     0.049 A 
ATOM     33  H   UNL A   1      44.443  29.373  28.181  1.00  0.00     0.167 HD
ATOM     34  C   UNL A   1      43.080  31.583  29.294  1.00  0.00     0.074 A 
ATOM     35  C   UNL A   1      42.114  32.317  30.089  1.00  0.00     0.031 C 
ATOM     36  C   UNL A   1      44.285  32.061  28.903  1.00  0.00     0.034 A 
BRANCH  23  37
ATOM     37  C   UNL A   1      47.938  27.879  26.258  1.00  0.00     0.023 A 
ATOM     38  C   UNL A   1      49.058  27.507  27.036  1.00  0.00     0.012 A 
ATOM     39  C   UNL A   1      48.024  27.811  24.860  1.00  0.00     0.148 A 
ATOM     40  C   UNL A   1      50.231  27.051  26.440  1.00  0.00     0.002 A 
ATOM     41  C   UNL A   1      49.204  27.358  24.268  1.00  0.00     0.091 A 
ATOM     42  F   UNL A   1      46.962  28.188  24.135  1.00  0.00    -0.205 F 
ATOM     43  C   UNL A   1      50.303  26.972  25.055  1.00  0.00     0.022 A 
BRANCH  41  44
ATOM     44  S   UNL A   1      49.372  27.173  22.489  1.00  0.00     0.127 S 
ATOM     45  O   UNL A   1      48.457  26.066  22.216  1.00  0.00    -0.237 OA
ATOM     46  O   UNL A   1      48.924  28.474  21.988  1.00  0.00    -0.237 OA
ATOM     47  O   UNL A   1      50.784  26.895  22.259  1.00  0.00    -0.744 OA
ENDBRANCH  41  44
ENDBRANCH  23  37
BRANCH  24  48
ATOM     48  C   UNL A   1      38.935  29.478  30.143  1.00  0.00     0.023 A 
ATOM     49  C   UNL A   1      38.658  29.028  31.443  1.00  0.00     0.012 A 
ATOM     50  C   UNL A   1      37.981  30.255  29.452  1.00  0.00     0.148 A 
ATOM     51  C   UNL A   1      37.452  29.365  32.059  1.00  0.00     0.002 A 
ATOM     52  C   UNL A   1      36.803  30.622  30.086  1.00  0.00     0.091 A 
ATOM     53  F   UNL A   1      38.279  30.663  28.211  1.00  0.00    -0.205 F 
ATOM     54  C   UNL A   1      36.534  30.173  31.389  1.00  0.00     0.022 A 
BRANCH  52  55
ATOM     55  S   UNL A   1      35.625  31.760  29.350  1.00  0.00     0.127 S 
ATOM     56  O   UNL A   1      34.778  32.092  30.492  1.00  0.00    -0.237 OA
ATOM     57  O   UNL A   1      36.499  32.840  28.893  1.00  0.00    -0.237 OA
ATOM     58  O   UNL A   1      34.969  31.018  28.281  1.00  0.00    -0.744 OA
ENDBRANCH  52  55
ENDBRANCH  24  48
BRANCH  36  59
ATOM     59  C   UNL A   1      44.674  33.440  29.348  1.00  0.00     0.023 A 
ATOM     60  C   UNL A   1      45.394  33.593  30.549  1.00  0.00     0.012 A 
ATOM     61  C   UNL A   1      44.422  34.563  28.539  1.00  0.00     0.148 A 
ATOM     62  C   UNL A   1      45.851  34.850  30.941  1.00  0.00     0.002 A 
ATOM     63  C   UNL A   1      44.915  35.806  28.917  1.00  0.00     0.091 A 
ATOM     64  F   UNL A   1      43.717  34.394  27.411  1.00  0.00    -0.205 F 
ATOM     65  C   UNL A   1      45.624  35.952  30.120  1.00  0.00     0.022 A 
BRANCH  63  66
ATOM     66  S   UNL A   1      44.748  37.257  27.873  1.00  0.00     0.127 S 
ATOM     67  O   UNL A   1      45.508  36.861  26.688  1.00  0.00    -0.237 OA
ATOM     68  O   UNL A   1      43.301  37.335  27.673  1.00  0.00    -0.237 OA
ATOM     69  O   UNL A   1      45.310  38.363  28.639  1.00  0.00    -0.744 OA
ENDBRANCH  63  66
ENDBRANCH  36  59
ENDBRANCH  10  11
ENDBRANCH   3   5
ENDBRANCH   2   3
ENDBRANCH   1   2
BRANCH   1  70
ATOM     70  C   UNL A   1      38.571  21.532  25.901  1.00  0.00     0.275 C 
BRANCH  70  71
ATOM     71  O   UNL A   1      37.791  22.261  24.947  1.00  0.00    -0.458 OA
BRANCH  71  72
ATOM     72  C   UNL A   1      37.001  23.239  25.459  1.00  0.00     0.343 C 
ATOM     73  O   UNL A   1      37.390  24.216  26.089  1.00  0.00    -0.246 OA
BRANCH  72  74
ATOM     74  C   UNL A   1      35.611  23.072  25.007  1.00  0.00     0.126 A 
ATOM     75  C   UNL A   1      35.134  24.010  24.170  1.00  0.00     0.038 A 
ATOM     76  C   UNL A   1      34.767  21.902  25.382  1.00  0.00     0.265 A 
ATOM     77  C   UNL A   1      33.822  23.882  23.581  1.00  0.00     0.035 A 
ATOM     78  N   UNL A   1      33.499  21.858  24.788  1.00  0.00    -0.309 N 
ATOM     79  O   UNL A   1      35.186  21.065  26.177  1.00  0.00    -0.268 OA
ATOM     80  Br  UNL A   1      33.278  25.169  22.350  1.00  0.00    -0.049 Br
ATOM     81  C   UNL A   1      33.061  22.827  23.898  1.00  0.00     0.105 A 
BRANCH  78  82
ATOM     82  C   UNL A   1      32.594  20.761  25.130  1.00  0.00     0.161 C 
BRANCH  82  83
ATOM     83  C   UNL A   1      32.846  19.531  24.297  1.00  0.00    -0.025 A 
ATOM     84  C   UNL A   1      32.163  19.325  23.091  1.00  0.00     0.006 A 
ATOM     85  C   UNL A   1      33.772  18.571  24.733  1.00  0.00     0.044 A 
ATOM     86  C   UNL A   1      32.400  18.178  22.332  1.00  0.00     0.003 A 
ATOM     87  C   UNL A   1      33.996  17.433  23.972  1.00  0.00     0.123 A 
ATOM     88  C   UNL A   1      33.317  17.228  22.776  1.00  0.00     0.039 A 
ATOM     89  F   UNL A   1      34.878  16.517  24.393  1.00  0.00    -0.207 F 
ENDBRANCH  82  83
ENDBRANCH  78  82
ENDBRANCH  72  74
ENDBRANCH  71  72
ENDBRANCH  70  71
ENDBRANCH   1  70
TORSDOF 16
ENDMDL
MODEL 3
REMARK VINA RESULT:     -11.6      3.269      9.334
REMARK SMILES O=C(OCCOC(=O)c1cc(Br)cn(Cc2cccc(F)c2)c1=O)c1ccc(-c2c3nc(c(-c4cccc(S(=O)(=O)[O-])c4F)c4ccc([nH]4)c(-c4cccc(S(=O)(=O)[O-])c4F)c4nc(c(-c5cccc(S(=O)(=O)[O-])c5F)c5ccc2[nH]5)C=C4)C=C3)cc1
REMARK SMILES IDX 4 1 3 2 2 3 1 4 25 5 26 6 87 7 27 8 86 9 28 10 29 11 30 12
REMARK SMILES IDX 80 13 31 14 85 15 79 16 81 17 32 18 84 19 78 20 77 21 33 23
REMARK SMILES IDX 65 24 45 25 64 26 46 27 49 28 63 29 82 30 47 31 48 32 62 34
REMARK SMILES IDX 83 35 50 36 34 37 35 38 43 39 36 40 38 41 44 42 37 43 39 44
REMARK SMILES IDX 40 45 41 46 42 47 66 48 67 49 75 50 68 51 70 52 76 53 69 54
REMARK SMILES IDX 71 55 72 56 73 57 74 58 51 59 52 60 60 61 53 62 55 63 61 64
REMARK SMILES IDX 54 65 56 66 57 67 58 68 59 69 5 70 6 71 7 72 8 73 9 74 10 75
REMARK SMILES IDX 23 76 11 77 14 78 24 79 12 80 13 81 15 82 16 83 17 84 22 85
REMARK SMILES IDX 18 86 20 87 19 88 21 89
REMARK H PARENT 81 22 49 33
REMARK Flexibility Score: inf
ROOT
ATOM      1  C   UNL A   1      32.442  29.602  26.276  1.00  0.00     0.275 C 
ENDROOT
BRANCH   1   2
ATOM      2  O   UNL A   1      33.712  30.281  26.271  1.00  0.00    -0.458 OA
BRANCH   2   3
ATOM      3  C   UNL A   1      34.343  30.879  27.312  1.00  0.00     0.338 C 
ATOM      4  O   UNL A   1      34.030  32.026  27.627  1.00  0.00    -0.246 OA
BRANCH   3   5
ATOM      5  C   UNL A   1      35.554  30.283  27.947  1.00  0.00     0.060 A 
ATOM      6  C   UNL A   1      36.743  30.358  27.205  1.00  0.00     0.016 A 
ATOM      7  C   UNL A   1      35.605  29.703  29.217  1.00  0.00     0.016 A 
ATOM      8  C   UNL A   1      37.919  29.765  27.672  1.00  0.00     0.010 A 
ATOM      9  C   UNL A   1      36.784  29.111  29.691  1.00  0.00     0.010 A 
ATOM     10  C   UNL A   1      37.947  29.118  28.917  1.00  0.00    -0.014 A 
BRANCH  10  11
ATOM     11  C   UNL A   1      39.239  28.656  29.475  1.00  0.00     0.031 A 
ATOM     12  C   UNL A   1      39.936  29.342  30.612  1.00  0.00     0.074 A 
ATOM     13  C   UNL A   1      39.794  27.559  28.929  1.00  0.00     0.049 A 
ATOM     14  N   UNL A   1      40.850  28.842  31.404  1.00  0.00    -0.248 NA
ATOM     15  C   UNL A   1      39.546  30.718  30.948  1.00  0.00     0.031 C 
ATOM     16  C   UNL A   1      39.275  26.843  27.761  1.00  0.00     0.029 A 
ATOM     17  N   UNL A   1      40.939  26.883  29.258  1.00  0.00    -0.354 N 
ATOM     18  C   UNL A   1      41.019  29.771  32.424  1.00  0.00     0.074 A 
ATOM     19  C   UNL A   1      40.217  30.921  32.081  1.00  0.00     0.031 C 
ATOM     20  C   UNL A   1      40.131  25.865  27.437  1.00  0.00     0.029 A 
ATOM     21  C   UNL A   1      41.250  25.884  28.373  1.00  0.00     0.049 A 
ATOM     22  H   UNL A   1      41.482  27.094  30.051  1.00  0.00     0.167 HD
ATOM     23  C   UNL A   1      41.699  29.590  33.580  1.00  0.00     0.034 A 
ATOM     24  C   UNL A   1      42.334  25.091  28.303  1.00  0.00     0.034 A 
ATOM     25  C   UNL A   1      42.647  28.523  33.782  1.00  0.00     0.049 A 
ATOM     26  C   UNL A   1      43.358  25.163  29.390  1.00  0.00     0.074 A 
ATOM     27  C   UNL A   1      43.400  28.232  34.907  1.00  0.00     0.029 A 
ATOM     28  N   UNL A   1      43.050  27.640  32.795  1.00  0.00    -0.354 N 
ATOM     29  N   UNL A   1      43.301  25.835  30.513  1.00  0.00    -0.248 NA
ATOM     30  C   UNL A   1      44.575  24.359  29.228  1.00  0.00     0.031 C 
ATOM     31  C   UNL A   1      44.295  27.207  34.579  1.00  0.00     0.029 A 
ATOM     32  C   UNL A   1      44.098  26.863  33.252  1.00  0.00     0.049 A 
ATOM     33  H   UNL A   1      42.648  27.574  31.898  1.00  0.00     0.167 HD
ATOM     34  C   UNL A   1      44.458  25.517  31.208  1.00  0.00     0.074 A 
ATOM     35  C   UNL A   1      45.204  24.595  30.374  1.00  0.00     0.031 C 
ATOM     36  C   UNL A   1      44.850  25.950  32.430  1.00  0.00     0.034 A 
BRANCH  23  37
ATOM     37  C   UNL A   1      41.367  30.445  34.772  1.00  0.00     0.023 A 
ATOM     38  C   UNL A   1      42.412  31.259  35.265  1.00  0.00     0.012 A 
ATOM     39  C   UNL A   1      40.076  30.597  35.297  1.00  0.00     0.148 A 
ATOM     40  C   UNL A   1      42.175  32.224  36.241  1.00  0.00     0.002 A 
ATOM     41  C   UNL A   1      39.846  31.562  36.279  1.00  0.00     0.091 A 
ATOM     42  F   UNL A   1      39.100  29.803  34.836  1.00  0.00    -0.205 F 
ATOM     43  C   UNL A   1      40.890  32.380  36.746  1.00  0.00     0.022 A 
BRANCH  41  44
ATOM     44  S   UNL A   1      38.208  31.870  36.952  1.00  0.00     0.127 S 
ATOM     45  O   UNL A   1      37.502  32.402  35.789  1.00  0.00    -0.237 OA
ATOM     46  O   UNL A   1      37.778  30.535  37.371  1.00  0.00    -0.237 OA
ATOM     47  O   UNL A   1      38.410  32.807  38.050  1.00  0.00    -0.744 OA
ENDBRANCH  41  44
ENDBRANCH  23  37
BRANCH  24  48
ATOM     48  C   UNL A   1      42.460  24.181  27.140  1.00  0.00     0.023 A 
ATOM     49  C   UNL A   1      43.250  24.552  26.041  1.00  0.00     0.012 A 
ATOM     50  C   UNL A   1      41.923  22.878  27.208  1.00  0.00     0.148 A 
ATOM     51  C   UNL A   1      43.523  23.629  25.031  1.00  0.00     0.002 A 
ATOM     52  C   UNL A   1      42.233  21.953  26.222  1.00  0.00     0.091 A 
ATOM     53  F   UNL A   1      41.169  22.560  28.270  1.00  0.00    -0.205 F 
ATOM     54  C   UNL A   1      43.029  22.329  25.128  1.00  0.00     0.022 A 
BRANCH  52  55
ATOM     55  S   UNL A   1      41.749  20.227  26.330  1.00  0.00     0.127 S 
ATOM     56  O   UNL A   1      42.291  19.846  27.630  1.00  0.00    -0.237 OA
ATOM     57  O   UNL A   1      40.290  20.323  26.272  1.00  0.00    -0.237 OA
ATOM     58  O   UNL A   1      42.358  19.569  25.181  1.00  0.00    -0.744 OA
ENDBRANCH  52  55
ENDBRANCH  24  48
BRANCH  36  59
ATOM     59  C   UNL A   1      46.171  25.471  32.955  1.00  0.00     0.023 A 
ATOM     60  C   UNL A   1      47.323  26.246  32.718  1.00  0.00     0.012 A 
ATOM     61  C   UNL A   1      46.259  24.322  33.762  1.00  0.00     0.148 A 
ATOM     62  C   UNL A   1      48.548  25.877  33.272  1.00  0.00     0.002 A 
ATOM     63  C   UNL A   1      47.475  23.983  34.343  1.00  0.00     0.091 A 
ATOM     64  F   UNL A   1      45.153  23.589  33.956  1.00  0.00    -0.205 F 
ATOM     65  C   UNL A   1      48.621  24.756  34.095  1.00  0.00     0.022 A 
BRANCH  63  66
ATOM     66  S   UNL A   1      47.636  22.609  35.489  1.00  0.00     0.127 S 
ATOM     67  O   UNL A   1      49.060  22.659  35.817  1.00  0.00    -0.237 OA
ATOM     68  O   UNL A   1      46.743  23.003  36.579  1.00  0.00    -0.237 OA
ATOM     69  O   UNL A   1      47.202  21.427  34.754  1.00  0.00    -0.744 OA
ENDBRANCH  63  66
ENDBRANCH  36  59
ENDBRANCH  10  11
ENDBRANCH   3   5
ENDBRANCH   2   3
ENDBRANCH   1   2
BRANCH   1  70
ATOM     70  C   UNL A   1      32.034  28.998  24.932  1.00  0.00     0.275 C 
BRANCH  70  71
ATOM     71  O   UNL A   1      30.879  28.158  25.032  1.00  0.00    -0.458 OA
BRANCH  71  72
ATOM     72  C   UNL A   1      30.671  27.318  23.986  1.00  0.00     0.343 C 
ATOM     73  O   UNL A   1      30.204  27.632  22.898  1.00  0.00    -0.246 OA
BRANCH  72  74
ATOM     74  C   UNL A   1      31.247  25.993  24.265  1.00  0.00     0.126 A 
ATOM     75  C   UNL A   1      30.663  25.275  25.241  1.00  0.00     0.038 A 
ATOM     76  C   UNL A   1      32.378  25.416  23.485  1.00  0.00     0.265 A 
ATOM     77  C   UNL A   1      31.079  23.922  25.520  1.00  0.00     0.035 A 
ATOM     78  N   UNL A   1      32.741  24.106  23.827  1.00  0.00    -0.309 N 
ATOM     79  O   UNL A   1      32.940  26.083  22.620  1.00  0.00    -0.268 OA
ATOM     80  Br  UNL A   1      30.148  22.961  26.813  1.00  0.00    -0.049 Br
ATOM     81  C   UNL A   1      32.084  23.387  24.814  1.00  0.00     0.105 A 
BRANCH  78  82
ATOM     82  C   UNL A   1      33.864  23.478  23.133  1.00  0.00     0.161 C 
BRANCH  82  83
ATOM     83  C   UNL A   1      35.064  23.303  24.027  1.00  0.00    -0.025 A 
ATOM     84  C   UNL A   1      35.371  24.249  25.015  1.00  0.00     0.006 A 
ATOM     85  C   UNL A   1      35.894  22.183  23.870  1.00  0.00     0.044 A 
ATOM     86  C   UNL A   1      36.489  24.079  25.833  1.00  0.00     0.003 A 
ATOM     87  C   UNL A   1      37.005  22.027  24.687  1.00  0.00     0.123 A 
ATOM     88  C   UNL A   1      37.310  22.966  25.665  1.00  0.00     0.039 A 
ATOM     89  F   UNL A   1      37.797  20.958  24.531  1.00  0.00    -0.207 F 
ENDBRANCH  82  83
ENDBRANCH  78  82
ENDBRANCH  72  74
ENDBRANCH  71  72
ENDBRANCH  70  71
ENDBRANCH   1  70
TORSDOF 16
ENDMDL
