MODEL 1
REMARK VINA RESULT:     -13.0      0.000      0.000
REMARK SMILES O=C(OCCOC(=O)C1(Cc2ccncc2)Cc2ccccc2C1)c1ccc(-c2c3nc(c(-c4cccc(S(=O)(=O)[O-])c4F)c4ccc([nH]4)c(-c4cccc(S(=O)(=O)[O-])c4F)c4nc(c(-c5cccc(S(=O)(=O)[O-])c5F)c5ccc2[nH]5)C=C4)C=C3)cc1
REMARK SMILES IDX 4 1 3 2 2 3 1 4 25 5 26 6 87 7 27 8 86 9 28 10 29 11 30 12
REMARK SMILES IDX 80 13 31 14 85 15 79 16 81 17 32 18 84 19 78 20 77 21 33 23
REMARK SMILES IDX 65 24 45 25 64 26 46 27 49 28 63 29 82 30 47 31 48 32 62 34
REMARK SMILES IDX 83 35 50 36 34 37 35 38 43 39 36 40 38 41 44 42 37 43 39 44
REMARK SMILES IDX 40 45 41 46 42 47 66 48 67 49 75 50 68 51 70 52 76 53 69 54
REMARK SMILES IDX 71 55 72 56 73 57 74 58 51 59 52 60 60 61 53 62 55 63 61 64
REMARK SMILES IDX 54 65 56 66 57 67 58 68 59 69 5 70 6 71 7 72 8 73 9 74 17 75
REMARK SMILES IDX 24 76 18 77 23 78 19 79 22 80 20 81 21 82 10 83 11 84 12 85
REMARK SMILES IDX 16 86 13 87 15 88 14 89
REMARK H PARENT 81 22 49 33
REMARK Flexibility Score: inf
ROOT
ATOM      1  C   UNL A   1      35.090  21.186  24.697  1.00  0.00     0.275 C 
ENDROOT
BRANCH   1   2
ATOM      2  O   UNL A   1      36.132  20.527  25.445  1.00  0.00    -0.458 OA
BRANCH   2   3
ATOM      3  C   UNL A   1      37.476  20.626  25.325  1.00  0.00     0.338 C 
ATOM      4  O   UNL A   1      38.130  19.661  24.936  1.00  0.00    -0.246 OA
BRANCH   3   5
ATOM      5  C   UNL A   1      38.237  21.822  25.765  1.00  0.00     0.060 A 
ATOM      6  C   UNL A   1      37.785  23.556  25.397  1.00  0.00     0.016 A 
ATOM      7  C   UNL A   1      39.763  21.505  26.736  1.00  0.00     0.016 A 
ATOM      8  C   UNL A   1      38.925  24.911  25.823  1.00  0.00     0.010 A 
ATOM      9  C   UNL A   1      40.809  22.900  27.310  1.00  0.00     0.010 A 
ATOM     10  C   UNL A   1      40.407  24.595  26.776  1.00  0.00    -0.014 A 
BRANCH  10  11
ATOM     11  C   UNL A   1      41.156  25.791  27.259  1.00  0.00     0.031 A 
ATOM     12  C   UNL A   1      40.473  26.835  28.086  1.00  0.00     0.074 A 
ATOM     13  C   UNL A   1      42.488  25.887  27.056  1.00  0.00     0.049 A 
ATOM     14  N   UNL A   1      40.954  27.959  28.551  1.00  0.00    -0.248 NA
ATOM     15  C   UNL A   1      39.089  26.565  28.492  1.00  0.00     0.031 C 
ATOM     16  C   UNL A   1      43.327  24.840  26.492  1.00  0.00     0.029 A 
ATOM     17  N   UNL A   1      43.379  26.908  27.284  1.00  0.00    -0.354 N 
ATOM     18  C   UNL A   1      39.922  28.548  29.269  1.00  0.00     0.074 A 
ATOM     19  C   UNL A   1      38.790  27.650  29.194  1.00  0.00     0.031 C 
ATOM     20  C   UNL A   1      44.568  25.300  26.285  1.00  0.00     0.029 A 
ATOM     21  C   UNL A   1      44.621  26.681  26.725  1.00  0.00     0.049 A 
ATOM     22  H   UNL A   1      43.155  27.719  27.795  1.00  0.00     0.167 HD
ATOM     23  C   UNL A   1      39.925  29.726  29.934  1.00  0.00     0.034 A 
ATOM     24  C   UNL A   1      45.682  27.493  26.560  1.00  0.00     0.034 A 
ATOM     25  C   UNL A   1      41.069  30.594  30.017  1.00  0.00     0.049 A 
ATOM     26  C   UNL A   1      45.615  28.852  27.187  1.00  0.00     0.074 A 
ATOM     27  C   UNL A   1      41.186  31.804  30.675  1.00  0.00     0.029 A 
ATOM     28  N   UNL A   1      42.289  30.353  29.401  1.00  0.00    -0.354 N 
ATOM     29  N   UNL A   1      44.653  29.365  27.914  1.00  0.00    -0.248 NA
ATOM     30  C   UNL A   1      46.786  29.724  27.027  1.00  0.00     0.031 C 
ATOM     31  C   UNL A   1      42.458  32.320  30.413  1.00  0.00     0.029 A 
ATOM     32  C   UNL A   1      43.150  31.413  29.624  1.00  0.00     0.049 A 
ATOM     33  H   UNL A   1      42.510  29.547  28.882  1.00  0.00     0.167 HD
ATOM     34  C   UNL A   1      45.114  30.602  28.335  1.00  0.00     0.074 A 
ATOM     35  C   UNL A   1      46.450  30.756  27.791  1.00  0.00     0.031 C 
ATOM     36  C   UNL A   1      44.487  31.527  29.099  1.00  0.00     0.034 A 
BRANCH  23  37
ATOM     37  C   UNL A   1      38.639  30.166  30.579  1.00  0.00     0.023 A 
ATOM     38  C   UNL A   1      38.329  29.781  31.898  1.00  0.00     0.012 A 
ATOM     39  C   UNL A   1      37.745  30.993  29.870  1.00  0.00     0.148 A 
ATOM     40  C   UNL A   1      37.130  30.183  32.488  1.00  0.00     0.002 A 
ATOM     41  C   UNL A   1      36.571  31.420  30.477  1.00  0.00     0.091 A 
ATOM     42  F   UNL A   1      38.056  31.335  28.611  1.00  0.00    -0.205 F 
ATOM     43  C   UNL A   1      36.255  31.006  31.781  1.00  0.00     0.022 A 
BRANCH  41  44
ATOM     44  S   UNL A   1      35.408  32.524  29.670  1.00  0.00     0.127 S 
ATOM     45  O   UNL A   1      34.396  32.701  30.712  1.00  0.00    -0.237 OA
ATOM     46  O   UNL A   1      36.235  33.704  29.415  1.00  0.00    -0.237 OA
ATOM     47  O   UNL A   1      34.949  31.828  28.476  1.00  0.00    -0.744 OA
ENDBRANCH  41  44
ENDBRANCH  23  37
BRANCH  24  48
ATOM     48  C   UNL A   1      46.882  27.046  25.791  1.00  0.00     0.023 A 
ATOM     49  C   UNL A   1      47.825  26.190  26.389  1.00  0.00     0.012 A 
ATOM     50  C   UNL A   1      47.098  27.480  24.464  1.00  0.00     0.148 A 
ATOM     51  C   UNL A   1      48.979  25.806  25.701  1.00  0.00     0.002 A 
ATOM     52  C   UNL A   1      48.232  27.066  23.773  1.00  0.00     0.091 A 
ATOM     53  F   UNL A   1      46.185  28.286  23.905  1.00  0.00    -0.205 F 
ATOM     54  C   UNL A   1      49.181  26.242  24.395  1.00  0.00     0.022 A 
BRANCH  52  55
ATOM     55  S   UNL A   1      48.556  27.515  22.063  1.00  0.00     0.127 S 
ATOM     56  O   UNL A   1      47.390  28.335  21.740  1.00  0.00    -0.237 OA
ATOM     57  O   UNL A   1      49.814  28.250  22.186  1.00  0.00    -0.237 OA
ATOM     58  O   UNL A   1      48.650  26.258  21.334  1.00  0.00    -0.744 OA
ENDBRANCH  52  55
ENDBRANCH  24  48
BRANCH  36  59
ATOM     59  C   UNL A   1      45.242  32.787  29.408  1.00  0.00     0.023 A 
ATOM     60  C   UNL A   1      46.097  32.830  30.526  1.00  0.00     0.012 A 
ATOM     61  C   UNL A   1      45.174  33.889  28.536  1.00  0.00     0.148 A 
ATOM     62  C   UNL A   1      46.864  33.963  30.781  1.00  0.00     0.002 A 
ATOM     63  C   UNL A   1      45.982  34.994  28.766  1.00  0.00     0.091 A 
ATOM     64  F   UNL A   1      44.332  33.828  27.493  1.00  0.00    -0.205 F 
ATOM     65  C   UNL A   1      46.819  35.037  29.893  1.00  0.00     0.022 A 
BRANCH  63  66
ATOM     66  S   UNL A   1      46.070  36.374  27.622  1.00  0.00     0.127 S 
ATOM     67  O   UNL A   1      45.721  35.733  26.355  1.00  0.00    -0.237 OA
ATOM     68  O   UNL A   1      45.049  37.277  28.153  1.00  0.00    -0.237 OA
ATOM     69  O   UNL A   1      47.433  36.882  27.706  1.00  0.00    -0.744 OA
ENDBRANCH  63  66
ENDBRANCH  36  59
ENDBRANCH  10  11
ENDBRANCH   3   5
ENDBRANCH   2   3
ENDBRANCH   1   2
BRANCH   1  70
ATOM     70  C   UNL A   1      34.263  22.215  25.491  1.00  0.00     0.274 C 
BRANCH  70  71
ATOM     71  O   UNL A   1      33.968  23.397  24.730  1.00  0.00    -0.462 OA
BRANCH  71  72
ATOM     72  C   UNL A   1      32.646  23.692  24.629  1.00  0.00     0.313 C 
ATOM     73  O   UNL A   1      31.777  22.829  24.590  1.00  0.00    -0.252 OA
BRANCH  72  74
ATOM     74  C   UNL A   1      32.369  25.202  24.648  1.00  0.00     0.080 C 
ATOM     75  C   UNL A   1      31.957  25.478  26.165  1.00  0.00     0.055 C 
ATOM     76  C   UNL A   1      33.745  25.966  24.647  1.00  0.00     0.055 C 
ATOM     77  C   UNL A   1      32.426  26.890  26.363  1.00  0.00    -0.044 A 
ATOM     78  C   UNL A   1      33.428  27.191  25.436  1.00  0.00    -0.044 A 
ATOM     79  C   UNL A   1      32.022  27.834  27.287  1.00  0.00     0.004 A 
ATOM     80  C   UNL A   1      34.009  28.444  25.370  1.00  0.00     0.004 A 
ATOM     81  C   UNL A   1      32.587  29.110  27.220  1.00  0.00     0.000 A 
ATOM     82  C   UNL A   1      33.566  29.417  26.263  1.00  0.00     0.000 A 
BRANCH  74  83
ATOM     83  C   UNL A   1      30.952  25.814  23.586  1.00  0.00     0.055 C 
BRANCH  83  84
ATOM     84  C   UNL A   1      29.849  27.630  23.229  1.00  0.00    -0.044 A 
ATOM     85  C   UNL A   1      28.344  27.919  23.350  1.00  0.00     0.024 A 
ATOM     86  C   UNL A   1      30.286  28.942  22.552  1.00  0.00     0.024 A 
ATOM     87  C   UNL A   1      27.609  28.966  22.745  1.00  0.00     0.111 A 
ATOM     88  C   UNL A   1      29.464  29.962  22.013  1.00  0.00     0.111 A 
ATOM     89  N   UNL A   1      28.133  29.968  22.047  1.00  0.00    -0.265 NA
ENDBRANCH  83  84
ENDBRANCH  74  83
ENDBRANCH  72  74
ENDBRANCH  71  72
ENDBRANCH  70  71
ENDBRANCH   1  70
TORSDOF 16
ENDMDL
MODEL 2
REMARK VINA RESULT:     -12.3      5.317      8.083
REMARK SMILES O=C(OCCOC(=O)C1(Cc2ccncc2)Cc2ccccc2C1)c1ccc(-c2c3nc(c(-c4cccc(S(=O)(=O)[O-])c4F)c4ccc([nH]4)c(-c4cccc(S(=O)(=O)[O-])c4F)c4nc(c(-c5cccc(S(=O)(=O)[O-])c5F)c5ccc2[nH]5)C=C4)C=C3)cc1
REMARK SMILES IDX 4 1 3 2 2 3 1 4 25 5 26 6 87 7 27 8 86 9 28 10 29 11 30 12
REMARK SMILES IDX 80 13 31 14 85 15 79 16 81 17 32 18 84 19 78 20 77 21 33 23
REMARK SMILES IDX 65 24 45 25 64 26 46 27 49 28 63 29 82 30 47 31 48 32 62 34
REMARK SMILES IDX 83 35 50 36 34 37 35 38 43 39 36 40 38 41 44 42 37 43 39 44
REMARK SMILES IDX 40 45 41 46 42 47 66 48 67 49 75 50 68 51 70 52 76 53 69 54
REMARK SMILES IDX 71 55 72 56 73 57 74 58 51 59 52 60 60 61 53 62 55 63 61 64
REMARK SMILES IDX 54 65 56 66 57 67 58 68 59 69 5 70 6 71 7 72 8 73 9 74 17 75
REMARK SMILES IDX 24 76 18 77 23 78 19 79 22 80 20 81 21 82 10 83 11 84 12 85
REMARK SMILES IDX 16 86 13 87 15 88 14 89
REMARK H PARENT 81 22 49 33
REMARK Flexibility Score: inf
ROOT
ATOM      1  C   UNL A   1      34.078  30.759  27.640  1.00  0.00     0.275 C 
ENDROOT
BRANCH   1   2
ATOM      2  O   UNL A   1      34.158  31.898  28.521  1.00  0.00    -0.458 OA
BRANCH   2   3
ATOM      3  C   UNL A   1      34.848  32.052  29.675  1.00  0.00     0.338 C 
ATOM      4  O   UNL A   1      34.405  32.775  30.563  1.00  0.00    -0.246 OA
BRANCH   3   5
ATOM      5  C   UNL A   1      36.202  31.481  29.884  1.00  0.00     0.060 A 
ATOM      6  C   UNL A   1      37.756  32.176  29.215  1.00  0.00     0.016 A 
ATOM      7  C   UNL A   1      36.291  29.940  30.878  1.00  0.00     0.016 A 
ATOM      8  C   UNL A   1      39.319  31.253  29.378  1.00  0.00     0.010 A 
ATOM      9  C   UNL A   1      37.905  29.117  31.179  1.00  0.00     0.010 A 
ATOM     10  C   UNL A   1      39.399  29.755  30.354  1.00  0.00    -0.014 A 
BRANCH  10  11
ATOM     11  C   UNL A   1      40.759  29.196  30.605  1.00  0.00     0.031 A 
ATOM     12  C   UNL A   1      41.634  29.772  31.674  1.00  0.00     0.074 A 
ATOM     13  C   UNL A   1      41.170  28.088  29.952  1.00  0.00     0.049 A 
ATOM     14  N   UNL A   1      42.857  29.445  32.000  1.00  0.00    -0.248 NA
ATOM     15  C   UNL A   1      41.049  30.814  32.527  1.00  0.00     0.031 C 
ATOM     16  C   UNL A   1      40.340  27.277  29.073  1.00  0.00     0.029 A 
ATOM     17  N   UNL A   1      42.386  27.449  29.906  1.00  0.00    -0.354 N 
ATOM     18  C   UNL A   1      43.202  30.265  33.065  1.00  0.00     0.074 A 
ATOM     19  C   UNL A   1      42.053  31.098  33.346  1.00  0.00     0.031 C 
ATOM     20  C   UNL A   1      41.082  26.341  28.468  1.00  0.00     0.029 A 
ATOM     21  C   UNL A   1      42.449  26.470  28.933  1.00  0.00     0.049 A 
ATOM     22  H   UNL A   1      43.136  27.666  30.505  1.00  0.00     0.167 HD
ATOM     23  C   UNL A   1      44.370  30.311  33.748  1.00  0.00     0.034 A 
ATOM     24  C   UNL A   1      43.490  25.766  28.449  1.00  0.00     0.034 A 
ATOM     25  C   UNL A   1      45.493  29.458  33.470  1.00  0.00     0.049 A 
ATOM     26  C   UNL A   1      44.814  25.933  29.131  1.00  0.00     0.074 A 
ATOM     27  C   UNL A   1      46.719  29.412  34.108  1.00  0.00     0.029 A 
ATOM     28  N   UNL A   1      45.535  28.516  32.451  1.00  0.00    -0.354 N 
ATOM     29  N   UNL A   1      45.102  26.669  30.176  1.00  0.00    -0.248 NA
ATOM     30  C   UNL A   1      45.939  25.143  28.616  1.00  0.00     0.031 C 
ATOM     31  C   UNL A   1      47.520  28.480  33.442  1.00  0.00     0.029 A 
ATOM     32  C   UNL A   1      46.781  27.916  32.413  1.00  0.00     0.049 A 
ATOM     33  H   UNL A   1      44.789  28.306  31.846  1.00  0.00     0.167 HD
ATOM     34  C   UNL A   1      46.429  26.402  30.473  1.00  0.00     0.074 A 
ATOM     35  C   UNL A   1      46.885  25.425  29.503  1.00  0.00     0.031 C 
ATOM     36  C   UNL A   1      47.199  26.922  31.458  1.00  0.00     0.034 A 
BRANCH  23  37
ATOM     37  C   UNL A   1      44.505  31.352  34.827  1.00  0.00     0.023 A 
ATOM     38  C   UNL A   1      45.031  32.626  34.533  1.00  0.00     0.012 A 
ATOM     39  C   UNL A   1      44.081  31.062  36.139  1.00  0.00     0.148 A 
ATOM     40  C   UNL A   1      45.164  33.584  35.540  1.00  0.00     0.002 A 
ATOM     41  C   UNL A   1      44.182  32.033  37.126  1.00  0.00     0.091 A 
ATOM     42  F   UNL A   1      43.596  29.839  36.396  1.00  0.00    -0.205 F 
ATOM     43  C   UNL A   1      44.735  33.290  36.833  1.00  0.00     0.022 A 
BRANCH  41  44
ATOM     44  S   UNL A   1      43.607  31.771  38.807  1.00  0.00     0.127 S 
ATOM     45  O   UNL A   1      42.172  31.575  38.602  1.00  0.00    -0.237 OA
ATOM     46  O   UNL A   1      44.339  30.564  39.194  1.00  0.00    -0.237 OA
ATOM     47  O   UNL A   1      43.967  32.970  39.551  1.00  0.00    -0.744 OA
ENDBRANCH  41  44
ENDBRANCH  23  37
BRANCH  24  48
ATOM     48  C   UNL A   1      43.322  24.847  27.284  1.00  0.00     0.023 A 
ATOM     49  C   UNL A   1      43.726  25.257  25.999  1.00  0.00     0.012 A 
ATOM     50  C   UNL A   1      42.748  23.567  27.443  1.00  0.00     0.148 A 
ATOM     51  C   UNL A   1      43.526  24.430  24.891  1.00  0.00     0.002 A 
ATOM     52  C   UNL A   1      42.585  22.734  26.341  1.00  0.00     0.091 A 
ATOM     53  F   UNL A   1      42.379  23.187  28.675  1.00  0.00    -0.205 F 
ATOM     54  C   UNL A   1      42.959  23.170  25.061  1.00  0.00     0.022 A 
BRANCH  52  55
ATOM     55  S   UNL A   1      41.926  21.067  26.460  1.00  0.00     0.127 S 
ATOM     56  O   UNL A   1      42.289  20.696  27.827  1.00  0.00    -0.237 OA
ATOM     57  O   UNL A   1      40.499  21.299  26.241  1.00  0.00    -0.237 OA
ATOM     58  O   UNL A   1      42.590  20.302  25.414  1.00  0.00    -0.744 OA
ENDBRANCH  52  55
ENDBRANCH  24  48
BRANCH  36  59
ATOM     59  C   UNL A   1      48.616  26.434  31.548  1.00  0.00     0.023 A 
ATOM     60  C   UNL A   1      49.634  27.119  30.857  1.00  0.00     0.012 A 
ATOM     61  C   UNL A   1      48.946  25.357  32.392  1.00  0.00     0.148 A 
ATOM     62  C   UNL A   1      50.962  26.728  30.993  1.00  0.00     0.002 A 
ATOM     63  C   UNL A   1      50.278  25.007  32.565  1.00  0.00     0.091 A 
ATOM     64  F   UNL A   1      47.953  24.708  33.017  1.00  0.00    -0.205 F 
ATOM     65  C   UNL A   1      51.286  25.684  31.859  1.00  0.00     0.022 A 
BRANCH  63  66
ATOM     66  S   UNL A   1      50.796  23.750  33.737  1.00  0.00     0.127 S 
ATOM     67  O   UNL A   1      52.253  23.848  33.652  1.00  0.00    -0.237 OA
ATOM     68  O   UNL A   1      50.222  24.244  34.989  1.00  0.00    -0.237 OA
ATOM     69  O   UNL A   1      50.229  22.496  33.262  1.00  0.00    -0.744 OA
ENDBRANCH  63  66
ENDBRANCH  36  59
ENDBRANCH  10  11
ENDBRANCH   3   5
ENDBRANCH   2   3
ENDBRANCH   1   2
BRANCH   1  70
ATOM     70  C   UNL A   1      32.728  30.578  26.922  1.00  0.00     0.274 C 
BRANCH  70  71
ATOM     71  O   UNL A   1      32.464  29.210  26.571  1.00  0.00    -0.462 OA
BRANCH  71  72
ATOM     72  C   UNL A   1      32.471  28.955  25.237  1.00  0.00     0.313 C 
ATOM     73  O   UNL A   1      33.167  29.582  24.447  1.00  0.00    -0.252 OA
BRANCH  72  74
ATOM     74  C   UNL A   1      31.582  27.763  24.854  1.00  0.00     0.080 C 
ATOM     75  C   UNL A   1      32.546  26.865  23.953  1.00  0.00     0.055 C 
ATOM     76  C   UNL A   1      31.472  26.799  26.093  1.00  0.00     0.055 C 
ATOM     77  C   UNL A   1      32.025  25.483  24.222  1.00  0.00    -0.044 A 
ATOM     78  C   UNL A   1      31.347  25.462  25.444  1.00  0.00    -0.044 A 
ATOM     79  C   UNL A   1      32.145  24.331  23.469  1.00  0.00     0.004 A 
ATOM     80  C   UNL A   1      30.730  24.318  25.918  1.00  0.00     0.004 A 
ATOM     81  C   UNL A   1      31.511  23.173  23.925  1.00  0.00     0.000 A 
ATOM     82  C   UNL A   1      30.800  23.168  25.135  1.00  0.00     0.000 A 
BRANCH  74  83
ATOM     83  C   UNL A   1      30.069  28.137  23.815  1.00  0.00     0.055 C 
BRANCH  83  84
ATOM     84  C   UNL A   1      28.982  29.844  23.073  1.00  0.00    -0.044 A 
ATOM     85  C   UNL A   1      28.326  30.086  21.705  1.00  0.00     0.024 A 
ATOM     86  C   UNL A   1      28.841  31.262  23.656  1.00  0.00     0.024 A 
ATOM     87  C   UNL A   1      27.978  31.325  21.115  1.00  0.00     0.111 A 
ATOM     88  C   UNL A   1      28.437  32.444  22.987  1.00  0.00     0.111 A 
ATOM     89  N   UNL A   1      28.058  32.509  21.712  1.00  0.00    -0.265 NA
ENDBRANCH  83  84
ENDBRANCH  74  83
ENDBRANCH  72  74
ENDBRANCH  71  72
ENDBRANCH  70  71
ENDBRANCH   1  70
TORSDOF 16
ENDMDL
MODEL 3
REMARK VINA RESULT:     -12.2      5.235      8.024
REMARK SMILES O=C(OCCOC(=O)C1(Cc2ccncc2)Cc2ccccc2C1)c1ccc(-c2c3nc(c(-c4cccc(S(=O)(=O)[O-])c4F)c4ccc([nH]4)c(-c4cccc(S(=O)(=O)[O-])c4F)c4nc(c(-c5cccc(S(=O)(=O)[O-])c5F)c5ccc2[nH]5)C=C4)C=C3)cc1
REMARK SMILES IDX 4 1 3 2 2 3 1 4 25 5 26 6 87 7 27 8 86 9 28 10 29 11 30 12
REMARK SMILES IDX 80 13 31 14 85 15 79 16 81 17 32 18 84 19 78 20 77 21 33 23
REMARK SMILES IDX 65 24 45 25 64 26 46 27 49 28 63 29 82 30 47 31 48 32 62 34
REMARK SMILES IDX 83 35 50 36 34 37 35 38 43 39 36 40 38 41 44 42 37 43 39 44
REMARK SMILES IDX 40 45 41 46 42 47 66 48 67 49 75 50 68 51 70 52 76 53 69 54
REMARK SMILES IDX 71 55 72 56 73 57 74 58 51 59 52 60 60 61 53 62 55 63 61 64
REMARK SMILES IDX 54 65 56 66 57 67 58 68 59 69 5 70 6 71 7 72 8 73 9 74 17 75
REMARK SMILES IDX 24 76 18 77 23 78 19 79 22 80 20 81 21 82 10 83 11 84 12 85
REMARK SMILES IDX 16 86 13 87 15 88 14 89
REMARK H PARENT 81 22 49 33
REMARK Flexibility Score: inf
ROOT
ATOM      1  C   UNL A   1      34.149  30.892  27.348  1.00  0.00     0.275 C 
ENDROOT
BRANCH   1   2
ATOM      2  O   UNL A   1      33.953  31.958  28.300  1.00  0.00    -0.458 OA
BRANCH   2   3
ATOM      3  C   UNL A   1      34.639  32.243  29.431  1.00  0.00     0.338 C 
ATOM      4  O   UNL A   1      34.229  33.114  30.194  1.00  0.00    -0.246 OA
BRANCH   3   5
ATOM      5  C   UNL A   1      35.957  31.637  29.746  1.00  0.00     0.060 A 
ATOM      6  C   UNL A   1      37.580  32.332  29.269  1.00  0.00     0.016 A 
ATOM      7  C   UNL A   1      35.923  30.050  30.669  1.00  0.00     0.016 A 
ATOM      8  C   UNL A   1      39.105  31.372  29.542  1.00  0.00     0.010 A 
ATOM      9  C   UNL A   1      37.486  29.184  31.090  1.00  0.00     0.010 A 
ATOM     10  C   UNL A   1      39.065  29.829  30.448  1.00  0.00    -0.014 A 
BRANCH  10  11
ATOM     11  C   UNL A   1      40.384  29.233  30.807  1.00  0.00     0.031 A 
ATOM     12  C   UNL A   1      41.141  29.720  32.003  1.00  0.00     0.074 A 
ATOM     13  C   UNL A   1      40.856  28.167  30.126  1.00  0.00     0.049 A 
ATOM     14  N   UNL A   1      42.318  29.352  32.436  1.00  0.00    -0.248 NA
ATOM     15  C   UNL A   1      40.474  30.710  32.858  1.00  0.00     0.031 C 
ATOM     16  C   UNL A   1      40.121  27.431  29.107  1.00  0.00     0.029 A 
ATOM     17  N   UNL A   1      42.064  27.512  30.168  1.00  0.00    -0.354 N 
ATOM     18  C   UNL A   1      42.550  30.091  33.588  1.00  0.00     0.074 A 
ATOM     19  C   UNL A   1      41.384  30.920  33.799  1.00  0.00     0.031 C 
ATOM     20  C   UNL A   1      40.917  26.527  28.522  1.00  0.00     0.029 A 
ATOM     21  C   UNL A   1      42.226  26.603  29.142  1.00  0.00     0.049 A 
ATOM     22  H   UNL A   1      42.745  27.676  30.860  1.00  0.00     0.167 HD
ATOM     23  C   UNL A   1      43.636  30.071  34.396  1.00  0.00     0.034 A 
ATOM     24  C   UNL A   1      43.307  25.918  28.726  1.00  0.00     0.034 A 
ATOM     25  C   UNL A   1      44.776  29.222  34.183  1.00  0.00     0.049 A 
ATOM     26  C   UNL A   1      44.549  26.016  29.558  1.00  0.00     0.074 A 
ATOM     27  C   UNL A   1      45.924  29.112  34.946  1.00  0.00     0.029 A 
ATOM     28  N   UNL A   1      44.923  28.352  33.111  1.00  0.00    -0.354 N 
ATOM     29  N   UNL A   1      44.727  26.673  30.678  1.00  0.00    -0.248 NA
ATOM     30  C   UNL A   1      45.719  25.246  29.115  1.00  0.00     0.031 C 
ATOM     31  C   UNL A   1      46.786  28.216  34.308  1.00  0.00     0.029 A 
ATOM     32  C   UNL A   1      46.160  27.736  33.167  1.00  0.00     0.049 A 
ATOM     33  H   UNL A   1      44.246  28.196  32.415  1.00  0.00     0.167 HD
ATOM     34  C   UNL A   1      46.011  26.365  31.098  1.00  0.00     0.074 A 
ATOM     35  C   UNL A   1      46.563  25.451  30.117  1.00  0.00     0.031 C 
ATOM     36  C   UNL A   1      46.673  26.803  32.196  1.00  0.00     0.034 A 
BRANCH  23  37
ATOM     37  C   UNL A   1      43.660  31.032  35.554  1.00  0.00     0.023 A 
ATOM     38  C   UNL A   1      43.182  30.641  36.821  1.00  0.00     0.012 A 
ATOM     39  C   UNL A   1      44.189  32.326  35.381  1.00  0.00     0.148 A 
ATOM     40  C   UNL A   1      43.197  31.540  37.889  1.00  0.00     0.002 A 
ATOM     41  C   UNL A   1      44.235  33.202  36.458  1.00  0.00     0.091 A 
ATOM     42  F   UNL A   1      44.626  32.678  34.163  1.00  0.00    -0.205 F 
ATOM     43  C   UNL A   1      43.728  32.816  37.709  1.00  0.00     0.022 A 
BRANCH  41  44
ATOM     44  S   UNL A   1      44.948  34.845  36.342  1.00  0.00     0.127 S 
ATOM     45  O   UNL A   1      44.384  35.497  37.524  1.00  0.00    -0.237 OA
ATOM     46  O   UNL A   1      46.381  34.561  36.428  1.00  0.00    -0.237 OA
ATOM     47  O   UNL A   1      44.507  35.391  35.066  1.00  0.00    -0.744 OA
ENDBRANCH  41  44
ENDBRANCH  23  37
BRANCH  24  48
ATOM     48  C   UNL A   1      43.261  25.084  27.488  1.00  0.00     0.023 A 
ATOM     49  C   UNL A   1      43.771  25.591  26.277  1.00  0.00     0.012 A 
ATOM     50  C   UNL A   1      42.700  23.788  27.503  1.00  0.00     0.148 A 
ATOM     51  C   UNL A   1      43.686  24.844  25.099  1.00  0.00     0.002 A 
ATOM     52  C   UNL A   1      42.651  23.036  26.333  1.00  0.00     0.091 A 
ATOM     53  F   UNL A   1      42.229  23.316  28.666  1.00  0.00    -0.205 F 
ATOM     54  C   UNL A   1      43.129  23.569  25.127  1.00  0.00     0.022 A 
BRANCH  52  55
ATOM     55  S   UNL A   1      42.016  21.357  26.273  1.00  0.00     0.127 S 
ATOM     56  O   UNL A   1      42.872  20.746  25.258  1.00  0.00    -0.237 OA
ATOM     57  O   UNL A   1      42.259  20.902  27.642  1.00  0.00    -0.237 OA
ATOM     58  O   UNL A   1      40.611  21.477  25.908  1.00  0.00    -0.744 OA
ENDBRANCH  52  55
ENDBRANCH  24  48
BRANCH  36  59
ATOM     59  C   UNL A   1      48.067  26.289  32.405  1.00  0.00     0.023 A 
ATOM     60  C   UNL A   1      49.156  26.972  31.832  1.00  0.00     0.012 A 
ATOM     61  C   UNL A   1      48.299  25.185  33.248  1.00  0.00     0.148 A 
ATOM     62  C   UNL A   1      50.459  26.554  32.082  1.00  0.00     0.002 A 
ATOM     63  C   UNL A   1      49.603  24.807  33.536  1.00  0.00     0.091 A 
ATOM     64  F   UNL A   1      47.241  24.538  33.760  1.00  0.00    -0.205 F 
ATOM     65  C   UNL A   1      50.684  25.483  32.946  1.00  0.00     0.022 A 
BRANCH  63  66
ATOM     66  S   UNL A   1      49.989  23.512  34.717  1.00  0.00     0.127 S 
ATOM     67  O   UNL A   1      51.450  23.497  34.675  1.00  0.00    -0.237 OA
ATOM     68  O   UNL A   1      49.419  24.046  35.954  1.00  0.00    -0.237 OA
ATOM     69  O   UNL A   1      49.341  22.306  34.222  1.00  0.00    -0.744 OA
ENDBRANCH  63  66
ENDBRANCH  36  59
ENDBRANCH  10  11
ENDBRANCH   3   5
ENDBRANCH   2   3
ENDBRANCH   1   2
BRANCH   1  70
ATOM     70  C   UNL A   1      32.916  30.007  27.091  1.00  0.00     0.274 C 
BRANCH  70  71
ATOM     71  O   UNL A   1      33.162  28.618  27.364  1.00  0.00    -0.462 OA
BRANCH  71  72
ATOM     72  C   UNL A   1      32.078  27.812  27.229  1.00  0.00     0.313 C 
ATOM     73  O   UNL A   1      31.108  27.875  27.975  1.00  0.00    -0.252 OA
BRANCH  72  74
ATOM     74  C   UNL A   1      32.175  26.883  26.009  1.00  0.00     0.080 C 
ATOM     75  C   UNL A   1      33.746  26.651  25.852  1.00  0.00     0.055 C 
ATOM     76  C   UNL A   1      31.776  25.427  26.453  1.00  0.00     0.055 C 
ATOM     77  C   UNL A   1      33.799  25.273  25.260  1.00  0.00    -0.044 A 
ATOM     78  C   UNL A   1      32.623  24.582  25.561  1.00  0.00    -0.044 A 
ATOM     79  C   UNL A   1      34.800  24.664  24.528  1.00  0.00     0.004 A 
ATOM     80  C   UNL A   1      32.390  23.298  25.101  1.00  0.00     0.004 A 
ATOM     81  C   UNL A   1      34.572  23.375  24.040  1.00  0.00     0.000 A 
ATOM     82  C   UNL A   1      33.373  22.700  24.315  1.00  0.00     0.000 A 
BRANCH  74  83
ATOM     83  C   UNL A   1      31.567  27.569  24.375  1.00  0.00     0.055 C 
BRANCH  83  84
ATOM     84  C   UNL A   1      29.890  28.673  23.593  1.00  0.00    -0.044 A 
ATOM     85  C   UNL A   1      29.626  30.187  23.557  1.00  0.00     0.024 A 
ATOM     86  C   UNL A   1      28.505  28.182  23.130  1.00  0.00     0.024 A 
ATOM     87  C   UNL A   1      28.384  30.850  23.411  1.00  0.00     0.111 A 
ATOM     88  C   UNL A   1      27.320  28.942  22.969  1.00  0.00     0.111 A 
ATOM     89  N   UNL A   1      27.223  30.256  23.157  1.00  0.00    -0.265 NA
ENDBRANCH  83  84
ENDBRANCH  74  83
ENDBRANCH  72  74
ENDBRANCH  71  72
ENDBRANCH  70  71
ENDBRANCH   1  70
TORSDOF 16
ENDMDL
