MODEL 1
REMARK VINA RESULT:     -12.3      0.000      0.000
REMARK SMILES Cc1nc(Oc2ccc(F)cc2)c(C(=O)OCCOC(=O)c2ccc(-c3c4nc(c(-c5cccc(S(=O)(=O)[O-])c5F)c5ccc([nH]5)c(-c5cccc(S(=O)(=O)[O-])c5F)c5nc(c(-c6cccc(S(=O)(=O)[O-])c6F)c6ccc3[nH]6)C=C5)C=C4)cc2)c(C)c1Cl
REMARK SMILES IDX 18 1 17 2 16 3 14 4 15 5 13 6 1 7 2 8 3 9 87 10 4 11 85 12
REMARK SMILES IDX 88 13 86 14 5 15 6 16 7 17 12 18 8 19 11 20 9 21 10 22 19 23
REMARK SMILES IDX 20 24 21 25 22 26 23 27 84 28 24 29 83 30 25 31 26 32 27 33
REMARK SMILES IDX 77 34 28 35 82 36 76 37 78 38 29 39 81 40 75 41 74 42 30 44
REMARK SMILES IDX 62 45 42 46 61 47 43 48 46 49 60 50 79 51 44 52 45 53 59 55
REMARK SMILES IDX 80 56 47 57 31 58 32 59 40 60 33 61 35 62 41 63 34 64 36 65
REMARK SMILES IDX 37 66 38 67 39 68 63 69 64 70 72 71 65 72 67 73 73 74 66 75
REMARK SMILES IDX 68 76 69 77 70 78 71 79 48 80 49 81 57 82 50 83 52 84 58 85
REMARK SMILES IDX 51 86 53 87 54 88 55 89 56 90
REMARK H PARENT 78 43 46 54
REMARK Flexibility Score: inf
ROOT
ATOM      1  C   UNL A   1      37.784  20.036  24.664  1.00  0.00     0.275 C 
ENDROOT
BRANCH   1   2
ATOM      2  C   UNL A   1      36.327  19.678  25.003  1.00  0.00     0.275 C 
BRANCH   2   3
ATOM      3  O   UNL A   1      35.483  20.761  24.581  1.00  0.00    -0.458 OA
BRANCH   3   4
ATOM      4  C   UNL A   1      34.791  21.445  25.531  1.00  0.00     0.344 C 
ATOM      5  O   UNL A   1      34.991  21.485  26.723  1.00  0.00    -0.246 OA
BRANCH   4   6
ATOM      6  C   UNL A   1      33.759  22.168  24.769  1.00  0.00     0.127 A 
ATOM      7  C   UNL A   1      30.687  24.700  23.290  1.00  0.00     0.068 C 
ATOM      8  C   UNL A   1      31.813  23.821  23.765  1.00  0.00     0.060 A 
ATOM      9  N   UNL A   1      31.447  22.650  24.360  1.00  0.00    -0.216 NA
ATOM     10  C   UNL A   1      33.149  24.180  23.568  1.00  0.00     0.066 A 
ATOM     11  C   UNL A   1      32.408  21.829  24.866  1.00  0.00     0.234 A 
ATOM     12  C   UNL A   1      34.153  23.333  24.060  1.00  0.00    -0.011 A 
ATOM     13  Cl  UNL A   1      33.553  25.651  22.747  1.00  0.00    -0.082 Cl
ATOM     14  C   UNL A   1      35.616  23.664  23.895  1.00  0.00     0.047 C 
BRANCH  11  15
ATOM     15  O   UNL A   1      31.905  20.588  25.197  1.00  0.00    -0.438 OA
BRANCH  15  16
ATOM     16  C   UNL A   1      32.403  19.397  24.732  1.00  0.00     0.129 A 
ATOM     17  C   UNL A   1      32.380  19.222  23.345  1.00  0.00     0.050 A 
ATOM     18  C   UNL A   1      32.903  18.363  25.505  1.00  0.00     0.050 A 
ATOM     19  C   UNL A   1      32.916  18.068  22.757  1.00  0.00     0.043 A 
ATOM     20  C   UNL A   1      33.460  17.216  24.934  1.00  0.00     0.043 A 
ATOM     21  C   UNL A   1      33.474  17.083  23.560  1.00  0.00     0.123 A 
ATOM     22  F   UNL A   1      34.035  15.999  23.010  1.00  0.00    -0.207 F 
ENDBRANCH  15  16
ENDBRANCH  11  15
ENDBRANCH   4   6
ENDBRANCH   3   4
ENDBRANCH   2   3
ENDBRANCH   1   2
BRANCH   1  23
ATOM     23  O   UNL A   1      38.254  21.145  25.468  1.00  0.00    -0.458 OA
BRANCH  23  24
ATOM     24  C   UNL A   1      39.423  20.960  26.144  1.00  0.00     0.338 C 
ATOM     25  O   UNL A   1      40.102  19.946  26.144  1.00  0.00    -0.246 OA
BRANCH  24  26
ATOM     26  C   UNL A   1      39.893  22.269  26.681  1.00  0.00     0.060 A 
ATOM     27  C   UNL A   1      39.207  23.421  26.265  1.00  0.00     0.016 A 
ATOM     28  C   UNL A   1      40.879  22.373  27.670  1.00  0.00     0.016 A 
ATOM     29  C   UNL A   1      39.482  24.661  26.852  1.00  0.00     0.010 A 
ATOM     30  C   UNL A   1      41.183  23.626  28.228  1.00  0.00     0.010 A 
ATOM     31  C   UNL A   1      40.497  24.781  27.813  1.00  0.00    -0.014 A 
BRANCH  31  32
ATOM     32  C   UNL A   1      41.026  26.135  28.136  1.00  0.00     0.031 A 
ATOM     33  C   UNL A   1      42.432  26.443  27.683  1.00  0.00     0.074 A 
ATOM     34  C   UNL A   1      40.326  27.086  28.783  1.00  0.00     0.049 A 
ATOM     35  N   UNL A   1      43.106  27.558  27.762  1.00  0.00    -0.248 NA
ATOM     36  C   UNL A   1      43.164  25.340  27.034  1.00  0.00     0.031 C 
ATOM     37  C   UNL A   1      38.952  26.963  29.267  1.00  0.00     0.029 A 
ATOM     38  N   UNL A   1      40.695  28.363  29.149  1.00  0.00    -0.354 N 
ATOM     39  C   UNL A   1      44.328  27.298  27.159  1.00  0.00     0.074 A 
ATOM     40  C   UNL A   1      44.312  25.920  26.724  1.00  0.00     0.031 C 
ATOM     41  C   UNL A   1      38.601  28.112  29.878  1.00  0.00     0.029 A 
ATOM     42  C   UNL A   1      39.724  29.052  29.839  1.00  0.00     0.049 A 
ATOM     43  H   UNL A   1      41.575  28.747  28.934  1.00  0.00     0.167 HD
ATOM     44  C   UNL A   1      45.379  28.125  26.969  1.00  0.00     0.034 A 
ATOM     45  C   UNL A   1      39.743  30.290  30.377  1.00  0.00     0.034 A 
ATOM     46  C   UNL A   1      45.453  29.478  27.432  1.00  0.00     0.049 A 
ATOM     47  C   UNL A   1      40.974  31.161  30.246  1.00  0.00     0.074 A 
ATOM     48  C   UNL A   1      46.497  30.374  27.291  1.00  0.00     0.029 A 
ATOM     49  N   UNL A   1      44.463  30.119  28.154  1.00  0.00    -0.354 N 
ATOM     50  N   UNL A   1      42.075  30.942  29.570  1.00  0.00    -0.248 NA
ATOM     51  C   UNL A   1      40.955  32.460  30.943  1.00  0.00     0.031 C 
ATOM     52  C   UNL A   1      46.148  31.553  27.952  1.00  0.00     0.029 A 
ATOM     53  C   UNL A   1      44.880  31.394  28.488  1.00  0.00     0.049 A 
ATOM     54  H   UNL A   1      43.592  29.726  28.394  1.00  0.00     0.167 HD
ATOM     55  C   UNL A   1      42.867  32.075  29.747  1.00  0.00     0.074 A 
ATOM     56  C   UNL A   1      42.115  32.991  30.575  1.00  0.00     0.031 C 
ATOM     57  C   UNL A   1      44.114  32.323  29.276  1.00  0.00     0.034 A 
BRANCH  44  58
ATOM     58  C   UNL A   1      46.544  27.573  26.206  1.00  0.00     0.023 A 
ATOM     59  C   UNL A   1      46.587  27.744  24.808  1.00  0.00     0.012 A 
ATOM     60  C   UNL A   1      47.594  26.915  26.868  1.00  0.00     0.148 A 
ATOM     61  C   UNL A   1      47.662  27.254  24.074  1.00  0.00     0.002 A 
ATOM     62  C   UNL A   1      48.674  26.450  26.132  1.00  0.00     0.091 A 
ATOM     63  F   UNL A   1      47.507  26.747  28.195  1.00  0.00    -0.205 F 
ATOM     64  C   UNL A   1      48.708  26.614  24.736  1.00  0.00     0.022 A 
BRANCH  62  65
ATOM     65  S   UNL A   1      50.084  25.635  26.887  1.00  0.00     0.127 S 
ATOM     66  O   UNL A   1      49.473  24.409  27.403  1.00  0.00    -0.237 OA
ATOM     67  O   UNL A   1      50.971  25.441  25.742  1.00  0.00    -0.237 OA
ATOM     68  O   UNL A   1      50.582  26.549  27.905  1.00  0.00    -0.744 OA
ENDBRANCH  62  65
ENDBRANCH  44  58
BRANCH  45  69
ATOM     69  C   UNL A   1      38.543  30.825  31.084  1.00  0.00     0.023 A 
ATOM     70  C   UNL A   1      38.428  30.644  32.477  1.00  0.00     0.012 A 
ATOM     71  C   UNL A   1      37.507  31.474  30.387  1.00  0.00     0.148 A 
ATOM     72  C   UNL A   1      37.291  31.080  33.160  1.00  0.00     0.002 A 
ATOM     73  C   UNL A   1      36.391  31.937  31.079  1.00  0.00     0.091 A 
ATOM     74  F   UNL A   1      37.632  31.622  29.061  1.00  0.00    -0.205 F 
ATOM     75  C   UNL A   1      36.276  31.730  32.463  1.00  0.00     0.022 A 
BRANCH  73  76
ATOM     76  S   UNL A   1      35.056  32.839  30.285  1.00  0.00     0.127 S 
ATOM     77  O   UNL A   1      34.136  33.059  31.400  1.00  0.00    -0.237 OA
ATOM     78  O   UNL A   1      35.750  34.037  29.813  1.00  0.00    -0.237 OA
ATOM     79  O   UNL A   1      34.556  31.965  29.233  1.00  0.00    -0.744 OA
ENDBRANCH  73  76
ENDBRANCH  45  69
BRANCH  57  80
ATOM     80  C   UNL A   1      44.783  33.624  29.634  1.00  0.00     0.023 A 
ATOM     81  C   UNL A   1      45.574  33.692  30.797  1.00  0.00     0.012 A 
ATOM     82  C   UNL A   1      44.762  34.719  28.745  1.00  0.00     0.148 A 
ATOM     83  C   UNL A   1      46.331  34.831  31.074  1.00  0.00     0.002 A 
ATOM     84  C   UNL A   1      45.547  35.836  29.009  1.00  0.00     0.091 A 
ATOM     85  F   UNL A   1      43.999  34.633  27.646  1.00  0.00    -0.205 F 
ATOM     86  C   UNL A   1      46.328  35.894  30.175  1.00  0.00     0.022 A 
BRANCH  84  87
ATOM     87  S   UNL A   1      45.679  37.221  27.871  1.00  0.00     0.127 S 
ATOM     88  O   UNL A   1      44.296  37.690  27.811  1.00  0.00    -0.237 OA
ATOM     89  O   UNL A   1      46.598  38.116  28.576  1.00  0.00    -0.237 OA
ATOM     90  O   UNL A   1      46.204  36.672  26.627  1.00  0.00    -0.744 OA
ENDBRANCH  84  87
ENDBRANCH  57  80
ENDBRANCH  31  32
ENDBRANCH  24  26
ENDBRANCH  23  24
ENDBRANCH   1  23
TORSDOF 16
ENDMDL
MODEL 2
REMARK VINA RESULT:     -12.1      5.739      8.408
REMARK SMILES Cc1nc(Oc2ccc(F)cc2)c(C(=O)OCCOC(=O)c2ccc(-c3c4nc(c(-c5cccc(S(=O)(=O)[O-])c5F)c5ccc([nH]5)c(-c5cccc(S(=O)(=O)[O-])c5F)c5nc(c(-c6cccc(S(=O)(=O)[O-])c6F)c6ccc3[nH]6)C=C5)C=C4)cc2)c(C)c1Cl
REMARK SMILES IDX 18 1 17 2 16 3 14 4 15 5 13 6 1 7 2 8 3 9 87 10 4 11 85 12
REMARK SMILES IDX 88 13 86 14 5 15 6 16 7 17 12 18 8 19 11 20 9 21 10 22 19 23
REMARK SMILES IDX 20 24 21 25 22 26 23 27 84 28 24 29 83 30 25 31 26 32 27 33
REMARK SMILES IDX 77 34 28 35 82 36 76 37 78 38 29 39 81 40 75 41 74 42 30 44
REMARK SMILES IDX 62 45 42 46 61 47 43 48 46 49 60 50 79 51 44 52 45 53 59 55
REMARK SMILES IDX 80 56 47 57 31 58 32 59 40 60 33 61 35 62 41 63 34 64 36 65
REMARK SMILES IDX 37 66 38 67 39 68 63 69 64 70 72 71 65 72 67 73 73 74 66 75
REMARK SMILES IDX 68 76 69 77 70 78 71 79 48 80 49 81 57 82 50 83 52 84 58 85
REMARK SMILES IDX 51 86 53 87 54 88 55 89 56 90
REMARK H PARENT 78 43 46 54
REMARK Flexibility Score: inf
ROOT
ATOM      1  C   UNL A   1      31.750  30.286  26.778  1.00  0.00     0.275 C 
ENDROOT
BRANCH   1   2
ATOM      2  C   UNL A   1      31.777  28.788  27.130  1.00  0.00     0.275 C 
BRANCH   2   3
ATOM      3  O   UNL A   1      31.682  28.034  25.912  1.00  0.00    -0.458 OA
BRANCH   3   4
ATOM      4  C   UNL A   1      31.108  26.802  25.962  1.00  0.00     0.344 C 
ATOM      5  O   UNL A   1      30.445  26.317  26.850  1.00  0.00    -0.246 OA
BRANCH   4   6
ATOM      6  C   UNL A   1      31.444  26.199  24.661  1.00  0.00     0.127 A 
ATOM      7  C   UNL A   1      32.860  25.172  20.791  1.00  0.00     0.068 C 
ATOM      8  C   UNL A   1      32.383  25.481  22.185  1.00  0.00     0.060 A 
ATOM      9  N   UNL A   1      31.200  26.152  22.278  1.00  0.00    -0.216 NA
ATOM     10  C   UNL A   1      33.102  25.066  23.310  1.00  0.00     0.066 A 
ATOM     11  C   UNL A   1      30.733  26.517  23.503  1.00  0.00     0.234 A 
ATOM     12  C   UNL A   1      32.621  25.410  24.581  1.00  0.00    -0.011 A 
ATOM     13  Cl  UNL A   1      34.567  24.157  23.131  1.00  0.00    -0.082 Cl
ATOM     14  C   UNL A   1      33.353  25.006  25.838  1.00  0.00     0.047 C 
BRANCH  11  15
ATOM     15  O   UNL A   1      29.425  26.952  23.448  1.00  0.00    -0.438 OA
BRANCH  15  16
ATOM     16  C   UNL A   1      29.045  28.267  23.350  1.00  0.00     0.129 A 
ATOM     17  C   UNL A   1      27.691  28.497  23.090  1.00  0.00     0.050 A 
ATOM     18  C   UNL A   1      29.876  29.368  23.468  1.00  0.00     0.050 A 
ATOM     19  C   UNL A   1      27.182  29.802  23.027  1.00  0.00     0.043 A 
ATOM     20  C   UNL A   1      29.382  30.675  23.430  1.00  0.00     0.043 A 
ATOM     21  C   UNL A   1      28.032  30.881  23.222  1.00  0.00     0.123 A 
ATOM     22  F   UNL A   1      27.552  32.131  23.215  1.00  0.00    -0.207 F 
ENDBRANCH  15  16
ENDBRANCH  11  15
ENDBRANCH   4   6
ENDBRANCH   3   4
ENDBRANCH   2   3
ENDBRANCH   1   2
BRANCH   1  23
ATOM     23  O   UNL A   1      33.080  30.781  26.485  1.00  0.00    -0.458 OA
BRANCH  23  24
ATOM     24  C   UNL A   1      33.514  31.842  27.220  1.00  0.00     0.338 C 
ATOM     25  O   UNL A   1      32.885  32.860  27.458  1.00  0.00    -0.246 OA
BRANCH  24  26
ATOM     26  C   UNL A   1      34.781  31.473  27.916  1.00  0.00     0.060 A 
ATOM     27  C   UNL A   1      34.924  30.140  28.331  1.00  0.00     0.016 A 
ATOM     28  C   UNL A   1      35.863  32.353  28.041  1.00  0.00     0.016 A 
ATOM     29  C   UNL A   1      36.144  29.681  28.837  1.00  0.00     0.010 A 
ATOM     30  C   UNL A   1      37.074  31.902  28.590  1.00  0.00     0.010 A 
ATOM     31  C   UNL A   1      37.220  30.567  29.005  1.00  0.00    -0.014 A 
BRANCH  31  32
ATOM     32  C   UNL A   1      38.354  30.165  29.882  1.00  0.00     0.031 A 
ATOM     33  C   UNL A   1      39.333  29.169  29.314  1.00  0.00     0.074 A 
ATOM     34  C   UNL A   1      38.558  30.647  31.124  1.00  0.00     0.049 A 
ATOM     35  N   UNL A   1      40.444  28.709  29.826  1.00  0.00    -0.248 NA
ATOM     36  C   UNL A   1      39.020  28.637  27.975  1.00  0.00     0.031 C 
ATOM     37  C   UNL A   1      37.725  31.630  31.813  1.00  0.00     0.029 A 
ATOM     38  N   UNL A   1      39.552  30.356  32.034  1.00  0.00    -0.354 N 
ATOM     39  C   UNL A   1      40.968  27.853  28.867  1.00  0.00     0.074 A 
ATOM     40  C   UNL A   1      40.057  27.847  27.746  1.00  0.00     0.031 C 
ATOM     41  C   UNL A   1      38.235  31.849  33.041  1.00  0.00     0.029 A 
ATOM     42  C   UNL A   1      39.425  31.017  33.234  1.00  0.00     0.049 A 
ATOM     43  H   UNL A   1      40.287  29.730  31.841  1.00  0.00     0.167 HD
ATOM     44  C   UNL A   1      42.112  27.134  28.900  1.00  0.00     0.034 A 
ATOM     45  C   UNL A   1      40.178  30.954  34.353  1.00  0.00     0.034 A 
ATOM     46  C   UNL A   1      43.012  27.074  30.011  1.00  0.00     0.049 A 
ATOM     47  C   UNL A   1      41.395  30.057  34.405  1.00  0.00     0.074 A 
ATOM     48  C   UNL A   1      44.185  26.350  30.123  1.00  0.00     0.029 A 
ATOM     49  N   UNL A   1      42.824  27.731  31.214  1.00  0.00    -0.354 N 
ATOM     50  N   UNL A   1      41.941  29.346  33.449  1.00  0.00    -0.248 NA
ATOM     51  C   UNL A   1      42.109  29.967  35.692  1.00  0.00     0.031 C 
ATOM     52  C   UNL A   1      44.697  26.550  31.407  1.00  0.00     0.029 A 
ATOM     53  C   UNL A   1      43.849  27.411  32.085  1.00  0.00     0.049 A 
ATOM     54  H   UNL A   1      42.074  28.334  31.418  1.00  0.00     0.167 HD
ATOM     55  C   UNL A   1      43.065  28.742  34.012  1.00  0.00     0.074 A 
ATOM     56  C   UNL A   1      43.137  29.184  35.387  1.00  0.00     0.031 C 
ATOM     57  C   UNL A   1      43.945  27.884  33.440  1.00  0.00     0.034 A 
BRANCH  44  58
ATOM     58  C   UNL A   1      42.455  26.355  27.667  1.00  0.00     0.023 A 
ATOM     59  C   UNL A   1      43.139  27.002  26.619  1.00  0.00     0.012 A 
ATOM     60  C   UNL A   1      42.126  24.993  27.559  1.00  0.00     0.148 A 
ATOM     61  C   UNL A   1      43.482  26.301  25.468  1.00  0.00     0.002 A 
ATOM     62  C   UNL A   1      42.493  24.295  26.419  1.00  0.00     0.091 A 
ATOM     63  F   UNL A   1      41.452  24.418  28.565  1.00  0.00    -0.205 F 
ATOM     64  C   UNL A   1      43.166  24.947  25.371  1.00  0.00     0.022 A 
BRANCH  62  65
ATOM     65  S   UNL A   1      42.157  22.546  26.202  1.00  0.00     0.127 S 
ATOM     66  O   UNL A   1      42.824  21.971  27.372  1.00  0.00    -0.237 OA
ATOM     67  O   UNL A   1      40.697  22.508  26.252  1.00  0.00    -0.237 OA
ATOM     68  O   UNL A   1      42.740  22.177  24.920  1.00  0.00    -0.744 OA
ENDBRANCH  62  65
ENDBRANCH  44  58
BRANCH  45  69
ATOM     69  C   UNL A   1      39.834  31.786  35.543  1.00  0.00     0.023 A 
ATOM     70  C   UNL A   1      40.547  32.979  35.777  1.00  0.00     0.012 A 
ATOM     71  C   UNL A   1      38.840  31.389  36.457  1.00  0.00     0.148 A 
ATOM     72  C   UNL A   1      40.291  33.750  36.912  1.00  0.00     0.002 A 
ATOM     73  C   UNL A   1      38.565  32.180  37.568  1.00  0.00     0.091 A 
ATOM     74  F   UNL A   1      38.185  30.243  36.221  1.00  0.00    -0.205 F 
ATOM     75  C   UNL A   1      39.298  33.354  37.804  1.00  0.00     0.022 A 
BRANCH  73  76
ATOM     76  S   UNL A   1      37.267  31.790  38.747  1.00  0.00     0.127 S 
ATOM     77  O   UNL A   1      37.929  32.054  40.023  1.00  0.00    -0.237 OA
ATOM     78  O   UNL A   1      36.234  32.758  38.377  1.00  0.00    -0.237 OA
ATOM     79  O   UNL A   1      36.917  30.398  38.507  1.00  0.00    -0.744 OA
ENDBRANCH  73  76
ENDBRANCH  45  69
BRANCH  57  80
ATOM     80  C   UNL A   1      45.074  27.336  34.274  1.00  0.00     0.023 A 
ATOM     81  C   UNL A   1      46.300  28.028  34.311  1.00  0.00     0.012 A 
ATOM     82  C   UNL A   1      44.871  26.240  35.138  1.00  0.00     0.148 A 
ATOM     83  C   UNL A   1      47.308  27.637  35.191  1.00  0.00     0.002 A 
ATOM     84  C   UNL A   1      45.867  25.878  36.038  1.00  0.00     0.091 A 
ATOM     85  F   UNL A   1      43.698  25.594  35.083  1.00  0.00    -0.205 F 
ATOM     86  C   UNL A   1      47.088  26.573  36.062  1.00  0.00     0.022 A 
BRANCH  84  87
ATOM     87  S   UNL A   1      45.648  24.578  37.259  1.00  0.00     0.127 S 
ATOM     88  O   UNL A   1      45.748  23.374  36.435  1.00  0.00    -0.237 OA
ATOM     89  O   UNL A   1      46.782  24.799  38.157  1.00  0.00    -0.237 OA
ATOM     90  O   UNL A   1      44.342  24.810  37.864  1.00  0.00    -0.744 OA
ENDBRANCH  84  87
ENDBRANCH  57  80
ENDBRANCH  31  32
ENDBRANCH  24  26
ENDBRANCH  23  24
ENDBRANCH   1  23
TORSDOF 16
ENDMDL
MODEL 3
REMARK VINA RESULT:     -12.0      5.341      8.410
REMARK SMILES Cc1nc(Oc2ccc(F)cc2)c(C(=O)OCCOC(=O)c2ccc(-c3c4nc(c(-c5cccc(S(=O)(=O)[O-])c5F)c5ccc([nH]5)c(-c5cccc(S(=O)(=O)[O-])c5F)c5nc(c(-c6cccc(S(=O)(=O)[O-])c6F)c6ccc3[nH]6)C=C5)C=C4)cc2)c(C)c1Cl
REMARK SMILES IDX 18 1 17 2 16 3 14 4 15 5 13 6 1 7 2 8 3 9 87 10 4 11 85 12
REMARK SMILES IDX 88 13 86 14 5 15 6 16 7 17 12 18 8 19 11 20 9 21 10 22 19 23
REMARK SMILES IDX 20 24 21 25 22 26 23 27 84 28 24 29 83 30 25 31 26 32 27 33
REMARK SMILES IDX 77 34 28 35 82 36 76 37 78 38 29 39 81 40 75 41 74 42 30 44
REMARK SMILES IDX 62 45 42 46 61 47 43 48 46 49 60 50 79 51 44 52 45 53 59 55
REMARK SMILES IDX 80 56 47 57 31 58 32 59 40 60 33 61 35 62 41 63 34 64 36 65
REMARK SMILES IDX 37 66 38 67 39 68 63 69 64 70 72 71 65 72 67 73 73 74 66 75
REMARK SMILES IDX 68 76 69 77 70 78 71 79 48 80 49 81 57 82 50 83 52 84 58 85
REMARK SMILES IDX 51 86 53 87 54 88 55 89 56 90
REMARK H PARENT 78 43 46 54
REMARK Flexibility Score: inf
ROOT
ATOM      1  C   UNL A   1      31.594  30.181  26.535  1.00  0.00     0.275 C 
ENDROOT
BRANCH   1   2
ATOM      2  C   UNL A   1      31.674  28.759  27.119  1.00  0.00     0.275 C 
BRANCH   2   3
ATOM      3  O   UNL A   1      31.926  27.841  26.044  1.00  0.00    -0.458 OA
BRANCH   3   4
ATOM      4  C   UNL A   1      31.221  26.679  26.012  1.00  0.00     0.344 C 
ATOM      5  O   UNL A   1      30.476  26.229  26.852  1.00  0.00    -0.246 OA
BRANCH   4   6
ATOM      6  C   UNL A   1      31.539  26.104  24.694  1.00  0.00     0.127 A 
ATOM      7  C   UNL A   1      32.905  25.161  20.785  1.00  0.00     0.068 C 
ATOM      8  C   UNL A   1      32.446  25.440  22.192  1.00  0.00     0.060 A 
ATOM      9  N   UNL A   1      31.267  26.114  22.313  1.00  0.00    -0.216 NA
ATOM     10  C   UNL A   1      33.176  24.995  23.298  1.00  0.00     0.066 A 
ATOM     11  C   UNL A   1      30.816  26.452  23.552  1.00  0.00     0.234 A 
ATOM     12  C   UNL A   1      32.711  25.312  24.582  1.00  0.00    -0.011 A 
ATOM     13  Cl  UNL A   1      34.634  24.085  23.081  1.00  0.00    -0.082 Cl
ATOM     14  C   UNL A   1      33.456  24.876  25.820  1.00  0.00     0.047 C 
BRANCH  11  15
ATOM     15  O   UNL A   1      29.510  26.894  23.523  1.00  0.00    -0.438 OA
BRANCH  15  16
ATOM     16  C   UNL A   1      29.135  28.208  23.398  1.00  0.00     0.129 A 
ATOM     17  C   UNL A   1      27.782  28.438  23.128  1.00  0.00     0.050 A 
ATOM     18  C   UNL A   1      29.969  29.309  23.498  1.00  0.00     0.050 A 
ATOM     19  C   UNL A   1      27.278  29.743  23.038  1.00  0.00     0.043 A 
ATOM     20  C   UNL A   1      29.479  30.616  23.433  1.00  0.00     0.043 A 
ATOM     21  C   UNL A   1      28.131  30.823  23.215  1.00  0.00     0.123 A 
ATOM     22  F   UNL A   1      27.656  32.074  23.183  1.00  0.00    -0.207 F 
ENDBRANCH  15  16
ENDBRANCH  11  15
ENDBRANCH   4   6
ENDBRANCH   3   4
ENDBRANCH   2   3
ENDBRANCH   1   2
BRANCH   1  23
ATOM     23  O   UNL A   1      32.914  30.719  26.281  1.00  0.00    -0.458 OA
BRANCH  23  24
ATOM     24  C   UNL A   1      33.293  31.793  27.029  1.00  0.00     0.338 C 
ATOM     25  O   UNL A   1      32.626  32.791  27.247  1.00  0.00    -0.246 OA
BRANCH  24  26
ATOM     26  C   UNL A   1      34.548  31.462  27.765  1.00  0.00     0.060 A 
ATOM     27  C   UNL A   1      34.762  30.116  28.100  1.00  0.00     0.016 A 
ATOM     28  C   UNL A   1      35.559  32.402  28.002  1.00  0.00     0.016 A 
ATOM     29  C   UNL A   1      35.987  29.706  28.639  1.00  0.00     0.010 A 
ATOM     30  C   UNL A   1      36.771  31.996  28.583  1.00  0.00     0.010 A 
ATOM     31  C   UNL A   1      36.989  30.648  28.919  1.00  0.00    -0.014 A 
BRANCH  31  32
ATOM     32  C   UNL A   1      38.106  30.263  29.826  1.00  0.00     0.031 A 
ATOM     33  C   UNL A   1      39.099  29.261  29.295  1.00  0.00     0.074 A 
ATOM     34  C   UNL A   1      38.282  30.765  31.064  1.00  0.00     0.049 A 
ATOM     35  N   UNL A   1      40.200  28.813  29.837  1.00  0.00    -0.248 NA
ATOM     36  C   UNL A   1      38.817  28.707  27.958  1.00  0.00     0.031 C 
ATOM     37  C   UNL A   1      37.431  31.756  31.719  1.00  0.00     0.029 A 
ATOM     38  N   UNL A   1      39.257  30.492  31.999  1.00  0.00    -0.354 N 
ATOM     39  C   UNL A   1      40.747  27.944  28.904  1.00  0.00     0.074 A 
ATOM     40  C   UNL A   1      39.860  27.917  27.764  1.00  0.00     0.031 C 
ATOM     41  C   UNL A   1      37.914  31.996  32.955  1.00  0.00     0.029 A 
ATOM     42  C   UNL A   1      39.102  31.171  33.186  1.00  0.00     0.049 A 
ATOM     43  H   UNL A   1      39.998  29.866  31.832  1.00  0.00     0.167 HD
ATOM     44  C   UNL A   1      41.892  27.230  28.972  1.00  0.00     0.034 A 
ATOM     45  C   UNL A   1      39.831  31.128  34.322  1.00  0.00     0.034 A 
ATOM     46  C   UNL A   1      42.769  27.190  30.104  1.00  0.00     0.049 A 
ATOM     47  C   UNL A   1      41.049  30.236  34.414  1.00  0.00     0.074 A 
ATOM     48  C   UNL A   1      43.940  26.471  30.252  1.00  0.00     0.029 A 
ATOM     49  N   UNL A   1      42.553  27.865  31.291  1.00  0.00    -0.354 N 
ATOM     50  N   UNL A   1      41.618  29.512  33.481  1.00  0.00    -0.248 NA
ATOM     51  C   UNL A   1      41.736  30.169  35.717  1.00  0.00     0.031 C 
ATOM     52  C   UNL A   1      44.424  26.693  31.543  1.00  0.00     0.029 A 
ATOM     53  C   UNL A   1      43.560  27.562  32.189  1.00  0.00     0.049 A 
ATOM     54  H   UNL A   1      41.797  28.469  31.470  1.00  0.00     0.167 HD
ATOM     55  C   UNL A   1      42.731  28.921  34.077  1.00  0.00     0.074 A 
ATOM     56  C   UNL A   1      42.772  29.385  35.446  1.00  0.00     0.031 C 
ATOM     57  C   UNL A   1      43.626  28.057  33.538  1.00  0.00     0.034 A 
BRANCH  44  58
ATOM     58  C   UNL A   1      42.263  26.432  27.760  1.00  0.00     0.023 A 
ATOM     59  C   UNL A   1      42.972  27.063  26.719  1.00  0.00     0.012 A 
ATOM     60  C   UNL A   1      41.936  25.069  27.664  1.00  0.00     0.148 A 
ATOM     61  C   UNL A   1      43.342  26.344  25.586  1.00  0.00     0.002 A 
ATOM     62  C   UNL A   1      42.329  24.353  26.543  1.00  0.00     0.091 A 
ATOM     63  F   UNL A   1      41.238  24.509  28.662  1.00  0.00    -0.205 F 
ATOM     64  C   UNL A   1      43.028  24.990  25.502  1.00  0.00     0.022 A 
BRANCH  62  65
ATOM     65  S   UNL A   1      41.998  22.601  26.345  1.00  0.00     0.127 S 
ATOM     66  O   UNL A   1      42.615  22.047  27.550  1.00  0.00    -0.237 OA
ATOM     67  O   UNL A   1      40.536  22.568  26.336  1.00  0.00    -0.237 OA
ATOM     68  O   UNL A   1      42.630  22.209  25.094  1.00  0.00    -0.744 OA
ENDBRANCH  62  65
ENDBRANCH  44  58
BRANCH  45  69
ATOM     69  C   UNL A   1      39.459  31.978  35.490  1.00  0.00     0.023 A 
ATOM     70  C   UNL A   1      38.564  31.471  36.454  1.00  0.00     0.012 A 
ATOM     71  C   UNL A   1      39.953  33.289  35.634  1.00  0.00     0.148 A 
ATOM     72  C   UNL A   1      38.150  32.262  37.527  1.00  0.00     0.002 A 
ATOM     73  C   UNL A   1      39.563  34.060  36.725  1.00  0.00     0.091 A 
ATOM     74  F   UNL A   1      40.791  33.755  34.697  1.00  0.00    -0.205 F 
ATOM     75  C   UNL A   1      38.652  33.553  37.665  1.00  0.00     0.022 A 
BRANCH  73  76
ATOM     76  S   UNL A   1      40.198  35.714  37.027  1.00  0.00     0.127 S 
ATOM     77  O   UNL A   1      39.663  36.455  35.886  1.00  0.00    -0.237 OA
ATOM     78  O   UNL A   1      39.580  36.034  38.314  1.00  0.00    -0.237 OA
ATOM     79  O   UNL A   1      41.647  35.584  37.057  1.00  0.00    -0.744 OA
ENDBRANCH  73  76
ENDBRANCH  45  69
BRANCH  57  80
ATOM     80  C   UNL A   1      44.738  27.525  34.404  1.00  0.00     0.023 A 
ATOM     81  C   UNL A   1      45.905  28.296  34.573  1.00  0.00     0.012 A 
ATOM     82  C   UNL A   1      44.563  26.356  35.171  1.00  0.00     0.148 A 
ATOM     83  C   UNL A   1      46.883  27.909  35.489  1.00  0.00     0.002 A 
ATOM     84  C   UNL A   1      45.526  25.995  36.108  1.00  0.00     0.091 A 
ATOM     85  F   UNL A   1      43.446  25.636  34.992  1.00  0.00    -0.205 F 
ATOM     86  C   UNL A   1      46.688  26.769  36.264  1.00  0.00     0.022 A 
BRANCH  84  87
ATOM     87  S   UNL A   1      45.327  24.593  37.215  1.00  0.00     0.127 S 
ATOM     88  O   UNL A   1      44.128  24.971  37.962  1.00  0.00    -0.237 OA
ATOM     89  O   UNL A   1      45.140  23.483  36.281  1.00  0.00    -0.237 OA
ATOM     90  O   UNL A   1      46.552  24.524  38.002  1.00  0.00    -0.744 OA
ENDBRANCH  84  87
ENDBRANCH  57  80
ENDBRANCH  31  32
ENDBRANCH  24  26
ENDBRANCH  23  24
ENDBRANCH   1  23
TORSDOF 16
ENDMDL
