MODEL 1
REMARK VINA RESULT:     -12.2      0.000      0.000
REMARK SMILES CC1(C)CC[C@@]2(C(=O)OCCOC(=O)c3ccc(-c4c5nc(c(-c6cccc(S(=O)(=O)[O-])c6F)c6ccc([nH]6)c(-c6cccc(S(=O)(=O)[O-])c6F)c6nc(c(-c7cccc(S(=O)(=O)[O-])c7F)c7ccc4[nH]7)C=C6)C=C5)cc3)CC[C@@]3(C)C(=CC[C@H]4[C@@]5(C)CC[C@H](O)C(C)(C)[C@@H]5CC[C@@]43C)[C@@H]2C1
REMARK SMILES IDX 11 1 10 2 9 3 7 4 8 5 6 6 1 7 2 8 3 9 4 10 101 11 5 12
REMARK SMILES IDX 100 13 82 14 78 15 80 16 83 17 79 18 81 19 98 20 84 21 85 22
REMARK SMILES IDX 97 23 99 24 86 25 96 26 87 27 88 28 95 29 89 30 92 31 90 32
REMARK SMILES IDX 93 33 94 34 91 35 12 37 13 38 14 39 15 40 16 41 77 42 17 43
REMARK SMILES IDX 76 44 18 45 19 46 20 47 70 48 21 49 75 50 69 51 71 52 22 53
REMARK SMILES IDX 74 54 68 55 67 56 23 58 55 59 35 60 54 61 36 62 39 63 53 64
REMARK SMILES IDX 72 65 37 66 38 67 52 69 73 70 40 71 24 72 25 73 33 74 26 75
REMARK SMILES IDX 28 76 34 77 27 78 29 79 30 80 31 81 32 82 56 83 57 84 65 85
REMARK SMILES IDX 58 86 60 87 66 88 59 89 61 90 62 91 63 92 64 93 41 94 42 95
REMARK SMILES IDX 50 96 43 97 45 98 51 99 44 100 46 101 47 102 48 103 49 104
REMARK H PARENT 91 36 71 57 39 68
REMARK Flexibility Score: inf
ROOT
ATOM      1  C   UNL A   1      45.873  29.236  26.869  1.00  0.00     0.275 C 
ENDROOT
BRANCH   1   2
ATOM      2  C   UNL A   1      44.110  28.021  26.669  1.00  0.00     0.274 C 
BRANCH   2   3
ATOM      3  O   UNL A   1      43.148  27.353  27.801  1.00  0.00    -0.462 OA
BRANCH   3   4
ATOM      4  C   UNL A   1      41.927  27.186  28.342  1.00  0.00     0.312 C 
ATOM      5  O   UNL A   1      41.811  26.724  29.475  1.00  0.00    -0.252 OA
BRANCH   4   6
ATOM      6  C   UNL A   1      40.728  27.469  27.456  1.00  0.00     0.075 C 
ATOM      7  C   UNL A   1      39.584  23.503  27.017  1.00  0.00     0.011 C 
ATOM      8  C   UNL A   1      40.531  24.559  27.603  1.00  0.00    -0.035 C 
ATOM      9  C   UNL A   1      41.629  23.807  28.414  1.00  0.00     0.011 C 
ATOM     10  C   UNL A   1      41.254  25.248  26.423  1.00  0.00     0.007 C 
ATOM     11  C   UNL A   1      39.680  25.470  28.576  1.00  0.00     0.015 C 
ATOM     12  C   UNL A   1      40.783  26.658  26.155  1.00  0.00     0.020 C 
ATOM     13  C   UNL A   1      39.483  27.011  28.249  1.00  0.00     0.033 C 
ATOM     14  C   UNL A   1      39.312  27.896  29.532  1.00  0.00    -0.063 C 
ATOM     15  C   UNL A   1      40.840  28.959  27.090  1.00  0.00     0.020 C 
ATOM     16  C   UNL A   1      40.662  29.272  29.586  1.00  0.00    -0.006 C 
ATOM     17  C   UNL A   1      38.587  27.399  30.725  1.00  0.00    -0.027 C 
ATOM     18  C   UNL A   1      41.426  29.713  28.293  1.00  0.00     0.013 C 
ATOM     19  C   UNL A   1      39.260  30.147  29.040  1.00  0.00     0.017 C 
ATOM     20  C   UNL A   1      41.870  29.253  31.274  1.00  0.00    -0.020 C 
ATOM     21  C   UNL A   1      39.226  27.540  32.506  1.00  0.00     0.032 C 
ATOM     22  C   UNL A   1      40.933  28.458  32.880  1.00  0.00     0.006 C 
ATOM     23  C   UNL A   1      42.670  30.252  32.230  1.00  0.00     0.008 C 
ATOM     24  C   UNL A   1      43.322  28.619  30.726  1.00  0.00     0.012 C 
ATOM     25  C   UNL A   1      41.661  27.944  34.161  1.00  0.00    -0.025 C 
ATOM     26  C   UNL A   1      43.586  29.454  33.409  1.00  0.00     0.005 C 
ATOM     27  C   UNL A   1      41.271  28.907  35.340  1.00  0.00     0.012 C 
ATOM     28  C   UNL A   1      41.156  26.544  34.558  1.00  0.00     0.010 C 
ATOM     29  C   UNL A   1      43.173  27.979  33.896  1.00  0.00     0.003 C 
ATOM     30  C   UNL A   1      41.804  26.016  35.819  1.00  0.00     0.033 C 
ATOM     31  C   UNL A   1      44.015  27.294  35.089  1.00  0.00    -0.006 C 
ATOM     32  C   UNL A   1      43.315  26.003  35.689  1.00  0.00     0.120 C 
ATOM     33  C   UNL A   1      44.404  28.295  36.197  1.00  0.00     0.014 C 
ATOM     34  C   UNL A   1      45.367  26.762  34.534  1.00  0.00     0.014 C 
BRANCH  32  35
ATOM     35  O   UNL A   1      43.852  25.644  36.968  1.00  0.00    -0.393 OA
ATOM     36  H   UNL A   1      44.485  26.321  37.254  1.00  0.00     0.210 HD
ENDBRANCH  32  35
ENDBRANCH   4   6
ENDBRANCH   3   4
ENDBRANCH   2   3
ENDBRANCH   1   2
BRANCH   1  37
ATOM     37  O   UNL A   1      45.921  30.879  27.060  1.00  0.00    -0.458 OA
BRANCH  37  38
ATOM     38  C   UNL A   1      45.260  31.942  26.504  1.00  0.00     0.338 C 
ATOM     39  O   UNL A   1      45.275  32.283  25.338  1.00  0.00    -0.246 OA
BRANCH  38  40
ATOM     40  C   UNL A   1      44.489  32.647  27.590  1.00  0.00     0.060 A 
ATOM     41  C   UNL A   1      44.199  31.896  28.713  1.00  0.00     0.016 A 
ATOM     42  C   UNL A   1      44.073  33.975  27.612  1.00  0.00     0.016 A 
ATOM     43  C   UNL A   1      43.183  32.238  29.579  1.00  0.00     0.010 A 
ATOM     44  C   UNL A   1      43.358  34.453  28.738  1.00  0.00     0.010 A 
ATOM     45  C   UNL A   1      42.891  33.570  29.735  1.00  0.00    -0.014 A 
BRANCH  45  46
ATOM     46  C   UNL A   1      42.235  34.014  30.997  1.00  0.00     0.031 A 
ATOM     47  C   UNL A   1      43.070  34.067  32.234  1.00  0.00     0.074 A 
ATOM     48  C   UNL A   1      40.897  34.239  31.034  1.00  0.00     0.049 A 
ATOM     49  N   UNL A   1      42.724  33.858  33.469  1.00  0.00    -0.248 NA
ATOM     50  C   UNL A   1      44.511  34.304  32.038  1.00  0.00     0.031 C 
ATOM     51  C   UNL A   1      39.987  34.308  29.877  1.00  0.00     0.029 A 
ATOM     52  N   UNL A   1      40.038  34.396  32.098  1.00  0.00    -0.354 N 
ATOM     53  C   UNL A   1      43.916  33.780  34.180  1.00  0.00     0.074 A 
ATOM     54  C   UNL A   1      44.990  34.017  33.240  1.00  0.00     0.031 C 
ATOM     55  C   UNL A   1      38.727  34.492  30.280  1.00  0.00     0.029 A 
ATOM     56  C   UNL A   1      38.709  34.375  31.718  1.00  0.00     0.049 A 
ATOM     57  H   UNL A   1      40.339  34.511  33.028  1.00  0.00     0.167 HD
ATOM     58  C   UNL A   1      44.066  33.490  35.493  1.00  0.00     0.034 A 
ATOM     59  C   UNL A   1      37.589  34.149  32.426  1.00  0.00     0.034 A 
ATOM     60  C   UNL A   1      42.930  33.325  36.363  1.00  0.00     0.049 A 
ATOM     61  C   UNL A   1      37.774  33.866  33.881  1.00  0.00     0.074 A 
ATOM     62  C   UNL A   1      42.897  33.072  37.719  1.00  0.00     0.029 A 
ATOM     63  N   UNL A   1      41.606  33.420  35.938  1.00  0.00    -0.354 N 
ATOM     64  N   UNL A   1      38.896  33.743  34.551  1.00  0.00    -0.248 NA
ATOM     65  C   UNL A   1      36.559  33.705  34.681  1.00  0.00     0.031 C 
ATOM     66  C   UNL A   1      41.554  33.003  38.110  1.00  0.00     0.029 A 
ATOM     67  C   UNL A   1      40.748  33.250  37.006  1.00  0.00     0.049 A 
ATOM     68  H   UNL A   1      41.323  33.586  35.011  1.00  0.00     0.167 HD
ATOM     69  C   UNL A   1      38.529  33.532  35.867  1.00  0.00     0.074 A 
ATOM     70  C   UNL A   1      37.075  33.554  35.894  1.00  0.00     0.031 C 
ATOM     71  C   UNL A   1      39.308  33.333  36.958  1.00  0.00     0.034 A 
BRANCH  58  72
ATOM     72  C   UNL A   1      45.467  33.310  36.024  1.00  0.00     0.023 A 
ATOM     73  C   UNL A   1      46.165  34.400  36.585  1.00  0.00     0.012 A 
ATOM     74  C   UNL A   1      46.111  32.057  35.947  1.00  0.00     0.148 A 
ATOM     75  C   UNL A   1      47.492  34.265  37.001  1.00  0.00     0.002 A 
ATOM     76  C   UNL A   1      47.416  31.916  36.414  1.00  0.00     0.091 A 
ATOM     77  F   UNL A   1      45.450  31.030  35.394  1.00  0.00    -0.205 F 
ATOM     78  C   UNL A   1      48.113  33.022  36.922  1.00  0.00     0.022 A 
BRANCH  76  79
ATOM     79  S   UNL A   1      48.284  30.342  36.429  1.00  0.00     0.127 S 
ATOM     80  O   UNL A   1      48.228  29.958  35.019  1.00  0.00    -0.237 OA
ATOM     81  O   UNL A   1      49.613  30.733  36.902  1.00  0.00    -0.237 OA
ATOM     82  O   UNL A   1      47.544  29.478  37.338  1.00  0.00    -0.744 OA
ENDBRANCH  76  79
ENDBRANCH  58  72
BRANCH  59  83
ATOM     83  C   UNL A   1      36.250  34.179  31.761  1.00  0.00     0.023 A 
ATOM     84  C   UNL A   1      35.915  33.138  30.874  1.00  0.00     0.012 A 
ATOM     85  C   UNL A   1      35.272  35.151  32.069  1.00  0.00     0.148 A 
ATOM     86  C   UNL A   1      34.648  33.074  30.291  1.00  0.00     0.002 A 
ATOM     87  C   UNL A   1      33.993  35.050  31.528  1.00  0.00     0.091 A 
ATOM     88  F   UNL A   1      35.597  36.134  32.921  1.00  0.00    -0.205 F 
ATOM     89  C   UNL A   1      33.684  34.021  30.626  1.00  0.00     0.022 A 
BRANCH  87  90
ATOM     90  S   UNL A   1      32.640  36.134  32.013  1.00  0.00     0.127 S 
ATOM     91  O   UNL A   1      32.328  36.807  30.754  1.00  0.00    -0.237 OA
ATOM     92  O   UNL A   1      31.630  35.176  32.465  1.00  0.00    -0.237 OA
ATOM     93  O   UNL A   1      33.175  36.980  33.070  1.00  0.00    -0.744 OA
ENDBRANCH  87  90
ENDBRANCH  59  83
BRANCH  71  94
ATOM     94  C   UNL A   1      38.587  33.209  38.265  1.00  0.00     0.023 A 
ATOM     95  C   UNL A   1      37.861  32.042  38.566  1.00  0.00     0.012 A 
ATOM     96  C   UNL A   1      38.695  34.241  39.215  1.00  0.00     0.148 A 
ATOM     97  C   UNL A   1      37.224  31.917  39.797  1.00  0.00     0.002 A 
ATOM     98  C   UNL A   1      38.109  34.082  40.458  1.00  0.00     0.091 A 
ATOM     99  F   UNL A   1      39.370  35.351  38.880  1.00  0.00    -0.205 F 
ATOM    100  C   UNL A   1      37.361  32.929  40.747  1.00  0.00     0.022 A 
BRANCH  98 101
ATOM    101  S   UNL A   1      38.333  35.280  41.775  1.00  0.00     0.127 S 
ATOM    102  O   UNL A   1      37.123  35.074  42.570  1.00  0.00    -0.237 OA
ATOM    103  O   UNL A   1      39.567  34.812  42.406  1.00  0.00    -0.237 OA
ATOM    104  O   UNL A   1      38.439  36.579  41.125  1.00  0.00    -0.744 OA
ENDBRANCH  98 101
ENDBRANCH  71  94
ENDBRANCH  45  46
ENDBRANCH  38  40
ENDBRANCH  37  38
ENDBRANCH   1  37
TORSDOF 15
ENDMDL
MODEL 2
REMARK VINA RESULT:     -11.8      5.335     10.589
REMARK SMILES CC1(C)CC[C@@]2(C(=O)OCCOC(=O)c3ccc(-c4c5nc(c(-c6cccc(S(=O)(=O)[O-])c6F)c6ccc([nH]6)c(-c6cccc(S(=O)(=O)[O-])c6F)c6nc(c(-c7cccc(S(=O)(=O)[O-])c7F)c7ccc4[nH]7)C=C6)C=C5)cc3)CC[C@@]3(C)C(=CC[C@H]4[C@@]5(C)CC[C@H](O)C(C)(C)[C@@H]5CC[C@@]43C)[C@@H]2C1
REMARK SMILES IDX 11 1 10 2 9 3 7 4 8 5 6 6 1 7 2 8 3 9 4 10 101 11 5 12
REMARK SMILES IDX 100 13 82 14 78 15 80 16 83 17 79 18 81 19 98 20 84 21 85 22
REMARK SMILES IDX 97 23 99 24 86 25 96 26 87 27 88 28 95 29 89 30 92 31 90 32
REMARK SMILES IDX 93 33 94 34 91 35 12 37 13 38 14 39 15 40 16 41 77 42 17 43
REMARK SMILES IDX 76 44 18 45 19 46 20 47 70 48 21 49 75 50 69 51 71 52 22 53
REMARK SMILES IDX 74 54 68 55 67 56 23 58 55 59 35 60 54 61 36 62 39 63 53 64
REMARK SMILES IDX 72 65 37 66 38 67 52 69 73 70 40 71 24 72 25 73 33 74 26 75
REMARK SMILES IDX 28 76 34 77 27 78 29 79 30 80 31 81 32 82 56 83 57 84 65 85
REMARK SMILES IDX 58 86 60 87 66 88 59 89 61 90 62 91 63 92 64 93 41 94 42 95
REMARK SMILES IDX 50 96 43 97 45 98 51 99 44 100 46 101 47 102 48 103 49 104
REMARK H PARENT 91 36 71 57 39 68
REMARK Flexibility Score: inf
ROOT
ATOM      1  C   UNL A   1      49.533  26.992  36.619  1.00  0.00     0.275 C 
ENDROOT
BRANCH   1   2
ATOM      2  C   UNL A   1      48.097  25.729  37.603  1.00  0.00     0.274 C 
BRANCH   2   3
ATOM      3  O   UNL A   1      47.165  24.528  37.018  1.00  0.00    -0.462 OA
BRANCH   3   4
ATOM      4  C   UNL A   1      47.010  23.459  36.215  1.00  0.00     0.312 C 
ATOM      5  O   UNL A   1      47.843  23.213  35.345  1.00  0.00    -0.252 OA
BRANCH   4   6
ATOM      6  C   UNL A   1      45.723  22.668  36.350  1.00  0.00     0.075 C 
ATOM      7  C   UNL A   1      44.133  23.824  32.694  1.00  0.00     0.011 C 
ATOM      8  C   UNL A   1      45.266  23.870  33.727  1.00  0.00    -0.035 C 
ATOM      9  C   UNL A   1      46.362  24.833  33.181  1.00  0.00     0.011 C 
ATOM     10  C   UNL A   1      44.708  24.525  35.011  1.00  0.00     0.007 C 
ATOM     11  C   UNL A   1      45.855  22.406  33.847  1.00  0.00     0.015 C 
ATOM     12  C   UNL A   1      44.490  23.557  36.149  1.00  0.00     0.020 C 
ATOM     13  C   UNL A   1      45.738  21.614  35.219  1.00  0.00     0.033 C 
ATOM     14  C   UNL A   1      46.914  20.602  35.447  1.00  0.00    -0.063 C 
ATOM     15  C   UNL A   1      45.711  22.163  37.803  1.00  0.00     0.020 C 
ATOM     16  C   UNL A   1      47.834  21.000  37.095  1.00  0.00    -0.006 C 
ATOM     17  C   UNL A   1      47.515  19.847  34.324  1.00  0.00    -0.027 C 
ATOM     18  C   UNL A   1      47.155  21.849  38.221  1.00  0.00     0.013 C 
ATOM     19  C   UNL A   1      46.843  19.641  37.541  1.00  0.00     0.017 C 
ATOM     20  C   UNL A   1      49.863  21.392  36.896  1.00  0.00    -0.020 C 
ATOM     21  C   UNL A   1      49.381  19.672  34.024  1.00  0.00     0.032 C 
ATOM     22  C   UNL A   1      50.670  20.468  35.290  1.00  0.00     0.006 C 
ATOM     23  C   UNL A   1      51.237  21.218  37.693  1.00  0.00     0.008 C 
ATOM     24  C   UNL A   1      49.974  23.055  37.076  1.00  0.00     0.012 C 
ATOM     25  C   UNL A   1      52.036  20.855  34.643  1.00  0.00    -0.025 C 
ATOM     26  C   UNL A   1      52.556  21.930  36.907  1.00  0.00     0.005 C 
ATOM     27  C   UNL A   1      53.030  19.666  34.898  1.00  0.00     0.012 C 
ATOM     28  C   UNL A   1      51.903  20.991  33.114  1.00  0.00     0.010 C 
ATOM     29  C   UNL A   1      52.531  22.144  35.314  1.00  0.00     0.003 C 
ATOM     30  C   UNL A   1      53.211  21.329  32.433  1.00  0.00     0.033 C 
ATOM     31  C   UNL A   1      53.847  22.737  34.593  1.00  0.00    -0.006 C 
ATOM     32  C   UNL A   1      53.815  22.593  33.013  1.00  0.00     0.120 C 
ATOM     33  C   UNL A   1      55.157  22.179  35.187  1.00  0.00     0.014 C 
ATOM     34  C   UNL A   1      53.922  24.273  34.826  1.00  0.00     0.014 C 
BRANCH  32  35
ATOM     35  O   UNL A   1      55.115  22.753  32.431  1.00  0.00    -0.393 OA
ATOM     36  H   UNL A   1      55.024  23.100  31.530  1.00  0.00     0.210 HD
ENDBRANCH  32  35
ENDBRANCH   4   6
ENDBRANCH   3   4
ENDBRANCH   2   3
ENDBRANCH   1   2
BRANCH   1  37
ATOM     37  O   UNL A   1      49.202  28.254  35.601  1.00  0.00    -0.458 OA
BRANCH  37  38
ATOM     38  C   UNL A   1      48.885  28.376  34.275  1.00  0.00     0.338 C 
ATOM     39  O   UNL A   1      49.659  28.476  33.345  1.00  0.00    -0.246 OA
BRANCH  38  40
ATOM     40  C   UNL A   1      47.384  28.367  34.139  1.00  0.00     0.060 A 
ATOM     41  C   UNL A   1      46.882  28.803  32.928  1.00  0.00     0.016 A 
ATOM     42  C   UNL A   1      46.449  27.932  35.073  1.00  0.00     0.016 A 
ATOM     43  C   UNL A   1      45.582  29.240  32.789  1.00  0.00     0.010 A 
ATOM     44  C   UNL A   1      45.071  28.001  34.751  1.00  0.00     0.010 A 
ATOM     45  C   UNL A   1      44.624  28.678  33.595  1.00  0.00    -0.014 A 
BRANCH  45  46
ATOM     46  C   UNL A   1      43.206  28.692  33.136  1.00  0.00     0.031 A 
ATOM     47  C   UNL A   1      42.893  28.043  31.828  1.00  0.00     0.074 A 
ATOM     48  C   UNL A   1      42.266  29.383  33.829  1.00  0.00     0.049 A 
ATOM     49  N   UNL A   1      41.985  28.355  30.952  1.00  0.00    -0.248 NA
ATOM     50  C   UNL A   1      43.783  26.943  31.416  1.00  0.00     0.031 C 
ATOM     51  C   UNL A   1      42.427  29.983  35.166  1.00  0.00     0.029 A 
ATOM     52  N   UNL A   1      40.987  29.757  33.486  1.00  0.00    -0.354 N 
ATOM     53  C   UNL A   1      42.288  27.605  29.822  1.00  0.00     0.074 A 
ATOM     54  C   UNL A   1      43.433  26.784  30.147  1.00  0.00     0.031 C 
ATOM     55  C   UNL A   1      41.318  30.633  35.525  1.00  0.00     0.029 A 
ATOM     56  C   UNL A   1      40.435  30.653  34.383  1.00  0.00     0.049 A 
ATOM     57  H   UNL A   1      40.518  29.423  32.688  1.00  0.00     0.167 HD
ATOM     58  C   UNL A   1      41.669  27.655  28.620  1.00  0.00     0.034 A 
ATOM     59  C   UNL A   1      39.405  31.508  34.261  1.00  0.00     0.034 A 
ATOM     60  C   UNL A   1      40.497  28.465  28.408  1.00  0.00     0.049 A 
ATOM     61  C   UNL A   1      38.713  31.522  32.936  1.00  0.00     0.074 A 
ATOM     62  C   UNL A   1      39.722  28.602  27.274  1.00  0.00     0.029 A 
ATOM     63  N   UNL A   1      39.922  29.271  29.389  1.00  0.00    -0.354 N 
ATOM     64  N   UNL A   1      39.020  30.853  31.850  1.00  0.00    -0.248 NA
ATOM     65  C   UNL A   1      37.537  32.383  32.817  1.00  0.00     0.031 C 
ATOM     66  C   UNL A   1      38.688  29.499  27.567  1.00  0.00     0.029 A 
ATOM     67  C   UNL A   1      38.794  29.894  28.895  1.00  0.00     0.049 A 
ATOM     68  H   UNL A   1      40.271  29.380  30.303  1.00  0.00     0.167 HD
ATOM     69  C   UNL A   1      38.049  31.177  30.920  1.00  0.00     0.074 A 
ATOM     70  C   UNL A   1      37.139  32.097  31.584  1.00  0.00     0.031 C 
ATOM     71  C   UNL A   1      37.913  30.763  29.636  1.00  0.00     0.034 A 
BRANCH  58  72
ATOM     72  C   UNL A   1      42.261  26.857  27.483  1.00  0.00     0.023 A 
ATOM     73  C   UNL A   1      43.058  27.486  26.505  1.00  0.00     0.012 A 
ATOM     74  C   UNL A   1      42.009  25.473  27.368  1.00  0.00     0.148 A 
ATOM     75  C   UNL A   1      43.539  26.774  25.404  1.00  0.00     0.002 A 
ATOM     76  C   UNL A   1      42.538  24.757  26.297  1.00  0.00     0.091 A 
ATOM     77  F   UNL A   1      41.234  24.885  28.290  1.00  0.00    -0.205 F 
ATOM     78  C   UNL A   1      43.285  25.410  25.304  1.00  0.00     0.022 A 
BRANCH  76  79
ATOM     79  S   UNL A   1      42.334  22.981  26.112  1.00  0.00     0.127 S 
ATOM     80  O   UNL A   1      42.977  22.740  24.821  1.00  0.00    -0.237 OA
ATOM     81  O   UNL A   1      43.075  22.469  27.267  1.00  0.00    -0.237 OA
ATOM     82  O   UNL A   1      40.900  22.731  26.149  1.00  0.00    -0.744 OA
ENDBRANCH  76  79
ENDBRANCH  58  72
BRANCH  59  83
ATOM     83  C   UNL A   1      39.007  32.388  35.402  1.00  0.00     0.023 A 
ATOM     84  C   UNL A   1      38.132  31.873  36.376  1.00  0.00     0.012 A 
ATOM     85  C   UNL A   1      39.558  33.675  35.594  1.00  0.00     0.148 A 
ATOM     86  C   UNL A   1      37.794  32.624  37.504  1.00  0.00     0.002 A 
ATOM     87  C   UNL A   1      39.261  34.396  36.748  1.00  0.00     0.091 A 
ATOM     88  F   UNL A   1      40.397  34.154  34.665  1.00  0.00    -0.205 F 
ATOM     89  C   UNL A   1      38.367  33.878  37.696  1.00  0.00     0.022 A 
BRANCH  87  90
ATOM     90  S   UNL A   1      40.063  35.954  37.159  1.00  0.00     0.127 S 
ATOM     91  O   UNL A   1      39.770  36.763  35.979  1.00  0.00    -0.237 OA
ATOM     92  O   UNL A   1      39.348  36.354  38.372  1.00  0.00    -0.237 OA
ATOM     93  O   UNL A   1      41.467  35.628  37.373  1.00  0.00    -0.744 OA
ENDBRANCH  87  90
ENDBRANCH  59  83
BRANCH  71  94
ATOM     94  C   UNL A   1      36.692  31.249  28.917  1.00  0.00     0.023 A 
ATOM     95  C   UNL A   1      36.529  32.619  28.644  1.00  0.00     0.012 A 
ATOM     96  C   UNL A   1      35.742  30.318  28.461  1.00  0.00     0.148 A 
ATOM     97  C   UNL A   1      35.411  33.061  27.943  1.00  0.00     0.002 A 
ATOM     98  C   UNL A   1      34.665  30.759  27.712  1.00  0.00     0.091 A 
ATOM     99  F   UNL A   1      35.916  29.023  28.766  1.00  0.00    -0.205 F 
ATOM    100  C   UNL A   1      34.489  32.130  27.465  1.00  0.00     0.022 A 
BRANCH  98 101
ATOM    101  S   UNL A   1      33.499  29.622  26.962  1.00  0.00     0.127 S 
ATOM    102  O   UNL A   1      32.534  30.542  26.362  1.00  0.00    -0.237 OA
ATOM    103  O   UNL A   1      34.342  28.908  26.003  1.00  0.00    -0.237 OA
ATOM    104  O   UNL A   1      32.984  28.798  28.047  1.00  0.00    -0.744 OA
ENDBRANCH  98 101
ENDBRANCH  71  94
ENDBRANCH  45  46
ENDBRANCH  38  40
ENDBRANCH  37  38
ENDBRANCH   1  37
TORSDOF 15
ENDMDL
MODEL 3
REMARK VINA RESULT:     -11.8      5.189     11.704
REMARK SMILES CC1(C)CC[C@@]2(C(=O)OCCOC(=O)c3ccc(-c4c5nc(c(-c6cccc(S(=O)(=O)[O-])c6F)c6ccc([nH]6)c(-c6cccc(S(=O)(=O)[O-])c6F)c6nc(c(-c7cccc(S(=O)(=O)[O-])c7F)c7ccc4[nH]7)C=C6)C=C5)cc3)CC[C@@]3(C)C(=CC[C@H]4[C@@]5(C)CC[C@H](O)C(C)(C)[C@@H]5CC[C@@]43C)[C@@H]2C1
REMARK SMILES IDX 11 1 10 2 9 3 7 4 8 5 6 6 1 7 2 8 3 9 4 10 101 11 5 12
REMARK SMILES IDX 100 13 82 14 78 15 80 16 83 17 79 18 81 19 98 20 84 21 85 22
REMARK SMILES IDX 97 23 99 24 86 25 96 26 87 27 88 28 95 29 89 30 92 31 90 32
REMARK SMILES IDX 93 33 94 34 91 35 12 37 13 38 14 39 15 40 16 41 77 42 17 43
REMARK SMILES IDX 76 44 18 45 19 46 20 47 70 48 21 49 75 50 69 51 71 52 22 53
REMARK SMILES IDX 74 54 68 55 67 56 23 58 55 59 35 60 54 61 36 62 39 63 53 64
REMARK SMILES IDX 72 65 37 66 38 67 52 69 73 70 40 71 24 72 25 73 33 74 26 75
REMARK SMILES IDX 28 76 34 77 27 78 29 79 30 80 31 81 32 82 56 83 57 84 65 85
REMARK SMILES IDX 58 86 60 87 66 88 59 89 61 90 62 91 63 92 64 93 41 94 42 95
REMARK SMILES IDX 50 96 43 97 45 98 51 99 44 100 46 101 47 102 48 103 49 104
REMARK H PARENT 91 36 71 57 39 68
REMARK Flexibility Score: inf
ROOT
ATOM      1  C   UNL A   1      43.864  37.834  27.322  1.00  0.00     0.275 C 
ENDROOT
BRANCH   1   2
ATOM      2  C   UNL A   1      43.775  39.260  28.930  1.00  0.00     0.274 C 
BRANCH   2   3
ATOM      3  O   UNL A   1      44.477  39.245  30.399  1.00  0.00    -0.462 OA
BRANCH   3   4
ATOM      4  C   UNL A   1      44.444  39.549  31.710  1.00  0.00     0.312 C 
ATOM      5  O   UNL A   1      43.476  39.225  32.395  1.00  0.00    -0.252 OA
BRANCH   4   6
ATOM      6  C   UNL A   1      45.573  40.402  32.256  1.00  0.00     0.075 C 
ATOM      7  C   UNL A   1      43.215  43.697  33.155  1.00  0.00     0.011 C 
ATOM      8  C   UNL A   1      43.355  42.269  32.613  1.00  0.00    -0.035 C 
ATOM      9  C   UNL A   1      41.947  41.807  32.132  1.00  0.00     0.011 C 
ATOM     10  C   UNL A   1      44.250  42.328  31.354  1.00  0.00     0.007 C 
ATOM     11  C   UNL A   1      43.835  41.354  33.812  1.00  0.00     0.015 C 
ATOM     12  C   UNL A   1      45.637  41.767  31.560  1.00  0.00     0.020 C 
ATOM     13  C   UNL A   1      45.254  40.644  33.749  1.00  0.00     0.033 C 
ATOM     14  C   UNL A   1      45.298  39.286  34.532  1.00  0.00    -0.063 C 
ATOM     15  C   UNL A   1      46.861  39.635  31.911  1.00  0.00     0.020 C 
ATOM     16  C   UNL A   1      45.821  37.849  33.357  1.00  0.00    -0.006 C 
ATOM     17  C   UNL A   1      44.544  39.093  35.792  1.00  0.00    -0.027 C 
ATOM     18  C   UNL A   1      46.573  38.130  32.013  1.00  0.00     0.013 C 
ATOM     19  C   UNL A   1      47.292  38.170  34.230  1.00  0.00     0.017 C 
ATOM     20  C   UNL A   1      44.457  36.291  33.213  1.00  0.00    -0.020 C 
ATOM     21  C   UNL A   1      43.459  37.584  36.175  1.00  0.00     0.032 C 
ATOM     22  C   UNL A   1      43.331  36.099  34.881  1.00  0.00     0.006 C 
ATOM     23  C   UNL A   1      44.409  34.709  32.993  1.00  0.00     0.008 C 
ATOM     24  C   UNL A   1      43.740  36.517  31.714  1.00  0.00     0.012 C 
ATOM     25  C   UNL A   1      41.986  35.311  34.952  1.00  0.00    -0.025 C 
ATOM     26  C   UNL A   1      42.834  34.103  32.861  1.00  0.00     0.005 C 
ATOM     27  C   UNL A   1      42.226  34.054  35.863  1.00  0.00     0.012 C 
ATOM     28  C   UNL A   1      40.893  36.148  35.644  1.00  0.00     0.010 C 
ATOM     29  C   UNL A   1      41.603  34.894  33.525  1.00  0.00     0.003 C 
ATOM     30  C   UNL A   1      39.577  35.413  35.773  1.00  0.00     0.033 C 
ATOM     31  C   UNL A   1      40.133  34.233  33.459  1.00  0.00    -0.006 C 
ATOM     32  C   UNL A   1      39.085  34.938  34.419  1.00  0.00     0.120 C 
ATOM     33  C   UNL A   1      40.155  32.705  33.669  1.00  0.00     0.014 C 
ATOM     34  C   UNL A   1      39.533  34.436  32.039  1.00  0.00     0.014 C 
BRANCH  32  35
ATOM     35  O   UNL A   1      37.928  34.124  34.645  1.00  0.00    -0.393 OA
ATOM     36  H   UNL A   1      37.385  34.522  35.344  1.00  0.00     0.210 HD
ENDBRANCH  32  35
ENDBRANCH   4   6
ENDBRANCH   3   4
ENDBRANCH   2   3
ENDBRANCH   1   2
BRANCH   1  37
ATOM     37  O   UNL A   1      45.213  37.043  26.780  1.00  0.00    -0.458 OA
BRANCH  37  38
ATOM     38  C   UNL A   1      46.269  36.404  27.372  1.00  0.00     0.338 C 
ATOM     39  O   UNL A   1      47.407  36.815  27.476  1.00  0.00    -0.246 OA
BRANCH  38  40
ATOM     40  C   UNL A   1      45.792  35.071  27.891  1.00  0.00     0.060 A 
ATOM     41  C   UNL A   1      45.186  34.242  26.967  1.00  0.00     0.016 A 
ATOM     42  C   UNL A   1      45.928  34.563  29.179  1.00  0.00     0.016 A 
ATOM     43  C   UNL A   1      44.352  33.212  27.344  1.00  0.00     0.010 A 
ATOM     44  C   UNL A   1      45.412  33.276  29.469  1.00  0.00     0.010 A 
ATOM     45  C   UNL A   1      44.598  32.590  28.542  1.00  0.00    -0.014 A 
BRANCH  45  46
ATOM     46  C   UNL A   1      44.117  31.192  28.732  1.00  0.00     0.031 A 
ATOM     47  C   UNL A   1      44.913  30.093  28.111  1.00  0.00     0.074 A 
ATOM     48  C   UNL A   1      42.930  30.951  29.344  1.00  0.00     0.049 A 
ATOM     49  N   UNL A   1      44.509  28.955  27.632  1.00  0.00    -0.248 NA
ATOM     50  C   UNL A   1      46.353  30.351  27.931  1.00  0.00     0.031 C 
ATOM     51  C   UNL A   1      42.103  31.930  30.071  1.00  0.00     0.029 A 
ATOM     52  N   UNL A   1      42.165  29.809  29.407  1.00  0.00    -0.354 N 
ATOM     53  C   UNL A   1      45.602  28.429  26.952  1.00  0.00     0.074 A 
ATOM     54  C   UNL A   1      46.701  29.353  27.131  1.00  0.00     0.031 C 
ATOM     55  C   UNL A   1      40.973  31.364  30.502  1.00  0.00     0.029 A 
ATOM     56  C   UNL A   1      40.907  30.038  29.933  1.00  0.00     0.049 A 
ATOM     57  H   UNL A   1      42.480  28.925  29.110  1.00  0.00     0.167 HD
ATOM     58  C   UNL A   1      45.638  27.294  26.217  1.00  0.00     0.034 A 
ATOM     59  C   UNL A   1      39.770  29.325  29.855  1.00  0.00     0.034 A 
ATOM     60  C   UNL A   1      44.506  26.407  26.145  1.00  0.00     0.049 A 
ATOM     61  C   UNL A   1      39.840  28.057  29.068  1.00  0.00     0.074 A 
ATOM     62  C   UNL A   1      44.381  25.200  25.487  1.00  0.00     0.029 A 
ATOM     63  N   UNL A   1      43.292  26.643  26.788  1.00  0.00    -0.354 N 
ATOM     64  N   UNL A   1      40.853  27.577  28.385  1.00  0.00    -0.248 NA
ATOM     65  C   UNL A   1      38.636  27.227  29.048  1.00  0.00     0.031 C 
ATOM     66  C   UNL A   1      43.088  24.715  25.722  1.00  0.00     0.029 A 
ATOM     67  C   UNL A   1      42.419  25.599  26.559  1.00  0.00     0.049 A 
ATOM     68  H   UNL A   1      43.086  27.440  27.328  1.00  0.00     0.167 HD
ATOM     69  C   UNL A   1      40.427  26.361  27.883  1.00  0.00     0.074 A 
ATOM     70  C   UNL A   1      39.062  26.181  28.354  1.00  0.00     0.031 C 
ATOM     71  C   UNL A   1      41.088  25.471  27.103  1.00  0.00     0.034 A 
BRANCH  58  72
ATOM     72  C   UNL A   1      46.896  26.991  25.441  1.00  0.00     0.023 A 
ATOM     73  C   UNL A   1      47.905  26.178  26.000  1.00  0.00     0.012 A 
ATOM     74  C   UNL A   1      47.096  27.533  24.153  1.00  0.00     0.148 A 
ATOM     75  C   UNL A   1      49.108  25.962  25.326  1.00  0.00     0.002 A 
ATOM     76  C   UNL A   1      48.276  27.269  23.463  1.00  0.00     0.091 A 
ATOM     77  F   UNL A   1      46.143  28.321  23.636  1.00  0.00    -0.205 F 
ATOM     78  C   UNL A   1      49.290  26.501  24.056  1.00  0.00     0.022 A 
BRANCH  76  79
ATOM     79  S   UNL A   1      48.582  27.851  21.790  1.00  0.00     0.127 S 
ATOM     80  O   UNL A   1      49.991  28.238  21.862  1.00  0.00    -0.237 OA
ATOM     81  O   UNL A   1      48.320  26.648  20.997  1.00  0.00    -0.237 OA
ATOM     82  O   UNL A   1      47.648  28.945  21.565  1.00  0.00    -0.744 OA
ENDBRANCH  76  79
ENDBRANCH  58  72
BRANCH  59  83
ATOM     83  C   UNL A   1      38.522  29.808  30.522  1.00  0.00     0.023 A 
ATOM     84  C   UNL A   1      38.343  29.541  31.892  1.00  0.00     0.012 A 
ATOM     85  C   UNL A   1      37.568  30.610  29.855  1.00  0.00     0.148 A 
ATOM     86  C   UNL A   1      37.235  30.039  32.580  1.00  0.00     0.002 A 
ATOM     87  C   UNL A   1      36.495  31.151  30.559  1.00  0.00     0.091 A 
ATOM     88  F   UNL A   1      37.751  30.866  28.552  1.00  0.00    -0.205 F 
ATOM     89  C   UNL A   1      36.319  30.853  31.919  1.00  0.00     0.022 A 
BRANCH  87  90
ATOM     90  S   UNL A   1      35.346  32.329  29.833  1.00  0.00     0.127 S 
ATOM     91  O   UNL A   1      34.439  32.590  30.948  1.00  0.00    -0.237 OA
ATOM     92  O   UNL A   1      36.229  33.443  29.485  1.00  0.00    -0.237 OA
ATOM     93  O   UNL A   1      34.761  31.650  28.684  1.00  0.00    -0.744 OA
ENDBRANCH  87  90
ENDBRANCH  59  83
BRANCH  71  94
ATOM     94  C   UNL A   1      40.358  24.201  26.793  1.00  0.00     0.023 A 
ATOM     95  C   UNL A   1      39.087  24.243  26.190  1.00  0.00     0.012 A 
ATOM     96  C   UNL A   1      40.979  22.966  27.051  1.00  0.00     0.148 A 
ATOM     97  C   UNL A   1      38.429  23.059  25.871  1.00  0.00     0.002 A 
ATOM     98  C   UNL A   1      40.344  21.795  26.675  1.00  0.00     0.091 A 
ATOM     99  F   UNL A   1      42.177  22.966  27.654  1.00  0.00    -0.205 F 
ATOM    100  C   UNL A   1      39.064  21.838  26.099  1.00  0.00     0.022 A 
BRANCH  98 101
ATOM    101  S   UNL A   1      41.136  20.193  26.824  1.00  0.00     0.127 S 
ATOM    102  O   UNL A   1      40.342  19.384  25.901  1.00  0.00    -0.237 OA
ATOM    103  O   UNL A   1      42.497  20.482  26.372  1.00  0.00    -0.237 OA
ATOM    104  O   UNL A   1      41.031  19.821  28.228  1.00  0.00    -0.744 OA
ENDBRANCH  98 101
ENDBRANCH  71  94
ENDBRANCH  45  46
ENDBRANCH  38  40
ENDBRANCH  37  38
ENDBRANCH   1  37
TORSDOF 15
ENDMDL
