MODEL 1
REMARK VINA RESULT:     -10.5      0.000      0.000
REMARK SMILES CCCCCCCCNC(=O)Oc1cccc(-c2ccc([C@@H](C)C(=O)OCCOC(=O)c3ccc(-c4c5nc(c(-c6cccc(S(=O)(=O)[O-])c6F)c6ccc([nH]6)c(-c6cccc(S(=O)(=O)[O-])c6F)c6nc(c(-c7cccc(S(=O)(=O)[O-])c7F)c7ccc4[nH]7)C=C6)C=C5)cc3)cc2F)c1
REMARK SMILES IDX 18 1 19 2 20 3 21 4 95 5 96 6 97 7 17 8 13 9 14 10 98 11
REMARK SMILES IDX 15 12 16 13 12 14 10 15 9 16 11 18 8 19 7 20 6 21 5 22 4 23
REMARK SMILES IDX 3 24 2 25 1 26 22 27 23 28 24 29 25 30 26 31 27 32 28 33
REMARK SMILES IDX 29 34 30 35 31 36 32 37 33 38 94 39 34 40 93 41 35 42 36 43
REMARK SMILES IDX 37 44 87 45 38 46 92 47 86 48 88 49 39 50 91 51 85 52 84 53
REMARK SMILES IDX 40 55 72 56 52 57 71 58 53 59 56 60 70 61 89 62 54 63 55 64
REMARK SMILES IDX 69 66 90 67 57 68 41 69 42 70 50 71 43 72 45 73 51 74 44 75
REMARK SMILES IDX 46 76 47 77 48 78 49 79 73 80 74 81 82 82 75 83 77 84 83 85
REMARK SMILES IDX 76 86 78 87 79 88 80 89 81 90 58 91 59 92 67 93 60 94 62 95
REMARK SMILES IDX 68 96 61 97 63 98 64 99 65 100 66 101
REMARK H PARENT 9 17 88 54 56 65
REMARK Flexibility Score: inf
ROOT
ATOM      1  C   UNL A   1      37.565  22.600  25.518  1.00  0.00     0.018 A 
ATOM      2  C   UNL A   1      37.967  21.294  25.195  1.00  0.00     0.012 A 
ATOM      3  C   UNL A   1      39.185  20.774  25.647  1.00  0.00     0.005 A 
ATOM      4  C   UNL A   1      40.053  21.551  26.425  1.00  0.00    -0.031 A 
ATOM      5  C   UNL A   1      39.670  22.866  26.729  1.00  0.00     0.044 A 
ATOM      6  C   UNL A   1      38.450  23.374  26.281  1.00  0.00     0.131 A 
ATOM      7  F   UNL A   1      38.119  24.625  26.639  1.00  0.00    -0.206 F 
ENDROOT
BRANCH   1   8
ATOM      8  C   UNL A   1      36.250  23.107  25.092  1.00  0.00    -0.012 A 
ATOM      9  C   UNL A   1      33.981  23.817  25.568  1.00  0.00     0.133 A 
ATOM     10  C   UNL A   1      33.734  24.043  24.217  1.00  0.00     0.047 A 
ATOM     11  C   UNL A   1      35.217  23.342  26.012  1.00  0.00     0.056 A 
ATOM     12  C   UNL A   1      34.746  23.814  23.293  1.00  0.00     0.004 A 
ATOM     13  C   UNL A   1      35.990  23.349  23.728  1.00  0.00     0.009 A 
BRANCH   9  14
ATOM     14  O   UNL A   1      32.891  23.955  26.441  1.00  0.00    -0.410 OA
BRANCH  14  15
ATOM     15  C   UNL A   1      32.616  22.912  27.311  1.00  0.00     0.412 C 
ATOM     16  N   UNL A   1      31.932  21.889  26.712  1.00  0.00    -0.321 N 
ATOM     17  H   UNL A   1      31.723  21.108  27.274  1.00  0.00     0.167 HD
ATOM     18  O   UNL A   1      32.902  22.868  28.500  1.00  0.00    -0.224 OA
BRANCH  16  19
ATOM     19  C   UNL A   1      31.483  21.838  25.335  1.00  0.00     0.119 C 
BRANCH  19  20
ATOM     20  C   UNL A   1      32.241  20.795  24.515  1.00  0.00     0.021 C 
BRANCH  20  21
ATOM     21  C   UNL A   1      33.065  19.799  25.339  1.00  0.00     0.002 C 
BRANCH  21  22
ATOM     22  C   UNL A   1      34.562  19.754  25.013  1.00  0.00     0.000 C 
BRANCH  22  23
ATOM     23  C   UNL A   1      35.011  18.546  24.183  1.00  0.00    -0.000 C 
BRANCH  23  24
ATOM     24  C   UNL A   1      33.880  17.643  23.682  1.00  0.00    -0.000 C 
BRANCH  24  25
ATOM     25  C   UNL A   1      34.053  16.150  23.978  1.00  0.00    -0.003 C 
ATOM     26  C   UNL A   1      34.388  15.856  25.432  1.00  0.00     0.004 C 
ENDBRANCH  24  25
ENDBRANCH  23  24
ENDBRANCH  22  23
ENDBRANCH  21  22
ENDBRANCH  20  21
ENDBRANCH  19  20
ENDBRANCH  16  19
ENDBRANCH  14  15
ENDBRANCH   9  14
ENDBRANCH   1   8
BRANCH   4  27
ATOM     27  C   UNL A   1      41.370  21.001  26.947  1.00  0.00     0.126 C 
ATOM     28  C   UNL A   1      41.184  19.698  27.723  1.00  0.00     0.025 C 
BRANCH  27  29
ATOM     29  C   UNL A   1      42.489  20.839  25.924  1.00  0.00     0.313 C 
ATOM     30  O   UNL A   1      42.707  19.770  25.363  1.00  0.00    -0.252 OA
BRANCH  29  31
ATOM     31  O   UNL A   1      43.181  21.983  25.682  1.00  0.00    -0.462 OA
BRANCH  31  32
ATOM     32  C   UNL A   1      44.339  21.879  24.833  1.00  0.00     0.274 C 
BRANCH  32  33
ATOM     33  C   UNL A   1      44.650  23.227  24.182  1.00  0.00     0.275 C 
BRANCH  33  34
ATOM     34  O   UNL A   1      44.086  24.305  24.947  1.00  0.00    -0.458 OA
BRANCH  34  35
ATOM     35  C   UNL A   1      44.914  25.352  25.176  1.00  0.00     0.338 C 
ATOM     36  O   UNL A   1      45.932  25.644  24.576  1.00  0.00    -0.246 OA
BRANCH  35  37
ATOM     37  C   UNL A   1      44.331  26.189  26.232  1.00  0.00     0.060 A 
ATOM     38  C   UNL A   1      43.562  25.573  27.221  1.00  0.00     0.016 A 
ATOM     39  C   UNL A   1      44.500  27.571  26.220  1.00  0.00     0.016 A 
ATOM     40  C   UNL A   1      42.953  26.338  28.210  1.00  0.00     0.010 A 
ATOM     41  C   UNL A   1      43.912  28.337  27.230  1.00  0.00     0.010 A 
ATOM     42  C   UNL A   1      43.136  27.726  28.230  1.00  0.00    -0.014 A 
BRANCH  42  43
ATOM     43  C   UNL A   1      42.548  28.538  29.321  1.00  0.00     0.031 A 
ATOM     44  C   UNL A   1      43.290  28.722  30.611  1.00  0.00     0.074 A 
ATOM     45  C   UNL A   1      41.319  29.063  29.159  1.00  0.00     0.049 A 
ATOM     46  N   UNL A   1      42.884  29.274  31.724  1.00  0.00    -0.248 NA
ATOM     47  C   UNL A   1      44.671  28.213  30.660  1.00  0.00     0.031 C 
ATOM     48  C   UNL A   1      40.509  28.952  27.944  1.00  0.00     0.029 A 
ATOM     49  N   UNL A   1      40.522  29.764  30.029  1.00  0.00    -0.354 N 
ATOM     50  C   UNL A   1      43.936  29.141  32.620  1.00  0.00     0.074 A 
ATOM     51  C   UNL A   1      45.005  28.460  31.919  1.00  0.00     0.031 C 
ATOM     52  C   UNL A   1      39.320  29.538  28.154  1.00  0.00     0.029 A 
ATOM     53  C   UNL A   1      39.265  30.018  29.531  1.00  0.00     0.049 A 
ATOM     54  H   UNL A   1      40.820  30.056  30.921  1.00  0.00     0.167 HD
ATOM     55  C   UNL A   1      44.004  29.556  33.907  1.00  0.00     0.034 A 
ATOM     56  C   UNL A   1      38.175  30.535  30.130  1.00  0.00     0.034 A 
ATOM     57  C   UNL A   1      42.947  30.261  34.583  1.00  0.00     0.049 A 
ATOM     58  C   UNL A   1      38.268  30.958  31.570  1.00  0.00     0.074 A 
ATOM     59  C   UNL A   1      42.942  30.783  35.865  1.00  0.00     0.029 A 
ATOM     60  N   UNL A   1      41.702  30.536  34.036  1.00  0.00    -0.354 N 
ATOM     61  N   UNL A   1      39.305  30.925  32.373  1.00  0.00    -0.248 NA
ATOM     62  C   UNL A   1      37.049  31.501  32.184  1.00  0.00     0.031 C 
ATOM     63  C   UNL A   1      41.685  31.349  36.101  1.00  0.00     0.029 A 
ATOM     64  C   UNL A   1      40.913  31.198  34.961  1.00  0.00     0.049 A 
ATOM     65  H   UNL A   1      41.420  30.295  33.123  1.00  0.00     0.167 HD
ATOM     66  C   UNL A   1      38.868  31.456  33.580  1.00  0.00     0.074 A 
ATOM     67  C   UNL A   1      37.481  31.832  33.393  1.00  0.00     0.031 C 
ATOM     68  C   UNL A   1      39.546  31.601  34.745  1.00  0.00     0.034 A 
BRANCH  55  69
ATOM     69  C   UNL A   1      45.272  29.278  34.669  1.00  0.00     0.023 A 
ATOM     70  C   UNL A   1      46.265  30.274  34.753  1.00  0.00     0.012 A 
ATOM     71  C   UNL A   1      45.452  28.060  35.353  1.00  0.00     0.148 A 
ATOM     72  C   UNL A   1      47.430  30.053  35.487  1.00  0.00     0.002 A 
ATOM     73  C   UNL A   1      46.599  27.861  36.113  1.00  0.00     0.091 A 
ATOM     74  F   UNL A   1      44.505  27.118  35.241  1.00  0.00    -0.205 F 
ATOM     75  C   UNL A   1      47.592  28.852  36.174  1.00  0.00     0.022 A 
BRANCH  73  76
ATOM     76  S   UNL A   1      46.869  26.376  37.087  1.00  0.00     0.127 S 
ATOM     77  O   UNL A   1      47.978  25.749  36.368  1.00  0.00    -0.237 OA
ATOM     78  O   UNL A   1      47.227  26.925  38.396  1.00  0.00    -0.237 OA
ATOM     79  O   UNL A   1      45.612  25.644  37.059  1.00  0.00    -0.744 OA
ENDBRANCH  73  76
ENDBRANCH  55  69
BRANCH  56  80
ATOM     80  C   UNL A   1      36.907  30.684  29.362  1.00  0.00     0.023 A 
ATOM     81  C   UNL A   1      36.216  29.533  28.939  1.00  0.00     0.012 A 
ATOM     82  C   UNL A   1      36.362  31.954  29.086  1.00  0.00     0.148 A 
ATOM     83  C   UNL A   1      35.014  29.645  28.238  1.00  0.00     0.002 A 
ATOM     84  C   UNL A   1      35.137  32.056  28.437  1.00  0.00     0.091 A 
ATOM     85  F   UNL A   1      37.047  33.039  29.476  1.00  0.00    -0.205 F 
ATOM     86  C   UNL A   1      34.468  30.904  27.999  1.00  0.00     0.022 A 
BRANCH  84  87
ATOM     87  S   UNL A   1      34.302  33.631  28.212  1.00  0.00     0.127 S 
ATOM     88  O   UNL A   1      33.014  33.211  27.666  1.00  0.00    -0.237 OA
ATOM     89  O   UNL A   1      34.251  34.148  29.581  1.00  0.00    -0.237 OA
ATOM     90  O   UNL A   1      35.152  34.400  27.315  1.00  0.00    -0.744 OA
ENDBRANCH  84  87
ENDBRANCH  56  80
BRANCH  68  91
ATOM     91  C   UNL A   1      38.802  32.194  35.912  1.00  0.00     0.023 A 
ATOM     92  C   UNL A   1      38.605  33.588  35.969  1.00  0.00     0.012 A 
ATOM     93  C   UNL A   1      38.236  31.372  36.905  1.00  0.00     0.148 A 
ATOM     94  C   UNL A   1      37.877  34.157  37.012  1.00  0.00     0.002 A 
ATOM     95  C   UNL A   1      37.474  31.943  37.918  1.00  0.00     0.091 A 
ATOM     96  F   UNL A   1      38.451  30.049  36.840  1.00  0.00    -0.205 F 
ATOM     97  C   UNL A   1      37.301  33.336  37.979  1.00  0.00     0.022 A 
BRANCH  95  98
ATOM     98  S   UNL A   1      36.620  30.958  39.155  1.00  0.00     0.127 S 
ATOM     99  O   UNL A   1      36.273  29.759  38.393  1.00  0.00    -0.237 OA
ATOM    100  O   UNL A   1      37.660  30.759  40.165  1.00  0.00    -0.237 OA
ATOM    101  O   UNL A   1      35.492  31.764  39.601  1.00  0.00    -0.744 OA
ENDBRANCH  95  98
ENDBRANCH  68  91
ENDBRANCH  42  43
ENDBRANCH  35  37
ENDBRANCH  34  35
ENDBRANCH  33  34
ENDBRANCH  32  33
ENDBRANCH  31  32
ENDBRANCH  29  31
ENDBRANCH  27  29
ENDBRANCH   4  27
TORSDOF 25
ENDMDL
MODEL 2
REMARK VINA RESULT:     -10.5      5.047     10.929
REMARK SMILES CCCCCCCCNC(=O)Oc1cccc(-c2ccc([C@@H](C)C(=O)OCCOC(=O)c3ccc(-c4c5nc(c(-c6cccc(S(=O)(=O)[O-])c6F)c6ccc([nH]6)c(-c6cccc(S(=O)(=O)[O-])c6F)c6nc(c(-c7cccc(S(=O)(=O)[O-])c7F)c7ccc4[nH]7)C=C6)C=C5)cc3)cc2F)c1
REMARK SMILES IDX 18 1 19 2 20 3 21 4 95 5 96 6 97 7 17 8 13 9 14 10 98 11
REMARK SMILES IDX 15 12 16 13 12 14 10 15 9 16 11 18 8 19 7 20 6 21 5 22 4 23
REMARK SMILES IDX 3 24 2 25 1 26 22 27 23 28 24 29 25 30 26 31 27 32 28 33
REMARK SMILES IDX 29 34 30 35 31 36 32 37 33 38 94 39 34 40 93 41 35 42 36 43
REMARK SMILES IDX 37 44 87 45 38 46 92 47 86 48 88 49 39 50 91 51 85 52 84 53
REMARK SMILES IDX 40 55 72 56 52 57 71 58 53 59 56 60 70 61 89 62 54 63 55 64
REMARK SMILES IDX 69 66 90 67 57 68 41 69 42 70 50 71 43 72 45 73 51 74 44 75
REMARK SMILES IDX 46 76 47 77 48 78 49 79 73 80 74 81 82 82 75 83 77 84 83 85
REMARK SMILES IDX 76 86 78 87 79 88 80 89 81 90 58 91 59 92 67 93 60 94 62 95
REMARK SMILES IDX 68 96 61 97 63 98 64 99 65 100 66 101
REMARK H PARENT 9 17 88 54 56 65
REMARK Flexibility Score: inf
ROOT
ATOM      1  C   UNL A   1      37.346  31.147  29.257  1.00  0.00     0.018 A 
ATOM      2  C   UNL A   1      37.678  32.498  29.445  1.00  0.00     0.012 A 
ATOM      3  C   UNL A   1      36.709  33.504  29.359  1.00  0.00     0.005 A 
ATOM      4  C   UNL A   1      35.375  33.194  29.063  1.00  0.00    -0.031 A 
ATOM      5  C   UNL A   1      35.042  31.848  28.847  1.00  0.00     0.044 A 
ATOM      6  C   UNL A   1      36.013  30.850  28.943  1.00  0.00     0.131 A 
ATOM      7  F   UNL A   1      35.627  29.577  28.768  1.00  0.00    -0.206 F 
ENDROOT
BRANCH   1   8
ATOM      8  C   UNL A   1      38.365  30.096  29.420  1.00  0.00    -0.012 A 
ATOM      9  C   UNL A   1      40.579  29.193  29.020  1.00  0.00     0.133 A 
ATOM     10  C   UNL A   1      40.271  28.036  29.732  1.00  0.00     0.047 A 
ATOM     11  C   UNL A   1      39.642  30.213  28.849  1.00  0.00     0.056 A 
ATOM     12  C   UNL A   1      39.011  27.905  30.304  1.00  0.00     0.004 A 
ATOM     13  C   UNL A   1      38.069  28.925  30.147  1.00  0.00     0.009 A 
BRANCH   9  14
ATOM     14  O   UNL A   1      41.822  29.221  28.370  1.00  0.00    -0.410 OA
BRANCH  14  15
ATOM     15  C   UNL A   1      41.969  28.479  27.209  1.00  0.00     0.412 C 
ATOM     16  N   UNL A   1      43.050  27.640  27.249  1.00  0.00    -0.321 N 
ATOM     17  H   UNL A   1      43.196  27.071  26.460  1.00  0.00     0.167 HD
ATOM     18  O   UNL A   1      41.258  28.545  26.214  1.00  0.00    -0.224 OA
BRANCH  16  19
ATOM     19  C   UNL A   1      44.000  27.505  28.335  1.00  0.00     0.119 C 
BRANCH  19  20
ATOM     20  C   UNL A   1      44.410  26.052  28.571  1.00  0.00     0.021 C 
BRANCH  20  21
ATOM     21  C   UNL A   1      43.831  25.415  29.839  1.00  0.00     0.002 C 
BRANCH  21  22
ATOM     22  C   UNL A   1      44.301  23.986  30.131  1.00  0.00     0.000 C 
BRANCH  22  23
ATOM     23  C   UNL A   1      43.266  22.891  29.848  1.00  0.00    -0.000 C 
BRANCH  23  24
ATOM     24  C   UNL A   1      42.785  22.809  28.395  1.00  0.00    -0.000 C 
BRANCH  24  25
ATOM     25  C   UNL A   1      41.351  23.286  28.151  1.00  0.00    -0.003 C 
ATOM     26  C   UNL A   1      41.264  24.494  27.229  1.00  0.00     0.004 C 
ENDBRANCH  24  25
ENDBRANCH  23  24
ENDBRANCH  22  23
ENDBRANCH  21  22
ENDBRANCH  20  21
ENDBRANCH  19  20
ENDBRANCH  16  19
ENDBRANCH  14  15
ENDBRANCH   9  14
ENDBRANCH   1   8
BRANCH   4  27
ATOM     27  C   UNL A   1      34.301  34.266  28.987  1.00  0.00     0.126 C 
ATOM     28  C   UNL A   1      33.171  33.882  28.033  1.00  0.00     0.025 C 
BRANCH  27  29
ATOM     29  C   UNL A   1      33.719  34.737  30.315  1.00  0.00     0.313 C 
ATOM     30  O   UNL A   1      32.546  35.080  30.425  1.00  0.00    -0.252 OA
BRANCH  29  31
ATOM     31  O   UNL A   1      34.605  34.707  31.344  1.00  0.00    -0.462 OA
BRANCH  31  32
ATOM     32  C   UNL A   1      34.065  34.534  32.668  1.00  0.00     0.274 C 
BRANCH  32  33
ATOM     33  C   UNL A   1      35.178  34.592  33.713  1.00  0.00     0.275 C 
BRANCH  33  34
ATOM     34  O   UNL A   1      35.486  33.276  34.204  1.00  0.00    -0.458 OA
BRANCH  34  35
ATOM     35  C   UNL A   1      36.511  33.209  35.087  1.00  0.00     0.338 C 
ATOM     36  O   UNL A   1      36.495  33.489  36.271  1.00  0.00    -0.246 OA
BRANCH  35  37
ATOM     37  C   UNL A   1      37.673  32.619  34.412  1.00  0.00     0.060 A 
ATOM     38  C   UNL A   1      38.944  33.101  34.731  1.00  0.00     0.016 A 
ATOM     39  C   UNL A   1      37.509  31.635  33.440  1.00  0.00     0.016 A 
ATOM     40  C   UNL A   1      40.065  32.601  34.078  1.00  0.00     0.010 A 
ATOM     41  C   UNL A   1      38.638  31.113  32.804  1.00  0.00     0.010 A 
ATOM     42  C   UNL A   1      39.922  31.592  33.119  1.00  0.00    -0.014 A 
BRANCH  42  43
ATOM     43  C   UNL A   1      41.118  31.006  32.470  1.00  0.00     0.031 A 
ATOM     44  C   UNL A   1      41.745  29.761  33.023  1.00  0.00     0.074 A 
ATOM     45  C   UNL A   1      41.665  31.635  31.412  1.00  0.00     0.049 A 
ATOM     46  N   UNL A   1      42.866  29.183  32.683  1.00  0.00    -0.248 NA
ATOM     47  C   UNL A   1      41.018  29.078  34.106  1.00  0.00     0.031 C 
ATOM     48  C   UNL A   1      41.135  32.849  30.787  1.00  0.00     0.029 A 
ATOM     49  N   UNL A   1      42.804  31.361  30.698  1.00  0.00    -0.354 N 
ATOM     50  C   UNL A   1      43.007  28.096  33.536  1.00  0.00     0.074 A 
ATOM     51  C   UNL A   1      41.850  28.090  34.407  1.00  0.00     0.031 C 
ATOM     52  C   UNL A   1      41.962  33.231  29.802  1.00  0.00     0.029 A 
ATOM     53  C   UNL A   1      43.102  32.323  29.760  1.00  0.00     0.049 A 
ATOM     54  H   UNL A   1      43.353  30.557  30.842  1.00  0.00     0.167 HD
ATOM     55  C   UNL A   1      44.007  27.184  33.581  1.00  0.00     0.034 A 
ATOM     56  C   UNL A   1      44.194  32.482  28.987  1.00  0.00     0.034 A 
ATOM     57  C   UNL A   1      45.135  27.181  32.687  1.00  0.00     0.049 A 
ATOM     58  C   UNL A   1      45.305  31.472  29.080  1.00  0.00     0.074 A 
ATOM     59  C   UNL A   1      46.167  26.262  32.607  1.00  0.00     0.029 A 
ATOM     60  N   UNL A   1      45.385  28.147  31.724  1.00  0.00    -0.354 N 
ATOM     61  N   UNL A   1      45.373  30.388  29.816  1.00  0.00    -0.248 NA
ATOM     62  C   UNL A   1      46.481  31.698  28.230  1.00  0.00     0.031 C 
ATOM     63  C   UNL A   1      47.054  26.689  31.614  1.00  0.00     0.029 A 
ATOM     64  C   UNL A   1      46.567  27.862  31.061  1.00  0.00     0.049 A 
ATOM     65  H   UNL A   1      44.807  28.923  31.539  1.00  0.00     0.167 HD
ATOM     66  C   UNL A   1      46.590  29.794  29.506  1.00  0.00     0.074 A 
ATOM     67  C   UNL A   1      47.213  30.623  28.492  1.00  0.00     0.031 C 
ATOM     68  C   UNL A   1      47.153  28.677  30.027  1.00  0.00     0.034 A 
BRANCH  55  69
ATOM     69  C   UNL A   1      43.919  26.096  34.617  1.00  0.00     0.023 A 
ATOM     70  C   UNL A   1      43.417  24.830  34.257  1.00  0.00     0.012 A 
ATOM     71  C   UNL A   1      44.393  26.306  35.927  1.00  0.00     0.148 A 
ATOM     72  C   UNL A   1      43.364  23.796  35.191  1.00  0.00     0.002 A 
ATOM     73  C   UNL A   1      44.372  25.260  36.842  1.00  0.00     0.091 A 
ATOM     74  F   UNL A   1      44.846  27.525  36.256  1.00  0.00    -0.205 F 
ATOM     75  C   UNL A   1      43.850  24.008  36.479  1.00  0.00     0.022 A 
BRANCH  73  76
ATOM     76  S   UNL A   1      45.035  25.415  38.504  1.00  0.00     0.127 S 
ATOM     77  O   UNL A   1      44.082  26.338  39.118  1.00  0.00    -0.237 OA
ATOM     78  O   UNL A   1      44.955  24.040  38.999  1.00  0.00    -0.237 OA
ATOM     79  O   UNL A   1      46.390  25.925  38.350  1.00  0.00    -0.744 OA
ENDBRANCH  73  76
ENDBRANCH  55  69
BRANCH  56  80
ATOM     80  C   UNL A   1      44.282  33.642  28.057  1.00  0.00     0.023 A 
ATOM     81  C   UNL A   1      43.923  33.475  26.707  1.00  0.00     0.012 A 
ATOM     82  C   UNL A   1      44.674  34.918  28.511  1.00  0.00     0.148 A 
ATOM     83  C   UNL A   1      43.974  34.552  25.820  1.00  0.00     0.002 A 
ATOM     84  C   UNL A   1      44.669  35.997  27.637  1.00  0.00     0.091 A 
ATOM     85  F   UNL A   1      45.034  35.052  29.796  1.00  0.00    -0.205 F 
ATOM     86  C   UNL A   1      44.333  35.814  26.287  1.00  0.00     0.022 A 
BRANCH  84  87
ATOM     87  S   UNL A   1      44.986  37.678  28.187  1.00  0.00     0.127 S 
ATOM     88  O   UNL A   1      44.797  38.437  26.955  1.00  0.00    -0.237 OA
ATOM     89  O   UNL A   1      43.942  37.871  29.196  1.00  0.00    -0.237 OA
ATOM     90  O   UNL A   1      46.339  37.664  28.725  1.00  0.00    -0.744 OA
ENDBRANCH  84  87
ENDBRANCH  56  80
BRANCH  68  91
ATOM     91  C   UNL A   1      48.510  28.278  29.511  1.00  0.00     0.023 A 
ATOM     92  C   UNL A   1      49.661  28.876  30.061  1.00  0.00     0.012 A 
ATOM     93  C   UNL A   1      48.649  27.264  28.544  1.00  0.00     0.148 A 
ATOM     94  C   UNL A   1      50.931  28.488  29.637  1.00  0.00     0.002 A 
ATOM     95  C   UNL A   1      49.920  26.852  28.158  1.00  0.00     0.091 A 
ATOM     96  F   UNL A   1      47.540  26.721  28.022  1.00  0.00    -0.205 F 
ATOM     97  C   UNL A   1      51.061  27.469  28.696  1.00  0.00     0.022 A 
BRANCH  95  98
ATOM     98  S   UNL A   1      50.187  25.487  27.020  1.00  0.00     0.127 S 
ATOM     99  O   UNL A   1      49.426  25.922  25.850  1.00  0.00    -0.237 OA
ATOM    100  O   UNL A   1      51.639  25.508  26.846  1.00  0.00    -0.237 OA
ATOM    101  O   UNL A   1      49.677  24.299  27.691  1.00  0.00    -0.744 OA
ENDBRANCH  95  98
ENDBRANCH  68  91
ENDBRANCH  42  43
ENDBRANCH  35  37
ENDBRANCH  34  35
ENDBRANCH  33  34
ENDBRANCH  32  33
ENDBRANCH  31  32
ENDBRANCH  29  31
ENDBRANCH  27  29
ENDBRANCH   4  27
TORSDOF 25
ENDMDL
MODEL 3
REMARK VINA RESULT:     -10.5      5.419      8.774
REMARK SMILES CCCCCCCCNC(=O)Oc1cccc(-c2ccc([C@@H](C)C(=O)OCCOC(=O)c3ccc(-c4c5nc(c(-c6cccc(S(=O)(=O)[O-])c6F)c6ccc([nH]6)c(-c6cccc(S(=O)(=O)[O-])c6F)c6nc(c(-c7cccc(S(=O)(=O)[O-])c7F)c7ccc4[nH]7)C=C6)C=C5)cc3)cc2F)c1
REMARK SMILES IDX 18 1 19 2 20 3 21 4 95 5 96 6 97 7 17 8 13 9 14 10 98 11
REMARK SMILES IDX 15 12 16 13 12 14 10 15 9 16 11 18 8 19 7 20 6 21 5 22 4 23
REMARK SMILES IDX 3 24 2 25 1 26 22 27 23 28 24 29 25 30 26 31 27 32 28 33
REMARK SMILES IDX 29 34 30 35 31 36 32 37 33 38 94 39 34 40 93 41 35 42 36 43
REMARK SMILES IDX 37 44 87 45 38 46 92 47 86 48 88 49 39 50 91 51 85 52 84 53
REMARK SMILES IDX 40 55 72 56 52 57 71 58 53 59 56 60 70 61 89 62 54 63 55 64
REMARK SMILES IDX 69 66 90 67 57 68 41 69 42 70 50 71 43 72 45 73 51 74 44 75
REMARK SMILES IDX 46 76 47 77 48 78 49 79 73 80 74 81 82 82 75 83 77 84 83 85
REMARK SMILES IDX 76 86 78 87 79 88 80 89 81 90 58 91 59 92 67 93 60 94 62 95
REMARK SMILES IDX 68 96 61 97 63 98 64 99 65 100 66 101
REMARK H PARENT 9 17 88 54 56 65
REMARK Flexibility Score: inf
ROOT
ATOM      1  C   UNL A   1      35.956  21.824  25.316  1.00  0.00     0.018 A 
ATOM      2  C   UNL A   1      36.759  20.701  25.060  1.00  0.00     0.012 A 
ATOM      3  C   UNL A   1      38.137  20.720  25.305  1.00  0.00     0.005 A 
ATOM      4  C   UNL A   1      38.762  21.872  25.800  1.00  0.00    -0.031 A 
ATOM      5  C   UNL A   1      37.970  23.006  26.034  1.00  0.00     0.044 A 
ATOM      6  C   UNL A   1      36.595  22.976  25.794  1.00  0.00     0.131 A 
ATOM      7  F   UNL A   1      35.882  24.077  26.075  1.00  0.00    -0.206 F 
ENDROOT
BRANCH   1   8
ATOM      8  C   UNL A   1      34.498  21.762  25.117  1.00  0.00    -0.012 A 
ATOM      9  C   UNL A   1      32.344  22.825  24.790  1.00  0.00     0.133 A 
ATOM     10  C   UNL A   1      31.701  21.590  24.773  1.00  0.00     0.047 A 
ATOM     11  C   UNL A   1      33.725  22.924  24.972  1.00  0.00     0.056 A 
ATOM     12  C   UNL A   1      32.453  20.430  24.916  1.00  0.00     0.004 A 
ATOM     13  C   UNL A   1      33.837  20.517  25.087  1.00  0.00     0.009 A 
BRANCH   9  14
ATOM     14  O   UNL A   1      31.524  23.963  24.757  1.00  0.00    -0.410 OA
BRANCH  14  15
ATOM     15  C   UNL A   1      30.915  24.363  25.935  1.00  0.00     0.412 C 
ATOM     16  N   UNL A   1      30.016  25.379  25.748  1.00  0.00    -0.321 N 
ATOM     17  H   UNL A   1      29.534  25.695  26.546  1.00  0.00     0.167 HD
ATOM     18  O   UNL A   1      31.137  23.915  27.053  1.00  0.00    -0.224 OA
BRANCH  16  19
ATOM     19  C   UNL A   1      29.702  26.035  24.495  1.00  0.00     0.119 C 
BRANCH  19  20
ATOM     20  C   UNL A   1      30.529  27.301  24.278  1.00  0.00     0.021 C 
BRANCH  20  21
ATOM     21  C   UNL A   1      31.520  27.232  23.111  1.00  0.00     0.002 C 
BRANCH  21  22
ATOM     22  C   UNL A   1      32.996  27.403  23.490  1.00  0.00     0.000 C 
BRANCH  22  23
ATOM     23  C   UNL A   1      33.340  27.051  24.941  1.00  0.00    -0.000 C 
BRANCH  23  24
ATOM     24  C   UNL A   1      33.727  28.240  25.826  1.00  0.00    -0.000 C 
BRANCH  24  25
ATOM     25  C   UNL A   1      33.139  28.226  27.240  1.00  0.00    -0.003 C 
ATOM     26  C   UNL A   1      31.761  28.864  27.328  1.00  0.00     0.004 C 
ENDBRANCH  24  25
ENDBRANCH  23  24
ENDBRANCH  22  23
ENDBRANCH  21  22
ENDBRANCH  20  21
ENDBRANCH  19  20
ENDBRANCH  16  19
ENDBRANCH  14  15
ENDBRANCH   9  14
ENDBRANCH   1   8
BRANCH   4  27
ATOM     27  C   UNL A   1      40.253  21.910  26.097  1.00  0.00     0.126 C 
ATOM     28  C   UNL A   1      40.648  23.147  26.902  1.00  0.00     0.025 C 
BRANCH  27  29
ATOM     29  C   UNL A   1      40.848  20.662  26.739  1.00  0.00     0.313 C 
ATOM     30  O   UNL A   1      40.773  20.455  27.947  1.00  0.00    -0.252 OA
BRANCH  29  31
ATOM     31  O   UNL A   1      41.424  19.810  25.853  1.00  0.00    -0.462 OA
BRANCH  31  32
ATOM     32  C   UNL A   1      42.110  18.666  26.396  1.00  0.00     0.274 C 
BRANCH  32  33
ATOM     33  C   UNL A   1      43.484  18.507  25.747  1.00  0.00     0.275 C 
BRANCH  33  34
ATOM     34  O   UNL A   1      43.611  19.367  24.601  1.00  0.00    -0.458 OA
BRANCH  34  35
ATOM     35  C   UNL A   1      44.876  19.721  24.275  1.00  0.00     0.338 C 
ATOM     36  O   UNL A   1      45.710  19.056  23.689  1.00  0.00    -0.246 OA
BRANCH  35  37
ATOM     37  C   UNL A   1      45.080  21.126  24.650  1.00  0.00     0.060 A 
ATOM     38  C   UNL A   1      44.938  22.105  23.667  1.00  0.00     0.016 A 
ATOM     39  C   UNL A   1      45.455  21.469  25.947  1.00  0.00     0.016 A 
ATOM     40  C   UNL A   1      45.170  23.441  23.972  1.00  0.00     0.010 A 
ATOM     41  C   UNL A   1      45.660  22.815  26.261  1.00  0.00     0.010 A 
ATOM     42  C   UNL A   1      45.519  23.809  25.277  1.00  0.00    -0.014 A 
BRANCH  42  43
ATOM     43  C   UNL A   1      45.699  25.238  25.625  1.00  0.00     0.031 A 
ATOM     44  C   UNL A   1      47.071  25.843  25.652  1.00  0.00     0.074 A 
ATOM     45  C   UNL A   1      44.622  25.970  25.968  1.00  0.00     0.049 A 
ATOM     46  N   UNL A   1      47.441  27.025  26.065  1.00  0.00    -0.248 NA
ATOM     47  C   UNL A   1      48.174  25.005  25.152  1.00  0.00     0.031 C 
ATOM     48  C   UNL A   1      43.240  25.485  25.972  1.00  0.00     0.029 A 
ATOM     49  N   UNL A   1      44.524  27.264  26.414  1.00  0.00    -0.354 N 
ATOM     50  C   UNL A   1      48.822  27.063  25.921  1.00  0.00     0.074 A 
ATOM     51  C   UNL A   1      49.225  25.784  25.374  1.00  0.00     0.031 C 
ATOM     52  C   UNL A   1      42.435  26.459  26.424  1.00  0.00     0.029 A 
ATOM     53  C   UNL A   1      43.248  27.613  26.791  1.00  0.00     0.049 A 
ATOM     54  H   UNL A   1      45.290  27.881  26.459  1.00  0.00     0.167 HD
ATOM     55  C   UNL A   1      49.672  28.075  26.213  1.00  0.00     0.034 A 
ATOM     56  C   UNL A   1      42.790  28.721  27.408  1.00  0.00     0.034 A 
ATOM     57  C   UNL A   1      49.256  29.354  26.724  1.00  0.00     0.049 A 
ATOM     58  C   UNL A   1      43.762  29.817  27.750  1.00  0.00     0.074 A 
ATOM     59  C   UNL A   1      50.033  30.469  26.989  1.00  0.00     0.029 A 
ATOM     60  N   UNL A   1      47.952  29.688  27.058  1.00  0.00    -0.354 N 
ATOM     61  N   UNL A   1      45.050  29.881  27.508  1.00  0.00    -0.248 NA
ATOM     62  C   UNL A   1      43.219  30.996  28.436  1.00  0.00     0.031 C 
ATOM     63  C   UNL A   1      49.201  31.467  27.508  1.00  0.00     0.029 A 
ATOM     64  C   UNL A   1      47.904  30.981  27.549  1.00  0.00     0.049 A 
ATOM     65  H   UNL A   1      47.174  29.091  26.961  1.00  0.00     0.167 HD
ATOM     66  C   UNL A   1      45.468  31.113  27.997  1.00  0.00     0.074 A 
ATOM     67  C   UNL A   1      44.289  31.775  28.521  1.00  0.00     0.031 C 
ATOM     68  C   UNL A   1      46.716  31.640  28.030  1.00  0.00     0.034 A 
BRANCH  55  69
ATOM     69  C   UNL A   1      51.140  27.853  25.966  1.00  0.00     0.023 A 
ATOM     70  C   UNL A   1      51.975  27.463  27.032  1.00  0.00     0.012 A 
ATOM     71  C   UNL A   1      51.680  27.967  24.670  1.00  0.00     0.148 A 
ATOM     72  C   UNL A   1      53.330  27.213  26.818  1.00  0.00     0.002 A 
ATOM     73  C   UNL A   1      53.024  27.680  24.457  1.00  0.00     0.091 A 
ATOM     74  F   UNL A   1      50.875  28.361  23.673  1.00  0.00    -0.205 F 
ATOM     75  C   UNL A   1      53.851  27.311  25.530  1.00  0.00     0.022 A 
BRANCH  73  76
ATOM     76  S   UNL A   1      53.774  27.714  22.825  1.00  0.00     0.127 S 
ATOM     77  O   UNL A   1      55.099  28.257  23.121  1.00  0.00    -0.237 OA
ATOM     78  O   UNL A   1      53.766  26.299  22.451  1.00  0.00    -0.237 OA
ATOM     79  O   UNL A   1      52.919  28.562  22.008  1.00  0.00    -0.744 OA
ENDBRANCH  73  76
ENDBRANCH  55  69
BRANCH  56  80
ATOM     80  C   UNL A   1      41.342  28.843  27.734  1.00  0.00     0.023 A 
ATOM     81  C   UNL A   1      40.428  29.160  26.712  1.00  0.00     0.012 A 
ATOM     82  C   UNL A   1      40.862  28.605  29.037  1.00  0.00     0.148 A 
ATOM     83  C   UNL A   1      39.063  29.258  26.986  1.00  0.00     0.002 A 
ATOM     84  C   UNL A   1      39.496  28.649  29.291  1.00  0.00     0.091 A 
ATOM     85  F   UNL A   1      41.751  28.328  30.002  1.00  0.00    -0.205 F 
ATOM     86  C   UNL A   1      38.595  28.990  28.271  1.00  0.00     0.022 A 
BRANCH  84  87
ATOM     87  S   UNL A   1      38.803  28.184  30.882  1.00  0.00     0.127 S 
ATOM     88  O   UNL A   1      39.740  28.809  31.811  1.00  0.00    -0.237 OA
ATOM     89  O   UNL A   1      37.479  28.807  30.832  1.00  0.00    -0.237 OA
ATOM     90  O   UNL A   1      38.777  26.728  30.887  1.00  0.00    -0.744 OA
ENDBRANCH  84  87
ENDBRANCH  56  80
BRANCH  68  91
ATOM     91  C   UNL A   1      46.877  33.003  28.650  1.00  0.00     0.023 A 
ATOM     92  C   UNL A   1      47.202  33.106  30.017  1.00  0.00     0.012 A 
ATOM     93  C   UNL A   1      46.783  34.170  27.869  1.00  0.00     0.148 A 
ATOM     94  C   UNL A   1      47.406  34.353  30.604  1.00  0.00     0.002 A 
ATOM     95  C   UNL A   1      47.032  35.408  28.451  1.00  0.00     0.091 A 
ATOM     96  F   UNL A   1      46.456  34.050  26.574  1.00  0.00    -0.205 F 
ATOM     97  C   UNL A   1      47.333  35.503  29.821  1.00  0.00     0.022 A 
BRANCH  95  98
ATOM     98  S   UNL A   1      47.049  36.934  27.503  1.00  0.00     0.127 S 
ATOM     99  O   UNL A   1      47.300  37.929  28.544  1.00  0.00    -0.237 OA
ATOM    100  O   UNL A   1      48.167  36.717  26.585  1.00  0.00    -0.237 OA
ATOM    101  O   UNL A   1      45.746  37.021  26.858  1.00  0.00    -0.744 OA
ENDBRANCH  95  98
ENDBRANCH  68  91
ENDBRANCH  42  43
ENDBRANCH  35  37
ENDBRANCH  34  35
ENDBRANCH  33  34
ENDBRANCH  32  33
ENDBRANCH  31  32
ENDBRANCH  29  31
ENDBRANCH  27  29
ENDBRANCH   4  27
TORSDOF 25
ENDMDL
