MODEL 1
REMARK VINA RESULT:     -12.7      0.000      0.000
REMARK SMILES CCOC(=O)c1ccc(NC(=O)[C@H]2CC(C)=C(C)C[C@@H]2C(=O)OCCOC(=O)c2ccc(-c3c4nc(c(-c5cccc(S(=O)(=O)[O-])c5F)c5ccc([nH]5)c(-c5cccc(S(=O)(=O)[O-])c5F)c5nc(c(-c6cccc(S(=O)(=O)[O-])c6F)c6ccc3[nH]6)C=C5)C=C4)cc2)cc1
REMARK SMILES IDX 24 1 23 2 21 3 22 4 20 5 13 6 14 7 15 8 19 9 16 10 17 11
REMARK SMILES IDX 18 12 11 13 10 14 12 16 9 17 6 18 7 19 93 20 8 21 92 22 4 23
REMARK SMILES IDX 5 24 3 25 2 26 1 27 25 28 26 29 27 30 28 31 29 32 30 33
REMARK SMILES IDX 91 34 31 35 90 36 32 37 33 38 34 39 84 40 35 41 89 42 83 43
REMARK SMILES IDX 85 44 36 45 88 46 82 47 81 48 37 50 69 51 49 52 68 53 50 54
REMARK SMILES IDX 53 55 67 56 86 57 51 58 52 59 66 61 87 62 54 63 38 64 39 65
REMARK SMILES IDX 47 66 40 67 42 68 48 69 41 70 43 71 44 72 45 73 46 74 70 75
REMARK SMILES IDX 71 76 79 77 72 78 74 79 80 80 73 81 75 82 76 83 77 84 78 85
REMARK SMILES IDX 55 86 56 87 64 88 57 89 59 90 65 91 58 92 60 93 61 94 62 95
REMARK SMILES IDX 63 96
REMARK H PARENT 10 15 85 49 53 60
REMARK Flexibility Score: inf
ROOT
ATOM      1  C   UNL A   1      35.342  21.980  25.504  1.00  0.00     0.274 C 
ENDROOT
BRANCH   1   2
ATOM      2  O   UNL A   1      35.830  23.277  25.096  1.00  0.00    -0.462 OA
BRANCH   2   3
ATOM      3  C   UNL A   1      35.265  23.743  23.958  1.00  0.00     0.310 C 
ATOM      4  O   UNL A   1      35.667  23.465  22.829  1.00  0.00    -0.252 OA
BRANCH   3   5
ATOM      5  C   UNL A   1      34.060  24.648  24.144  1.00  0.00     0.116 C 
ATOM      6  C   UNL A   1      33.370  25.263  22.926  1.00  0.00     0.097 C 
ATOM      7  C   UNL A   1      33.659  26.779  22.779  1.00  0.00     0.045 C 
ATOM      8  C   UNL A   1      33.449  27.562  24.056  1.00  0.00    -0.074 C 
ATOM      9  C   UNL A   1      34.427  25.656  25.236  1.00  0.00     0.046 C 
ATOM     10  C   UNL A   1      33.063  29.006  23.889  1.00  0.00     0.039 C 
ATOM     11  C   UNL A   1      33.729  26.986  25.240  1.00  0.00    -0.073 C 
ATOM     12  C   UNL A   1      33.573  27.641  26.586  1.00  0.00     0.039 C 
BRANCH   6  13
ATOM     13  C   UNL A   1      31.851  25.010  22.689  1.00  0.00     0.228 C 
ATOM     14  N   UNL A   1      31.226  23.797  22.656  1.00  0.00    -0.326 N 
ATOM     15  H   UNL A   1      30.432  23.787  22.074  1.00  0.00     0.169 HD
ATOM     16  O   UNL A   1      31.158  25.955  22.272  1.00  0.00    -0.274 OA
BRANCH  14  17
ATOM     17  C   UNL A   1      31.471  22.564  23.271  1.00  0.00     0.041 A 
ATOM     18  C   UNL A   1      32.374  20.182  24.444  1.00  0.00     0.060 A 
ATOM     19  C   UNL A   1      31.798  21.186  25.233  1.00  0.00     0.018 A 
ATOM     20  C   UNL A   1      32.376  20.326  23.051  1.00  0.00     0.018 A 
ATOM     21  C   UNL A   1      31.323  22.362  24.643  1.00  0.00     0.027 A 
ATOM     22  C   UNL A   1      31.904  21.508  22.466  1.00  0.00     0.027 A 
BRANCH  18  23
ATOM     23  C   UNL A   1      32.975  19.007  25.125  1.00  0.00     0.338 C 
ATOM     24  O   UNL A   1      32.468  18.470  26.101  1.00  0.00    -0.246 OA
BRANCH  23  25
ATOM     25  O   UNL A   1      34.154  18.664  24.548  1.00  0.00    -0.462 OA
BRANCH  25  26
ATOM     26  C   UNL A   1      34.380  17.253  24.395  1.00  0.00     0.230 C 
ATOM     27  C   UNL A   1      34.018  16.795  22.994  1.00  0.00     0.049 C 
ENDBRANCH  25  26
ENDBRANCH  23  25
ENDBRANCH  18  23
ENDBRANCH  14  17
ENDBRANCH   6  13
ENDBRANCH   3   5
ENDBRANCH   2   3
ENDBRANCH   1   2
BRANCH   1  28
ATOM     28  C   UNL A   1      36.428  20.909  25.422  1.00  0.00     0.275 C 
BRANCH  28  29
ATOM     29  O   UNL A   1      37.652  21.448  24.888  1.00  0.00    -0.458 OA
BRANCH  29  30
ATOM     30  C   UNL A   1      38.760  21.196  25.626  1.00  0.00     0.338 C 
ATOM     31  O   UNL A   1      39.408  20.160  25.626  1.00  0.00    -0.246 OA
BRANCH  30  32
ATOM     32  C   UNL A   1      39.167  22.366  26.437  1.00  0.00     0.060 A 
ATOM     33  C   UNL A   1      38.630  23.624  26.191  1.00  0.00     0.016 A 
ATOM     34  C   UNL A   1      40.266  22.249  27.288  1.00  0.00     0.016 A 
ATOM     35  C   UNL A   1      39.340  24.762  26.590  1.00  0.00     0.010 A 
ATOM     36  C   UNL A   1      40.860  23.394  27.835  1.00  0.00     0.010 A 
ATOM     37  C   UNL A   1      40.469  24.679  27.425  1.00  0.00    -0.014 A 
BRANCH  37  38
ATOM     38  C   UNL A   1      41.261  25.897  27.823  1.00  0.00     0.031 A 
ATOM     39  C   UNL A   1      40.652  26.966  28.716  1.00  0.00     0.074 A 
ATOM     40  C   UNL A   1      42.532  26.085  27.401  1.00  0.00     0.049 A 
ATOM     41  N   UNL A   1      41.058  28.192  28.938  1.00  0.00    -0.248 NA
ATOM     42  C   UNL A   1      39.410  26.623  29.429  1.00  0.00     0.031 C 
ATOM     43  C   UNL A   1      43.298  25.165  26.562  1.00  0.00     0.029 A 
ATOM     44  N   UNL A   1      43.411  27.121  27.631  1.00  0.00    -0.354 N 
ATOM     45  C   UNL A   1      40.060  28.803  29.693  1.00  0.00     0.074 A 
ATOM     46  C   UNL A   1      39.045  27.797  29.927  1.00  0.00     0.031 C 
ATOM     47  C   UNL A   1      44.547  25.627  26.417  1.00  0.00     0.029 A 
ATOM     48  C   UNL A   1      44.638  26.945  27.030  1.00  0.00     0.049 A 
ATOM     49  H   UNL A   1      43.184  27.910  28.172  1.00  0.00     0.167 HD
ATOM     50  C   UNL A   1      39.990  30.078  30.150  1.00  0.00     0.034 A 
ATOM     51  C   UNL A   1      45.705  27.763  26.920  1.00  0.00     0.034 A 
ATOM     52  C   UNL A   1      41.061  31.037  30.053  1.00  0.00     0.049 A 
ATOM     53  C   UNL A   1      45.632  29.150  27.487  1.00  0.00     0.074 A 
ATOM     54  C   UNL A   1      41.104  32.334  30.538  1.00  0.00     0.029 A 
ATOM     55  N   UNL A   1      42.293  30.796  29.465  1.00  0.00    -0.354 N 
ATOM     56  N   UNL A   1      44.667  29.715  28.168  1.00  0.00    -0.248 NA
ATOM     57  C   UNL A   1      46.796  30.020  27.256  1.00  0.00     0.031 C 
ATOM     58  C   UNL A   1      42.360  32.877  30.243  1.00  0.00     0.029 A 
ATOM     59  C   UNL A   1      43.105  31.913  29.584  1.00  0.00     0.049 A 
ATOM     60  H   UNL A   1      42.554  29.953  29.027  1.00  0.00     0.167 HD
ATOM     61  C   UNL A   1      45.107  31.002  28.453  1.00  0.00     0.074 A 
ATOM     62  C   UNL A   1      46.444  31.120  27.907  1.00  0.00     0.031 C 
ATOM     63  C   UNL A   1      44.451  32.007  29.084  1.00  0.00     0.034 A 
BRANCH  50  64
ATOM     64  C   UNL A   1      38.714  30.524  30.822  1.00  0.00     0.023 A 
ATOM     65  C   UNL A   1      38.556  30.391  32.215  1.00  0.00     0.012 A 
ATOM     66  C   UNL A   1      37.693  31.147  30.071  1.00  0.00     0.148 A 
ATOM     67  C   UNL A   1      37.391  30.835  32.844  1.00  0.00     0.002 A 
ATOM     68  C   UNL A   1      36.555  31.627  30.711  1.00  0.00     0.091 A 
ATOM     69  F   UNL A   1      37.847  31.251  28.743  1.00  0.00    -0.205 F 
ATOM     70  C   UNL A   1      36.398  31.462  32.096  1.00  0.00     0.022 A 
BRANCH  68  71
ATOM     71  S   UNL A   1      35.270  32.527  29.834  1.00  0.00     0.127 S 
ATOM     72  O   UNL A   1      34.842  31.542  28.842  1.00  0.00    -0.237 OA
ATOM     73  O   UNL A   1      34.292  32.790  30.891  1.00  0.00    -0.237 OA
ATOM     74  O   UNL A   1      35.915  33.720  29.304  1.00  0.00    -0.744 OA
ENDBRANCH  68  71
ENDBRANCH  50  64
BRANCH  51  75
ATOM     75  C   UNL A   1      46.943  27.278  26.243  1.00  0.00     0.023 A 
ATOM     76  C   UNL A   1      47.174  27.633  24.900  1.00  0.00     0.012 A 
ATOM     77  C   UNL A   1      47.917  26.528  26.929  1.00  0.00     0.148 A 
ATOM     78  C   UNL A   1      48.347  27.243  24.253  1.00  0.00     0.002 A 
ATOM     79  C   UNL A   1      49.116  26.208  26.303  1.00  0.00     0.091 A 
ATOM     80  F   UNL A   1      47.667  26.165  28.196  1.00  0.00    -0.205 F 
ATOM     81  C   UNL A   1      49.326  26.549  24.960  1.00  0.00     0.022 A 
BRANCH  79  82
ATOM     82  S   UNL A   1      50.488  25.474  27.202  1.00  0.00     0.127 S 
ATOM     83  O   UNL A   1      51.488  25.318  26.150  1.00  0.00    -0.237 OA
ATOM     84  O   UNL A   1      50.794  26.505  28.195  1.00  0.00    -0.237 OA
ATOM     85  O   UNL A   1      49.960  24.241  27.771  1.00  0.00    -0.744 OA
ENDBRANCH  79  82
ENDBRANCH  51  75
BRANCH  63  86
ATOM     86  C   UNL A   1      45.178  33.316  29.237  1.00  0.00     0.023 A 
ATOM     87  C   UNL A   1      45.948  33.553  30.392  1.00  0.00     0.012 A 
ATOM     88  C   UNL A   1      45.127  34.298  28.229  1.00  0.00     0.148 A 
ATOM     89  C   UNL A   1      46.626  34.759  30.560  1.00  0.00     0.002 A 
ATOM     90  C   UNL A   1      45.839  35.482  28.383  1.00  0.00     0.091 A 
ATOM     91  F   UNL A   1      44.369  34.068  27.147  1.00  0.00    -0.205 F 
ATOM     92  C   UNL A   1      46.580  35.720  29.552  1.00  0.00     0.022 A 
BRANCH  90  93
ATOM     93  S   UNL A   1      45.893  36.734  27.096  1.00  0.00     0.127 S 
ATOM     94  O   UNL A   1      46.857  37.686  27.644  1.00  0.00    -0.237 OA
ATOM     95  O   UNL A   1      46.374  35.978  25.938  1.00  0.00    -0.237 OA
ATOM     96  O   UNL A   1      44.527  37.222  26.964  1.00  0.00    -0.744 OA
ENDBRANCH  90  93
ENDBRANCH  63  86
ENDBRANCH  37  38
ENDBRANCH  30  32
ENDBRANCH  29  30
ENDBRANCH  28  29
ENDBRANCH   1  28
TORSDOF 19
ENDMDL
MODEL 2
REMARK VINA RESULT:     -12.4      1.681      3.776
REMARK SMILES CCOC(=O)c1ccc(NC(=O)[C@H]2CC(C)=C(C)C[C@@H]2C(=O)OCCOC(=O)c2ccc(-c3c4nc(c(-c5cccc(S(=O)(=O)[O-])c5F)c5ccc([nH]5)c(-c5cccc(S(=O)(=O)[O-])c5F)c5nc(c(-c6cccc(S(=O)(=O)[O-])c6F)c6ccc3[nH]6)C=C5)C=C4)cc2)cc1
REMARK SMILES IDX 24 1 23 2 21 3 22 4 20 5 13 6 14 7 15 8 19 9 16 10 17 11
REMARK SMILES IDX 18 12 11 13 10 14 12 16 9 17 6 18 7 19 93 20 8 21 92 22 4 23
REMARK SMILES IDX 5 24 3 25 2 26 1 27 25 28 26 29 27 30 28 31 29 32 30 33
REMARK SMILES IDX 91 34 31 35 90 36 32 37 33 38 34 39 84 40 35 41 89 42 83 43
REMARK SMILES IDX 85 44 36 45 88 46 82 47 81 48 37 50 69 51 49 52 68 53 50 54
REMARK SMILES IDX 53 55 67 56 86 57 51 58 52 59 66 61 87 62 54 63 38 64 39 65
REMARK SMILES IDX 47 66 40 67 42 68 48 69 41 70 43 71 44 72 45 73 46 74 70 75
REMARK SMILES IDX 71 76 79 77 72 78 74 79 80 80 73 81 75 82 76 83 77 84 78 85
REMARK SMILES IDX 55 86 56 87 64 88 57 89 59 90 65 91 58 92 60 93 61 94 62 95
REMARK SMILES IDX 63 96
REMARK H PARENT 10 15 85 49 53 60
REMARK Flexibility Score: inf
ROOT
ATOM      1  C   UNL A   1      34.873  22.025  25.176  1.00  0.00     0.274 C 
ENDROOT
BRANCH   1   2
ATOM      2  O   UNL A   1      34.491  22.875  26.280  1.00  0.00    -0.462 OA
BRANCH   2   3
ATOM      3  C   UNL A   1      33.176  23.194  26.298  1.00  0.00     0.310 C 
ATOM      4  O   UNL A   1      32.359  22.687  27.066  1.00  0.00    -0.252 OA
BRANCH   3   5
ATOM      5  C   UNL A   1      32.740  24.252  25.301  1.00  0.00     0.116 C 
ATOM      6  C   UNL A   1      33.579  24.516  24.050  1.00  0.00     0.097 C 
ATOM      7  C   UNL A   1      34.361  25.853  24.128  1.00  0.00     0.045 C 
ATOM      8  C   UNL A   1      33.508  27.029  24.547  1.00  0.00    -0.074 C 
ATOM      9  C   UNL A   1      32.399  25.508  26.107  1.00  0.00     0.046 C 
ATOM     10  C   UNL A   1      33.946  28.376  24.039  1.00  0.00     0.039 C 
ATOM     11  C   UNL A   1      32.506  26.842  25.426  1.00  0.00    -0.073 C 
ATOM     12  C   UNL A   1      31.581  27.915  25.935  1.00  0.00     0.039 C 
BRANCH   6  13
ATOM     13  C   UNL A   1      32.926  24.391  22.641  1.00  0.00     0.228 C 
ATOM     14  N   UNL A   1      31.690  24.844  22.277  1.00  0.00    -0.326 N 
ATOM     15  H   UNL A   1      31.279  24.309  21.560  1.00  0.00     0.169 HD
ATOM     16  O   UNL A   1      33.455  23.626  21.816  1.00  0.00    -0.274 OA
BRANCH  14  17
ATOM     17  C   UNL A   1      30.882  25.902  22.705  1.00  0.00     0.041 A 
ATOM     18  C   UNL A   1      29.091  28.008  23.175  1.00  0.00     0.060 A 
ATOM     19  C   UNL A   1      28.908  26.770  23.803  1.00  0.00     0.018 A 
ATOM     20  C   UNL A   1      30.247  28.224  22.414  1.00  0.00     0.018 A 
ATOM     21  C   UNL A   1      29.817  25.729  23.589  1.00  0.00     0.027 A 
ATOM     22  C   UNL A   1      31.152  27.176  22.200  1.00  0.00     0.027 A 
BRANCH  18  23
ATOM     23  C   UNL A   1      28.036  29.043  23.333  1.00  0.00     0.338 C 
ATOM     24  O   UNL A   1      26.841  28.792  23.264  1.00  0.00    -0.246 OA
BRANCH  23  25
ATOM     25  O   UNL A   1      28.586  30.271  23.510  1.00  0.00    -0.462 OA
BRANCH  25  26
ATOM     26  C   UNL A   1      27.694  31.381  23.312  1.00  0.00     0.230 C 
ATOM     27  C   UNL A   1      28.328  32.432  22.420  1.00  0.00     0.049 C 
ENDBRANCH  25  26
ENDBRANCH  23  25
ENDBRANCH  18  23
ENDBRANCH  14  17
ENDBRANCH   6  13
ENDBRANCH   3   5
ENDBRANCH   2   3
ENDBRANCH   1   2
BRANCH   1  28
ATOM     28  C   UNL A   1      36.020  21.088  25.548  1.00  0.00     0.275 C 
BRANCH  28  29
ATOM     29  O   UNL A   1      37.219  21.416  24.821  1.00  0.00    -0.458 OA
BRANCH  29  30
ATOM     30  C   UNL A   1      38.377  21.144  25.469  1.00  0.00     0.338 C 
ATOM     31  O   UNL A   1      39.030  20.114  25.378  1.00  0.00    -0.246 OA
BRANCH  30  32
ATOM     32  C   UNL A   1      38.831  22.281  26.300  1.00  0.00     0.060 A 
ATOM     33  C   UNL A   1      38.285  23.548  26.133  1.00  0.00     0.016 A 
ATOM     34  C   UNL A   1      39.975  22.130  27.083  1.00  0.00     0.016 A 
ATOM     35  C   UNL A   1      39.019  24.669  26.536  1.00  0.00     0.010 A 
ATOM     36  C   UNL A   1      40.602  23.252  27.640  1.00  0.00     0.010 A 
ATOM     37  C   UNL A   1      40.192  24.553  27.303  1.00  0.00    -0.014 A 
BRANCH  37  38
ATOM     38  C   UNL A   1      41.009  25.754  27.703  1.00  0.00     0.031 A 
ATOM     39  C   UNL A   1      40.431  26.818  28.623  1.00  0.00     0.074 A 
ATOM     40  C   UNL A   1      42.273  25.931  27.260  1.00  0.00     0.049 A 
ATOM     41  N   UNL A   1      40.858  28.036  28.854  1.00  0.00    -0.248 NA
ATOM     42  C   UNL A   1      39.198  26.482  29.354  1.00  0.00     0.031 C 
ATOM     43  C   UNL A   1      43.011  25.013  26.393  1.00  0.00     0.029 A 
ATOM     44  N   UNL A   1      43.171  26.951  27.487  1.00  0.00    -0.354 N 
ATOM     45  C   UNL A   1      39.883  28.649  29.637  1.00  0.00     0.074 A 
ATOM     46  C   UNL A   1      38.859  27.654  29.875  1.00  0.00     0.031 C 
ATOM     47  C   UNL A   1      44.264  25.460  26.231  1.00  0.00     0.029 A 
ATOM     48  C   UNL A   1      44.384  26.768  26.860  1.00  0.00     0.049 A 
ATOM     49  H   UNL A   1      42.965  27.736  28.044  1.00  0.00     0.167 HD
ATOM     50  C   UNL A   1      39.840  29.918  30.113  1.00  0.00     0.034 A 
ATOM     51  C   UNL A   1      45.460  27.572  26.743  1.00  0.00     0.034 A 
ATOM     52  C   UNL A   1      40.922  30.864  30.009  1.00  0.00     0.049 A 
ATOM     53  C   UNL A   1      45.417  28.952  27.330  1.00  0.00     0.074 A 
ATOM     54  C   UNL A   1      40.991  32.153  30.511  1.00  0.00     0.029 A 
ATOM     55  N   UNL A   1      42.139  30.614  29.395  1.00  0.00    -0.354 N 
ATOM     56  N   UNL A   1      44.472  29.521  28.037  1.00  0.00    -0.248 NA
ATOM     57  C   UNL A   1      46.588  29.809  27.090  1.00  0.00     0.031 C 
ATOM     58  C   UNL A   1      42.249  32.683  30.200  1.00  0.00     0.029 A 
ATOM     59  C   UNL A   1      42.968  31.719  29.514  1.00  0.00     0.049 A 
ATOM     60  H   UNL A   1      42.379  29.774  28.940  1.00  0.00     0.167 HD
ATOM     61  C   UNL A   1      44.936  30.797  28.332  1.00  0.00     0.074 A 
ATOM     62  C   UNL A   1      46.263  30.904  27.762  1.00  0.00     0.031 C 
ATOM     63  C   UNL A   1      44.306  31.802  28.989  1.00  0.00     0.034 A 
BRANCH  50  64
ATOM     64  C   UNL A   1      38.582  30.372  30.816  1.00  0.00     0.023 A 
ATOM     65  C   UNL A   1      38.429  30.177  32.201  1.00  0.00     0.012 A 
ATOM     66  C   UNL A   1      37.577  31.062  30.102  1.00  0.00     0.148 A 
ATOM     67  C   UNL A   1      37.283  30.627  32.860  1.00  0.00     0.002 A 
ATOM     68  C   UNL A   1      36.459  31.546  30.774  1.00  0.00     0.091 A 
ATOM     69  F   UNL A   1      37.726  31.224  28.780  1.00  0.00    -0.205 F 
ATOM     70  C   UNL A   1      36.305  31.320  32.150  1.00  0.00     0.022 A 
BRANCH  68  71
ATOM     71  S   UNL A   1      35.198  32.527  29.950  1.00  0.00     0.127 S 
ATOM     72  O   UNL A   1      34.259  32.780  31.041  1.00  0.00    -0.237 OA
ATOM     73  O   UNL A   1      35.951  33.703  29.511  1.00  0.00    -0.237 OA
ATOM     74  O   UNL A   1      34.697  31.696  28.864  1.00  0.00    -0.744 OA
ENDBRANCH  68  71
ENDBRANCH  50  64
BRANCH  51  75
ATOM     75  C   UNL A   1      46.678  27.081  26.035  1.00  0.00     0.023 A 
ATOM     76  C   UNL A   1      46.813  27.320  24.653  1.00  0.00     0.012 A 
ATOM     77  C   UNL A   1      47.726  26.439  26.723  1.00  0.00     0.148 A 
ATOM     78  C   UNL A   1      47.964  26.923  23.972  1.00  0.00     0.002 A 
ATOM     79  C   UNL A   1      48.900  26.114  26.054  1.00  0.00     0.091 A 
ATOM     80  F   UNL A   1      47.567  26.183  28.030  1.00  0.00    -0.205 F 
ATOM     81  C   UNL A   1      49.015  26.339  24.675  1.00  0.00     0.022 A 
BRANCH  79  82
ATOM     82  S   UNL A   1      50.356  25.526  26.927  1.00  0.00     0.127 S 
ATOM     83  O   UNL A   1      50.651  26.649  27.812  1.00  0.00    -0.237 OA
ATOM     84  O   UNL A   1      49.850  24.327  27.599  1.00  0.00    -0.237 OA
ATOM     85  O   UNL A   1      51.342  25.251  25.890  1.00  0.00    -0.744 OA
ENDBRANCH  79  82
ENDBRANCH  51  75
BRANCH  63  86
ATOM     86  C   UNL A   1      45.054  33.099  29.147  1.00  0.00     0.023 A 
ATOM     87  C   UNL A   1      45.835  33.314  30.299  1.00  0.00     0.012 A 
ATOM     88  C   UNL A   1      45.010  34.089  28.147  1.00  0.00     0.148 A 
ATOM     89  C   UNL A   1      46.533  34.509  30.470  1.00  0.00     0.002 A 
ATOM     90  C   UNL A   1      45.741  35.261  28.305  1.00  0.00     0.091 A 
ATOM     91  F   UNL A   1      44.241  33.878  27.068  1.00  0.00    -0.205 F 
ATOM     92  C   UNL A   1      46.494  35.478  29.471  1.00  0.00     0.022 A 
BRANCH  90  93
ATOM     93  S   UNL A   1      45.806  36.522  27.027  1.00  0.00     0.127 S 
ATOM     94  O   UNL A   1      46.848  37.411  27.535  1.00  0.00    -0.237 OA
ATOM     95  O   UNL A   1      46.187  35.752  25.841  1.00  0.00    -0.237 OA
ATOM     96  O   UNL A   1      44.465  37.088  26.965  1.00  0.00    -0.744 OA
ENDBRANCH  90  93
ENDBRANCH  63  86
ENDBRANCH  37  38
ENDBRANCH  30  32
ENDBRANCH  29  30
ENDBRANCH  28  29
ENDBRANCH   1  28
TORSDOF 19
ENDMDL
MODEL 3
REMARK VINA RESULT:     -12.0      4.802     10.080
REMARK SMILES CCOC(=O)c1ccc(NC(=O)[C@H]2CC(C)=C(C)C[C@@H]2C(=O)OCCOC(=O)c2ccc(-c3c4nc(c(-c5cccc(S(=O)(=O)[O-])c5F)c5ccc([nH]5)c(-c5cccc(S(=O)(=O)[O-])c5F)c5nc(c(-c6cccc(S(=O)(=O)[O-])c6F)c6ccc3[nH]6)C=C5)C=C4)cc2)cc1
REMARK SMILES IDX 24 1 23 2 21 3 22 4 20 5 13 6 14 7 15 8 19 9 16 10 17 11
REMARK SMILES IDX 18 12 11 13 10 14 12 16 9 17 6 18 7 19 93 20 8 21 92 22 4 23
REMARK SMILES IDX 5 24 3 25 2 26 1 27 25 28 26 29 27 30 28 31 29 32 30 33
REMARK SMILES IDX 91 34 31 35 90 36 32 37 33 38 34 39 84 40 35 41 89 42 83 43
REMARK SMILES IDX 85 44 36 45 88 46 82 47 81 48 37 50 69 51 49 52 68 53 50 54
REMARK SMILES IDX 53 55 67 56 86 57 51 58 52 59 66 61 87 62 54 63 38 64 39 65
REMARK SMILES IDX 47 66 40 67 42 68 48 69 41 70 43 71 44 72 45 73 46 74 70 75
REMARK SMILES IDX 71 76 79 77 72 78 74 79 80 80 73 81 75 82 76 83 77 84 78 85
REMARK SMILES IDX 55 86 56 87 64 88 57 89 59 90 65 91 58 92 60 93 61 94 62 95
REMARK SMILES IDX 63 96
REMARK H PARENT 10 15 85 49 53 60
REMARK Flexibility Score: inf
ROOT
ATOM      1  C   UNL A   1      31.791  28.004  26.019  1.00  0.00     0.274 C 
ENDROOT
BRANCH   1   2
ATOM      2  O   UNL A   1      32.642  27.526  24.955  1.00  0.00    -0.462 OA
BRANCH   2   3
ATOM      3  C   UNL A   1      33.500  26.550  25.334  1.00  0.00     0.310 C 
ATOM      4  O   UNL A   1      34.263  26.642  26.294  1.00  0.00    -0.252 OA
BRANCH   3   5
ATOM      5  C   UNL A   1      33.467  25.284  24.497  1.00  0.00     0.116 C 
ATOM      6  C   UNL A   1      32.451  24.185  24.810  1.00  0.00     0.097 C 
ATOM      7  C   UNL A   1      33.100  22.943  25.472  1.00  0.00     0.045 C 
ATOM      8  C   UNL A   1      34.331  22.444  24.748  1.00  0.00    -0.074 C 
ATOM      9  C   UNL A   1      34.912  24.791  24.382  1.00  0.00     0.046 C 
ATOM     10  C   UNL A   1      34.624  20.975  24.879  1.00  0.00     0.039 C 
ATOM     11  C   UNL A   1      35.148  23.327  24.144  1.00  0.00    -0.073 C 
ATOM     12  C   UNL A   1      36.404  22.978  23.392  1.00  0.00     0.039 C 
BRANCH   6  13
ATOM     13  C   UNL A   1      31.461  23.711  23.705  1.00  0.00     0.228 C 
ATOM     14  N   UNL A   1      30.289  24.318  23.351  1.00  0.00    -0.326 N 
ATOM     15  H   UNL A   1      29.616  23.686  23.007  1.00  0.00     0.169 HD
ATOM     16  O   UNL A   1      31.607  22.568  23.238  1.00  0.00    -0.274 OA
BRANCH  14  17
ATOM     17  C   UNL A   1      29.839  25.642  23.374  1.00  0.00     0.041 A 
ATOM     18  C   UNL A   1      28.825  28.231  23.015  1.00  0.00     0.060 A 
ATOM     19  C   UNL A   1      28.147  27.312  23.826  1.00  0.00     0.018 A 
ATOM     20  C   UNL A   1      30.077  27.887  22.491  1.00  0.00     0.018 A 
ATOM     21  C   UNL A   1      28.669  26.030  24.026  1.00  0.00     0.027 A 
ATOM     22  C   UNL A   1      30.592  26.600  22.691  1.00  0.00     0.027 A 
BRANCH  18  23
ATOM     23  C   UNL A   1      28.173  29.537  22.731  1.00  0.00     0.338 C 
ATOM     24  O   UNL A   1      27.305  30.017  23.446  1.00  0.00    -0.246 OA
BRANCH  23  25
ATOM     25  O   UNL A   1      28.640  30.068  21.573  1.00  0.00    -0.462 OA
BRANCH  25  26
ATOM     26  C   UNL A   1      29.013  31.455  21.638  1.00  0.00     0.230 C 
ATOM     27  C   UNL A   1      28.012  32.320  20.892  1.00  0.00     0.049 C 
ENDBRANCH  25  26
ENDBRANCH  23  25
ENDBRANCH  18  23
ENDBRANCH  14  17
ENDBRANCH   6  13
ENDBRANCH   3   5
ENDBRANCH   2   3
ENDBRANCH   1   2
BRANCH   1  28
ATOM     28  C   UNL A   1      31.664  29.526  26.009  1.00  0.00     0.275 C 
BRANCH  28  29
ATOM     29  O   UNL A   1      32.055  30.091  27.274  1.00  0.00    -0.458 OA
BRANCH  29  30
ATOM     30  C   UNL A   1      32.800  31.220  27.193  1.00  0.00     0.338 C 
ATOM     31  O   UNL A   1      32.381  32.347  26.970  1.00  0.00    -0.246 OA
BRANCH  30  32
ATOM     32  C   UNL A   1      34.232  30.963  27.464  1.00  0.00     0.060 A 
ATOM     33  C   UNL A   1      34.715  29.665  27.573  1.00  0.00     0.016 A 
ATOM     34  C   UNL A   1      35.048  32.028  27.846  1.00  0.00     0.016 A 
ATOM     35  C   UNL A   1      35.895  29.430  28.288  1.00  0.00     0.010 A 
ATOM     36  C   UNL A   1      36.314  31.785  28.395  1.00  0.00     0.010 A 
ATOM     37  C   UNL A   1      36.727  30.481  28.714  1.00  0.00    -0.014 A 
BRANCH  37  38
ATOM     38  C   UNL A   1      37.976  30.236  29.520  1.00  0.00     0.031 A 
ATOM     39  C   UNL A   1      39.127  29.424  28.947  1.00  0.00     0.074 A 
ATOM     40  C   UNL A   1      38.116  30.721  30.773  1.00  0.00     0.049 A 
ATOM     41  N   UNL A   1      40.144  28.876  29.566  1.00  0.00    -0.248 NA
ATOM     42  C   UNL A   1      39.119  29.170  27.497  1.00  0.00     0.031 C 
ATOM     43  C   UNL A   1      37.138  31.540  31.487  1.00  0.00     0.029 A 
ATOM     44  N   UNL A   1      39.152  30.597  31.674  1.00  0.00    -0.354 N 
ATOM     45  C   UNL A   1      40.810  28.106  28.615  1.00  0.00     0.074 A 
ATOM     46  C   UNL A   1      40.103  28.291  27.365  1.00  0.00     0.031 C 
ATOM     47  C   UNL A   1      37.646  31.916  32.669  1.00  0.00     0.029 A 
ATOM     48  C   UNL A   1      38.927  31.251  32.866  1.00  0.00     0.049 A 
ATOM     49  H   UNL A   1      39.974  30.091  31.485  1.00  0.00     0.167 HD
ATOM     50  C   UNL A   1      41.906  27.320  28.764  1.00  0.00     0.034 A 
ATOM     51  C   UNL A   1      39.627  31.276  34.018  1.00  0.00     0.034 A 
ATOM     52  C   UNL A   1      42.702  27.251  29.963  1.00  0.00     0.049 A 
ATOM     53  C   UNL A   1      40.871  30.447  34.144  1.00  0.00     0.074 A 
ATOM     54  C   UNL A   1      43.861  26.527  30.187  1.00  0.00     0.029 A 
ATOM     55  N   UNL A   1      42.448  27.959  31.127  1.00  0.00    -0.354 N 
ATOM     56  N   UNL A   1      41.463  29.702  33.242  1.00  0.00    -0.248 NA
ATOM     57  C   UNL A   1      41.538  30.450  35.454  1.00  0.00     0.031 C 
ATOM     58  C   UNL A   1      44.307  26.796  31.487  1.00  0.00     0.029 A 
ATOM     59  C   UNL A   1      43.431  27.697  32.068  1.00  0.00     0.049 A 
ATOM     60  H   UNL A   1      41.680  28.560  31.265  1.00  0.00     0.167 HD
ATOM     61  C   UNL A   1      42.574  29.155  33.873  1.00  0.00     0.074 A 
ATOM     62  C   UNL A   1      42.596  29.686  35.220  1.00  0.00     0.031 C 
ATOM     63  C   UNL A   1      43.477  28.267  33.389  1.00  0.00     0.034 A 
BRANCH  50  64
ATOM     64  C   UNL A   1      42.334  26.469  27.592  1.00  0.00     0.023 A 
ATOM     65  C   UNL A   1      43.206  26.987  26.615  1.00  0.00     0.012 A 
ATOM     66  C   UNL A   1      41.923  25.121  27.503  1.00  0.00     0.148 A 
ATOM     67  C   UNL A   1      43.632  26.192  25.550  1.00  0.00     0.002 A 
ATOM     68  C   UNL A   1      42.388  24.322  26.463  1.00  0.00     0.091 A 
ATOM     69  F   UNL A   1      41.079  24.645  28.429  1.00  0.00    -0.205 F 
ATOM     70  C   UNL A   1      43.234  24.859  25.479  1.00  0.00     0.022 A 
BRANCH  68  71
ATOM     71  S   UNL A   1      41.995  22.571  26.350  1.00  0.00     0.127 S 
ATOM     72  O   UNL A   1      42.577  22.057  27.588  1.00  0.00    -0.237 OA
ATOM     73  O   UNL A   1      40.532  22.579  26.322  1.00  0.00    -0.237 OA
ATOM     74  O   UNL A   1      42.616  22.106  25.118  1.00  0.00    -0.744 OA
ENDBRANCH  68  71
ENDBRANCH  50  64
BRANCH  51  75
ATOM     75  C   UNL A   1      39.160  32.129  35.150  1.00  0.00     0.023 A 
ATOM     76  C   UNL A   1      38.274  31.584  36.100  1.00  0.00     0.012 A 
ATOM     77  C   UNL A   1      39.632  33.444  35.329  1.00  0.00     0.148 A 
ATOM     78  C   UNL A   1      37.862  32.336  37.200  1.00  0.00     0.002 A 
ATOM     79  C   UNL A   1      39.277  34.160  36.466  1.00  0.00     0.091 A 
ATOM     80  F   UNL A   1      40.445  33.963  34.397  1.00  0.00    -0.205 F 
ATOM     81  C   UNL A   1      38.378  33.615  37.395  1.00  0.00     0.022 A 
BRANCH  79  82
ATOM     82  S   UNL A   1      40.039  35.736  36.870  1.00  0.00     0.127 S 
ATOM     83  O   UNL A   1      41.453  35.377  36.939  1.00  0.00    -0.237 OA
ATOM     84  O   UNL A   1      39.668  36.563  35.721  1.00  0.00    -0.237 OA
ATOM     85  O   UNL A   1      39.423  36.152  38.123  1.00  0.00    -0.744 OA
ENDBRANCH  79  82
ENDBRANCH  51  75
BRANCH  63  86
ATOM     86  C   UNL A   1      44.580  27.830  34.316  1.00  0.00     0.023 A 
ATOM     87  C   UNL A   1      45.769  28.582  34.383  1.00  0.00     0.012 A 
ATOM     88  C   UNL A   1      44.429  26.699  35.140  1.00  0.00     0.148 A 
ATOM     89  C   UNL A   1      46.806  28.195  35.230  1.00  0.00     0.002 A 
ATOM     90  C   UNL A   1      45.452  26.342  36.013  1.00  0.00     0.091 A 
ATOM     91  F   UNL A   1      43.301  25.980  35.045  1.00  0.00    -0.205 F 
ATOM     92  C   UNL A   1      46.645  27.081  36.051  1.00  0.00     0.022 A 
BRANCH  90  93
ATOM     93  S   UNL A   1      45.287  24.968  37.159  1.00  0.00     0.127 S 
ATOM     94  O   UNL A   1      46.677  24.731  37.544  1.00  0.00    -0.237 OA
ATOM     95  O   UNL A   1      44.451  25.537  38.217  1.00  0.00    -0.237 OA
ATOM     96  O   UNL A   1      44.649  23.899  36.403  1.00  0.00    -0.744 OA
ENDBRANCH  90  93
ENDBRANCH  63  86
ENDBRANCH  37  38
ENDBRANCH  30  32
ENDBRANCH  29  30
ENDBRANCH  28  29
ENDBRANCH   1  28
TORSDOF 19
ENDMDL
