MODEL 1
REMARK VINA RESULT:     -11.0      0.000      0.000
REMARK SMILES O=C(OCCOC(=O)[C@@H]1CC[C@@H](CS(=O)(=O)c2cccc(F)c2)O1)c1ccc(-c2c3nc(c(-c4cccc(S(=O)(=O)[O-])c4F)c4ccc([nH]4)c(-c4cccc(S(=O)(=O)[O-])c4F)c4nc(c(-c5cccc(S(=O)(=O)[O-])c5F)c5ccc2[nH]5)C=C4)C=C3)cc1
REMARK SMILES IDX 4 1 3 2 2 3 1 4 25 5 26 6 87 7 27 8 86 9 28 10 29 11 30 12
REMARK SMILES IDX 80 13 31 14 85 15 79 16 81 17 32 18 84 19 78 20 77 21 33 23
REMARK SMILES IDX 65 24 45 25 64 26 46 27 49 28 63 29 82 30 47 31 48 32 62 34
REMARK SMILES IDX 83 35 50 36 34 37 35 38 43 39 36 40 38 41 44 42 37 43 39 44
REMARK SMILES IDX 40 45 41 46 42 47 66 48 67 49 75 50 68 51 70 52 76 53 69 54
REMARK SMILES IDX 71 55 72 56 73 57 74 58 51 59 52 60 60 61 53 62 55 63 61 64
REMARK SMILES IDX 54 65 56 66 57 67 58 68 59 69 5 70 6 71 7 72 8 73 9 74 10 75
REMARK SMILES IDX 24 76 11 77 12 78 13 79 14 80 15 81 16 82 17 83 18 84 23 85
REMARK SMILES IDX 19 86 21 87 20 88 22 89
REMARK H PARENT 81 22 49 33
REMARK Flexibility Score: inf
ROOT
ATOM      1  C   UNL A   1      33.837  32.918  28.515  1.00  0.00     0.275 C 
ENDROOT
BRANCH   1   2
ATOM      2  O   UNL A   1      34.545  32.154  27.522  1.00  0.00    -0.458 OA
BRANCH   2   3
ATOM      3  C   UNL A   1      34.626  30.796  27.568  1.00  0.00     0.338 C 
ATOM      4  O   UNL A   1      33.617  30.101  27.618  1.00  0.00    -0.246 OA
BRANCH   3   5
ATOM      5  C   UNL A   1      35.939  30.214  27.974  1.00  0.00     0.060 A 
ATOM      6  C   UNL A   1      37.118  30.337  27.233  1.00  0.00     0.016 A 
ATOM      7  C   UNL A   1      35.984  29.545  29.210  1.00  0.00     0.016 A 
ATOM      8  C   UNL A   1      38.333  29.877  27.749  1.00  0.00     0.010 A 
ATOM      9  C   UNL A   1      37.208  29.119  29.744  1.00  0.00     0.010 A 
ATOM     10  C   UNL A   1      38.395  29.282  29.015  1.00  0.00    -0.014 A 
BRANCH  10  11
ATOM     11  C   UNL A   1      39.685  28.721  29.485  1.00  0.00     0.031 A 
ATOM     12  C   UNL A   1      40.275  29.264  30.754  1.00  0.00     0.074 A 
ATOM     13  C   UNL A   1      40.289  27.705  28.836  1.00  0.00     0.049 A 
ATOM     14  N   UNL A   1      41.291  28.825  31.443  1.00  0.00    -0.248 NA
ATOM     15  C   UNL A   1      39.638  30.466  31.320  1.00  0.00     0.031 C 
ATOM     16  C   UNL A   1      39.848  27.127  27.567  1.00  0.00     0.029 A 
ATOM     17  N   UNL A   1      41.405  26.971  29.161  1.00  0.00    -0.354 N 
ATOM     18  C   UNL A   1      41.425  29.703  32.510  1.00  0.00     0.074 A 
ATOM     19  C   UNL A   1      40.422  30.729  32.351  1.00  0.00     0.031 C 
ATOM     20  C   UNL A   1      40.669  26.116  27.232  1.00  0.00     0.029 A 
ATOM     21  C   UNL A   1      41.694  25.968  28.262  1.00  0.00     0.049 A 
ATOM     22  H   UNL A   1      41.949  27.147  29.963  1.00  0.00     0.167 HD
ATOM     23  C   UNL A   1      42.274  29.639  33.559  1.00  0.00     0.034 A 
ATOM     24  C   UNL A   1      42.657  25.021  28.286  1.00  0.00     0.034 A 
ATOM     25  C   UNL A   1      43.244  28.602  33.736  1.00  0.00     0.049 A 
ATOM     26  C   UNL A   1      43.582  24.954  29.478  1.00  0.00     0.074 A 
ATOM     27  C   UNL A   1      44.117  28.414  34.790  1.00  0.00     0.029 A 
ATOM     28  N   UNL A   1      43.476  27.581  32.826  1.00  0.00    -0.354 N 
ATOM     29  N   UNL A   1      43.581  25.690  30.564  1.00  0.00    -0.248 NA
ATOM     30  C   UNL A   1      44.615  23.905  29.470  1.00  0.00     0.031 C 
ATOM     31  C   UNL A   1      44.894  27.287  34.508  1.00  0.00     0.029 A 
ATOM     32  C   UNL A   1      44.488  26.763  33.288  1.00  0.00     0.049 A 
ATOM     33  H   UNL A   1      42.992  27.459  31.977  1.00  0.00     0.167 HD
ATOM     34  C   UNL A   1      44.588  25.178  31.377  1.00  0.00     0.074 A 
ATOM     35  C   UNL A   1      45.167  24.056  30.668  1.00  0.00     0.031 C 
ATOM     36  C   UNL A   1      45.005  25.609  32.594  1.00  0.00     0.034 A 
BRANCH  23  37
ATOM     37  C   UNL A   1      42.143  30.712  34.603  1.00  0.00     0.023 A 
ATOM     38  C   UNL A   1      41.236  30.535  35.668  1.00  0.00     0.012 A 
ATOM     39  C   UNL A   1      42.892  31.898  34.516  1.00  0.00     0.148 A 
ATOM     40  C   UNL A   1      41.040  31.546  36.606  1.00  0.00     0.002 A 
ATOM     41  C   UNL A   1      42.722  32.884  35.479  1.00  0.00     0.091 A 
ATOM     42  F   UNL A   1      43.725  32.056  33.477  1.00  0.00    -0.205 F 
ATOM     43  C   UNL A   1      41.787  32.717  36.515  1.00  0.00     0.022 A 
BRANCH  41  44
ATOM     44  S   UNL A   1      43.674  34.406  35.479  1.00  0.00     0.127 S 
ATOM     45  O   UNL A   1      45.044  33.894  35.432  1.00  0.00    -0.237 OA
ATOM     46  O   UNL A   1      43.222  35.051  34.245  1.00  0.00    -0.237 OA
ATOM     47  O   UNL A   1      43.310  35.108  36.701  1.00  0.00    -0.744 OA
ENDBRANCH  41  44
ENDBRANCH  23  37
BRANCH  24  48
ATOM     48  C   UNL A   1      42.728  23.994  27.203  1.00  0.00     0.023 A 
ATOM     49  C   UNL A   1      43.456  24.279  26.029  1.00  0.00     0.012 A 
ATOM     50  C   UNL A   1      42.107  22.735  27.333  1.00  0.00     0.148 A 
ATOM     51  C   UNL A   1      43.551  23.340  25.000  1.00  0.00     0.002 A 
ATOM     52  C   UNL A   1      42.241  21.789  26.320  1.00  0.00     0.091 A 
ATOM     53  F   UNL A   1      41.414  22.484  28.452  1.00  0.00    -0.205 F 
ATOM     54  C   UNL A   1      42.951  22.094  25.148  1.00  0.00     0.022 A 
BRANCH  52  55
ATOM     55  S   UNL A   1      41.574  20.124  26.437  1.00  0.00     0.127 S 
ATOM     56  O   UNL A   1      40.139  20.363  26.286  1.00  0.00    -0.237 OA
ATOM     57  O   UNL A   1      42.210  19.472  25.291  1.00  0.00    -0.237 OA
ATOM     58  O   UNL A   1      41.981  19.624  27.741  1.00  0.00    -0.744 OA
ENDBRANCH  52  55
ENDBRANCH  24  48
BRANCH  36  59
ATOM     59  C   UNL A   1      46.130  24.876  33.275  1.00  0.00     0.023 A 
ATOM     60  C   UNL A   1      47.438  25.392  33.199  1.00  0.00     0.012 A 
ATOM     61  C   UNL A   1      45.857  23.800  34.143  1.00  0.00     0.148 A 
ATOM     62  C   UNL A   1      48.456  24.849  33.981  1.00  0.00     0.002 A 
ATOM     63  C   UNL A   1      46.864  23.299  34.957  1.00  0.00     0.091 A 
ATOM     64  F   UNL A   1      44.605  23.316  34.185  1.00  0.00    -0.205 F 
ATOM     65  C   UNL A   1      48.166  23.819  34.872  1.00  0.00     0.022 A 
BRANCH  63  66
ATOM     66  S   UNL A   1      46.554  22.065  36.227  1.00  0.00     0.127 S 
ATOM     67  O   UNL A   1      47.912  21.706  36.632  1.00  0.00    -0.237 OA
ATOM     68  O   UNL A   1      45.800  22.827  37.223  1.00  0.00    -0.237 OA
ATOM     69  O   UNL A   1      45.796  21.003  35.579  1.00  0.00    -0.744 OA
ENDBRANCH  63  66
ENDBRANCH  36  59
ENDBRANCH  10  11
ENDBRANCH   3   5
ENDBRANCH   2   3
ENDBRANCH   1   2
BRANCH   1  70
ATOM     70  C   UNL A   1      33.738  34.401  28.124  1.00  0.00     0.274 C 
BRANCH  70  71
ATOM     71  O   UNL A   1      32.691  35.075  28.842  1.00  0.00    -0.460 OA
BRANCH  71  72
ATOM     72  C   UNL A   1      33.032  36.195  29.575  1.00  0.00     0.335 C 
ATOM     73  O   UNL A   1      33.131  37.325  29.117  1.00  0.00    -0.249 OA
BRANCH  72  74
ATOM     74  C   UNL A   1      33.176  35.798  31.069  1.00  0.00     0.228 C 
ATOM     75  C   UNL A   1      33.347  37.109  31.792  1.00  0.00     0.047 C 
ATOM     76  O   UNL A   1      34.236  34.965  31.549  1.00  0.00    -0.362 OA
ATOM     77  C   UNL A   1      34.025  36.786  33.075  1.00  0.00     0.036 C 
ATOM     78  C   UNL A   1      34.850  35.580  32.708  1.00  0.00     0.135 C 
BRANCH  78  79
ATOM     79  C   UNL A   1      35.178  34.614  33.843  1.00  0.00     0.174 C 
BRANCH  79  80
ATOM     80  S   UNL A   1      36.799  33.894  33.883  1.00  0.00     0.181 S 
ATOM     81  O   UNL A   1      37.686  34.834  34.536  1.00  0.00    -0.224 OA
ATOM     82  O   UNL A   1      36.605  32.541  34.373  1.00  0.00    -0.224 OA
BRANCH  80  83
ATOM     83  C   UNL A   1      37.429  33.680  32.219  1.00  0.00     0.070 A 
ATOM     84  C   UNL A   1      36.796  32.902  31.242  1.00  0.00     0.020 A 
ATOM     85  C   UNL A   1      38.620  34.350  31.910  1.00  0.00     0.059 A 
ATOM     86  C   UNL A   1      37.308  32.861  29.938  1.00  0.00     0.004 A 
ATOM     87  C   UNL A   1      39.139  34.263  30.623  1.00  0.00     0.124 A 
ATOM     88  C   UNL A   1      38.483  33.544  29.629  1.00  0.00     0.039 A 
ATOM     89  F   UNL A   1      40.297  34.869  30.332  1.00  0.00    -0.207 F 
ENDBRANCH  80  83
ENDBRANCH  79  80
ENDBRANCH  78  79
ENDBRANCH  72  74
ENDBRANCH  71  72
ENDBRANCH  70  71
ENDBRANCH   1  70
TORSDOF 17
ENDMDL
MODEL 2
REMARK VINA RESULT:     -10.7      1.945      2.335
REMARK SMILES O=C(OCCOC(=O)[C@@H]1CC[C@@H](CS(=O)(=O)c2cccc(F)c2)O1)c1ccc(-c2c3nc(c(-c4cccc(S(=O)(=O)[O-])c4F)c4ccc([nH]4)c(-c4cccc(S(=O)(=O)[O-])c4F)c4nc(c(-c5cccc(S(=O)(=O)[O-])c5F)c5ccc2[nH]5)C=C4)C=C3)cc1
REMARK SMILES IDX 4 1 3 2 2 3 1 4 25 5 26 6 87 7 27 8 86 9 28 10 29 11 30 12
REMARK SMILES IDX 80 13 31 14 85 15 79 16 81 17 32 18 84 19 78 20 77 21 33 23
REMARK SMILES IDX 65 24 45 25 64 26 46 27 49 28 63 29 82 30 47 31 48 32 62 34
REMARK SMILES IDX 83 35 50 36 34 37 35 38 43 39 36 40 38 41 44 42 37 43 39 44
REMARK SMILES IDX 40 45 41 46 42 47 66 48 67 49 75 50 68 51 70 52 76 53 69 54
REMARK SMILES IDX 71 55 72 56 73 57 74 58 51 59 52 60 60 61 53 62 55 63 61 64
REMARK SMILES IDX 54 65 56 66 57 67 58 68 59 69 5 70 6 71 7 72 8 73 9 74 10 75
REMARK SMILES IDX 24 76 11 77 12 78 13 79 14 80 15 81 16 82 17 83 18 84 23 85
REMARK SMILES IDX 19 86 21 87 20 88 22 89
REMARK H PARENT 81 22 49 33
REMARK Flexibility Score: inf
ROOT
ATOM      1  C   UNL A   1      33.452  32.601  27.989  1.00  0.00     0.275 C 
ENDROOT
BRANCH   1   2
ATOM      2  O   UNL A   1      34.719  31.986  27.696  1.00  0.00    -0.458 OA
BRANCH   2   3
ATOM      3  C   UNL A   1      34.866  30.637  27.581  1.00  0.00     0.338 C 
ATOM      4  O   UNL A   1      33.891  29.899  27.481  1.00  0.00    -0.246 OA
BRANCH   3   5
ATOM      5  C   UNL A   1      36.181  30.066  27.994  1.00  0.00     0.060 A 
ATOM      6  C   UNL A   1      37.358  30.179  27.250  1.00  0.00     0.016 A 
ATOM      7  C   UNL A   1      36.229  29.417  29.242  1.00  0.00     0.016 A 
ATOM      8  C   UNL A   1      38.575  29.731  27.772  1.00  0.00     0.010 A 
ATOM      9  C   UNL A   1      37.456  29.004  29.782  1.00  0.00     0.010 A 
ATOM     10  C   UNL A   1      38.641  29.158  29.047  1.00  0.00    -0.014 A 
BRANCH  10  11
ATOM     11  C   UNL A   1      39.933  28.609  29.526  1.00  0.00     0.031 A 
ATOM     12  C   UNL A   1      40.634  29.318  30.648  1.00  0.00     0.074 A 
ATOM     13  C   UNL A   1      40.443  27.467  29.020  1.00  0.00     0.049 A 
ATOM     14  N   UNL A   1      41.675  28.940  31.337  1.00  0.00    -0.248 NA
ATOM     15  C   UNL A   1      40.095  30.631  31.042  1.00  0.00     0.031 C 
ATOM     16  C   UNL A   1      39.887  26.715  27.895  1.00  0.00     0.029 A 
ATOM     17  N   UNL A   1      41.544  26.734  29.395  1.00  0.00    -0.354 N 
ATOM     18  C   UNL A   1      41.923  29.972  32.232  1.00  0.00     0.074 A 
ATOM     19  C   UNL A   1      40.960  31.014  31.965  1.00  0.00     0.031 C 
ATOM     20  C   UNL A   1      40.636  25.618  27.684  1.00  0.00     0.029 A 
ATOM     21  C   UNL A   1      41.721  25.582  28.660  1.00  0.00     0.049 A 
ATOM     22  H   UNL A   1      42.149  27.007  30.121  1.00  0.00     0.167 HD
ATOM     23  C   UNL A   1      42.840  30.032  33.223  1.00  0.00     0.034 A 
ATOM     24  C   UNL A   1      42.639  24.598  28.783  1.00  0.00     0.034 A 
ATOM     25  C   UNL A   1      43.770  28.984  33.511  1.00  0.00     0.049 A 
ATOM     26  C   UNL A   1      43.641  24.674  29.911  1.00  0.00     0.074 A 
ATOM     27  C   UNL A   1      44.704  28.921  34.527  1.00  0.00     0.029 A 
ATOM     28  N   UNL A   1      43.890  27.816  32.773  1.00  0.00    -0.354 N 
ATOM     29  N   UNL A   1      43.750  25.577  30.857  1.00  0.00    -0.248 NA
ATOM     30  C   UNL A   1      44.621  23.581  30.015  1.00  0.00     0.031 C 
ATOM     31  C   UNL A   1      45.407  27.721  34.390  1.00  0.00     0.029 A 
ATOM     32  C   UNL A   1      44.893  27.028  33.302  1.00  0.00     0.049 A 
ATOM     33  H   UNL A   1      43.343  27.584  31.987  1.00  0.00     0.167 HD
ATOM     34  C   UNL A   1      44.786  25.149  31.681  1.00  0.00     0.074 A 
ATOM     35  C   UNL A   1      45.262  23.894  31.135  1.00  0.00     0.031 C 
ATOM     36  C   UNL A   1      45.307  25.748  32.781  1.00  0.00     0.034 A 
BRANCH  23  37
ATOM     37  C   UNL A   1      42.831  31.267  34.078  1.00  0.00     0.023 A 
ATOM     38  C   UNL A   1      43.584  32.391  33.680  1.00  0.00     0.012 A 
ATOM     39  C   UNL A   1      42.107  31.306  35.282  1.00  0.00     0.148 A 
ATOM     40  C   UNL A   1      43.654  33.520  34.493  1.00  0.00     0.002 A 
ATOM     41  C   UNL A   1      42.147  32.451  36.066  1.00  0.00     0.091 A 
ATOM     42  F   UNL A   1      41.424  30.214  35.655  1.00  0.00    -0.205 F 
ATOM     43  C   UNL A   1      42.931  33.553  35.681  1.00  0.00     0.022 A 
BRANCH  41  44
ATOM     44  S   UNL A   1      41.211  32.610  37.589  1.00  0.00     0.127 S 
ATOM     45  O   UNL A   1      39.910  32.073  37.191  1.00  0.00    -0.237 OA
ATOM     46  O   UNL A   1      41.968  31.758  38.506  1.00  0.00    -0.237 OA
ATOM     47  O   UNL A   1      41.225  34.027  37.924  1.00  0.00    -0.744 OA
ENDBRANCH  41  44
ENDBRANCH  23  37
BRANCH  24  48
ATOM     48  C   UNL A   1      42.587  23.405  27.885  1.00  0.00     0.023 A 
ATOM     49  C   UNL A   1      41.523  22.490  28.016  1.00  0.00     0.012 A 
ATOM     50  C   UNL A   1      43.560  23.182  26.889  1.00  0.00     0.148 A 
ATOM     51  C   UNL A   1      41.436  21.368  27.189  1.00  0.00     0.002 A 
ATOM     52  C   UNL A   1      43.445  22.084  26.041  1.00  0.00     0.091 A 
ATOM     53  F   UNL A   1      44.568  24.060  26.783  1.00  0.00    -0.205 F 
ATOM     54  C   UNL A   1      42.392  21.169  26.198  1.00  0.00     0.022 A 
BRANCH  52  55
ATOM     55  S   UNL A   1      44.576  21.771  24.680  1.00  0.00     0.127 S 
ATOM     56  O   UNL A   1      44.256  22.866  23.765  1.00  0.00    -0.237 OA
ATOM     57  O   UNL A   1      45.875  21.888  25.344  1.00  0.00    -0.237 OA
ATOM     58  O   UNL A   1      44.247  20.442  24.189  1.00  0.00    -0.744 OA
ENDBRANCH  52  55
ENDBRANCH  24  48
BRANCH  36  59
ATOM     59  C   UNL A   1      46.441  25.073  33.504  1.00  0.00     0.023 A 
ATOM     60  C   UNL A   1      46.156  24.137  34.517  1.00  0.00     0.012 A 
ATOM     61  C   UNL A   1      47.766  25.221  33.046  1.00  0.00     0.148 A 
ATOM     62  C   UNL A   1      47.174  23.355  35.060  1.00  0.00     0.002 A 
ATOM     63  C   UNL A   1      48.765  24.401  33.555  1.00  0.00     0.091 A 
ATOM     64  F   UNL A   1      48.013  26.131  32.091  1.00  0.00    -0.205 F 
ATOM     65  C   UNL A   1      48.472  23.472  34.567  1.00  0.00     0.022 A 
BRANCH  63  66
ATOM     66  S   UNL A   1      50.435  24.390  32.889  1.00  0.00     0.127 S 
ATOM     67  O   UNL A   1      50.966  25.654  33.396  1.00  0.00    -0.237 OA
ATOM     68  O   UNL A   1      51.008  23.194  33.507  1.00  0.00    -0.237 OA
ATOM     69  O   UNL A   1      50.290  24.311  31.441  1.00  0.00    -0.744 OA
ENDBRANCH  63  66
ENDBRANCH  36  59
ENDBRANCH  10  11
ENDBRANCH   3   5
ENDBRANCH   2   3
ENDBRANCH   1   2
BRANCH   1  70
ATOM     70  C   UNL A   1      33.565  34.132  28.042  1.00  0.00     0.274 C 
BRANCH  70  71
ATOM     71  O   UNL A   1      32.618  34.708  28.958  1.00  0.00    -0.460 OA
BRANCH  71  72
ATOM     72  C   UNL A   1      32.958  35.900  29.569  1.00  0.00     0.335 C 
ATOM     73  O   UNL A   1      33.021  36.981  29.002  1.00  0.00    -0.249 OA
BRANCH  72  74
ATOM     74  C   UNL A   1      33.152  35.652  31.089  1.00  0.00     0.228 C 
ATOM     75  C   UNL A   1      33.358  37.027  31.671  1.00  0.00     0.047 C 
ATOM     76  O   UNL A   1      34.223  34.860  31.613  1.00  0.00    -0.362 OA
ATOM     77  C   UNL A   1      34.080  36.826  32.955  1.00  0.00     0.036 C 
ATOM     78  C   UNL A   1      34.882  35.580  32.682  1.00  0.00     0.135 C 
BRANCH  78  79
ATOM     79  C   UNL A   1      35.244  34.729  33.896  1.00  0.00     0.174 C 
BRANCH  79  80
ATOM     80  S   UNL A   1      36.816  33.910  33.902  1.00  0.00     0.181 S 
ATOM     81  O   UNL A   1      37.769  34.782  34.557  1.00  0.00    -0.224 OA
ATOM     82  O   UNL A   1      36.546  32.563  34.373  1.00  0.00    -0.224 OA
BRANCH  80  83
ATOM     83  C   UNL A   1      37.411  33.686  32.226  1.00  0.00     0.070 A 
ATOM     84  C   UNL A   1      36.842  32.788  31.313  1.00  0.00     0.020 A 
ATOM     85  C   UNL A   1      38.501  34.474  31.838  1.00  0.00     0.059 A 
ATOM     86  C   UNL A   1      37.310  32.741  29.994  1.00  0.00     0.004 A 
ATOM     87  C   UNL A   1      38.983  34.383  30.536  1.00  0.00     0.124 A 
ATOM     88  C   UNL A   1      38.384  33.541  29.605  1.00  0.00     0.039 A 
ATOM     89  F   UNL A   1      40.049  35.105  30.171  1.00  0.00    -0.207 F 
ENDBRANCH  80  83
ENDBRANCH  79  80
ENDBRANCH  78  79
ENDBRANCH  72  74
ENDBRANCH  71  72
ENDBRANCH  70  71
ENDBRANCH   1  70
TORSDOF 17
ENDMDL
MODEL 3
REMARK VINA RESULT:     -10.5      6.079     11.803
REMARK SMILES O=C(OCCOC(=O)[C@@H]1CC[C@@H](CS(=O)(=O)c2cccc(F)c2)O1)c1ccc(-c2c3nc(c(-c4cccc(S(=O)(=O)[O-])c4F)c4ccc([nH]4)c(-c4cccc(S(=O)(=O)[O-])c4F)c4nc(c(-c5cccc(S(=O)(=O)[O-])c5F)c5ccc2[nH]5)C=C4)C=C3)cc1
REMARK SMILES IDX 4 1 3 2 2 3 1 4 25 5 26 6 87 7 27 8 86 9 28 10 29 11 30 12
REMARK SMILES IDX 80 13 31 14 85 15 79 16 81 17 32 18 84 19 78 20 77 21 33 23
REMARK SMILES IDX 65 24 45 25 64 26 46 27 49 28 63 29 82 30 47 31 48 32 62 34
REMARK SMILES IDX 83 35 50 36 34 37 35 38 43 39 36 40 38 41 44 42 37 43 39 44
REMARK SMILES IDX 40 45 41 46 42 47 66 48 67 49 75 50 68 51 70 52 76 53 69 54
REMARK SMILES IDX 71 55 72 56 73 57 74 58 51 59 52 60 60 61 53 62 55 63 61 64
REMARK SMILES IDX 54 65 56 66 57 67 58 68 59 69 5 70 6 71 7 72 8 73 9 74 10 75
REMARK SMILES IDX 24 76 11 77 12 78 13 79 14 80 15 81 16 82 17 83 18 84 23 85
REMARK SMILES IDX 19 86 21 87 20 88 22 89
REMARK H PARENT 81 22 49 33
REMARK Flexibility Score: inf
ROOT
ATOM      1  C   UNL A   1      36.409  20.961  24.708  1.00  0.00     0.275 C 
ENDROOT
BRANCH   1   2
ATOM      2  O   UNL A   1      37.155  21.433  25.845  1.00  0.00    -0.458 OA
BRANCH   2   3
ATOM      3  C   UNL A   1      38.515  21.410  25.885  1.00  0.00     0.338 C 
ATOM      4  O   UNL A   1      39.136  20.359  25.765  1.00  0.00    -0.246 OA
BRANCH   3   5
ATOM      5  C   UNL A   1      39.190  22.598  26.484  1.00  0.00     0.060 A 
ATOM      6  C   UNL A   1      40.289  22.530  27.345  1.00  0.00     0.016 A 
ATOM      7  C   UNL A   1      38.704  23.863  26.107  1.00  0.00     0.016 A 
ATOM      8  C   UNL A   1      40.945  23.695  27.755  1.00  0.00     0.010 A 
ATOM      9  C   UNL A   1      39.385  25.029  26.487  1.00  0.00     0.010 A 
ATOM     10  C   UNL A   1      40.513  24.952  27.317  1.00  0.00    -0.014 A 
BRANCH  10  11
ATOM     11  C   UNL A   1      41.174  26.168  27.850  1.00  0.00     0.031 A 
ATOM     12  C   UNL A   1      42.586  26.453  27.427  1.00  0.00     0.074 A 
ATOM     13  C   UNL A   1      40.515  27.038  28.643  1.00  0.00     0.049 A 
ATOM     14  N   UNL A   1      43.304  27.523  27.624  1.00  0.00    -0.248 NA
ATOM     15  C   UNL A   1      43.283  25.387  26.686  1.00  0.00     0.031 C 
ATOM     16  C   UNL A   1      39.162  26.849  29.168  1.00  0.00     0.029 A 
ATOM     17  N   UNL A   1      40.894  28.262  29.140  1.00  0.00    -0.354 N 
ATOM     18  C   UNL A   1      44.539  27.254  27.049  1.00  0.00     0.074 A 
ATOM     19  C   UNL A   1      44.492  25.903  26.542  1.00  0.00     0.031 C 
ATOM     20  C   UNL A   1      38.816  27.927  29.895  1.00  0.00     0.029 A 
ATOM     21  C   UNL A   1      39.917  28.887  29.885  1.00  0.00     0.049 A 
ATOM     22  H   UNL A   1      41.781  28.656  28.978  1.00  0.00     0.167 HD
ATOM     23  C   UNL A   1      45.605  28.072  26.910  1.00  0.00     0.034 A 
ATOM     24  C   UNL A   1      39.905  30.106  30.467  1.00  0.00     0.034 A 
ATOM     25  C   UNL A   1      45.639  29.423  27.380  1.00  0.00     0.049 A 
ATOM     26  C   UNL A   1      41.099  31.013  30.280  1.00  0.00     0.074 A 
ATOM     27  C   UNL A   1      46.650  30.354  27.242  1.00  0.00     0.029 A 
ATOM     28  N   UNL A   1      44.616  30.032  28.091  1.00  0.00    -0.354 N 
ATOM     29  N   UNL A   1      42.191  30.804  29.583  1.00  0.00    -0.248 NA
ATOM     30  C   UNL A   1      41.046  32.336  30.924  1.00  0.00     0.031 C 
ATOM     31  C   UNL A   1      46.246  31.524  27.890  1.00  0.00     0.029 A 
ATOM     32  C   UNL A   1      44.974  31.327  28.411  1.00  0.00     0.049 A 
ATOM     33  H   UNL A   1      43.762  29.605  28.333  1.00  0.00     0.167 HD
ATOM     34  C   UNL A   1      42.939  31.974  29.681  1.00  0.00     0.074 A 
ATOM     35  C   UNL A   1      42.168  32.896  30.489  1.00  0.00     0.031 C 
ATOM     36  C   UNL A   1      44.161  32.252  29.162  1.00  0.00     0.034 A 
BRANCH  23  37
ATOM     37  C   UNL A   1      46.795  27.515  26.180  1.00  0.00     0.023 A 
ATOM     38  C   UNL A   1      46.856  27.616  24.775  1.00  0.00     0.012 A 
ATOM     39  C   UNL A   1      47.832  26.871  26.878  1.00  0.00     0.148 A 
ATOM     40  C   UNL A   1      47.911  27.041  24.069  1.00  0.00     0.002 A 
ATOM     41  C   UNL A   1      48.901  26.337  26.170  1.00  0.00     0.091 A 
ATOM     42  F   UNL A   1      47.736  26.760  28.211  1.00  0.00    -0.205 F 
ATOM     43  C   UNL A   1      48.935  26.408  24.767  1.00  0.00     0.022 A 
BRANCH  41  44
ATOM     44  S   UNL A   1      50.295  25.548  26.980  1.00  0.00     0.127 S 
ATOM     45  O   UNL A   1      51.174  25.268  25.845  1.00  0.00    -0.237 OA
ATOM     46  O   UNL A   1      50.770  26.605  27.873  1.00  0.00    -0.237 OA
ATOM     47  O   UNL A   1      49.755  24.377  27.657  1.00  0.00    -0.744 OA
ENDBRANCH  41  44
ENDBRANCH  23  37
BRANCH  24  48
ATOM     48  C   UNL A   1      38.685  30.584  31.185  1.00  0.00     0.023 A 
ATOM     49  C   UNL A   1      38.581  30.384  32.576  1.00  0.00     0.012 A 
ATOM     50  C   UNL A   1      37.644  31.255  30.512  1.00  0.00     0.148 A 
ATOM     51  C   UNL A   1      37.460  30.825  33.282  1.00  0.00     0.002 A 
ATOM     52  C   UNL A   1      36.548  31.728  31.228  1.00  0.00     0.091 A 
ATOM     53  F   UNL A   1      37.757  31.431  29.188  1.00  0.00    -0.205 F 
ATOM     54  C   UNL A   1      36.448  31.502  32.611  1.00  0.00     0.022 A 
BRANCH  52  55
ATOM     55  S   UNL A   1      35.221  32.683  30.479  1.00  0.00     0.127 S 
ATOM     56  O   UNL A   1      34.234  32.720  31.557  1.00  0.00    -0.237 OA
ATOM     57  O   UNL A   1      35.889  33.958  30.216  1.00  0.00    -0.237 OA
ATOM     58  O   UNL A   1      34.816  31.938  29.297  1.00  0.00    -0.744 OA
ENDBRANCH  52  55
ENDBRANCH  24  48
BRANCH  36  59
ATOM     59  C   UNL A   1      44.764  33.608  29.416  1.00  0.00     0.023 A 
ATOM     60  C   UNL A   1      45.596  33.795  30.536  1.00  0.00     0.012 A 
ATOM     61  C   UNL A   1      44.665  34.624  28.445  1.00  0.00     0.148 A 
ATOM     62  C   UNL A   1      46.324  34.975  30.684  1.00  0.00     0.002 A 
ATOM     63  C   UNL A   1      45.433  35.775  28.572  1.00  0.00     0.091 A 
ATOM     64  F   UNL A   1      43.853  34.427  27.395  1.00  0.00    -0.205 F 
ATOM     65  C   UNL A   1      46.258  35.955  29.695  1.00  0.00     0.022 A 
BRANCH  63  66
ATOM     66  S   UNL A   1      45.513  37.028  27.286  1.00  0.00     0.127 S 
ATOM     67  O   UNL A   1      46.404  38.018  27.889  1.00  0.00    -0.237 OA
ATOM     68  O   UNL A   1      46.092  36.286  26.166  1.00  0.00    -0.237 OA
ATOM     69  O   UNL A   1      44.142  37.473  27.071  1.00  0.00    -0.744 OA
ENDBRANCH  63  66
ENDBRANCH  36  59
ENDBRANCH  10  11
ENDBRANCH   3   5
ENDBRANCH   2   3
ENDBRANCH   1   2
BRANCH   1  70
ATOM     70  C   UNL A   1      35.027  20.430  25.119  1.00  0.00     0.274 C 
BRANCH  70  71
ATOM     71  O   UNL A   1      34.020  21.455  25.055  1.00  0.00    -0.460 OA
BRANCH  71  72
ATOM     72  C   UNL A   1      32.725  21.066  24.772  1.00  0.00     0.335 C 
ATOM     73  O   UNL A   1      32.185  20.062  25.214  1.00  0.00    -0.249 OA
BRANCH  72  74
ATOM     74  C   UNL A   1      32.054  22.150  23.887  1.00  0.00     0.228 C 
ATOM     75  C   UNL A   1      33.192  22.757  23.107  1.00  0.00     0.047 C 
ATOM     76  O   UNL A   1      31.341  23.264  24.434  1.00  0.00    -0.362 OA
ATOM     77  C   UNL A   1      32.732  24.108  22.691  1.00  0.00     0.036 C 
ATOM     78  C   UNL A   1      31.796  24.488  23.809  1.00  0.00     0.135 C 
BRANCH  78  79
ATOM     79  C   UNL A   1      30.687  25.475  23.457  1.00  0.00     0.174 C 
BRANCH  79  80
ATOM     80  S   UNL A   1      31.138  26.978  22.631  1.00  0.00     0.181 S 
ATOM     81  O   UNL A   1      32.270  27.547  23.332  1.00  0.00    -0.224 OA
ATOM     82  O   UNL A   1      31.190  26.639  21.220  1.00  0.00    -0.224 OA
BRANCH  80  83
ATOM     83  C   UNL A   1      29.814  28.180  22.753  1.00  0.00     0.070 A 
ATOM     84  C   UNL A   1      29.952  29.527  22.397  1.00  0.00     0.020 A 
ATOM     85  C   UNL A   1      28.584  27.708  23.228  1.00  0.00     0.059 A 
ATOM     86  C   UNL A   1      28.841  30.380  22.438  1.00  0.00     0.004 A 
ATOM     87  C   UNL A   1      27.501  28.579  23.305  1.00  0.00     0.124 A 
ATOM     88  C   UNL A   1      27.613  29.903  22.893  1.00  0.00     0.039 A 
ATOM     89  F   UNL A   1      26.333  28.145  23.793  1.00  0.00    -0.207 F 
ENDBRANCH  80  83
ENDBRANCH  79  80
ENDBRANCH  78  79
ENDBRANCH  72  74
ENDBRANCH  71  72
ENDBRANCH  70  71
ENDBRANCH   1  70
TORSDOF 17
ENDMDL
