MODEL 1
REMARK VINA RESULT:     -12.4      0.000      0.000
REMARK SMILES Cc1cc(S(F)(F)(F)(F)F)cc2c1O[C@H](C(F)(F)F)C(C(=O)OCCOC(=O)c1ccc(-c3c4nc(c(-c5cccc(S(=O)(=O)[O-])c5F)c5ccc([nH]5)c(-c5cccc(S(=O)(=O)[O-])c5F)c5nc(c(-c6cccc(S(=O)(=O)[O-])c6F)c6ccc3[nH]6)C=C5)C=C4)cc1)=C2
REMARK SMILES IDX 25 1 24 2 23 3 21 4 22 5 20 6 1 7 2 8 3 9 13 10 4 11 12 12
REMARK SMILES IDX 14 13 11 14 92 15 15 16 5 17 6 18 7 19 8 20 9 21 10 22 16 23
REMARK SMILES IDX 17 24 18 25 19 26 26 27 27 28 28 29 29 30 30 31 91 32 31 33
REMARK SMILES IDX 90 34 32 35 33 36 34 37 84 38 35 39 89 40 83 41 85 42 36 43
REMARK SMILES IDX 88 44 82 45 81 46 37 48 69 49 49 50 68 51 50 52 53 53 67 54
REMARK SMILES IDX 86 55 51 56 52 57 66 59 87 60 54 61 38 62 39 63 47 64 40 65
REMARK SMILES IDX 42 66 48 67 41 68 43 69 44 70 45 71 46 72 70 73 71 74 79 75
REMARK SMILES IDX 72 76 74 77 80 78 73 79 75 80 76 81 77 82 78 83 55 84 56 85
REMARK SMILES IDX 64 86 57 87 59 88 65 89 58 90 60 91 61 92 62 93 63 94
REMARK H PARENT 85 47 53 58
REMARK Flexibility Score: inf
ROOT
ATOM      1  C   UNL A   1      37.405  21.645  24.625  1.00  0.00     0.275 C 
ENDROOT
BRANCH   1   2
ATOM      2  C   UNL A   1      36.223  20.767  25.002  1.00  0.00     0.275 C 
BRANCH   2   3
ATOM      3  O   UNL A   1      35.557  21.326  26.126  1.00  0.00    -0.459 OA
BRANCH   3   4
ATOM      4  C   UNL A   1      34.252  21.868  25.980  1.00  0.00     0.338 C 
ATOM      5  O   UNL A   1      33.243  21.215  26.391  1.00  0.00    -0.246 OA
BRANCH   4   6
ATOM      6  C   UNL A   1      34.065  23.231  25.332  1.00  0.00     0.087 C 
ATOM      7  C   UNL A   1      33.655  27.093  22.001  1.00  0.00     0.048 C 
ATOM      8  C   UNL A   1      33.557  26.965  23.512  1.00  0.00    -0.007 A 
ATOM      9  C   UNL A   1      33.313  28.060  24.312  1.00  0.00     0.031 A 
ATOM     10  C   UNL A   1      33.728  25.712  24.101  1.00  0.00     0.130 A 
ATOM     11  C   UNL A   1      33.242  27.928  25.692  1.00  0.00     0.108 A 
ATOM     12  C   UNL A   1      33.650  25.582  25.506  1.00  0.00     0.019 A 
ATOM     13  O   UNL A   1      33.991  24.507  23.304  1.00  0.00    -0.475 OA
ATOM     14  C   UNL A   1      33.401  26.710  26.290  1.00  0.00     0.036 A 
ATOM     15  C   UNL A   1      33.834  24.257  26.096  1.00  0.00     0.027 C 
ATOM     16  C   UNL A   1      34.148  23.329  23.943  1.00  0.00     0.316 C 
BRANCH  11  17
ATOM     17  S   UNL A   1      32.935  29.392  26.713  1.00  0.00     0.310 S 
ATOM     18  F   UNL A   1      32.647  28.506  27.996  1.00  0.00    -0.094 F 
ATOM     19  F   UNL A   1      31.402  29.271  26.370  1.00  0.00    -0.094 F 
ATOM     20  F   UNL A   1      32.666  30.645  27.593  1.00  0.00    -0.094 F 
ATOM     21  F   UNL A   1      34.450  29.414  27.158  1.00  0.00    -0.094 F 
ATOM     22  F   UNL A   1      33.203  28.054  25.914  1.00  0.00    -0.094 F 
ENDBRANCH  11  17
BRANCH  16  23
ATOM     23  C   UNL A   1      32.922  22.552  23.492  1.00  0.00     0.430 C 
ATOM     24  F   UNL A   1      33.204  21.253  23.468  1.00  0.00    -0.167 F 
ATOM     25  F   UNL A   1      31.920  22.772  24.339  1.00  0.00    -0.167 F 
ATOM     26  F   UNL A   1      32.567  22.951  22.273  1.00  0.00    -0.167 F 
ENDBRANCH  16  23
ENDBRANCH   4   6
ENDBRANCH   3   4
ENDBRANCH   2   3
ENDBRANCH   1   2
BRANCH   1  27
ATOM     27  O   UNL A   1      37.596  22.637  25.623  1.00  0.00    -0.458 OA
BRANCH  27  28
ATOM     28  C   UNL A   1      38.832  22.716  26.319  1.00  0.00     0.338 C 
ATOM     29  O   UNL A   1      39.538  21.672  26.478  1.00  0.00    -0.246 OA
BRANCH  28  30
ATOM     30  C   UNL A   1      39.309  24.049  26.871  1.00  0.00     0.060 A 
ATOM     31  C   UNL A   1      40.205  24.829  26.149  1.00  0.00     0.016 A 
ATOM     32  C   UNL A   1      38.878  24.500  28.029  1.00  0.00     0.016 A 
ATOM     33  C   UNL A   1      40.202  26.215  26.426  1.00  0.00     0.010 A 
ATOM     34  C   UNL A   1      39.320  25.732  28.525  1.00  0.00     0.010 A 
ATOM     35  C   UNL A   1      39.965  26.578  27.752  1.00  0.00    -0.014 A 
BRANCH  35  36
ATOM     36  C   UNL A   1      40.442  27.918  28.288  1.00  0.00     0.031 A 
ATOM     37  C   UNL A   1      41.807  28.059  28.544  1.00  0.00     0.074 A 
ATOM     38  C   UNL A   1      39.510  28.924  28.480  1.00  0.00     0.049 A 
ATOM     39  N   UNL A   1      42.446  29.149  28.969  1.00  0.00    -0.248 NA
ATOM     40  C   UNL A   1      42.793  26.982  28.374  1.00  0.00     0.031 C 
ATOM     41  C   UNL A   1      38.133  28.792  28.216  1.00  0.00     0.029 A 
ATOM     42  N   UNL A   1      39.729  30.201  28.947  1.00  0.00    -0.354 N 
ATOM     43  C   UNL A   1      43.753  28.904  29.080  1.00  0.00     0.074 A 
ATOM     44  C   UNL A   1      43.995  27.504  28.704  1.00  0.00     0.031 C 
ATOM     45  C   UNL A   1      37.529  29.968  28.530  1.00  0.00     0.029 A 
ATOM     46  C   UNL A   1      38.518  30.855  28.996  1.00  0.00     0.049 A 
ATOM     47  H   UNL A   1      40.601  30.581  29.203  1.00  0.00     0.167 HD
ATOM     48  C   UNL A   1      44.754  29.793  29.477  1.00  0.00     0.034 A 
ATOM     49  C   UNL A   1      38.270  32.151  29.420  1.00  0.00     0.034 A 
ATOM     50  C   UNL A   1      44.511  31.102  29.861  1.00  0.00     0.049 A 
ATOM     51  C   UNL A   1      39.263  33.022  29.873  1.00  0.00     0.074 A 
ATOM     52  C   UNL A   1      45.509  32.013  30.257  1.00  0.00     0.029 A 
ATOM     53  N   UNL A   1      43.297  31.748  29.933  1.00  0.00    -0.354 N 
ATOM     54  N   UNL A   1      40.575  32.788  29.946  1.00  0.00    -0.248 NA
ATOM     55  C   UNL A   1      39.008  34.385  30.356  1.00  0.00     0.031 C 
ATOM     56  C   UNL A   1      44.903  33.190  30.572  1.00  0.00     0.029 A 
ATOM     57  C   UNL A   1      43.518  33.032  30.379  1.00  0.00     0.049 A 
ATOM     58  H   UNL A   1      42.421  31.360  29.704  1.00  0.00     0.167 HD
ATOM     59  C   UNL A   1      41.208  33.867  30.412  1.00  0.00     0.074 A 
ATOM     60  C   UNL A   1      40.209  34.907  30.689  1.00  0.00     0.031 C 
ATOM     61  C   UNL A   1      42.580  34.026  30.612  1.00  0.00     0.034 A 
BRANCH  48  62
ATOM     62  C   UNL A   1      46.190  29.297  29.491  1.00  0.00     0.023 A 
ATOM     63  C   UNL A   1      46.775  28.734  30.620  1.00  0.00     0.012 A 
ATOM     64  C   UNL A   1      46.875  29.294  28.367  1.00  0.00     0.148 A 
ATOM     65  C   UNL A   1      47.791  27.779  30.397  1.00  0.00     0.002 A 
ATOM     66  C   UNL A   1      48.162  28.748  28.313  1.00  0.00     0.091 A 
ATOM     67  F   UNL A   1      46.337  29.818  27.269  1.00  0.00    -0.205 F 
ATOM     68  C   UNL A   1      48.620  28.005  29.297  1.00  0.00     0.022 A 
BRANCH  66  69
ATOM     69  S   UNL A   1      49.209  29.068  26.872  1.00  0.00     0.127 S 
ATOM     70  O   UNL A   1      48.568  28.449  25.628  1.00  0.00    -0.237 OA
ATOM     71  O   UNL A   1      49.355  30.578  26.673  1.00  0.00    -0.237 OA
ATOM     72  O   UNL A   1      50.752  28.374  27.123  1.00  0.00    -0.744 OA
ENDBRANCH  66  69
ENDBRANCH  48  62
BRANCH  49  73
ATOM     73  C   UNL A   1      36.835  32.652  29.392  1.00  0.00     0.023 A 
ATOM     74  C   UNL A   1      36.273  32.930  28.150  1.00  0.00     0.012 A 
ATOM     75  C   UNL A   1      36.134  32.926  30.471  1.00  0.00     0.148 A 
ATOM     76  C   UNL A   1      34.862  32.998  28.097  1.00  0.00     0.002 A 
ATOM     77  C   UNL A   1      34.858  33.492  30.371  1.00  0.00     0.091 A 
ATOM     78  F   UNL A   1      36.644  32.660  31.671  1.00  0.00    -0.205 F 
ATOM     79  C   UNL A   1      34.227  33.532  29.217  1.00  0.00     0.022 A 
BRANCH  77  80
ATOM     80  S   UNL A   1      34.067  34.179  31.847  1.00  0.00     0.127 S 
ATOM     81  O   UNL A   1      35.040  35.128  32.553  1.00  0.00    -0.237 OA
ATOM     82  O   UNL A   1      32.809  34.948  31.440  1.00  0.00    -0.237 OA
ATOM     83  O   UNL A   1      33.641  32.908  32.909  1.00  0.00    -0.744 OA
ENDBRANCH  77  80
ENDBRANCH  49  73
BRANCH  61  84
ATOM     84  C   UNL A   1      43.076  35.371  31.117  1.00  0.00     0.023 A 
ATOM     85  C   UNL A   1      43.148  35.628  32.483  1.00  0.00     0.012 A 
ATOM     86  C   UNL A   1      43.459  36.313  30.284  1.00  0.00     0.148 A 
ATOM     87  C   UNL A   1      44.062  36.624  32.890  1.00  0.00     0.002 A 
ATOM     88  C   UNL A   1      43.918  37.547  30.759  1.00  0.00     0.091 A 
ATOM     89  F   UNL A   1      43.410  36.091  28.973  1.00  0.00    -0.205 F 
ATOM     90  C   UNL A   1      44.218  37.709  32.030  1.00  0.00     0.022 A 
BRANCH  88  91
ATOM     91  S   UNL A   1      44.103  38.935  29.612  1.00  0.00     0.127 S 
ATOM     92  O   UNL A   1      42.719  39.436  29.190  1.00  0.00    -0.237 OA
ATOM     93  O   UNL A   1      44.867  40.068  30.300  1.00  0.00    -0.237 OA
ATOM     94  O   UNL A   1      44.968  38.421  28.229  1.00  0.00    -0.744 OA
ENDBRANCH  88  91
ENDBRANCH  61  84
ENDBRANCH  35  36
ENDBRANCH  28  30
ENDBRANCH  27  28
ENDBRANCH   1  27
TORSDOF 16
ENDMDL
MODEL 2
REMARK VINA RESULT:     -12.2      3.865      9.839
REMARK SMILES Cc1cc(S(F)(F)(F)(F)F)cc2c1O[C@H](C(F)(F)F)C(C(=O)OCCOC(=O)c1ccc(-c3c4nc(c(-c5cccc(S(=O)(=O)[O-])c5F)c5ccc([nH]5)c(-c5cccc(S(=O)(=O)[O-])c5F)c5nc(c(-c6cccc(S(=O)(=O)[O-])c6F)c6ccc3[nH]6)C=C5)C=C4)cc1)=C2
REMARK SMILES IDX 25 1 24 2 23 3 21 4 22 5 20 6 1 7 2 8 3 9 13 10 4 11 12 12
REMARK SMILES IDX 14 13 11 14 92 15 15 16 5 17 6 18 7 19 8 20 9 21 10 22 16 23
REMARK SMILES IDX 17 24 18 25 19 26 26 27 27 28 28 29 29 30 30 31 91 32 31 33
REMARK SMILES IDX 90 34 32 35 33 36 34 37 84 38 35 39 89 40 83 41 85 42 36 43
REMARK SMILES IDX 88 44 82 45 81 46 37 48 69 49 49 50 68 51 50 52 53 53 67 54
REMARK SMILES IDX 86 55 51 56 52 57 66 59 87 60 54 61 38 62 39 63 47 64 40 65
REMARK SMILES IDX 42 66 48 67 41 68 43 69 44 70 45 71 46 72 70 73 71 74 79 75
REMARK SMILES IDX 72 76 74 77 80 78 73 79 75 80 76 81 77 82 78 83 55 84 56 85
REMARK SMILES IDX 64 86 57 87 59 88 65 89 58 90 60 91 61 92 62 93 63 94
REMARK H PARENT 85 47 53 58
REMARK Flexibility Score: inf
ROOT
ATOM      1  C   UNL A   1      40.209  20.227  26.275  1.00  0.00     0.275 C 
ENDROOT
BRANCH   1   2
ATOM      2  C   UNL A   1      41.690  19.942  26.088  1.00  0.00     0.275 C 
BRANCH   2   3
ATOM      3  O   UNL A   1      42.325  21.083  25.530  1.00  0.00    -0.459 OA
BRANCH   3   4
ATOM      4  C   UNL A   1      43.742  21.131  25.436  1.00  0.00     0.338 C 
ATOM      5  O   UNL A   1      44.357  20.317  24.680  1.00  0.00    -0.246 OA
BRANCH   4   6
ATOM      6  C   UNL A   1      44.521  22.159  26.241  1.00  0.00     0.087 C 
ATOM      7  C   UNL A   1      47.996  25.543  27.871  1.00  0.00     0.048 C 
ATOM      8  C   UNL A   1      46.696  24.988  28.428  1.00  0.00    -0.007 A 
ATOM      9  C   UNL A   1      46.211  25.387  29.654  1.00  0.00     0.031 A 
ATOM     10  C   UNL A   1      45.984  24.046  27.685  1.00  0.00     0.130 A 
ATOM     11  C   UNL A   1      45.029  24.858  30.156  1.00  0.00     0.108 A 
ATOM     12  C   UNL A   1      44.779  23.515  28.197  1.00  0.00     0.019 A 
ATOM     13  O   UNL A   1      46.447  23.581  26.371  1.00  0.00    -0.475 OA
ATOM     14  C   UNL A   1      44.313  23.939  29.442  1.00  0.00     0.036 A 
ATOM     15  C   UNL A   1      44.055  22.529  27.396  1.00  0.00     0.027 C 
ATOM     16  C   UNL A   1      45.707  22.666  25.710  1.00  0.00     0.316 C 
BRANCH  11  17
ATOM     17  S   UNL A   1      44.430  25.394  31.778  1.00  0.00     0.310 S 
ATOM     18  F   UNL A   1      45.631  26.415  31.947  1.00  0.00    -0.094 F 
ATOM     19  F   UNL A   1      45.353  24.304  32.443  1.00  0.00    -0.094 F 
ATOM     20  F   UNL A   1      43.923  25.855  33.174  1.00  0.00    -0.094 F 
ATOM     21  F   UNL A   1      43.620  26.570  31.104  1.00  0.00    -0.094 F 
ATOM     22  F   UNL A   1      45.023  25.010  30.364  1.00  0.00    -0.094 F 
ENDBRANCH  11  17
BRANCH  16  23
ATOM     23  C   UNL A   1      45.212  23.459  24.512  1.00  0.00     0.430 C 
ATOM     24  F   UNL A   1      45.303  22.711  23.416  1.00  0.00    -0.167 F 
ATOM     25  F   UNL A   1      43.943  23.808  24.705  1.00  0.00    -0.167 F 
ATOM     26  F   UNL A   1      45.954  24.553  24.365  1.00  0.00    -0.167 F 
ENDBRANCH  16  23
ENDBRANCH   4   6
ENDBRANCH   3   4
ENDBRANCH   2   3
ENDBRANCH   1   2
BRANCH   1  27
ATOM     27  O   UNL A   1      40.047  21.369  27.103  1.00  0.00    -0.458 OA
BRANCH  27  28
ATOM     28  C   UNL A   1      39.435  22.541  26.585  1.00  0.00     0.338 C 
ATOM     29  O   UNL A   1      38.516  22.445  25.713  1.00  0.00    -0.246 OA
BRANCH  28  30
ATOM     30  C   UNL A   1      39.880  23.910  27.073  1.00  0.00     0.060 A 
ATOM     31  C   UNL A   1      40.488  24.805  26.200  1.00  0.00     0.016 A 
ATOM     32  C   UNL A   1      39.688  24.285  28.320  1.00  0.00     0.016 A 
ATOM     33  C   UNL A   1      40.397  26.175  26.535  1.00  0.00     0.010 A 
ATOM     34  C   UNL A   1      40.096  25.550  28.757  1.00  0.00     0.010 A 
ATOM     35  C   UNL A   1      40.443  26.481  27.895  1.00  0.00    -0.014 A 
BRANCH  35  36
ATOM     36  C   UNL A   1      40.881  27.857  28.368  1.00  0.00     0.031 A 
ATOM     37  C   UNL A   1      39.886  28.740  28.790  1.00  0.00     0.074 A 
ATOM     38  C   UNL A   1      42.233  28.158  28.370  1.00  0.00     0.049 A 
ATOM     39  N   UNL A   1      40.043  29.969  29.284  1.00  0.00    -0.248 NA
ATOM     40  C   UNL A   1      38.447  28.436  28.757  1.00  0.00     0.031 C 
ATOM     41  C   UNL A   1      43.245  27.270  27.954  1.00  0.00     0.029 A 
ATOM     42  N   UNL A   1      42.838  29.332  28.760  1.00  0.00    -0.354 N 
ATOM     43  C   UNL A   1      38.858  30.496  29.594  1.00  0.00     0.074 A 
ATOM     44  C   UNL A   1      37.814  29.521  29.254  1.00  0.00     0.031 C 
ATOM     45  C   UNL A   1      44.440  27.903  28.080  1.00  0.00     0.029 A 
ATOM     46  C   UNL A   1      44.197  29.198  28.578  1.00  0.00     0.049 A 
ATOM     47  H   UNL A   1      42.378  30.130  29.109  1.00  0.00     0.167 HD
ATOM     48  C   UNL A   1      38.606  31.753  30.149  1.00  0.00     0.034 A 
ATOM     49  C   UNL A   1      45.183  30.139  28.824  1.00  0.00     0.034 A 
ATOM     50  C   UNL A   1      39.597  32.679  30.436  1.00  0.00     0.049 A 
ATOM     51  C   UNL A   1      44.927  31.418  29.325  1.00  0.00     0.074 A 
ATOM     52  C   UNL A   1      39.361  33.946  31.002  1.00  0.00     0.029 A 
ATOM     53  N   UNL A   1      40.953  32.553  30.230  1.00  0.00    -0.354 N 
ATOM     54  N   UNL A   1      43.745  31.931  29.672  1.00  0.00    -0.248 NA
ATOM     55  C   UNL A   1      45.959  32.434  29.559  1.00  0.00     0.031 C 
ATOM     56  C   UNL A   1      40.559  34.580  31.128  1.00  0.00     0.029 A 
ATOM     57  C   UNL A   1      41.561  33.719  30.642  1.00  0.00     0.049 A 
ATOM     58  H   UNL A   1      41.411  31.766  29.855  1.00  0.00     0.167 HD
ATOM     59  C   UNL A   1      43.900  33.176  30.127  1.00  0.00     0.074 A 
ATOM     60  C   UNL A   1      45.326  33.521  30.054  1.00  0.00     0.031 C 
ATOM     61  C   UNL A   1      42.910  34.036  30.603  1.00  0.00     0.034 A 
BRANCH  48  62
ATOM     62  C   UNL A   1      37.166  32.126  30.455  1.00  0.00     0.023 A 
ATOM     63  C   UNL A   1      36.617  32.004  31.728  1.00  0.00     0.012 A 
ATOM     64  C   UNL A   1      36.439  32.690  29.514  1.00  0.00     0.148 A 
ATOM     65  C   UNL A   1      35.581  32.905  32.058  1.00  0.00     0.002 A 
ATOM     66  C   UNL A   1      35.144  33.145  29.785  1.00  0.00     0.091 A 
ATOM     67  F   UNL A   1      36.942  32.827  28.290  1.00  0.00    -0.205 F 
ATOM     68  C   UNL A   1      34.715  33.256  31.023  1.00  0.00     0.022 A 
BRANCH  66  69
ATOM     69  S   UNL A   1      34.047  33.586  28.415  1.00  0.00     0.127 S 
ATOM     70  O   UNL A   1      34.808  34.455  27.411  1.00  0.00    -0.237 OA
ATOM     71  O   UNL A   1      33.560  32.313  27.720  1.00  0.00    -0.237 OA
ATOM     72  O   UNL A   1      32.704  34.456  29.017  1.00  0.00    -0.744 OA
ENDBRANCH  66  69
ENDBRANCH  48  62
BRANCH  49  73
ATOM     73  C   UNL A   1      46.626  29.760  28.533  1.00  0.00     0.023 A 
ATOM     74  C   UNL A   1      47.046  29.790  27.207  1.00  0.00     0.012 A 
ATOM     75  C   UNL A   1      47.464  29.315  29.445  1.00  0.00     0.148 A 
ATOM     76  C   UNL A   1      48.442  29.836  26.989  1.00  0.00     0.002 A 
ATOM     77  C   UNL A   1      48.743  28.875  29.088  1.00  0.00     0.091 A 
ATOM     78  F   UNL A   1      47.090  29.285  30.721  1.00  0.00    -0.205 F 
ATOM     79  C   UNL A   1      49.232  29.126  27.892  1.00  0.00     0.022 A 
BRANCH  77  80
ATOM     80  S   UNL A   1      49.738  27.952  30.285  1.00  0.00     0.127 S 
ATOM     81  O   UNL A   1      48.843  26.961  31.035  1.00  0.00    -0.237 OA
ATOM     82  O   UNL A   1      50.841  27.188  29.550  1.00  0.00    -0.237 OA
ATOM     83  O   UNL A   1      50.442  29.039  31.401  1.00  0.00    -0.744 OA
ENDBRANCH  77  80
ENDBRANCH  49  73
BRANCH  61  84
ATOM     84  C   UNL A   1      43.336  35.404  31.110  1.00  0.00     0.023 A 
ATOM     85  C   UNL A   1      43.507  35.629  32.472  1.00  0.00     0.012 A 
ATOM     86  C   UNL A   1      43.563  36.398  30.280  1.00  0.00     0.148 A 
ATOM     87  C   UNL A   1      44.368  36.688  32.834  1.00  0.00     0.002 A 
ATOM     88  C   UNL A   1      43.958  37.653  30.756  1.00  0.00     0.091 A 
ATOM     89  F   UNL A   1      43.416  36.208  28.972  1.00  0.00    -0.205 F 
ATOM     90  C   UNL A   1      44.356  37.806  32.001  1.00  0.00     0.022 A 
BRANCH  88  91
ATOM     91  S   UNL A   1      43.923  39.083  29.647  1.00  0.00     0.127 S 
ATOM     92  O   UNL A   1      45.012  38.928  28.581  1.00  0.00    -0.237 OA
ATOM     93  O   UNL A   1      42.555  39.170  28.969  1.00  0.00    -0.237 OA
ATOM     94  O   UNL A   1      44.206  40.510  30.546  1.00  0.00    -0.744 OA
ENDBRANCH  88  91
ENDBRANCH  61  84
ENDBRANCH  35  36
ENDBRANCH  28  30
ENDBRANCH  27  28
ENDBRANCH   1  27
TORSDOF 16
ENDMDL
MODEL 3
REMARK VINA RESULT:     -12.1      3.870      6.683
REMARK SMILES Cc1cc(S(F)(F)(F)(F)F)cc2c1O[C@H](C(F)(F)F)C(C(=O)OCCOC(=O)c1ccc(-c3c4nc(c(-c5cccc(S(=O)(=O)[O-])c5F)c5ccc([nH]5)c(-c5cccc(S(=O)(=O)[O-])c5F)c5nc(c(-c6cccc(S(=O)(=O)[O-])c6F)c6ccc3[nH]6)C=C5)C=C4)cc1)=C2
REMARK SMILES IDX 25 1 24 2 23 3 21 4 22 5 20 6 1 7 2 8 3 9 13 10 4 11 12 12
REMARK SMILES IDX 14 13 11 14 92 15 15 16 5 17 6 18 7 19 8 20 9 21 10 22 16 23
REMARK SMILES IDX 17 24 18 25 19 26 26 27 27 28 28 29 29 30 30 31 91 32 31 33
REMARK SMILES IDX 90 34 32 35 33 36 34 37 84 38 35 39 89 40 83 41 85 42 36 43
REMARK SMILES IDX 88 44 82 45 81 46 37 48 69 49 49 50 68 51 50 52 53 53 67 54
REMARK SMILES IDX 86 55 51 56 52 57 66 59 87 60 54 61 38 62 39 63 47 64 40 65
REMARK SMILES IDX 42 66 48 67 41 68 43 69 44 70 45 71 46 72 70 73 71 74 79 75
REMARK SMILES IDX 72 76 74 77 80 78 73 79 75 80 76 81 77 82 78 83 55 84 56 85
REMARK SMILES IDX 64 86 57 87 59 88 65 89 58 90 60 91 61 92 62 93 63 94
REMARK H PARENT 85 47 53 58
REMARK Flexibility Score: inf
ROOT
ATOM      1  C   UNL A   1      40.101  20.341  26.135  1.00  0.00     0.275 C 
ENDROOT
BRANCH   1   2
ATOM      2  C   UNL A   1      41.600  20.087  26.143  1.00  0.00     0.275 C 
BRANCH   2   3
ATOM      3  O   UNL A   1      42.269  21.182  25.534  1.00  0.00    -0.459 OA
BRANCH   3   4
ATOM      4  C   UNL A   1      43.688  21.194  25.461  1.00  0.00     0.338 C 
ATOM      5  O   UNL A   1      44.292  20.374  24.702  1.00  0.00    -0.246 OA
BRANCH   4   6
ATOM      6  C   UNL A   1      44.481  22.190  26.291  1.00  0.00     0.087 C 
ATOM      7  C   UNL A   1      48.027  25.445  28.029  1.00  0.00     0.048 C 
ATOM      8  C   UNL A   1      46.695  24.932  28.550  1.00  0.00    -0.007 A 
ATOM      9  C   UNL A   1      46.193  25.341  29.766  1.00  0.00     0.031 A 
ATOM     10  C   UNL A   1      45.970  24.019  27.783  1.00  0.00     0.130 A 
ATOM     11  C   UNL A   1      44.981  24.850  30.235  1.00  0.00     0.108 A 
ATOM     12  C   UNL A   1      44.735  23.526  28.262  1.00  0.00     0.019 A 
ATOM     13  O   UNL A   1      46.450  23.545  26.479  1.00  0.00    -0.475 OA
ATOM     14  C   UNL A   1      44.252  23.959  29.498  1.00  0.00     0.036 A 
ATOM     15  C   UNL A   1      43.998  22.570  27.437  1.00  0.00     0.027 C 
ATOM     16  C   UNL A   1      45.697  22.659  25.794  1.00  0.00     0.316 C 
BRANCH  11  17
ATOM     17  S   UNL A   1      44.360  25.397  31.845  1.00  0.00     0.310 S 
ATOM     18  F   UNL A   1      45.639  26.301  32.094  1.00  0.00    -0.094 F 
ATOM     19  F   UNL A   1      45.151  24.212  32.517  1.00  0.00    -0.094 F 
ATOM     20  F   UNL A   1      43.833  25.867  33.231  1.00  0.00    -0.094 F 
ATOM     21  F   UNL A   1      43.689  26.658  31.171  1.00  0.00    -0.094 F 
ATOM     22  F   UNL A   1      44.980  24.997  30.447  1.00  0.00    -0.094 F 
ENDBRANCH  11  17
BRANCH  16  23
ATOM     23  C   UNL A   1      45.259  23.475  24.588  1.00  0.00     0.430 C 
ATOM     24  F   UNL A   1      43.958  23.734  24.676  1.00  0.00    -0.167 F 
ATOM     25  F   UNL A   1      45.937  24.619  24.557  1.00  0.00    -0.167 F 
ATOM     26  F   UNL A   1      45.500  22.787  23.475  1.00  0.00    -0.167 F 
ENDBRANCH  16  23
ENDBRANCH   4   6
ENDBRANCH   3   4
ENDBRANCH   2   3
ENDBRANCH   1   2
BRANCH   1  27
ATOM     27  O   UNL A   1      39.801  21.430  26.996  1.00  0.00    -0.458 OA
BRANCH  27  28
ATOM     28  C   UNL A   1      39.253  22.627  26.462  1.00  0.00     0.338 C 
ATOM     29  O   UNL A   1      38.358  22.569  25.562  1.00  0.00    -0.246 OA
BRANCH  28  30
ATOM     30  C   UNL A   1      39.736  23.975  26.969  1.00  0.00     0.060 A 
ATOM     31  C   UNL A   1      40.415  24.843  26.121  1.00  0.00     0.016 A 
ATOM     32  C   UNL A   1      39.512  24.359  28.207  1.00  0.00     0.016 A 
ATOM     33  C   UNL A   1      40.370  26.216  26.454  1.00  0.00     0.010 A 
ATOM     34  C   UNL A   1      39.955  25.606  28.662  1.00  0.00     0.010 A 
ATOM     35  C   UNL A   1      40.375  26.521  27.815  1.00  0.00    -0.014 A 
BRANCH  35  36
ATOM     36  C   UNL A   1      40.853  27.877  28.306  1.00  0.00     0.031 A 
ATOM     37  C   UNL A   1      42.227  28.120  28.288  1.00  0.00     0.074 A 
ATOM     38  C   UNL A   1      39.910  28.800  28.728  1.00  0.00     0.049 A 
ATOM     39  N   UNL A   1      42.860  29.244  28.627  1.00  0.00    -0.248 NA
ATOM     40  C   UNL A   1      43.234  27.131  27.873  1.00  0.00     0.031 C 
ATOM     41  C   UNL A   1      38.521  28.566  28.741  1.00  0.00     0.029 A 
ATOM     42  N   UNL A   1      40.127  30.075  29.201  1.00  0.00    -0.354 N 
ATOM     43  C   UNL A   1      44.176  29.100  28.460  1.00  0.00     0.074 A 
ATOM     44  C   UNL A   1      44.436  27.737  27.979  1.00  0.00     0.031 C 
ATOM     45  C   UNL A   1      37.911  29.679  29.225  1.00  0.00     0.029 A 
ATOM     46  C   UNL A   1      38.908  30.628  29.523  1.00  0.00     0.049 A 
ATOM     47  H   UNL A   1      41.004  30.515  29.294  1.00  0.00     0.167 HD
ATOM     48  C   UNL A   1      45.171  30.054  28.689  1.00  0.00     0.034 A 
ATOM     49  C   UNL A   1      38.659  31.886  30.049  1.00  0.00     0.034 A 
ATOM     50  C   UNL A   1      44.917  31.327  29.174  1.00  0.00     0.049 A 
ATOM     51  C   UNL A   1      39.658  32.819  30.333  1.00  0.00     0.074 A 
ATOM     52  C   UNL A   1      45.907  32.302  29.404  1.00  0.00     0.029 A 
ATOM     53  N   UNL A   1      43.700  31.871  29.519  1.00  0.00    -0.354 N 
ATOM     54  N   UNL A   1      40.970  32.689  30.129  1.00  0.00    -0.248 NA
ATOM     55  C   UNL A   1      39.409  34.141  30.920  1.00  0.00     0.031 C 
ATOM     56  C   UNL A   1      45.295  33.416  29.889  1.00  0.00     0.029 A 
ATOM     57  C   UNL A   1      43.914  33.154  29.971  1.00  0.00     0.049 A 
ATOM     58  H   UNL A   1      42.826  31.421  29.453  1.00  0.00     0.167 HD
ATOM     59  C   UNL A   1      41.606  33.800  30.507  1.00  0.00     0.074 A 
ATOM     60  C   UNL A   1      40.612  34.748  31.028  1.00  0.00     0.031 C 
ATOM     61  C   UNL A   1      42.975  34.062  30.435  1.00  0.00     0.034 A 
BRANCH  48  62
ATOM     62  C   UNL A   1      46.611  29.674  28.390  1.00  0.00     0.023 A 
ATOM     63  C   UNL A   1      47.193  29.879  27.144  1.00  0.00     0.012 A 
ATOM     64  C   UNL A   1      47.373  29.238  29.371  1.00  0.00     0.148 A 
ATOM     65  C   UNL A   1      48.588  30.099  27.127  1.00  0.00     0.002 A 
ATOM     66  C   UNL A   1      48.731  28.978  29.162  1.00  0.00     0.091 A 
ATOM     67  F   UNL A   1      46.844  29.041  30.576  1.00  0.00    -0.205 F 
ATOM     68  C   UNL A   1      49.336  29.395  28.070  1.00  0.00     0.022 A 
BRANCH  66  69
ATOM     69  S   UNL A   1      49.668  28.057  30.407  1.00  0.00     0.127 S 
ATOM     70  O   UNL A   1      50.642  27.104  29.710  1.00  0.00    -0.237 OA
ATOM     71  O   UNL A   1      50.451  29.036  31.284  1.00  0.00    -0.237 OA
ATOM     72  O   UNL A   1      48.589  27.156  31.380  1.00  0.00    -0.744 OA
ENDBRANCH  66  69
ENDBRANCH  48  62
BRANCH  49  73
ATOM     73  C   UNL A   1      37.216  32.271  30.333  1.00  0.00     0.023 A 
ATOM     74  C   UNL A   1      36.666  31.867  31.545  1.00  0.00     0.012 A 
ATOM     75  C   UNL A   1      36.436  32.879  29.464  1.00  0.00     0.148 A 
ATOM     76  C   UNL A   1      35.505  32.551  31.971  1.00  0.00     0.002 A 
ATOM     77  C   UNL A   1      35.085  33.102  29.749  1.00  0.00     0.091 A 
ATOM     78  F   UNL A   1      36.940  33.285  28.302  1.00  0.00    -0.205 F 
ATOM     79  C   UNL A   1      34.619  32.946  30.970  1.00  0.00     0.022 A 
BRANCH  77  80
ATOM     80  S   UNL A   1      33.964  33.610  28.422  1.00  0.00     0.127 S 
ATOM     81  O   UNL A   1      34.712  34.517  27.441  1.00  0.00    -0.237 OA
ATOM     82  O   UNL A   1      33.452  32.372  27.684  1.00  0.00    -0.237 OA
ATOM     83  O   UNL A   1      32.640  34.463  29.089  1.00  0.00    -0.744 OA
ENDBRANCH  77  80
ENDBRANCH  49  73
BRANCH  61  84
ATOM     84  C   UNL A   1      43.466  35.426  30.892  1.00  0.00     0.023 A 
ATOM     85  C   UNL A   1      43.800  35.644  32.225  1.00  0.00     0.012 A 
ATOM     86  C   UNL A   1      43.598  36.423  30.044  1.00  0.00     0.148 A 
ATOM     87  C   UNL A   1      44.704  36.698  32.484  1.00  0.00     0.002 A 
ATOM     88  C   UNL A   1      44.054  37.674  30.474  1.00  0.00     0.091 A 
ATOM     89  F   UNL A   1      43.294  36.239  28.762  1.00  0.00    -0.205 F 
ATOM     90  C   UNL A   1      44.598  37.819  31.663  1.00  0.00     0.022 A 
BRANCH  88  91
ATOM     91  S   UNL A   1      43.895  39.108  29.381  1.00  0.00     0.127 S 
ATOM     92  O   UNL A   1      44.994  39.064  28.318  1.00  0.00    -0.237 OA
ATOM     93  O   UNL A   1      42.525  39.082  28.700  1.00  0.00    -0.237 OA
ATOM     94  O   UNL A   1      44.048  40.544  30.299  1.00  0.00    -0.744 OA
ENDBRANCH  88  91
ENDBRANCH  61  84
ENDBRANCH  35  36
ENDBRANCH  28  30
ENDBRANCH  27  28
ENDBRANCH   1  27
TORSDOF 16
ENDMDL
