MODEL 1
REMARK VINA RESULT:     -10.7      0.000      0.000
REMARK SMILES CCCc1nc(C[N@H+]2CCCC[C@@H]2C(=O)OCCOC(=O)c2ccc(-c3c4nc(c(-c5cccc(S(=O)(=O)[O-])c5F)c5ccc([nH]5)c(-c5cccc(S(=O)(=O)[O-])c5F)c5nc(c(-c6cccc(S(=O)(=O)[O-])c6F)c6ccc3[nH]6)C=C5)C=C4)cc2)cs1
REMARK SMILES IDX 17 1 16 2 14 3 15 4 13 5 8 6 9 7 10 9 12 10 11 11 7 12 6 13
REMARK SMILES IDX 4 14 5 15 86 16 85 17 3 18 2 19 1 20 18 21 19 22 20 23 21 24
REMARK SMILES IDX 22 25 23 26 84 27 24 28 83 29 25 30 26 31 27 32 77 33 28 34
REMARK SMILES IDX 82 35 76 36 78 37 29 38 81 39 75 40 74 41 30 43 62 44 42 45
REMARK SMILES IDX 61 46 43 47 46 48 60 49 79 50 44 51 45 52 59 54 80 55 47 56
REMARK SMILES IDX 31 57 32 58 40 59 33 60 35 61 41 62 34 63 36 64 37 65 38 66
REMARK SMILES IDX 39 67 63 68 64 69 72 70 65 71 67 72 73 73 66 74 68 75 69 76
REMARK SMILES IDX 70 77 71 78 48 79 49 80 57 81 50 82 52 83 58 84 51 85 53 86
REMARK SMILES IDX 54 87 55 88 56 89
REMARK H PARENT 8 8 78 42 46 53
REMARK Flexibility Score: inf
ROOT
ATOM      1  C   UNL A   1      36.109  20.490  24.878  1.00  0.00     0.274 C 
ENDROOT
BRANCH   1   2
ATOM      2  O   UNL A   1      35.970  21.816  25.424  1.00  0.00    -0.458 OA
BRANCH   2   3
ATOM      3  C   UNL A   1      35.203  22.674  24.697  1.00  0.00     0.365 C 
ATOM      4  O   UNL A   1      35.157  22.650  23.471  1.00  0.00    -0.245 OA
BRANCH   3   5
ATOM      5  C   UNL A   1      34.351  23.638  25.563  1.00  0.00     0.295 C 
ATOM      6  N   UNL A   1      32.934  23.188  25.720  1.00  0.00    -0.318 N 
ATOM      7  C   UNL A   1      32.158  24.116  26.568  1.00  0.00     0.263 C 
ATOM      8  H   UNL A   1      32.570  23.195  24.768  1.00  0.00     0.349 HD
ATOM      9  C   UNL A   1      32.215  25.562  26.075  1.00  0.00     0.062 C 
ATOM     10  C   UNL A   1      34.425  25.088  25.048  1.00  0.00     0.078 C 
ATOM     11  C   UNL A   1      33.653  26.038  25.953  1.00  0.00     0.013 C 
BRANCH   6  12
ATOM     12  C   UNL A   1      32.766  21.794  26.224  1.00  0.00     0.321 C 
BRANCH  12  13
ATOM     13  C   UNL A   1      32.557  20.749  25.154  1.00  0.00     0.106 A 
ATOM     14  C   UNL A   1      32.536  18.653  24.394  1.00  0.00     0.093 A 
ATOM     15  N   UNL A   1      32.775  19.403  25.455  1.00  0.00    -0.240 NA
ATOM     16  S   UNL A   1      32.231  19.530  22.953  1.00  0.00    -0.127 S 
ATOM     17  C   UNL A   1      32.116  20.960  23.862  1.00  0.00     0.096 A 
BRANCH  14  18
ATOM     18  C   UNL A   1      32.585  17.153  24.379  1.00  0.00     0.067 C 
BRANCH  18  19
ATOM     19  C   UNL A   1      33.929  16.556  23.937  1.00  0.00     0.004 C 
ATOM     20  C   UNL A   1      34.855  16.152  25.080  1.00  0.00     0.004 C 
ENDBRANCH  18  19
ENDBRANCH  14  18
ENDBRANCH  12  13
ENDBRANCH   6  12
ENDBRANCH   3   5
ENDBRANCH   2   3
ENDBRANCH   1   2
BRANCH   1  21
ATOM     21  C   UNL A   1      37.521  19.934  25.088  1.00  0.00     0.275 C 
BRANCH  21  22
ATOM     22  O   UNL A   1      38.505  20.976  25.231  1.00  0.00    -0.458 OA
BRANCH  22  23
ATOM     23  C   UNL A   1      39.461  20.740  26.162  1.00  0.00     0.338 C 
ATOM     24  O   UNL A   1      39.945  19.660  26.455  1.00  0.00    -0.246 OA
BRANCH  23  25
ATOM     25  C   UNL A   1      39.980  22.013  26.695  1.00  0.00     0.060 A 
ATOM     26  C   UNL A   1      39.428  23.193  26.188  1.00  0.00     0.016 A 
ATOM     27  C   UNL A   1      41.035  22.066  27.609  1.00  0.00     0.016 A 
ATOM     28  C   UNL A   1      39.903  24.430  26.612  1.00  0.00     0.010 A 
ATOM     29  C   UNL A   1      41.529  23.313  28.017  1.00  0.00     0.010 A 
ATOM     30  C   UNL A   1      40.964  24.501  27.520  1.00  0.00    -0.014 A 
BRANCH  30  31
ATOM     31  C   UNL A   1      41.521  25.830  27.869  1.00  0.00     0.031 A 
ATOM     32  C   UNL A   1      42.916  26.184  27.441  1.00  0.00     0.074 A 
ATOM     33  C   UNL A   1      40.764  26.733  28.520  1.00  0.00     0.049 A 
ATOM     34  N   UNL A   1      43.580  27.292  27.630  1.00  0.00    -0.248 NA
ATOM     35  C   UNL A   1      43.657  25.152  26.698  1.00  0.00     0.031 C 
ATOM     36  C   UNL A   1      39.387  26.516  28.958  1.00  0.00     0.029 A 
ATOM     37  N   UNL A   1      41.049  28.013  28.925  1.00  0.00    -0.354 N 
ATOM     38  C   UNL A   1      44.830  27.085  27.061  1.00  0.00     0.074 A 
ATOM     39  C   UNL A   1      44.827  25.747  26.509  1.00  0.00     0.031 C 
ATOM     40  C   UNL A   1      38.946  27.627  29.572  1.00  0.00     0.029 A 
ATOM     41  C   UNL A   1      40.014  28.624  29.592  1.00  0.00     0.049 A 
ATOM     42  H   UNL A   1      41.913  28.452  28.753  1.00  0.00     0.167 HD
ATOM     43  C   UNL A   1      45.884  27.933  27.000  1.00  0.00     0.034 A 
ATOM     44  C   UNL A   1      39.941  29.846  30.158  1.00  0.00     0.034 A 
ATOM     45  C   UNL A   1      45.885  29.267  27.537  1.00  0.00     0.049 A 
ATOM     46  C   UNL A   1      41.136  30.762  30.086  1.00  0.00     0.074 A 
ATOM     47  C   UNL A   1      46.911  30.196  27.530  1.00  0.00     0.029 A 
ATOM     48  N   UNL A   1      44.812  29.861  28.181  1.00  0.00    -0.354 N 
ATOM     49  N   UNL A   1      42.280  30.583  29.472  1.00  0.00    -0.248 NA
ATOM     50  C   UNL A   1      41.022  32.059  30.771  1.00  0.00     0.031 C 
ATOM     51  C   UNL A   1      46.462  31.349  28.183  1.00  0.00     0.029 A 
ATOM     52  C   UNL A   1      45.151  31.143  28.581  1.00  0.00     0.049 A 
ATOM     53  H   UNL A   1      43.937  29.435  28.333  1.00  0.00     0.167 HD
ATOM     54  C   UNL A   1      43.012  31.748  29.677  1.00  0.00     0.074 A 
ATOM     55  C   UNL A   1      42.167  32.641  30.444  1.00  0.00     0.031 C 
ATOM     56  C   UNL A   1      44.278  32.043  29.291  1.00  0.00     0.034 A 
BRANCH  43  57
ATOM     57  C   UNL A   1      47.128  27.438  26.316  1.00  0.00     0.023 A 
ATOM     58  C   UNL A   1      47.335  27.726  24.952  1.00  0.00     0.012 A 
ATOM     59  C   UNL A   1      48.106  26.720  27.030  1.00  0.00     0.148 A 
ATOM     60  C   UNL A   1      48.486  27.283  24.303  1.00  0.00     0.002 A 
ATOM     61  C   UNL A   1      49.267  26.312  26.384  1.00  0.00     0.091 A 
ATOM     62  F   UNL A   1      47.875  26.433  28.320  1.00  0.00    -0.205 F 
ATOM     63  C   UNL A   1      49.455  26.585  25.020  1.00  0.00     0.022 A 
BRANCH  61  64
ATOM     64  S   UNL A   1      50.597  25.461  27.241  1.00  0.00     0.127 S 
ATOM     65  O   UNL A   1      51.006  26.463  28.222  1.00  0.00    -0.237 OA
ATOM     66  O   UNL A   1      49.907  24.300  27.805  1.00  0.00    -0.237 OA
ATOM     67  O   UNL A   1      51.586  25.138  26.222  1.00  0.00    -0.744 OA
ENDBRANCH  61  64
ENDBRANCH  43  57
BRANCH  44  68
ATOM     68  C   UNL A   1      38.678  30.301  30.808  1.00  0.00     0.023 A 
ATOM     69  C   UNL A   1      38.461  30.016  32.170  1.00  0.00     0.012 A 
ATOM     70  C   UNL A   1      37.695  31.013  30.095  1.00  0.00     0.148 A 
ATOM     71  C   UNL A   1      37.280  30.407  32.803  1.00  0.00     0.002 A 
ATOM     72  C   UNL A   1      36.545  31.449  30.744  1.00  0.00     0.091 A 
ATOM     73  F   UNL A   1      37.899  31.249  28.791  1.00  0.00    -0.205 F 
ATOM     74  C   UNL A   1      36.328  31.134  32.094  1.00  0.00     0.022 A 
BRANCH  72  75
ATOM     75  S   UNL A   1      35.332  32.496  29.933  1.00  0.00     0.127 S 
ATOM     76  O   UNL A   1      34.869  31.634  28.848  1.00  0.00    -0.237 OA
ATOM     77  O   UNL A   1      34.356  32.721  31.000  1.00  0.00    -0.237 OA
ATOM     78  O   UNL A   1      36.062  33.691  29.532  1.00  0.00    -0.744 OA
ENDBRANCH  72  75
ENDBRANCH  44  68
BRANCH  56  79
ATOM     79  C   UNL A   1      44.831  33.394  29.671  1.00  0.00     0.023 A 
ATOM     80  C   UNL A   1      45.528  33.541  30.887  1.00  0.00     0.012 A 
ATOM     81  C   UNL A   1      44.732  34.490  28.794  1.00  0.00     0.148 A 
ATOM     82  C   UNL A   1      46.094  34.766  31.236  1.00  0.00     0.002 A 
ATOM     83  C   UNL A   1      45.338  35.697  29.127  1.00  0.00     0.091 A 
ATOM     84  F   UNL A   1      44.047  34.338  27.651  1.00  0.00    -0.205 F 
ATOM     85  C   UNL A   1      46.010  35.839  30.352  1.00  0.00     0.022 A 
BRANCH  83  86
ATOM     86  S   UNL A   1      45.357  37.102  28.007  1.00  0.00     0.127 S 
ATOM     87  O   UNL A   1      43.930  37.360  27.826  1.00  0.00    -0.237 OA
ATOM     88  O   UNL A   1      46.066  38.116  28.788  1.00  0.00    -0.237 OA
ATOM     89  O   UNL A   1      46.071  36.652  26.819  1.00  0.00    -0.744 OA
ENDBRANCH  83  86
ENDBRANCH  56  79
ENDBRANCH  30  31
ENDBRANCH  23  25
ENDBRANCH  22  23
ENDBRANCH  21  22
ENDBRANCH   1  21
TORSDOF 18
ENDMDL
MODEL 2
REMARK VINA RESULT:     -10.7      1.688      7.826
REMARK SMILES CCCc1nc(C[N@H+]2CCCC[C@@H]2C(=O)OCCOC(=O)c2ccc(-c3c4nc(c(-c5cccc(S(=O)(=O)[O-])c5F)c5ccc([nH]5)c(-c5cccc(S(=O)(=O)[O-])c5F)c5nc(c(-c6cccc(S(=O)(=O)[O-])c6F)c6ccc3[nH]6)C=C5)C=C4)cc2)cs1
REMARK SMILES IDX 17 1 16 2 14 3 15 4 13 5 8 6 9 7 10 9 12 10 11 11 7 12 6 13
REMARK SMILES IDX 4 14 5 15 86 16 85 17 3 18 2 19 1 20 18 21 19 22 20 23 21 24
REMARK SMILES IDX 22 25 23 26 84 27 24 28 83 29 25 30 26 31 27 32 77 33 28 34
REMARK SMILES IDX 82 35 76 36 78 37 29 38 81 39 75 40 74 41 30 43 62 44 42 45
REMARK SMILES IDX 61 46 43 47 46 48 60 49 79 50 44 51 45 52 59 54 80 55 47 56
REMARK SMILES IDX 31 57 32 58 40 59 33 60 35 61 41 62 34 63 36 64 37 65 38 66
REMARK SMILES IDX 39 67 63 68 64 69 72 70 65 71 67 72 73 73 66 74 68 75 69 76
REMARK SMILES IDX 70 77 71 78 48 79 49 80 57 81 50 82 52 83 58 84 51 85 53 86
REMARK SMILES IDX 54 87 55 88 56 89
REMARK H PARENT 8 8 78 42 46 53
REMARK Flexibility Score: inf
ROOT
ATOM      1  C   UNL A   1      35.499  21.429  26.127  1.00  0.00     0.274 C 
ENDROOT
BRANCH   1   2
ATOM      2  O   UNL A   1      35.310  22.814  25.776  1.00  0.00    -0.458 OA
BRANCH   2   3
ATOM      3  C   UNL A   1      34.137  23.371  26.186  1.00  0.00     0.365 C 
ATOM      4  O   UNL A   1      33.728  23.285  27.341  1.00  0.00    -0.245 OA
BRANCH   3   5
ATOM      5  C   UNL A   1      33.404  24.171  25.079  1.00  0.00     0.295 C 
ATOM      6  N   UNL A   1      32.713  23.296  24.082  1.00  0.00    -0.318 N 
ATOM      7  C   UNL A   1      32.006  24.090  23.057  1.00  0.00     0.263 C 
ATOM      8  H   UNL A   1      33.473  22.768  23.655  1.00  0.00     0.349 HD
ATOM      9  C   UNL A   1      32.915  25.099  22.354  1.00  0.00     0.062 C 
ATOM     10  C   UNL A   1      34.338  25.181  24.387  1.00  0.00     0.078 C 
ATOM     11  C   UNL A   1      33.587  26.017  23.361  1.00  0.00     0.013 C 
BRANCH   6  12
ATOM     12  C   UNL A   1      31.779  22.289  24.665  1.00  0.00     0.321 C 
BRANCH  12  13
ATOM     13  C   UNL A   1      32.094  20.853  24.324  1.00  0.00     0.106 A 
ATOM     14  C   UNL A   1      32.519  18.728  24.849  1.00  0.00     0.093 A 
ATOM     15  N   UNL A   1      32.253  19.920  25.352  1.00  0.00    -0.240 NA
ATOM     16  S   UNL A   1      32.779  18.707  23.154  1.00  0.00    -0.127 S 
ATOM     17  C   UNL A   1      32.212  20.305  23.060  1.00  0.00     0.096 A 
BRANCH  14  18
ATOM     18  C   UNL A   1      32.664  17.473  25.659  1.00  0.00     0.067 C 
BRANCH  18  19
ATOM     19  C   UNL A   1      33.374  16.317  24.938  1.00  0.00     0.004 C 
ATOM     20  C   UNL A   1      33.041  14.929  25.474  1.00  0.00     0.004 C 
ENDBRANCH  18  19
ENDBRANCH  14  18
ENDBRANCH  12  13
ENDBRANCH   6  12
ENDBRANCH   3   5
ENDBRANCH   2   3
ENDBRANCH   1   2
BRANCH   1  21
ATOM     21  C   UNL A   1      36.332  20.686  25.078  1.00  0.00     0.275 C 
BRANCH  21  22
ATOM     22  O   UNL A   1      37.605  21.316  24.842  1.00  0.00    -0.458 OA
BRANCH  22  23
ATOM     23  C   UNL A   1      38.594  20.953  25.695  1.00  0.00     0.338 C 
ATOM     24  O   UNL A   1      38.978  19.820  25.928  1.00  0.00    -0.246 OA
BRANCH  23  25
ATOM     25  C   UNL A   1      39.283  22.148  26.216  1.00  0.00     0.060 A 
ATOM     26  C   UNL A   1      38.788  23.395  25.824  1.00  0.00     0.016 A 
ATOM     27  C   UNL A   1      40.433  22.064  27.005  1.00  0.00     0.016 A 
ATOM     28  C   UNL A   1      39.418  24.564  26.240  1.00  0.00     0.010 A 
ATOM     29  C   UNL A   1      41.081  23.241  27.404  1.00  0.00     0.010 A 
ATOM     30  C   UNL A   1      40.575  24.496  27.023  1.00  0.00    -0.014 A 
BRANCH  30  31
ATOM     31  C   UNL A   1      41.287  25.754  27.360  1.00  0.00     0.031 A 
ATOM     32  C   UNL A   1      40.601  26.787  28.206  1.00  0.00     0.074 A 
ATOM     33  C   UNL A   1      42.555  25.945  26.953  1.00  0.00     0.049 A 
ATOM     34  N   UNL A   1      41.051  27.940  28.625  1.00  0.00    -0.248 NA
ATOM     35  C   UNL A   1      39.230  26.477  28.641  1.00  0.00     0.031 C 
ATOM     36  C   UNL A   1      43.334  25.001  26.155  1.00  0.00     0.029 A 
ATOM     37  N   UNL A   1      43.410  27.000  27.158  1.00  0.00    -0.354 N 
ATOM     38  C   UNL A   1      40.010  28.512  29.345  1.00  0.00     0.074 A 
ATOM     39  C   UNL A   1      38.908  27.573  29.316  1.00  0.00     0.031 C 
ATOM     40  C   UNL A   1      44.555  25.519  25.937  1.00  0.00     0.029 A 
ATOM     41  C   UNL A   1      44.636  26.840  26.558  1.00  0.00     0.049 A 
ATOM     42  H   UNL A   1      43.167  27.795  27.685  1.00  0.00     0.167 HD
ATOM     43  C   UNL A   1      39.975  29.709  29.977  1.00  0.00     0.034 A 
ATOM     44  C   UNL A   1      45.700  27.668  26.512  1.00  0.00     0.034 A 
ATOM     45  C   UNL A   1      41.072  30.639  30.018  1.00  0.00     0.049 A 
ATOM     46  C   UNL A   1      45.625  29.000  27.213  1.00  0.00     0.074 A 
ATOM     47  C   UNL A   1      41.124  31.881  30.626  1.00  0.00     0.029 A 
ATOM     48  N   UNL A   1      42.306  30.432  29.422  1.00  0.00    -0.354 N 
ATOM     49  N   UNL A   1      44.665  29.490  27.959  1.00  0.00    -0.248 NA
ATOM     50  C   UNL A   1      46.791  29.887  27.080  1.00  0.00     0.031 C 
ATOM     51  C   UNL A   1      42.388  32.432  30.387  1.00  0.00     0.029 A 
ATOM     52  C   UNL A   1      43.127  31.524  29.644  1.00  0.00     0.049 A 
ATOM     53  H   UNL A   1      42.561  29.627  28.917  1.00  0.00     0.167 HD
ATOM     54  C   UNL A   1      45.117  30.729  28.401  1.00  0.00     0.074 A 
ATOM     55  C   UNL A   1      46.453  30.900  27.867  1.00  0.00     0.031 C 
ATOM     56  C   UNL A   1      44.477  31.655  29.157  1.00  0.00     0.034 A 
BRANCH  43  57
ATOM     57  C   UNL A   1      38.701  30.077  30.685  1.00  0.00     0.023 A 
ATOM     58  C   UNL A   1      38.478  29.621  32.000  1.00  0.00     0.012 A 
ATOM     59  C   UNL A   1      37.743  30.902  30.065  1.00  0.00     0.148 A 
ATOM     60  C   UNL A   1      37.307  29.958  32.677  1.00  0.00     0.002 A 
ATOM     61  C   UNL A   1      36.594  31.263  30.759  1.00  0.00     0.091 A 
ATOM     62  F   UNL A   1      37.963  31.301  28.804  1.00  0.00    -0.205 F 
ATOM     63  C   UNL A   1      36.371  30.785  32.060  1.00  0.00     0.022 A 
BRANCH  61  64
ATOM     64  S   UNL A   1      35.362  32.372  30.070  1.00  0.00     0.127 S 
ATOM     65  O   UNL A   1      34.845  31.583  28.954  1.00  0.00    -0.237 OA
ATOM     66  O   UNL A   1      34.430  32.533  31.187  1.00  0.00    -0.237 OA
ATOM     67  O   UNL A   1      36.078  33.586  29.702  1.00  0.00    -0.744 OA
ENDBRANCH  61  64
ENDBRANCH  43  57
BRANCH  44  68
ATOM     68  C   UNL A   1      46.950  27.250  25.813  1.00  0.00     0.023 A 
ATOM     69  C   UNL A   1      47.856  26.396  26.471  1.00  0.00     0.012 A 
ATOM     70  C   UNL A   1      47.248  27.687  24.508  1.00  0.00     0.148 A 
ATOM     71  C   UNL A   1      49.045  26.005  25.854  1.00  0.00     0.002 A 
ATOM     72  C   UNL A   1      48.408  27.250  23.877  1.00  0.00     0.091 A 
ATOM     73  F   UNL A   1      46.393  28.526  23.906  1.00  0.00    -0.205 F 
ATOM     74  C   UNL A   1      49.316  26.421  24.554  1.00  0.00     0.022 A 
BRANCH  72  75
ATOM     75  S   UNL A   1      48.764  27.641  22.161  1.00  0.00     0.127 S 
ATOM     76  O   UNL A   1      50.096  28.230  22.258  1.00  0.00    -0.237 OA
ATOM     77  O   UNL A   1      48.718  26.321  21.529  1.00  0.00    -0.237 OA
ATOM     78  O   UNL A   1      47.697  28.539  21.741  1.00  0.00    -0.744 OA
ENDBRANCH  72  75
ENDBRANCH  44  68
BRANCH  56  79
ATOM     79  C   UNL A   1      45.211  32.933  29.474  1.00  0.00     0.023 A 
ATOM     80  C   UNL A   1      46.064  32.983  30.595  1.00  0.00     0.012 A 
ATOM     81  C   UNL A   1      45.122  34.050  28.622  1.00  0.00     0.148 A 
ATOM     82  C   UNL A   1      46.794  34.137  30.878  1.00  0.00     0.002 A 
ATOM     83  C   UNL A   1      45.888  35.180  28.885  1.00  0.00     0.091 A 
ATOM     84  F   UNL A   1      44.290  33.992  27.572  1.00  0.00    -0.205 F 
ATOM     85  C   UNL A   1      46.717  35.229  30.018  1.00  0.00     0.022 A 
BRANCH  83  86
ATOM     86  S   UNL A   1      45.918  36.597  27.780  1.00  0.00     0.127 S 
ATOM     87  O   UNL A   1      44.494  36.887  27.625  1.00  0.00    -0.237 OA
ATOM     88  O   UNL A   1      46.661  37.588  28.560  1.00  0.00    -0.237 OA
ATOM     89  O   UNL A   1      46.603  36.145  26.575  1.00  0.00    -0.744 OA
ENDBRANCH  83  86
ENDBRANCH  56  79
ENDBRANCH  30  31
ENDBRANCH  23  25
ENDBRANCH  22  23
ENDBRANCH  21  22
ENDBRANCH   1  21
TORSDOF 18
ENDMDL
MODEL 3
REMARK VINA RESULT:     -10.5      5.364      8.503
REMARK SMILES CCCc1nc(C[N@H+]2CCCC[C@@H]2C(=O)OCCOC(=O)c2ccc(-c3c4nc(c(-c5cccc(S(=O)(=O)[O-])c5F)c5ccc([nH]5)c(-c5cccc(S(=O)(=O)[O-])c5F)c5nc(c(-c6cccc(S(=O)(=O)[O-])c6F)c6ccc3[nH]6)C=C5)C=C4)cc2)cs1
REMARK SMILES IDX 17 1 16 2 14 3 15 4 13 5 8 6 9 7 10 9 12 10 11 11 7 12 6 13
REMARK SMILES IDX 4 14 5 15 86 16 85 17 3 18 2 19 1 20 18 21 19 22 20 23 21 24
REMARK SMILES IDX 22 25 23 26 84 27 24 28 83 29 25 30 26 31 27 32 77 33 28 34
REMARK SMILES IDX 82 35 76 36 78 37 29 38 81 39 75 40 74 41 30 43 62 44 42 45
REMARK SMILES IDX 61 46 43 47 46 48 60 49 79 50 44 51 45 52 59 54 80 55 47 56
REMARK SMILES IDX 31 57 32 58 40 59 33 60 35 61 41 62 34 63 36 64 37 65 38 66
REMARK SMILES IDX 39 67 63 68 64 69 72 70 65 71 67 72 73 73 66 74 68 75 69 76
REMARK SMILES IDX 70 77 71 78 48 79 49 80 57 81 50 82 52 83 58 84 51 85 53 86
REMARK SMILES IDX 54 87 55 88 56 89
REMARK H PARENT 8 8 78 42 46 53
REMARK Flexibility Score: inf
ROOT
ATOM      1  C   UNL A   1      32.046  29.697  24.520  1.00  0.00     0.274 C 
ENDROOT
BRANCH   1   2
ATOM      2  O   UNL A   1      33.161  28.832  24.813  1.00  0.00    -0.458 OA
BRANCH   2   3
ATOM      3  C   UNL A   1      33.359  27.810  23.937  1.00  0.00     0.365 C 
ATOM      4  O   UNL A   1      34.010  27.936  22.904  1.00  0.00    -0.245 OA
BRANCH   3   5
ATOM      5  C   UNL A   1      32.742  26.463  24.396  1.00  0.00     0.295 C 
ATOM      6  N   UNL A   1      31.260  26.404  24.211  1.00  0.00    -0.318 N 
ATOM      7  C   UNL A   1      30.708  25.101  24.637  1.00  0.00     0.263 C 
ATOM      8  H   UNL A   1      30.910  27.147  24.815  1.00  0.00     0.349 HD
ATOM      9  C   UNL A   1      31.090  24.733  26.070  1.00  0.00     0.062 C 
ATOM     10  C   UNL A   1      33.141  26.113  25.841  1.00  0.00     0.078 C 
ATOM     11  C   UNL A   1      32.599  24.751  26.252  1.00  0.00     0.013 C 
BRANCH   6  12
ATOM     12  C   UNL A   1      30.781  26.722  22.834  1.00  0.00     0.321 C 
BRANCH  12  13
ATOM     13  C   UNL A   1      29.702  27.776  22.761  1.00  0.00     0.106 A 
ATOM     14  C   UNL A   1      28.858  29.715  22.055  1.00  0.00     0.093 A 
ATOM     15  N   UNL A   1      29.914  28.924  21.993  1.00  0.00    -0.240 NA
ATOM     16  S   UNL A   1      27.657  29.219  23.175  1.00  0.00    -0.127 S 
ATOM     17  C   UNL A   1      28.454  27.730  23.352  1.00  0.00     0.096 A 
BRANCH  14  18
ATOM     18  C   UNL A   1      28.702  30.994  21.285  1.00  0.00     0.067 C 
BRANCH  18  19
ATOM     19  C   UNL A   1      27.969  32.115  22.036  1.00  0.00     0.004 C 
ATOM     20  C   UNL A   1      28.873  33.036  22.848  1.00  0.00     0.004 C 
ENDBRANCH  18  19
ENDBRANCH  14  18
ENDBRANCH  12  13
ENDBRANCH   6  12
ENDBRANCH   3   5
ENDBRANCH   2   3
ENDBRANCH   1   2
BRANCH   1  21
ATOM     21  C   UNL A   1      31.588  30.472  25.759  1.00  0.00     0.275 C 
BRANCH  21  22
ATOM     22  O   UNL A   1      32.514  30.351  26.856  1.00  0.00    -0.458 OA
BRANCH  22  23
ATOM     23  C   UNL A   1      33.158  31.494  27.195  1.00  0.00     0.338 C 
ATOM     24  O   UNL A   1      32.716  32.629  27.130  1.00  0.00    -0.246 OA
BRANCH  23  25
ATOM     25  C   UNL A   1      34.456  31.183  27.821  1.00  0.00     0.060 A 
ATOM     26  C   UNL A   1      34.644  29.880  28.291  1.00  0.00     0.016 A 
ATOM     27  C   UNL A   1      35.441  32.152  28.021  1.00  0.00     0.016 A 
ATOM     28  C   UNL A   1      35.827  29.529  28.936  1.00  0.00     0.010 A 
ATOM     29  C   UNL A   1      36.623  31.804  28.691  1.00  0.00     0.010 A 
ATOM     30  C   UNL A   1      36.820  30.490  29.151  1.00  0.00    -0.014 A 
BRANCH  30  31
ATOM     31  C   UNL A   1      38.021  30.115  29.936  1.00  0.00     0.031 A 
ATOM     32  C   UNL A   1      39.056  29.218  29.321  1.00  0.00     0.074 A 
ATOM     33  C   UNL A   1      38.208  30.616  31.171  1.00  0.00     0.049 A 
ATOM     34  N   UNL A   1      40.180  28.787  29.828  1.00  0.00    -0.248 NA
ATOM     35  C   UNL A   1      38.790  28.750  27.951  1.00  0.00     0.031 C 
ATOM     36  C   UNL A   1      37.291  31.521  31.859  1.00  0.00     0.029 A 
ATOM     37  N   UNL A   1      39.235  30.434  32.064  1.00  0.00    -0.354 N 
ATOM     38  C   UNL A   1      40.743  27.968  28.858  1.00  0.00     0.074 A 
ATOM     39  C   UNL A   1      39.841  27.973  27.725  1.00  0.00     0.031 C 
ATOM     40  C   UNL A   1      37.796  31.815  33.069  1.00  0.00     0.029 A 
ATOM     41  C   UNL A   1      39.059  31.103  33.251  1.00  0.00     0.049 A 
ATOM     42  H   UNL A   1      40.023  29.876  31.871  1.00  0.00     0.167 HD
ATOM     43  C   UNL A   1      41.907  27.278  28.903  1.00  0.00     0.034 A 
ATOM     44  C   UNL A   1      39.827  31.132  34.359  1.00  0.00     0.034 A 
ATOM     45  C   UNL A   1      42.810  27.281  30.022  1.00  0.00     0.049 A 
ATOM     46  C   UNL A   1      41.110  30.341  34.385  1.00  0.00     0.074 A 
ATOM     47  C   UNL A   1      44.009  26.603  30.161  1.00  0.00     0.029 A 
ATOM     48  N   UNL A   1      42.612  27.990  31.196  1.00  0.00    -0.354 N 
ATOM     49  N   UNL A   1      41.670  29.640  33.428  1.00  0.00    -0.248 NA
ATOM     50  C   UNL A   1      41.879  30.361  35.638  1.00  0.00     0.031 C 
ATOM     51  C   UNL A   1      44.530  26.893  31.427  1.00  0.00     0.029 A 
ATOM     52  C   UNL A   1      43.664  27.765  32.067  1.00  0.00     0.049 A 
ATOM     53  H   UNL A   1      41.838  28.569  31.382  1.00  0.00     0.167 HD
ATOM     54  C   UNL A   1      42.862  29.155  33.955  1.00  0.00     0.074 A 
ATOM     55  C   UNL A   1      42.961  29.671  35.306  1.00  0.00     0.031 C 
ATOM     56  C   UNL A   1      43.779  28.334  33.386  1.00  0.00     0.034 A 
BRANCH  43  57
ATOM     57  C   UNL A   1      42.272  26.463  27.693  1.00  0.00     0.023 A 
ATOM     58  C   UNL A   1      42.982  27.065  26.636  1.00  0.00     0.012 A 
ATOM     59  C   UNL A   1      41.943  25.095  27.619  1.00  0.00     0.148 A 
ATOM     60  C   UNL A   1      43.338  26.325  25.510  1.00  0.00     0.002 A 
ATOM     61  C   UNL A   1      42.333  24.355  26.508  1.00  0.00     0.091 A 
ATOM     62  F   UNL A   1      41.243  24.550  28.624  1.00  0.00    -0.205 F 
ATOM     63  C   UNL A   1      43.021  24.969  25.450  1.00  0.00     0.022 A 
BRANCH  61  64
ATOM     64  S   UNL A   1      42.021  22.592  26.370  1.00  0.00     0.127 S 
ATOM     65  O   UNL A   1      42.657  22.084  27.584  1.00  0.00    -0.237 OA
ATOM     66  O   UNL A   1      40.559  22.534  26.377  1.00  0.00    -0.237 OA
ATOM     67  O   UNL A   1      42.635  22.174  25.118  1.00  0.00    -0.744 OA
ENDBRANCH  61  64
ENDBRANCH  43  57
BRANCH  44  68
ATOM     68  C   UNL A   1      39.433  31.971  35.528  1.00  0.00     0.023 A 
ATOM     69  C   UNL A   1      38.588  31.428  36.515  1.00  0.00     0.012 A 
ATOM     70  C   UNL A   1      39.888  33.296  35.672  1.00  0.00     0.148 A 
ATOM     71  C   UNL A   1      38.183  32.193  37.608  1.00  0.00     0.002 A 
ATOM     72  C   UNL A   1      39.525  34.037  36.792  1.00  0.00     0.091 A 
ATOM     73  F   UNL A   1      40.664  33.812  34.709  1.00  0.00    -0.205 F 
ATOM     74  C   UNL A   1      38.660  33.492  37.754  1.00  0.00     0.022 A 
BRANCH  72  75
ATOM     75  S   UNL A   1      40.199  35.670  37.113  1.00  0.00     0.127 S 
ATOM     76  O   UNL A   1      39.648  36.445  36.005  1.00  0.00    -0.237 OA
ATOM     77  O   UNL A   1      39.633  35.984  38.426  1.00  0.00    -0.237 OA
ATOM     78  O   UNL A   1      41.645  35.497  37.115  1.00  0.00    -0.744 OA
ENDBRANCH  72  75
ENDBRANCH  44  68
BRANCH  56  79
ATOM     79  C   UNL A   1      44.984  27.952  34.207  1.00  0.00     0.023 A 
ATOM     80  C   UNL A   1      46.120  28.785  34.202  1.00  0.00     0.012 A 
ATOM     81  C   UNL A   1      44.963  26.819  35.042  1.00  0.00     0.148 A 
ATOM     82  C   UNL A   1      47.227  28.481  34.993  1.00  0.00     0.002 A 
ATOM     83  C   UNL A   1      46.052  26.546  35.863  1.00  0.00     0.091 A 
ATOM     84  F   UNL A   1      43.882  26.025  35.019  1.00  0.00    -0.205 F 
ATOM     85  C   UNL A   1      47.188  27.370  35.832  1.00  0.00     0.022 A 
BRANCH  83  86
ATOM     86  S   UNL A   1      46.049  25.189  37.040  1.00  0.00     0.127 S 
ATOM     87  O   UNL A   1      46.001  24.025  36.157  1.00  0.00    -0.237 OA
ATOM     88  O   UNL A   1      47.323  25.374  37.736  1.00  0.00    -0.237 OA
ATOM     89  O   UNL A   1      44.873  25.392  37.877  1.00  0.00    -0.744 OA
ENDBRANCH  83  86
ENDBRANCH  56  79
ENDBRANCH  30  31
ENDBRANCH  23  25
ENDBRANCH  22  23
ENDBRANCH  21  22
ENDBRANCH   1  21
TORSDOF 18
ENDMDL
