MODEL 1
REMARK VINA RESULT:     -10.5      0.000      0.000
REMARK SMILES C[C@H]([C@@H]1CCCO1)n1c(SCC(=O)OCCOC(=O)c2ccc(-c3c4nc(c(-c5cccc(S(=O)(=O)[O-])c5F)c5ccc([nH]5)c(-c5cccc(S(=O)(=O)[O-])c5F)c5nc(c(-c6cccc(S(=O)(=O)[O-])c6F)c6ccc3[nH]6)C=C5)C=C4)cc2)nc2cnccc21
REMARK SMILES IDX 15 1 14 2 12 3 13 4 11 5 10 6 9 7 8 8 89 9 83 10 84 11 88 12
REMARK SMILES IDX 85 13 87 14 86 15 2 16 1 17 3 18 4 19 7 20 5 21 6 22 16 23
REMARK SMILES IDX 17 24 18 25 19 26 20 27 21 28 82 29 22 30 81 31 23 32 24 33
REMARK SMILES IDX 25 34 75 35 26 36 80 37 74 38 76 39 27 40 79 41 73 42 72 43
REMARK SMILES IDX 28 45 60 46 40 47 59 48 41 49 44 50 58 51 77 52 42 53 43 54
REMARK SMILES IDX 57 56 78 57 45 58 29 59 30 60 38 61 31 62 33 63 39 64 32 65
REMARK SMILES IDX 34 66 35 67 36 68 37 69 61 70 62 71 70 72 63 73 65 74 71 75
REMARK SMILES IDX 64 76 66 77 67 78 68 79 69 80 46 81 47 82 55 83 48 84 50 85
REMARK SMILES IDX 56 86 49 87 51 88 52 89 53 90 54 91
REMARK H PARENT 76 44 44 55
REMARK Flexibility Score: inf
ROOT
ATOM      1  C   UNL A   1      42.238  28.946  25.914  1.00  0.00     0.274 C 
ENDROOT
BRANCH   1   2
ATOM      2  O   UNL A   1      43.078  28.992  27.101  1.00  0.00    -0.461 OA
BRANCH   2   3
ATOM      3  C   UNL A   1      44.425  29.110  26.910  1.00  0.00     0.316 C 
ATOM      4  O   UNL A   1      44.945  30.102  26.406  1.00  0.00    -0.251 OA
BRANCH   3   5
ATOM      5  C   UNL A   1      45.268  27.964  27.473  1.00  0.00     0.200 C 
BRANCH   5   6
ATOM      6  S   UNL A   1      44.443  26.404  27.763  1.00  0.00    -0.076 SA
BRANCH   6   7
ATOM      7  C   UNL A   1      44.509  25.192  26.504  1.00  0.00     0.170 A 
ATOM      8  N   UNL A   1      45.533  24.392  26.027  1.00  0.00    -0.313 N 
ATOM      9  C   UNL A   1      44.973  23.132  25.795  1.00  0.00     0.072 A 
ATOM     10  N   UNL A   1      43.344  24.653  26.171  1.00  0.00    -0.221 NA
ATOM     11  C   UNL A   1      43.607  23.362  25.796  1.00  0.00     0.108 A 
ATOM     12  C   UNL A   1      45.503  21.853  25.582  1.00  0.00     0.049 A 
ATOM     13  C   UNL A   1      42.742  22.300  25.507  1.00  0.00     0.141 A 
ATOM     14  C   UNL A   1      44.564  20.854  25.358  1.00  0.00     0.113 A 
ATOM     15  N   UNL A   1      43.227  21.044  25.302  1.00  0.00    -0.262 NA
BRANCH   8  16
ATOM     16  C   UNL A   1      46.958  24.619  25.821  1.00  0.00     0.116 C 
ATOM     17  C   UNL A   1      47.660  24.908  27.113  1.00  0.00     0.034 C 
BRANCH  16  18
ATOM     18  C   UNL A   1      47.370  25.528  24.651  1.00  0.00     0.141 C 
ATOM     19  C   UNL A   1      48.783  26.061  24.636  1.00  0.00     0.036 C 
ATOM     20  O   UNL A   1      46.505  26.658  24.496  1.00  0.00    -0.376 OA
ATOM     21  C   UNL A   1      48.684  27.215  23.677  1.00  0.00     0.031 C 
ATOM     22  C   UNL A   1      47.273  27.722  23.902  1.00  0.00     0.160 C 
ENDBRANCH  16  18
ENDBRANCH   8  16
ENDBRANCH   6   7
ENDBRANCH   5   6
ENDBRANCH   3   5
ENDBRANCH   2   3
ENDBRANCH   1   2
BRANCH   1  23
ATOM     23  C   UNL A   1      41.370  27.662  25.893  1.00  0.00     0.275 C 
BRANCH  23  24
ATOM     24  O   UNL A   1      40.467  27.682  27.026  1.00  0.00    -0.458 OA
BRANCH  24  25
ATOM     25  C   UNL A   1      40.149  26.498  27.633  1.00  0.00     0.338 C 
ATOM     26  O   UNL A   1      40.176  25.395  27.132  1.00  0.00    -0.246 OA
BRANCH  25  27
ATOM     27  C   UNL A   1      40.156  26.782  29.102  1.00  0.00     0.060 A 
ATOM     28  C   UNL A   1      38.989  26.626  29.856  1.00  0.00     0.016 A 
ATOM     29  C   UNL A   1      41.147  27.657  29.539  1.00  0.00     0.016 A 
ATOM     30  C   UNL A   1      38.654  27.591  30.811  1.00  0.00     0.010 A 
ATOM     31  C   UNL A   1      40.792  28.624  30.476  1.00  0.00     0.010 A 
ATOM     32  C   UNL A   1      39.488  28.694  31.000  1.00  0.00    -0.014 A 
BRANCH  32  33
ATOM     33  C   UNL A   1      39.097  29.847  31.838  1.00  0.00     0.031 A 
ATOM     34  C   UNL A   1      38.031  30.675  31.223  1.00  0.00     0.074 A 
ATOM     35  C   UNL A   1      39.445  30.195  33.101  1.00  0.00     0.049 A 
ATOM     36  N   UNL A   1      38.196  31.539  30.278  1.00  0.00    -0.248 NA
ATOM     37  C   UNL A   1      36.628  30.379  31.536  1.00  0.00     0.031 C 
ATOM     38  C   UNL A   1      40.151  29.457  34.153  1.00  0.00     0.029 A 
ATOM     39  N   UNL A   1      39.138  31.374  33.734  1.00  0.00    -0.354 N 
ATOM     40  C   UNL A   1      36.933  32.059  30.049  1.00  0.00     0.074 A 
ATOM     41  C   UNL A   1      36.001  31.122  30.622  1.00  0.00     0.031 C 
ATOM     42  C   UNL A   1      40.062  30.140  35.329  1.00  0.00     0.029 A 
ATOM     43  C   UNL A   1      39.447  31.437  35.091  1.00  0.00     0.049 A 
ATOM     44  H   UNL A   1      38.724  32.130  33.257  1.00  0.00     0.167 HD
ATOM     45  C   UNL A   1      36.740  33.350  29.664  1.00  0.00     0.034 A 
ATOM     46  C   UNL A   1      39.201  32.495  35.914  1.00  0.00     0.034 A 
ATOM     47  C   UNL A   1      37.985  34.039  29.446  1.00  0.00     0.049 A 
ATOM     48  C   UNL A   1      39.124  33.690  35.039  1.00  0.00     0.074 A 
ATOM     49  C   UNL A   1      39.099  33.841  28.653  1.00  0.00     0.029 A 
ATOM     50  N   UNL A   1      38.390  34.887  30.451  1.00  0.00    -0.354 N 
ATOM     51  N   UNL A   1      40.136  34.165  34.372  1.00  0.00    -0.248 NA
ATOM     52  C   UNL A   1      37.818  34.180  34.637  1.00  0.00     0.031 C 
ATOM     53  C   UNL A   1      40.208  34.172  29.489  1.00  0.00     0.029 A 
ATOM     54  C   UNL A   1      39.704  34.604  30.716  1.00  0.00     0.049 A 
ATOM     55  H   UNL A   1      37.839  35.572  30.896  1.00  0.00     0.167 HD
ATOM     56  C   UNL A   1      39.577  34.647  33.200  1.00  0.00     0.074 A 
ATOM     57  C   UNL A   1      38.146  34.742  33.472  1.00  0.00     0.031 C 
ATOM     58  C   UNL A   1      40.290  34.648  32.038  1.00  0.00     0.034 A 
BRANCH  45  59
ATOM     59  C   UNL A   1      35.450  34.101  29.822  1.00  0.00     0.023 A 
ATOM     60  C   UNL A   1      34.873  34.653  28.662  1.00  0.00     0.012 A 
ATOM     61  C   UNL A   1      34.883  34.457  31.064  1.00  0.00     0.148 A 
ATOM     62  C   UNL A   1      33.771  35.509  28.736  1.00  0.00     0.002 A 
ATOM     63  C   UNL A   1      33.732  35.228  31.127  1.00  0.00     0.091 A 
ATOM     64  F   UNL A   1      35.530  34.164  32.199  1.00  0.00    -0.205 F 
ATOM     65  C   UNL A   1      33.182  35.776  29.966  1.00  0.00     0.022 A 
BRANCH  63  66
ATOM     66  S   UNL A   1      32.903  35.541  32.688  1.00  0.00     0.127 S 
ATOM     67  O   UNL A   1      33.936  36.259  33.427  1.00  0.00    -0.237 OA
ATOM     68  O   UNL A   1      31.761  36.352  32.266  1.00  0.00    -0.237 OA
ATOM     69  O   UNL A   1      32.543  34.222  33.196  1.00  0.00    -0.744 OA
ENDBRANCH  63  66
ENDBRANCH  45  59
BRANCH  46  70
ATOM     70  C   UNL A   1      38.869  32.646  37.359  1.00  0.00     0.023 A 
ATOM     71  C   UNL A   1      39.354  33.777  38.065  1.00  0.00     0.012 A 
ATOM     72  C   UNL A   1      37.804  31.925  37.932  1.00  0.00     0.148 A 
ATOM     73  C   UNL A   1      38.744  34.225  39.245  1.00  0.00     0.002 A 
ATOM     74  C   UNL A   1      37.203  32.373  39.112  1.00  0.00     0.091 A 
ATOM     75  F   UNL A   1      37.315  30.871  37.267  1.00  0.00    -0.205 F 
ATOM     76  C   UNL A   1      37.655  33.533  39.759  1.00  0.00     0.022 A 
BRANCH  74  77
ATOM     77  S   UNL A   1      35.774  31.549  39.828  1.00  0.00     0.127 S 
ATOM     78  O   UNL A   1      35.870  30.208  39.253  1.00  0.00    -0.237 OA
ATOM     79  O   UNL A   1      36.065  31.626  41.257  1.00  0.00    -0.237 OA
ATOM     80  O   UNL A   1      34.618  32.315  39.374  1.00  0.00    -0.744 OA
ENDBRANCH  74  77
ENDBRANCH  46  70
BRANCH  58  81
ATOM     81  C   UNL A   1      41.776  34.401  32.119  1.00  0.00     0.023 A 
ATOM     82  C   UNL A   1      42.692  35.409  32.484  1.00  0.00     0.012 A 
ATOM     83  C   UNL A   1      42.229  33.078  32.000  1.00  0.00     0.148 A 
ATOM     84  C   UNL A   1      44.034  35.101  32.727  1.00  0.00     0.002 A 
ATOM     85  C   UNL A   1      43.554  32.769  32.280  1.00  0.00     0.091 A 
ATOM     86  F   UNL A   1      41.340  32.135  31.650  1.00  0.00    -0.205 F 
ATOM     87  C   UNL A   1      44.461  33.778  32.641  1.00  0.00     0.022 A 
BRANCH  85  88
ATOM     88  S   UNL A   1      44.151  31.077  32.294  1.00  0.00     0.127 S 
ATOM     89  O   UNL A   1      43.285  30.456  33.294  1.00  0.00    -0.237 OA
ATOM     90  O   UNL A   1      43.899  30.653  30.916  1.00  0.00    -0.237 OA
ATOM     91  O   UNL A   1      45.561  31.146  32.653  1.00  0.00    -0.744 OA
ENDBRANCH  85  88
ENDBRANCH  58  81
ENDBRANCH  32  33
ENDBRANCH  25  27
ENDBRANCH  24  25
ENDBRANCH  23  24
ENDBRANCH   1  23
TORSDOF 18
ENDMDL
MODEL 2
REMARK VINA RESULT:     -10.4      5.129     10.987
REMARK SMILES C[C@H]([C@@H]1CCCO1)n1c(SCC(=O)OCCOC(=O)c2ccc(-c3c4nc(c(-c5cccc(S(=O)(=O)[O-])c5F)c5ccc([nH]5)c(-c5cccc(S(=O)(=O)[O-])c5F)c5nc(c(-c6cccc(S(=O)(=O)[O-])c6F)c6ccc3[nH]6)C=C5)C=C4)cc2)nc2cnccc21
REMARK SMILES IDX 15 1 14 2 12 3 13 4 11 5 10 6 9 7 8 8 89 9 83 10 84 11 88 12
REMARK SMILES IDX 85 13 87 14 86 15 2 16 1 17 3 18 4 19 7 20 5 21 6 22 16 23
REMARK SMILES IDX 17 24 18 25 19 26 20 27 21 28 82 29 22 30 81 31 23 32 24 33
REMARK SMILES IDX 25 34 75 35 26 36 80 37 74 38 76 39 27 40 79 41 73 42 72 43
REMARK SMILES IDX 28 45 60 46 40 47 59 48 41 49 44 50 58 51 77 52 42 53 43 54
REMARK SMILES IDX 57 56 78 57 45 58 29 59 30 60 38 61 31 62 33 63 39 64 32 65
REMARK SMILES IDX 34 66 35 67 36 68 37 69 61 70 62 71 70 72 63 73 65 74 71 75
REMARK SMILES IDX 64 76 66 77 67 78 68 79 69 80 46 81 47 82 55 83 48 84 50 85
REMARK SMILES IDX 56 86 49 87 51 88 52 89 53 90 54 91
REMARK H PARENT 76 44 44 55
REMARK Flexibility Score: inf
ROOT
ATOM      1  C   UNL A   1      34.344  33.637  28.426  1.00  0.00     0.274 C 
ENDROOT
BRANCH   1   2
ATOM      2  O   UNL A   1      33.327  32.737  27.905  1.00  0.00    -0.461 OA
BRANCH   2   3
ATOM      3  C   UNL A   1      33.729  31.484  27.536  1.00  0.00     0.316 C 
ATOM      4  O   UNL A   1      34.850  31.044  27.778  1.00  0.00    -0.251 OA
BRANCH   3   5
ATOM      5  C   UNL A   1      32.647  30.613  26.896  1.00  0.00     0.200 C 
BRANCH   5   6
ATOM      6  S   UNL A   1      33.181  29.126  26.057  1.00  0.00    -0.076 SA
BRANCH   6   7
ATOM      7  C   UNL A   1      31.961  27.971  25.573  1.00  0.00     0.170 A 
ATOM      8  N   UNL A   1      31.550  27.506  24.336  1.00  0.00    -0.313 N 
ATOM      9  C   UNL A   1      31.331  26.133  24.485  1.00  0.00     0.072 A 
ATOM     10  N   UNL A   1      31.594  27.106  26.508  1.00  0.00    -0.221 NA
ATOM     11  C   UNL A   1      31.267  25.946  25.856  1.00  0.00     0.108 A 
ATOM     12  C   UNL A   1      31.176  25.067  23.590  1.00  0.00     0.049 A 
ATOM     13  C   UNL A   1      30.971  24.670  26.352  1.00  0.00     0.141 A 
ATOM     14  C   UNL A   1      30.941  23.831  24.178  1.00  0.00     0.113 A 
ATOM     15  N   UNL A   1      30.823  23.613  25.507  1.00  0.00    -0.262 NA
BRANCH   8  16
ATOM     16  C   UNL A   1      31.399  28.144  23.034  1.00  0.00     0.116 C 
ATOM     17  C   UNL A   1      32.531  29.082  22.748  1.00  0.00     0.034 C 
BRANCH  16  18
ATOM     18  C   UNL A   1      30.008  28.687  22.668  1.00  0.00     0.141 C 
ATOM     19  C   UNL A   1      29.614  30.041  23.209  1.00  0.00     0.036 C 
ATOM     20  O   UNL A   1      28.952  27.785  23.015  1.00  0.00    -0.376 OA
ATOM     21  C   UNL A   1      28.118  30.027  23.057  1.00  0.00     0.031 C 
ATOM     22  C   UNL A   1      27.769  28.568  23.266  1.00  0.00     0.160 C 
ENDBRANCH  16  18
ENDBRANCH   8  16
ENDBRANCH   6   7
ENDBRANCH   5   6
ENDBRANCH   3   5
ENDBRANCH   2   3
ENDBRANCH   1   2
BRANCH   1  23
ATOM     23  C   UNL A   1      33.702  34.894  29.068  1.00  0.00     0.275 C 
BRANCH  23  24
ATOM     24  O   UNL A   1      33.181  34.545  30.374  1.00  0.00    -0.458 OA
BRANCH  24  25
ATOM     25  C   UNL A   1      33.391  35.405  31.416  1.00  0.00     0.338 C 
ATOM     26  O   UNL A   1      32.712  36.363  31.715  1.00  0.00    -0.246 OA
BRANCH  25  27
ATOM     27  C   UNL A   1      34.358  34.713  32.324  1.00  0.00     0.060 A 
ATOM     28  C   UNL A   1      35.554  35.338  32.690  1.00  0.00     0.016 A 
ATOM     29  C   UNL A   1      34.273  33.323  32.342  1.00  0.00     0.016 A 
ATOM     30  C   UNL A   1      36.740  34.597  32.706  1.00  0.00     0.010 A 
ATOM     31  C   UNL A   1      35.464  32.600  32.339  1.00  0.00     0.010 A 
ATOM     32  C   UNL A   1      36.715  33.246  32.359  1.00  0.00    -0.014 A 
BRANCH  32  33
ATOM     33  C   UNL A   1      37.947  32.457  32.157  1.00  0.00     0.031 A 
ATOM     34  C   UNL A   1      38.764  32.332  33.389  1.00  0.00     0.074 A 
ATOM     35  C   UNL A   1      38.385  31.734  31.096  1.00  0.00     0.049 A 
ATOM     36  N   UNL A   1      39.539  33.242  33.876  1.00  0.00    -0.248 NA
ATOM     37  C   UNL A   1      38.552  31.180  34.272  1.00  0.00     0.031 C 
ATOM     38  C   UNL A   1      37.709  31.302  29.869  1.00  0.00     0.029 A 
ATOM     39  N   UNL A   1      39.624  31.158  30.960  1.00  0.00    -0.354 N 
ATOM     40  C   UNL A   1      40.089  32.669  35.011  1.00  0.00     0.074 A 
ATOM     41  C   UNL A   1      39.240  31.556  35.351  1.00  0.00     0.031 C 
ATOM     42  C   UNL A   1      38.490  30.401  29.209  1.00  0.00     0.029 A 
ATOM     43  C   UNL A   1      39.786  30.312  29.864  1.00  0.00     0.049 A 
ATOM     44  H   UNL A   1      40.353  31.333  31.598  1.00  0.00     0.167 HD
ATOM     45  C   UNL A   1      41.350  32.960  35.431  1.00  0.00     0.034 A 
ATOM     46  C   UNL A   1      40.919  29.618  29.557  1.00  0.00     0.034 A 
ATOM     47  C   UNL A   1      41.968  33.975  34.619  1.00  0.00     0.049 A 
ATOM     48  C   UNL A   1      42.039  30.351  30.196  1.00  0.00     0.074 A 
ATOM     49  C   UNL A   1      41.660  35.271  34.252  1.00  0.00     0.029 A 
ATOM     50  N   UNL A   1      42.880  33.532  33.688  1.00  0.00    -0.354 N 
ATOM     51  N   UNL A   1      42.416  31.547  29.843  1.00  0.00    -0.248 NA
ATOM     52  C   UNL A   1      42.546  29.881  31.472  1.00  0.00     0.031 C 
ATOM     53  C   UNL A   1      42.015  35.357  32.872  1.00  0.00     0.029 A 
ATOM     54  C   UNL A   1      42.566  34.131  32.496  1.00  0.00     0.049 A 
ATOM     55  H   UNL A   1      43.621  32.903  33.849  1.00  0.00     0.167 HD
ATOM     56  C   UNL A   1      42.821  32.140  31.027  1.00  0.00     0.074 A 
ATOM     57  C   UNL A   1      42.995  31.036  31.966  1.00  0.00     0.031 C 
ATOM     58  C   UNL A   1      42.697  33.486  31.208  1.00  0.00     0.034 A 
BRANCH  45  59
ATOM     59  C   UNL A   1      42.163  32.092  36.346  1.00  0.00     0.023 A 
ATOM     60  C   UNL A   1      42.795  32.714  37.441  1.00  0.00     0.012 A 
ATOM     61  C   UNL A   1      42.496  30.747  36.081  1.00  0.00     0.148 A 
ATOM     62  C   UNL A   1      43.705  32.021  38.244  1.00  0.00     0.002 A 
ATOM     63  C   UNL A   1      43.326  30.036  36.936  1.00  0.00     0.091 A 
ATOM     64  F   UNL A   1      42.121  30.184  34.926  1.00  0.00    -0.205 F 
ATOM     65  C   UNL A   1      43.952  30.674  38.009  1.00  0.00     0.022 A 
BRANCH  63  66
ATOM     66  S   UNL A   1      43.616  28.280  36.706  1.00  0.00     0.127 S 
ATOM     67  O   UNL A   1      44.339  28.268  35.438  1.00  0.00    -0.237 OA
ATOM     68  O   UNL A   1      44.419  27.950  37.883  1.00  0.00    -0.237 OA
ATOM     69  O   UNL A   1      42.290  27.674  36.699  1.00  0.00    -0.744 OA
ENDBRANCH  63  66
ENDBRANCH  45  59
BRANCH  46  70
ATOM     70  C   UNL A   1      41.202  28.309  28.905  1.00  0.00     0.023 A 
ATOM     71  C   UNL A   1      40.367  27.199  29.193  1.00  0.00     0.012 A 
ATOM     72  C   UNL A   1      42.010  28.238  27.754  1.00  0.00     0.148 A 
ATOM     73  C   UNL A   1      40.273  26.104  28.323  1.00  0.00     0.002 A 
ATOM     74  C   UNL A   1      41.916  27.141  26.893  1.00  0.00     0.091 A 
ATOM     75  F   UNL A   1      42.784  29.287  27.451  1.00  0.00    -0.205 F 
ATOM     76  C   UNL A   1      41.033  26.084  27.162  1.00  0.00     0.022 A 
BRANCH  74  77
ATOM     77  S   UNL A   1      42.847  27.050  25.357  1.00  0.00     0.127 S 
ATOM     78  O   UNL A   1      42.375  28.233  24.638  1.00  0.00    -0.237 OA
ATOM     79  O   UNL A   1      44.225  27.132  25.834  1.00  0.00    -0.237 OA
ATOM     80  O   UNL A   1      42.463  25.783  24.745  1.00  0.00    -0.744 OA
ENDBRANCH  74  77
ENDBRANCH  46  70
BRANCH  58  81
ATOM     81  C   UNL A   1      42.397  34.338  30.000  1.00  0.00     0.023 A 
ATOM     82  C   UNL A   1      41.081  34.610  29.574  1.00  0.00     0.012 A 
ATOM     83  C   UNL A   1      43.465  35.020  29.396  1.00  0.00     0.148 A 
ATOM     84  C   UNL A   1      40.836  35.549  28.566  1.00  0.00     0.002 A 
ATOM     85  C   UNL A   1      43.215  35.980  28.423  1.00  0.00     0.091 A 
ATOM     86  F   UNL A   1      44.709  34.744  29.816  1.00  0.00    -0.205 F 
ATOM     87  C   UNL A   1      41.902  36.245  28.003  1.00  0.00     0.022 A 
BRANCH  85  88
ATOM     88  S   UNL A   1      44.525  36.990  27.729  1.00  0.00     0.127 S 
ATOM     89  O   UNL A   1      45.156  37.539  28.929  1.00  0.00    -0.237 OA
ATOM     90  O   UNL A   1      45.329  35.999  27.014  1.00  0.00    -0.237 OA
ATOM     91  O   UNL A   1      43.873  37.969  26.870  1.00  0.00    -0.744 OA
ENDBRANCH  85  88
ENDBRANCH  58  81
ENDBRANCH  32  33
ENDBRANCH  25  27
ENDBRANCH  24  25
ENDBRANCH  23  24
ENDBRANCH   1  23
TORSDOF 18
ENDMDL
MODEL 3
REMARK VINA RESULT:     -10.2      5.695     12.056
REMARK SMILES C[C@H]([C@@H]1CCCO1)n1c(SCC(=O)OCCOC(=O)c2ccc(-c3c4nc(c(-c5cccc(S(=O)(=O)[O-])c5F)c5ccc([nH]5)c(-c5cccc(S(=O)(=O)[O-])c5F)c5nc(c(-c6cccc(S(=O)(=O)[O-])c6F)c6ccc3[nH]6)C=C5)C=C4)cc2)nc2cnccc21
REMARK SMILES IDX 15 1 14 2 12 3 13 4 11 5 10 6 9 7 8 8 89 9 83 10 84 11 88 12
REMARK SMILES IDX 85 13 87 14 86 15 2 16 1 17 3 18 4 19 7 20 5 21 6 22 16 23
REMARK SMILES IDX 17 24 18 25 19 26 20 27 21 28 82 29 22 30 81 31 23 32 24 33
REMARK SMILES IDX 25 34 75 35 26 36 80 37 74 38 76 39 27 40 79 41 73 42 72 43
REMARK SMILES IDX 28 45 60 46 40 47 59 48 41 49 44 50 58 51 77 52 42 53 43 54
REMARK SMILES IDX 57 56 78 57 45 58 29 59 30 60 38 61 31 62 33 63 39 64 32 65
REMARK SMILES IDX 34 66 35 67 36 68 37 69 61 70 62 71 70 72 63 73 65 74 71 75
REMARK SMILES IDX 64 76 66 77 67 78 68 79 69 80 46 81 47 82 55 83 48 84 50 85
REMARK SMILES IDX 56 86 49 87 51 88 52 89 53 90 54 91
REMARK H PARENT 76 44 44 55
REMARK Flexibility Score: inf
ROOT
ATOM      1  C   UNL A   1      32.813  32.213  27.216  1.00  0.00     0.274 C 
ENDROOT
BRANCH   1   2
ATOM      2  O   UNL A   1      32.985  30.798  27.502  1.00  0.00    -0.461 OA
BRANCH   2   3
ATOM      3  C   UNL A   1      32.474  29.910  26.598  1.00  0.00     0.316 C 
ATOM      4  O   UNL A   1      31.529  30.176  25.860  1.00  0.00    -0.251 OA
BRANCH   3   5
ATOM      5  C   UNL A   1      33.233  28.587  26.481  1.00  0.00     0.200 C 
BRANCH   5   6
ATOM      6  S   UNL A   1      33.576  27.980  24.834  1.00  0.00    -0.076 SA
BRANCH   6   7
ATOM      7  C   UNL A   1      32.230  27.767  23.738  1.00  0.00     0.170 A 
ATOM      8  N   UNL A   1      31.054  27.042  23.830  1.00  0.00    -0.313 N 
ATOM      9  C   UNL A   1      30.052  27.845  23.279  1.00  0.00     0.072 A 
ATOM     10  N   UNL A   1      32.089  28.711  22.819  1.00  0.00    -0.221 NA
ATOM     11  C   UNL A   1      30.745  28.817  22.575  1.00  0.00     0.108 A 
ATOM     12  C   UNL A   1      28.652  27.820  23.313  1.00  0.00     0.049 A 
ATOM     13  C   UNL A   1      30.023  29.752  21.824  1.00  0.00     0.141 A 
ATOM     14  C   UNL A   1      28.025  28.821  22.582  1.00  0.00     0.113 A 
ATOM     15  N   UNL A   1      28.662  29.758  21.843  1.00  0.00    -0.262 NA
BRANCH   8  16
ATOM     16  C   UNL A   1      30.728  25.746  24.413  1.00  0.00     0.116 C 
ATOM     17  C   UNL A   1      30.591  25.833  25.902  1.00  0.00     0.034 C 
BRANCH  16  18
ATOM     18  C   UNL A   1      31.517  24.525  23.912  1.00  0.00     0.141 C 
ATOM     19  C   UNL A   1      32.792  24.163  24.636  1.00  0.00     0.036 C 
ATOM     20  O   UNL A   1      31.846  24.609  22.522  1.00  0.00    -0.376 OA
ATOM     21  C   UNL A   1      33.491  23.278  23.640  1.00  0.00     0.031 C 
ATOM     22  C   UNL A   1      33.056  23.858  22.308  1.00  0.00     0.160 C 
ENDBRANCH  16  18
ENDBRANCH   8  16
ENDBRANCH   6   7
ENDBRANCH   5   6
ENDBRANCH   3   5
ENDBRANCH   2   3
ENDBRANCH   1   2
BRANCH   1  23
ATOM     23  C   UNL A   1      33.541  33.089  28.268  1.00  0.00     0.275 C 
BRANCH  23  24
ATOM     24  O   UNL A   1      34.598  32.311  28.882  1.00  0.00    -0.458 OA
BRANCH  24  25
ATOM     25  C   UNL A   1      35.881  32.483  28.440  1.00  0.00     0.338 C 
ATOM     26  O   UNL A   1      36.249  33.214  27.547  1.00  0.00    -0.246 OA
BRANCH  25  27
ATOM     27  C   UNL A   1      36.758  31.916  29.512  1.00  0.00     0.060 A 
ATOM     28  C   UNL A   1      38.060  32.394  29.684  1.00  0.00     0.016 A 
ATOM     29  C   UNL A   1      36.435  30.628  29.932  1.00  0.00     0.016 A 
ATOM     30  C   UNL A   1      39.100  31.488  29.916  1.00  0.00     0.010 A 
ATOM     31  C   UNL A   1      37.482  29.733  30.141  1.00  0.00     0.010 A 
ATOM     32  C   UNL A   1      38.824  30.122  29.976  1.00  0.00    -0.014 A 
BRANCH  32  33
ATOM     33  C   UNL A   1      39.891  29.101  30.014  1.00  0.00     0.031 A 
ATOM     34  C   UNL A   1      40.445  28.892  31.374  1.00  0.00     0.074 A 
ATOM     35  C   UNL A   1      40.349  28.247  29.065  1.00  0.00     0.049 A 
ATOM     36  N   UNL A   1      41.293  29.662  31.970  1.00  0.00    -0.248 NA
ATOM     37  C   UNL A   1      39.861  27.855  32.231  1.00  0.00     0.031 C 
ATOM     38  C   UNL A   1      39.818  27.884  27.748  1.00  0.00     0.029 A 
ATOM     39  N   UNL A   1      41.452  27.437  29.164  1.00  0.00    -0.354 N 
ATOM     40  C   UNL A   1      41.517  29.060  33.197  1.00  0.00     0.074 A 
ATOM     41  C   UNL A   1      40.418  28.152  33.407  1.00  0.00     0.031 C 
ATOM     42  C   UNL A   1      40.504  26.812  27.257  1.00  0.00     0.029 A 
ATOM     43  C   UNL A   1      41.626  26.514  28.134  1.00  0.00     0.049 A 
ATOM     44  H   UNL A   1      42.083  27.504  29.918  1.00  0.00     0.167 HD
ATOM     45  C   UNL A   1      42.720  29.126  33.828  1.00  0.00     0.034 A 
ATOM     46  C   UNL A   1      42.633  25.598  28.049  1.00  0.00     0.034 A 
ATOM     47  C   UNL A   1      43.658  29.955  33.116  1.00  0.00     0.049 A 
ATOM     48  C   UNL A   1      43.752  26.137  28.859  1.00  0.00     0.074 A 
ATOM     49  C   UNL A   1      43.681  31.263  32.670  1.00  0.00     0.029 A 
ATOM     50  N   UNL A   1      44.607  29.292  32.372  1.00  0.00    -0.354 N 
ATOM     51  N   UNL A   1      44.414  27.216  28.551  1.00  0.00    -0.248 NA
ATOM     52  C   UNL A   1      43.931  25.652  30.216  1.00  0.00     0.031 C 
ATOM     53  C   UNL A   1      44.274  31.199  31.373  1.00  0.00     0.029 A 
ATOM     54  C   UNL A   1      44.625  29.870  31.130  1.00  0.00     0.049 A 
ATOM     55  H   UNL A   1      45.169  28.542  32.676  1.00  0.00     0.167 HD
ATOM     56  C   UNL A   1      44.723  27.787  29.774  1.00  0.00     0.074 A 
ATOM     57  C   UNL A   1      44.512  26.726  30.755  1.00  0.00     0.031 C 
ATOM     58  C   UNL A   1      44.841  29.139  29.900  1.00  0.00     0.034 A 
BRANCH  45  59
ATOM     59  C   UNL A   1      43.176  28.172  34.893  1.00  0.00     0.023 A 
ATOM     60  C   UNL A   1      43.612  28.721  36.114  1.00  0.00     0.012 A 
ATOM     61  C   UNL A   1      43.382  26.791  34.690  1.00  0.00     0.148 A 
ATOM     62  C   UNL A   1      44.212  27.926  37.095  1.00  0.00     0.002 A 
ATOM     63  C   UNL A   1      43.889  25.989  35.702  1.00  0.00     0.091 A 
ATOM     64  F   UNL A   1      43.215  26.266  33.469  1.00  0.00    -0.205 F 
ATOM     65  C   UNL A   1      44.327  26.555  36.901  1.00  0.00     0.022 A 
BRANCH  63  66
ATOM     66  S   UNL A   1      43.992  24.207  35.517  1.00  0.00     0.127 S 
ATOM     67  O   UNL A   1      44.546  23.811  36.808  1.00  0.00    -0.237 OA
ATOM     68  O   UNL A   1      42.591  23.845  35.304  1.00  0.00    -0.237 OA
ATOM     69  O   UNL A   1      44.846  23.996  34.355  1.00  0.00    -0.744 OA
ENDBRANCH  63  66
ENDBRANCH  45  59
BRANCH  46  70
ATOM     70  C   UNL A   1      42.755  24.223  27.487  1.00  0.00     0.023 A 
ATOM     71  C   UNL A   1      41.601  23.403  27.412  1.00  0.00     0.012 A 
ATOM     72  C   UNL A   1      43.865  23.864  26.699  1.00  0.00     0.148 A 
ATOM     73  C   UNL A   1      41.522  22.323  26.521  1.00  0.00     0.002 A 
ATOM     74  C   UNL A   1      43.783  22.783  25.816  1.00  0.00     0.091 A 
ATOM     75  F   UNL A   1      44.954  24.643  26.736  1.00  0.00    -0.205 F 
ATOM     76  C   UNL A   1      42.608  22.025  25.708  1.00  0.00     0.022 A 
BRANCH  74  77
ATOM     77  S   UNL A   1      45.135  22.348  24.713  1.00  0.00     0.127 S 
ATOM     78  O   UNL A   1      46.215  22.043  25.651  1.00  0.00    -0.237 OA
ATOM     79  O   UNL A   1      44.589  21.191  24.008  1.00  0.00    -0.237 OA
ATOM     80  O   UNL A   1      45.366  23.535  23.897  1.00  0.00    -0.744 OA
ENDBRANCH  74  77
ENDBRANCH  46  70
BRANCH  58  81
ATOM     81  C   UNL A   1      44.927  29.962  28.639  1.00  0.00     0.023 A 
ATOM     82  C   UNL A   1      43.793  30.274  27.860  1.00  0.00     0.012 A 
ATOM     83  C   UNL A   1      46.151  30.581  28.340  1.00  0.00     0.148 A 
ATOM     84  C   UNL A   1      43.880  31.187  26.805  1.00  0.00     0.002 A 
ATOM     85  C   UNL A   1      46.225  31.517  27.316  1.00  0.00     0.091 A 
ATOM     86  F   UNL A   1      47.217  30.268  29.093  1.00  0.00    -0.205 F 
ATOM     87  C   UNL A   1      45.092  31.821  26.544  1.00  0.00     0.022 A 
BRANCH  85  88
ATOM     88  S   UNL A   1      47.723  32.449  26.991  1.00  0.00     0.127 S 
ATOM     89  O   UNL A   1      48.641  31.405  26.540  1.00  0.00    -0.237 OA
ATOM     90  O   UNL A   1      47.285  33.374  25.944  1.00  0.00    -0.237 OA
ATOM     91  O   UNL A   1      48.084  33.091  28.247  1.00  0.00    -0.744 OA
ENDBRANCH  85  88
ENDBRANCH  58  81
ENDBRANCH  32  33
ENDBRANCH  25  27
ENDBRANCH  24  25
ENDBRANCH  23  24
ENDBRANCH   1  23
TORSDOF 18
ENDMDL
