MODEL 1
REMARK VINA RESULT:     -10.3      0.000      0.000
REMARK SMILES C=CC[N@@H+](CC(=O)OCCOC(=O)c1ccc(-c2c3nc(c(-c4cccc(S(=O)(=O)[O-])c4F)c4ccc([nH]4)c(-c4cccc(S(=O)(=O)[O-])c4F)c4nc(c(-c5cccc(S(=O)(=O)[O-])c5F)c5ccc2[nH]5)C=C4)C=C3)cc1)C[C@H]1CCC[C@H](C)C1
REMARK SMILES IDX 9 1 8 2 6 3 7 4 5 5 4 6 3 8 2 9 1 10 77 11 78 12 79 13 84 14
REMARK SMILES IDX 80 15 82 16 81 17 83 18 10 19 11 20 12 21 13 22 14 23 15 24
REMARK SMILES IDX 76 25 16 26 75 27 17 28 18 29 19 30 69 31 20 32 74 33 68 34
REMARK SMILES IDX 70 35 21 36 73 37 67 38 66 39 22 41 54 42 34 43 53 44 35 45
REMARK SMILES IDX 38 46 52 47 71 48 36 49 37 50 51 52 72 53 39 54 23 55 24 56
REMARK SMILES IDX 32 57 25 58 27 59 33 60 26 61 28 62 29 63 30 64 31 65 55 66
REMARK SMILES IDX 56 67 64 68 57 69 59 70 65 71 58 72 60 73 61 74 62 75 63 76
REMARK SMILES IDX 40 77 41 78 49 79 42 80 44 81 50 82 43 83 45 84 46 85 47 86
REMARK SMILES IDX 48 87
REMARK H PARENT 4 7 70 40 38 51
REMARK Flexibility Score: inf
ROOT
ATOM      1  C   UNL A   1      31.345  28.566  25.938  1.00  0.00     0.274 C 
ENDROOT
BRANCH   1   2
ATOM      2  O   UNL A   1      32.533  27.750  25.879  1.00  0.00    -0.458 OA
BRANCH   2   3
ATOM      3  C   UNL A   1      32.468  26.630  25.114  1.00  0.00     0.361 C 
ATOM      4  O   UNL A   1      32.552  26.630  23.890  1.00  0.00    -0.245 OA
BRANCH   3   5
ATOM      5  C   UNL A   1      32.180  25.350  25.899  1.00  0.00     0.386 C 
BRANCH   5   6
ATOM      6  N   UNL A   1      32.656  24.055  25.355  1.00  0.00    -0.322 N 
ATOM      7  H   UNL A   1      33.464  24.285  24.776  1.00  0.00     0.348 HD
BRANCH   6   8
ATOM      8  C   UNL A   1      31.688  23.428  24.453  1.00  0.00     0.290 C 
BRANCH   8   9
ATOM      9  C   UNL A   1      32.341  22.906  23.204  1.00  0.00     0.025 C 
ATOM     10  C   UNL A   1      32.211  21.647  22.765  1.00  0.00     0.010 C 
ENDBRANCH   8   9
ENDBRANCH   6   8
BRANCH   6  11
ATOM     11  C   UNL A   1      33.185  23.141  26.380  1.00  0.00     0.266 C 
BRANCH  11  12
ATOM     12  C   UNL A   1      34.691  22.825  26.176  1.00  0.00     0.044 C 
ATOM     13  C   UNL A   1      34.926  21.392  25.663  1.00  0.00     0.009 C 
ATOM     14  C   UNL A   1      35.300  23.856  25.204  1.00  0.00     0.012 C 
ATOM     15  C   UNL A   1      36.382  21.113  25.299  1.00  0.00     0.001 C 
ATOM     16  C   UNL A   1      36.771  23.586  24.849  1.00  0.00    -0.014 C 
ATOM     17  C   UNL A   1      36.942  22.153  24.335  1.00  0.00     0.003 C 
ATOM     18  C   UNL A   1      37.710  23.883  26.022  1.00  0.00     0.007 C 
ENDBRANCH  11  12
ENDBRANCH   6  11
ENDBRANCH   5   6
ENDBRANCH   3   5
ENDBRANCH   2   3
ENDBRANCH   1   2
BRANCH   1  19
ATOM     19  C   UNL A   1      31.671  29.998  25.527  1.00  0.00     0.275 C 
BRANCH  19  20
ATOM     20  O   UNL A   1      33.046  30.272  25.837  1.00  0.00    -0.458 OA
BRANCH  20  21
ATOM     21  C   UNL A   1      33.260  31.126  26.861  1.00  0.00     0.338 C 
ATOM     22  O   UNL A   1      32.518  32.006  27.261  1.00  0.00    -0.246 OA
BRANCH  21  23
ATOM     23  C   UNL A   1      34.577  30.847  27.453  1.00  0.00     0.060 A 
ATOM     24  C   UNL A   1      34.948  29.543  27.799  1.00  0.00     0.016 A 
ATOM     25  C   UNL A   1      35.414  31.923  27.743  1.00  0.00     0.016 A 
ATOM     26  C   UNL A   1      36.137  29.320  28.492  1.00  0.00     0.010 A 
ATOM     27  C   UNL A   1      36.634  31.687  28.371  1.00  0.00     0.010 A 
ATOM     28  C   UNL A   1      36.993  30.390  28.778  1.00  0.00    -0.014 A 
BRANCH  28  29
ATOM     29  C   UNL A   1      38.266  30.201  29.517  1.00  0.00     0.031 A 
ATOM     30  C   UNL A   1      39.311  29.276  28.959  1.00  0.00     0.074 A 
ATOM     31  C   UNL A   1      38.435  30.767  30.727  1.00  0.00     0.049 A 
ATOM     32  N   UNL A   1      40.361  28.766  29.544  1.00  0.00    -0.248 NA
ATOM     33  C   UNL A   1      39.140  28.858  27.556  1.00  0.00     0.031 C 
ATOM     34  C   UNL A   1      37.501  31.695  31.368  1.00  0.00     0.029 A 
ATOM     35  N   UNL A   1      39.431  30.602  31.657  1.00  0.00    -0.354 N 
ATOM     36  C   UNL A   1      40.943  27.921  28.606  1.00  0.00     0.074 A 
ATOM     37  C   UNL A   1      40.139  27.998  27.407  1.00  0.00     0.031 C 
ATOM     38  C   UNL A   1      37.949  31.989  32.598  1.00  0.00     0.029 A 
ATOM     39  C   UNL A   1      39.165  31.225  32.855  1.00  0.00     0.049 A 
ATOM     40  H   UNL A   1      40.254  30.088  31.485  1.00  0.00     0.167 HD
ATOM     41  C   UNL A   1      42.051  27.154  28.736  1.00  0.00     0.034 A 
ATOM     42  C   UNL A   1      39.799  31.147  34.042  1.00  0.00     0.034 A 
ATOM     43  C   UNL A   1      42.867  27.114  29.918  1.00  0.00     0.049 A 
ATOM     44  C   UNL A   1      41.018  30.275  34.165  1.00  0.00     0.074 A 
ATOM     45  C   UNL A   1      44.028  26.395  30.138  1.00  0.00     0.029 A 
ATOM     46  N   UNL A   1      42.609  27.826  31.079  1.00  0.00    -0.354 N 
ATOM     47  N   UNL A   1      41.598  29.538  33.249  1.00  0.00    -0.248 NA
ATOM     48  C   UNL A   1      41.679  30.235  35.476  1.00  0.00     0.031 C 
ATOM     49  C   UNL A   1      44.469  26.667  31.437  1.00  0.00     0.029 A 
ATOM     50  C   UNL A   1      43.588  27.566  32.020  1.00  0.00     0.049 A 
ATOM     51  H   UNL A   1      41.842  28.429  31.213  1.00  0.00     0.167 HD
ATOM     52  C   UNL A   1      42.714  28.978  33.861  1.00  0.00     0.074 A 
ATOM     53  C   UNL A   1      42.733  29.468  35.225  1.00  0.00     0.031 C 
ATOM     54  C   UNL A   1      43.631  28.125  33.346  1.00  0.00     0.034 A 
BRANCH  41  55
ATOM     55  C   UNL A   1      42.464  26.315  27.557  1.00  0.00     0.023 A 
ATOM     56  C   UNL A   1      43.274  26.880  26.553  1.00  0.00     0.012 A 
ATOM     57  C   UNL A   1      42.104  24.956  27.474  1.00  0.00     0.148 A 
ATOM     58  C   UNL A   1      43.702  26.112  25.472  1.00  0.00     0.002 A 
ATOM     59  C   UNL A   1      42.564  24.186  26.412  1.00  0.00     0.091 A 
ATOM     60  F   UNL A   1      41.309  24.444  28.426  1.00  0.00    -0.205 F 
ATOM     61  C   UNL A   1      43.356  24.764  25.407  1.00  0.00     0.022 A 
BRANCH  59  62
ATOM     62  S   UNL A   1      42.224  22.427  26.281  1.00  0.00     0.127 S 
ATOM     63  O   UNL A   1      42.892  22.089  25.025  1.00  0.00    -0.237 OA
ATOM     64  O   UNL A   1      42.875  21.893  27.479  1.00  0.00    -0.237 OA
ATOM     65  O   UNL A   1      40.773  22.302  26.277  1.00  0.00    -0.744 OA
ENDBRANCH  59  62
ENDBRANCH  41  55
BRANCH  42  66
ATOM     66  C   UNL A   1      39.297  31.941  35.199  1.00  0.00     0.023 A 
ATOM     67  C   UNL A   1      38.377  31.353  36.086  1.00  0.00     0.012 A 
ATOM     68  C   UNL A   1      39.758  33.248  35.454  1.00  0.00     0.148 A 
ATOM     69  C   UNL A   1      37.909  32.058  37.197  1.00  0.00     0.002 A 
ATOM     70  C   UNL A   1      39.330  33.924  36.591  1.00  0.00     0.091 A 
ATOM     71  F   UNL A   1      40.618  33.800  34.586  1.00  0.00    -0.205 F 
ATOM     72  C   UNL A   1      38.396  33.337  37.457  1.00  0.00     0.022 A 
BRANCH  70  73
ATOM     73  S   UNL A   1      40.011  35.518  37.067  1.00  0.00     0.127 S 
ATOM     74  O   UNL A   1      39.668  36.347  35.916  1.00  0.00    -0.237 OA
ATOM     75  O   UNL A   1      39.264  35.819  38.289  1.00  0.00    -0.237 OA
ATOM     76  O   UNL A   1      41.434  35.281  37.283  1.00  0.00    -0.744 OA
ENDBRANCH  70  73
ENDBRANCH  42  66
BRANCH  54  77
ATOM     77  C   UNL A   1      44.771  27.699  34.230  1.00  0.00     0.023 A 
ATOM     78  C   UNL A   1      45.927  28.498  34.311  1.00  0.00     0.012 A 
ATOM     79  C   UNL A   1      44.645  26.570  35.062  1.00  0.00     0.148 A 
ATOM     80  C   UNL A   1      46.949  28.172  35.200  1.00  0.00     0.002 A 
ATOM     81  C   UNL A   1      45.649  26.274  35.976  1.00  0.00     0.091 A 
ATOM     82  F   UNL A   1      43.543  25.814  34.953  1.00  0.00    -0.205 F 
ATOM     83  C   UNL A   1      46.805  27.070  36.042  1.00  0.00     0.022 A 
BRANCH  81  84
ATOM     84  S   UNL A   1      45.507  24.931  37.160  1.00  0.00     0.127 S 
ATOM     85  O   UNL A   1      46.032  23.802  36.394  1.00  0.00    -0.237 OA
ATOM     86  O   UNL A   1      46.371  25.383  38.251  1.00  0.00    -0.237 OA
ATOM     87  O   UNL A   1      44.094  24.848  37.505  1.00  0.00    -0.744 OA
ENDBRANCH  81  84
ENDBRANCH  54  77
ENDBRANCH  28  29
ENDBRANCH  21  23
ENDBRANCH  20  21
ENDBRANCH  19  20
ENDBRANCH   1  19
TORSDOF 19
ENDMDL
MODEL 2
REMARK VINA RESULT:     -10.2      4.812      9.986
REMARK SMILES C=CC[N@@H+](CC(=O)OCCOC(=O)c1ccc(-c2c3nc(c(-c4cccc(S(=O)(=O)[O-])c4F)c4ccc([nH]4)c(-c4cccc(S(=O)(=O)[O-])c4F)c4nc(c(-c5cccc(S(=O)(=O)[O-])c5F)c5ccc2[nH]5)C=C4)C=C3)cc1)C[C@H]1CCC[C@H](C)C1
REMARK SMILES IDX 9 1 8 2 6 3 7 4 5 5 4 6 3 8 2 9 1 10 77 11 78 12 79 13 84 14
REMARK SMILES IDX 80 15 82 16 81 17 83 18 10 19 11 20 12 21 13 22 14 23 15 24
REMARK SMILES IDX 76 25 16 26 75 27 17 28 18 29 19 30 69 31 20 32 74 33 68 34
REMARK SMILES IDX 70 35 21 36 73 37 67 38 66 39 22 41 54 42 34 43 53 44 35 45
REMARK SMILES IDX 38 46 52 47 71 48 36 49 37 50 51 52 72 53 39 54 23 55 24 56
REMARK SMILES IDX 32 57 25 58 27 59 33 60 26 61 28 62 29 63 30 64 31 65 55 66
REMARK SMILES IDX 56 67 64 68 57 69 59 70 65 71 58 72 60 73 61 74 62 75 63 76
REMARK SMILES IDX 40 77 41 78 49 79 42 80 44 81 50 82 43 83 45 84 46 85 47 86
REMARK SMILES IDX 48 87
REMARK H PARENT 4 7 70 40 38 51
REMARK Flexibility Score: inf
ROOT
ATOM      1  C   UNL A   1      34.948  21.959  25.499  1.00  0.00     0.274 C 
ENDROOT
BRANCH   1   2
ATOM      2  O   UNL A   1      34.202  22.060  24.269  1.00  0.00    -0.458 OA
BRANCH   2   3
ATOM      3  C   UNL A   1      34.396  23.181  23.527  1.00  0.00     0.361 C 
ATOM      4  O   UNL A   1      35.415  23.407  22.881  1.00  0.00    -0.245 OA
BRANCH   3   5
ATOM      5  C   UNL A   1      33.267  24.206  23.631  1.00  0.00     0.386 C 
BRANCH   5   6
ATOM      6  N   UNL A   1      32.793  24.614  24.975  1.00  0.00    -0.322 N 
ATOM      7  H   UNL A   1      33.044  23.844  25.596  1.00  0.00     0.348 HD
BRANCH   6   8
ATOM      8  C   UNL A   1      31.335  24.727  25.053  1.00  0.00     0.290 C 
BRANCH   8   9
ATOM      9  C   UNL A   1      30.751  23.770  26.054  1.00  0.00     0.025 C 
ATOM     10  C   UNL A   1      31.485  22.950  26.819  1.00  0.00     0.010 C 
ENDBRANCH   8   9
ENDBRANCH   6   8
BRANCH   6  11
ATOM     11  C   UNL A   1      33.504  25.779  25.525  1.00  0.00     0.266 C 
BRANCH  11  12
ATOM     12  C   UNL A   1      32.601  27.037  25.624  1.00  0.00     0.044 C 
ATOM     13  C   UNL A   1      32.581  27.636  27.043  1.00  0.00     0.009 C 
ATOM     14  C   UNL A   1      33.075  28.087  24.599  1.00  0.00     0.012 C 
ATOM     15  C   UNL A   1      31.833  28.964  27.126  1.00  0.00     0.001 C 
ATOM     16  C   UNL A   1      32.313  29.419  24.670  1.00  0.00    -0.014 C 
ATOM     17  C   UNL A   1      32.336  29.972  26.099  1.00  0.00     0.003 C 
ATOM     18  C   UNL A   1      30.883  29.293  24.135  1.00  0.00     0.007 C 
ENDBRANCH  11  12
ENDBRANCH   6  11
ENDBRANCH   5   6
ENDBRANCH   3   5
ENDBRANCH   2   3
ENDBRANCH   1   2
BRANCH   1  19
ATOM     19  C   UNL A   1      36.083  20.955  25.344  1.00  0.00     0.275 C 
BRANCH  19  20
ATOM     20  O   UNL A   1      37.289  21.660  25.011  1.00  0.00    -0.458 OA
BRANCH  20  21
ATOM     21  C   UNL A   1      38.405  21.256  25.657  1.00  0.00     0.338 C 
ATOM     22  O   UNL A   1      38.837  20.121  25.753  1.00  0.00    -0.246 OA
BRANCH  21  23
ATOM     23  C   UNL A   1      39.057  22.425  26.268  1.00  0.00     0.060 A 
ATOM     24  C   UNL A   1      38.626  23.723  25.973  1.00  0.00     0.016 A 
ATOM     25  C   UNL A   1      40.170  22.213  27.078  1.00  0.00     0.016 A 
ATOM     26  C   UNL A   1      39.348  24.818  26.445  1.00  0.00     0.010 A 
ATOM     27  C   UNL A   1      40.846  23.310  27.606  1.00  0.00     0.010 A 
ATOM     28  C   UNL A   1      40.461  24.621  27.271  1.00  0.00    -0.014 A 
BRANCH  28  29
ATOM     29  C   UNL A   1      41.264  25.755  27.793  1.00  0.00     0.031 A 
ATOM     30  C   UNL A   1      40.581  26.839  28.579  1.00  0.00     0.074 A 
ATOM     31  C   UNL A   1      42.566  25.865  27.471  1.00  0.00     0.049 A 
ATOM     32  N   UNL A   1      41.018  28.027  28.901  1.00  0.00    -0.248 NA
ATOM     33  C   UNL A   1      39.216  26.549  29.054  1.00  0.00     0.031 C 
ATOM     34  C   UNL A   1      43.344  24.872  26.727  1.00  0.00     0.029 A 
ATOM     35  N   UNL A   1      43.453  26.891  27.685  1.00  0.00    -0.354 N 
ATOM     36  C   UNL A   1      39.965  28.650  29.561  1.00  0.00     0.074 A 
ATOM     37  C   UNL A   1      38.873  27.704  29.608  1.00  0.00     0.031 C 
ATOM     38  C   UNL A   1      44.579  25.351  26.516  1.00  0.00     0.029 A 
ATOM     39  C   UNL A   1      44.661  26.705  27.054  1.00  0.00     0.049 A 
ATOM     40  H   UNL A   1      43.246  27.681  28.235  1.00  0.00     0.167 HD
ATOM     41  C   UNL A   1      39.919  29.898  30.082  1.00  0.00     0.034 A 
ATOM     42  C   UNL A   1      45.698  27.549  26.881  1.00  0.00     0.034 A 
ATOM     43  C   UNL A   1      41.023  30.818  30.065  1.00  0.00     0.049 A 
ATOM     44  C   UNL A   1      45.616  28.936  27.455  1.00  0.00     0.074 A 
ATOM     45  C   UNL A   1      41.089  32.094  30.595  1.00  0.00     0.029 A 
ATOM     46  N   UNL A   1      42.257  30.558  29.490  1.00  0.00    -0.354 N 
ATOM     47  N   UNL A   1      44.643  29.488  28.139  1.00  0.00    -0.248 NA
ATOM     48  C   UNL A   1      46.777  29.812  27.250  1.00  0.00     0.031 C 
ATOM     49  C   UNL A   1      42.362  32.609  30.335  1.00  0.00     0.029 A 
ATOM     50  C   UNL A   1      43.092  31.648  29.653  1.00  0.00     0.049 A 
ATOM     51  H   UNL A   1      42.503  29.721  29.034  1.00  0.00     0.167 HD
ATOM     52  C   UNL A   1      45.089  30.759  28.480  1.00  0.00     0.074 A 
ATOM     53  C   UNL A   1      46.424  30.894  27.933  1.00  0.00     0.031 C 
ATOM     54  C   UNL A   1      44.446  31.732  29.169  1.00  0.00     0.034 A 
BRANCH  41  55
ATOM     55  C   UNL A   1      38.639  30.335  30.742  1.00  0.00     0.023 A 
ATOM     56  C   UNL A   1      38.439  30.068  32.110  1.00  0.00     0.012 A 
ATOM     57  C   UNL A   1      37.666  31.060  30.027  1.00  0.00     0.148 A 
ATOM     58  C   UNL A   1      37.278  30.497  32.753  1.00  0.00     0.002 A 
ATOM     59  C   UNL A   1      36.529  31.517  30.683  1.00  0.00     0.091 A 
ATOM     60  F   UNL A   1      37.863  31.280  28.719  1.00  0.00    -0.205 F 
ATOM     61  C   UNL A   1      36.330  31.230  32.044  1.00  0.00     0.022 A 
BRANCH  59  62
ATOM     62  S   UNL A   1      35.286  32.524  29.865  1.00  0.00     0.127 S 
ATOM     63  O   UNL A   1      34.245  32.599  30.890  1.00  0.00    -0.237 OA
ATOM     64  O   UNL A   1      36.004  33.780  29.634  1.00  0.00    -0.237 OA
ATOM     65  O   UNL A   1      34.926  31.804  28.653  1.00  0.00    -0.744 OA
ENDBRANCH  59  62
ENDBRANCH  41  55
BRANCH  42  66
ATOM     66  C   UNL A   1      46.911  27.087  26.148  1.00  0.00     0.023 A 
ATOM     67  C   UNL A   1      47.001  27.311  24.762  1.00  0.00     0.012 A 
ATOM     68  C   UNL A   1      47.989  26.475  26.816  1.00  0.00     0.148 A 
ATOM     69  C   UNL A   1      48.136  26.918  24.050  1.00  0.00     0.002 A 
ATOM     70  C   UNL A   1      49.138  26.135  26.111  1.00  0.00     0.091 A 
ATOM     71  F   UNL A   1      47.877  26.250  28.134  1.00  0.00    -0.205 F 
ATOM     72  C   UNL A   1      49.209  26.343  24.726  1.00  0.00     0.022 A 
BRANCH  70  73
ATOM     73  S   UNL A   1      50.614  25.516  26.931  1.00  0.00     0.127 S 
ATOM     74  O   UNL A   1      50.115  24.300  27.567  1.00  0.00    -0.237 OA
ATOM     75  O   UNL A   1      51.521  25.294  25.803  1.00  0.00    -0.237 OA
ATOM     76  O   UNL A   1      51.033  26.584  27.830  1.00  0.00    -0.744 OA
ENDBRANCH  70  73
ENDBRANCH  42  66
BRANCH  54  77
ATOM     77  C   UNL A   1      45.185  33.016  29.429  1.00  0.00     0.023 A 
ATOM     78  C   UNL A   1      46.043  33.115  30.541  1.00  0.00     0.012 A 
ATOM     79  C   UNL A   1      45.115  34.079  28.507  1.00  0.00     0.148 A 
ATOM     80  C   UNL A   1      46.811  34.260  30.740  1.00  0.00     0.002 A 
ATOM     81  C   UNL A   1      45.915  35.201  28.689  1.00  0.00     0.091 A 
ATOM     82  F   UNL A   1      44.276  33.969  27.467  1.00  0.00    -0.205 F 
ATOM     83  C   UNL A   1      46.759  35.295  29.808  1.00  0.00     0.022 A 
BRANCH  81  84
ATOM     84  S   UNL A   1      45.979  36.540  27.494  1.00  0.00     0.127 S 
ATOM     85  O   UNL A   1      46.483  35.853  26.305  1.00  0.00    -0.237 OA
ATOM     86  O   UNL A   1      44.578  36.953  27.412  1.00  0.00    -0.237 OA
ATOM     87  O   UNL A   1      46.871  37.542  28.062  1.00  0.00    -0.744 OA
ENDBRANCH  81  84
ENDBRANCH  54  77
ENDBRANCH  28  29
ENDBRANCH  21  23
ENDBRANCH  20  21
ENDBRANCH  19  20
ENDBRANCH   1  19
TORSDOF 19
ENDMDL
MODEL 3
REMARK VINA RESULT:     -10.0      5.259     10.049
REMARK SMILES C=CC[N@@H+](CC(=O)OCCOC(=O)c1ccc(-c2c3nc(c(-c4cccc(S(=O)(=O)[O-])c4F)c4ccc([nH]4)c(-c4cccc(S(=O)(=O)[O-])c4F)c4nc(c(-c5cccc(S(=O)(=O)[O-])c5F)c5ccc2[nH]5)C=C4)C=C3)cc1)C[C@H]1CCC[C@H](C)C1
REMARK SMILES IDX 9 1 8 2 6 3 7 4 5 5 4 6 3 8 2 9 1 10 77 11 78 12 79 13 84 14
REMARK SMILES IDX 80 15 82 16 81 17 83 18 10 19 11 20 12 21 13 22 14 23 15 24
REMARK SMILES IDX 76 25 16 26 75 27 17 28 18 29 19 30 69 31 20 32 74 33 68 34
REMARK SMILES IDX 70 35 21 36 73 37 67 38 66 39 22 41 54 42 34 43 53 44 35 45
REMARK SMILES IDX 38 46 52 47 71 48 36 49 37 50 51 52 72 53 39 54 23 55 24 56
REMARK SMILES IDX 32 57 25 58 27 59 33 60 26 61 28 62 29 63 30 64 31 65 55 66
REMARK SMILES IDX 56 67 64 68 57 69 59 70 65 71 58 72 60 73 61 74 62 75 63 76
REMARK SMILES IDX 40 77 41 78 49 79 42 80 44 81 50 82 43 83 45 84 46 85 47 86
REMARK SMILES IDX 48 87
REMARK H PARENT 4 7 70 40 38 51
REMARK Flexibility Score: inf
ROOT
ATOM      1  C   UNL A   1      36.014  22.043  25.936  1.00  0.00     0.274 C 
ENDROOT
BRANCH   1   2
ATOM      2  O   UNL A   1      36.190  23.331  25.311  1.00  0.00    -0.458 OA
BRANCH   2   3
ATOM      3  C   UNL A   1      35.141  23.812  24.596  1.00  0.00     0.361 C 
ATOM      4  O   UNL A   1      34.526  24.835  24.884  1.00  0.00    -0.245 OA
BRANCH   3   5
ATOM      5  C   UNL A   1      34.710  22.918  23.433  1.00  0.00     0.386 C 
BRANCH   5   6
ATOM      6  N   UNL A   1      33.290  22.505  23.337  1.00  0.00    -0.322 N 
ATOM      7  H   UNL A   1      33.263  21.796  22.604  1.00  0.00     0.348 HD
BRANCH   6   8
ATOM      8  C   UNL A   1      32.415  23.584  22.876  1.00  0.00     0.290 C 
BRANCH   8   9
ATOM      9  C   UNL A   1      32.971  24.280  21.666  1.00  0.00     0.025 C 
ATOM     10  C   UNL A   1      32.573  25.491  21.252  1.00  0.00     0.010 C 
ENDBRANCH   8   9
ENDBRANCH   6   8
BRANCH   6  11
ATOM     11  C   UNL A   1      32.790  21.814  24.537  1.00  0.00     0.266 C 
BRANCH  11  12
ATOM     12  C   UNL A   1      32.518  20.307  24.288  1.00  0.00     0.044 C 
ATOM     13  C   UNL A   1      32.304  19.988  22.796  1.00  0.00     0.009 C 
ATOM     14  C   UNL A   1      33.687  19.477  24.857  1.00  0.00     0.012 C 
ATOM     15  C   UNL A   1      32.198  18.492  22.509  1.00  0.00     0.001 C 
ATOM     16  C   UNL A   1      33.574  17.970  24.583  1.00  0.00    -0.014 C 
ATOM     17  C   UNL A   1      33.375  17.713  23.086  1.00  0.00     0.003 C 
ATOM     18  C   UNL A   1      32.475  17.312  25.422  1.00  0.00     0.007 C 
ENDBRANCH  11  12
ENDBRANCH   6  11
ENDBRANCH   5   6
ENDBRANCH   3   5
ENDBRANCH   2   3
ENDBRANCH   1   2
BRANCH   1  19
ATOM     19  C   UNL A   1      37.094  21.078  25.462  1.00  0.00     0.275 C 
BRANCH  19  20
ATOM     20  O   UNL A   1      38.329  21.796  25.312  1.00  0.00    -0.458 OA
BRANCH  20  21
ATOM     21  C   UNL A   1      39.293  21.503  26.213  1.00  0.00     0.338 C 
ATOM     22  O   UNL A   1      39.691  20.401  26.543  1.00  0.00    -0.246 OA
BRANCH  21  23
ATOM     23  C   UNL A   1      39.818  22.756  26.779  1.00  0.00     0.060 A 
ATOM     24  C   UNL A   1      39.344  23.997  26.339  1.00  0.00     0.016 A 
ATOM     25  C   UNL A   1      40.862  22.680  27.698  1.00  0.00     0.016 A 
ATOM     26  C   UNL A   1      39.957  25.169  26.779  1.00  0.00     0.010 A 
ATOM     27  C   UNL A   1      41.423  23.855  28.190  1.00  0.00     0.010 A 
ATOM     28  C   UNL A   1      40.998  25.109  27.714  1.00  0.00    -0.014 A 
BRANCH  28  29
ATOM     29  C   UNL A   1      41.683  26.329  28.207  1.00  0.00     0.031 A 
ATOM     30  C   UNL A   1      40.888  27.378  28.932  1.00  0.00     0.074 A 
ATOM     31  C   UNL A   1      42.979  26.542  27.910  1.00  0.00     0.049 A 
ATOM     32  N   UNL A   1      41.209  28.612  29.215  1.00  0.00    -0.248 NA
ATOM     33  C   UNL A   1      39.541  26.986  29.387  1.00  0.00     0.031 C 
ATOM     34  C   UNL A   1      43.860  25.595  27.225  1.00  0.00     0.029 A 
ATOM     35  N   UNL A   1      43.767  27.651  28.102  1.00  0.00    -0.354 N 
ATOM     36  C   UNL A   1      40.089  29.164  29.824  1.00  0.00     0.074 A 
ATOM     37  C   UNL A   1      39.083  28.127  29.885  1.00  0.00     0.031 C 
ATOM     38  C   UNL A   1      45.054  26.173  27.023  1.00  0.00     0.029 A 
ATOM     39  C   UNL A   1      45.002  27.549  27.507  1.00  0.00     0.049 A 
ATOM     40  H   UNL A   1      43.475  28.440  28.615  1.00  0.00     0.167 HD
ATOM     41  C   UNL A   1      39.919  30.422  30.292  1.00  0.00     0.034 A 
ATOM     42  C   UNL A   1      45.965  28.474  27.323  1.00  0.00     0.034 A 
ATOM     43  C   UNL A   1      40.938  31.435  30.263  1.00  0.00     0.049 A 
ATOM     44  C   UNL A   1      45.746  29.870  27.839  1.00  0.00     0.074 A 
ATOM     45  C   UNL A   1      40.877  32.731  30.742  1.00  0.00     0.029 A 
ATOM     46  N   UNL A   1      42.205  31.264  29.728  1.00  0.00    -0.354 N 
ATOM     47  N   UNL A   1      44.710  30.359  28.476  1.00  0.00    -0.248 NA
ATOM     48  C   UNL A   1      46.831  30.838  27.624  1.00  0.00     0.031 C 
ATOM     49  C   UNL A   1      42.106  33.347  30.490  1.00  0.00     0.029 A 
ATOM     50  C   UNL A   1      42.936  32.429  29.865  1.00  0.00     0.049 A 
ATOM     51  H   UNL A   1      42.535  30.435  29.312  1.00  0.00     0.167 HD
ATOM     52  C   UNL A   1      45.033  31.677  28.775  1.00  0.00     0.074 A 
ATOM     53  C   UNL A   1      46.366  31.909  28.254  1.00  0.00     0.031 C 
ATOM     54  C   UNL A   1      44.289  32.615  29.409  1.00  0.00     0.034 A 
BRANCH  41  55
ATOM     55  C   UNL A   1      38.589  30.768  30.905  1.00  0.00     0.023 A 
ATOM     56  C   UNL A   1      38.358  30.488  32.266  1.00  0.00     0.012 A 
ATOM     57  C   UNL A   1      37.594  31.424  30.153  1.00  0.00     0.148 A 
ATOM     58  C   UNL A   1      37.148  30.835  32.865  1.00  0.00     0.002 A 
ATOM     59  C   UNL A   1      36.404  31.799  30.767  1.00  0.00     0.091 A 
ATOM     60  F   UNL A   1      37.822  31.657  28.852  1.00  0.00    -0.205 F 
ATOM     61  C   UNL A   1      36.177  31.500  32.120  1.00  0.00     0.022 A 
BRANCH  59  62
ATOM     62  S   UNL A   1      35.125  32.717  29.902  1.00  0.00     0.127 S 
ATOM     63  O   UNL A   1      34.178  32.994  30.981  1.00  0.00    -0.237 OA
ATOM     64  O   UNL A   1      35.855  33.891  29.417  1.00  0.00    -0.237 OA
ATOM     65  O   UNL A   1      34.642  31.832  28.852  1.00  0.00    -0.744 OA
ENDBRANCH  59  62
ENDBRANCH  41  55
BRANCH  42  66
ATOM     66  C   UNL A   1      47.233  28.094  26.638  1.00  0.00     0.023 A 
ATOM     67  C   UNL A   1      48.359  27.764  27.414  1.00  0.00     0.012 A 
ATOM     68  C   UNL A   1      47.318  28.012  25.235  1.00  0.00     0.148 A 
ATOM     69  C   UNL A   1      49.553  27.375  26.805  1.00  0.00     0.002 A 
ATOM     70  C   UNL A   1      48.493  27.572  24.636  1.00  0.00     0.091 A 
ATOM     71  F   UNL A   1      46.241  28.351  24.510  1.00  0.00    -0.205 F 
ATOM     72  C   UNL A   1      49.617  27.265  25.418  1.00  0.00     0.022 A 
BRANCH  70  73
ATOM     73  S   UNL A   1      48.611  27.275  22.867  1.00  0.00     0.127 S 
ATOM     74  O   UNL A   1      50.017  27.571  22.607  1.00  0.00    -0.237 OA
ATOM     75  O   UNL A   1      48.250  25.860  22.768  1.00  0.00    -0.237 OA
ATOM     76  O   UNL A   1      47.643  28.179  22.258  1.00  0.00    -0.744 OA
ENDBRANCH  70  73
ENDBRANCH  42  66
BRANCH  54  77
ATOM     77  C   UNL A   1      44.905  33.969  29.633  1.00  0.00     0.023 A 
ATOM     78  C   UNL A   1      45.654  34.210  30.800  1.00  0.00     0.012 A 
ATOM     79  C   UNL A   1      44.835  34.959  28.633  1.00  0.00     0.148 A 
ATOM     80  C   UNL A   1      46.315  35.424  30.976  1.00  0.00     0.002 A 
ATOM     81  C   UNL A   1      45.531  36.151  28.797  1.00  0.00     0.091 A 
ATOM     82  F   UNL A   1      44.100  34.713  27.540  1.00  0.00    -0.205 F 
ATOM     83  C   UNL A   1      46.266  36.388  29.970  1.00  0.00     0.022 A 
BRANCH  81  84
ATOM     84  S   UNL A   1      45.598  37.408  27.515  1.00  0.00     0.127 S 
ATOM     85  O   UNL A   1      46.525  38.377  28.097  1.00  0.00    -0.237 OA
ATOM     86  O   UNL A   1      46.130  36.663  26.374  1.00  0.00    -0.237 OA
ATOM     87  O   UNL A   1      44.230  37.878  27.343  1.00  0.00    -0.744 OA
ENDBRANCH  81  84
ENDBRANCH  54  77
ENDBRANCH  28  29
ENDBRANCH  21  23
ENDBRANCH  20  21
ENDBRANCH  19  20
ENDBRANCH   1  19
TORSDOF 19
ENDMDL
