MODEL 1
REMARK VINA RESULT:     -12.3      0.000      0.000
REMARK SMILES C[C@H]1[C@H](C(=O)OCCOC(=O)c2ccc(-c3c4nc(c(-c5cccc(S(=O)(=O)[O-])c5F)c5ccc([nH]5)c(-c5cccc(S(=O)(=O)[O-])c5F)c5nc(c(-c6cccc(S(=O)(=O)[O-])c6F)c6ccc3[nH]6)C=C5)C=C4)cc2)CCN1C(=O)Nc1ccc(F)c(Cl)c1
REMARK SMILES IDX 8 1 7 2 6 3 4 4 5 5 3 6 1 7 2 8 77 9 75 10 76 11 78 12 79 13
REMARK SMILES IDX 80 14 81 16 82 17 88 18 83 19 86 20 84 21 87 22 85 23 9 24
REMARK SMILES IDX 10 25 11 26 12 27 13 28 74 29 14 30 73 31 15 32 16 33 17 34
REMARK SMILES IDX 67 35 18 36 72 37 66 38 68 39 19 40 71 41 65 42 64 43 20 45
REMARK SMILES IDX 52 46 32 47 51 48 33 49 36 50 50 51 69 52 34 53 35 54 49 56
REMARK SMILES IDX 70 57 37 58 21 59 22 60 30 61 23 62 25 63 31 64 24 65 26 66
REMARK SMILES IDX 27 67 28 68 29 69 53 70 54 71 62 72 55 73 57 74 63 75 56 76
REMARK SMILES IDX 58 77 59 78 60 79 61 80 38 81 39 82 47 83 40 84 42 85 48 86
REMARK SMILES IDX 41 87 43 88 44 89 45 90 46 91
REMARK H PARENT 80 15 68 44 36 55
REMARK Flexibility Score: inf
ROOT
ATOM      1  C   UNL A   1      37.047  21.116  24.732  1.00  0.00     0.275 C 
ENDROOT
BRANCH   1   2
ATOM      2  C   UNL A   1      36.962  22.160  23.616  1.00  0.00     0.274 C 
BRANCH   2   3
ATOM      3  O   UNL A   1      36.044  23.224  23.934  1.00  0.00    -0.462 OA
BRANCH   3   4
ATOM      4  C   UNL A   1      34.771  23.062  23.491  1.00  0.00     0.311 C 
ATOM      5  O   UNL A   1      34.361  23.434  22.397  1.00  0.00    -0.252 OA
BRANCH   4   6
ATOM      6  C   UNL A   1      33.845  22.447  24.517  1.00  0.00     0.123 C 
ATOM      7  C   UNL A   1      34.111  22.712  27.015  1.00  0.00     0.032 C 
ATOM      8  C   UNL A   1      33.511  23.326  25.744  1.00  0.00     0.098 C 
ATOM      9  N   UNL A   1      32.041  23.360  25.798  1.00  0.00    -0.321 N 
ATOM     10  C   UNL A   1      32.511  22.113  23.859  1.00  0.00     0.039 C 
ATOM     11  C   UNL A   1      31.499  22.303  24.964  1.00  0.00     0.122 C 
BRANCH   9  12
ATOM     12  C   UNL A   1      31.185  24.025  26.631  1.00  0.00     0.322 C 
ATOM     13  O   UNL A   1      30.381  23.408  27.339  1.00  0.00    -0.248 OA
ATOM     14  N   UNL A   1      31.287  25.354  26.865  1.00  0.00    -0.308 N 
ATOM     15  H   UNL A   1      30.998  25.600  27.774  1.00  0.00     0.171 HD
BRANCH  14  16
ATOM     16  C   UNL A   1      31.706  26.458  26.120  1.00  0.00     0.044 A 
ATOM     17  C   UNL A   1      33.008  26.921  26.360  1.00  0.00     0.029 A 
ATOM     18  C   UNL A   1      30.879  27.151  25.236  1.00  0.00     0.049 A 
ATOM     19  C   UNL A   1      33.517  28.003  25.642  1.00  0.00     0.043 A 
ATOM     20  C   UNL A   1      31.379  28.262  24.548  1.00  0.00     0.078 A 
ATOM     21  C   UNL A   1      32.701  28.666  24.735  1.00  0.00     0.141 A 
ATOM     22  Cl  UNL A   1      30.337  29.161  23.512  1.00  0.00    -0.081 Cl
ATOM     23  F   UNL A   1      33.202  29.716  24.069  1.00  0.00    -0.205 F 
ENDBRANCH  14  16
ENDBRANCH   9  12
ENDBRANCH   4   6
ENDBRANCH   3   4
ENDBRANCH   2   3
ENDBRANCH   1   2
BRANCH   1  24
ATOM     24  O   UNL A   1      37.591  21.656  25.947  1.00  0.00    -0.458 OA
BRANCH  24  25
ATOM     25  C   UNL A   1      38.914  21.441  26.128  1.00  0.00     0.338 C 
ATOM     26  O   UNL A   1      39.562  20.461  25.807  1.00  0.00    -0.246 OA
BRANCH  25  27
ATOM     27  C   UNL A   1      39.533  22.649  26.680  1.00  0.00     0.060 A 
ATOM     28  C   UNL A   1      39.164  23.887  26.148  1.00  0.00     0.016 A 
ATOM     29  C   UNL A   1      40.532  22.548  27.644  1.00  0.00     0.016 A 
ATOM     30  C   UNL A   1      39.815  25.042  26.562  1.00  0.00     0.010 A 
ATOM     31  C   UNL A   1      41.164  23.713  28.082  1.00  0.00     0.010 A 
ATOM     32  C   UNL A   1      40.817  24.961  27.534  1.00  0.00    -0.014 A 
BRANCH  32  33
ATOM     33  C   UNL A   1      41.509  26.181  28.000  1.00  0.00     0.031 A 
ATOM     34  C   UNL A   1      40.740  27.232  28.740  1.00  0.00     0.074 A 
ATOM     35  C   UNL A   1      42.805  26.359  27.687  1.00  0.00     0.049 A 
ATOM     36  N   UNL A   1      41.103  28.445  29.061  1.00  0.00    -0.248 NA
ATOM     37  C   UNL A   1      39.377  26.876  29.170  1.00  0.00     0.031 C 
ATOM     38  C   UNL A   1      43.643  25.387  26.983  1.00  0.00     0.029 A 
ATOM     39  N   UNL A   1      43.631  27.436  27.882  1.00  0.00    -0.354 N 
ATOM     40  C   UNL A   1      40.000  29.017  29.680  1.00  0.00     0.074 A 
ATOM     41  C   UNL A   1      38.957  28.014  29.705  1.00  0.00     0.031 C 
ATOM     42  C   UNL A   1      44.856  25.924  26.774  1.00  0.00     0.029 A 
ATOM     43  C   UNL A   1      44.860  27.291  27.282  1.00  0.00     0.049 A 
ATOM     44  H   UNL A   1      43.372  28.231  28.401  1.00  0.00     0.167 HD
ATOM     45  C   UNL A   1      39.876  30.268  30.183  1.00  0.00     0.034 A 
ATOM     46  C   UNL A   1      45.859  28.180  27.119  1.00  0.00     0.034 A 
ATOM     47  C   UNL A   1      40.937  31.238  30.180  1.00  0.00     0.049 A 
ATOM     48  C   UNL A   1      45.692  29.565  27.679  1.00  0.00     0.074 A 
ATOM     49  C   UNL A   1      40.931  32.521  30.695  1.00  0.00     0.029 A 
ATOM     50  N   UNL A   1      42.194  31.031  29.632  1.00  0.00    -0.354 N 
ATOM     51  N   UNL A   1      44.672  30.070  28.333  1.00  0.00    -0.248 NA
ATOM     52  C   UNL A   1      46.813  30.497  27.502  1.00  0.00     0.031 C 
ATOM     53  C   UNL A   1      42.183  33.094  30.451  1.00  0.00     0.029 A 
ATOM     54  C   UNL A   1      42.973  32.161  29.796  1.00  0.00     0.049 A 
ATOM     55  H   UNL A   1      42.489  30.201  29.192  1.00  0.00     0.167 HD
ATOM     56  C   UNL A   1      45.043  31.364  28.676  1.00  0.00     0.074 A 
ATOM     57  C   UNL A   1      46.384  31.563  28.166  1.00  0.00     0.031 C 
ATOM     58  C   UNL A   1      44.332  32.308  29.340  1.00  0.00     0.034 A 
BRANCH  45  59
ATOM     59  C   UNL A   1      38.559  30.650  30.800  1.00  0.00     0.023 A 
ATOM     60  C   UNL A   1      38.323  30.378  32.161  1.00  0.00     0.012 A 
ATOM     61  C   UNL A   1      37.579  31.329  30.048  1.00  0.00     0.148 A 
ATOM     62  C   UNL A   1      37.123  30.755  32.762  1.00  0.00     0.002 A 
ATOM     63  C   UNL A   1      36.399  31.734  30.663  1.00  0.00     0.091 A 
ATOM     64  F   UNL A   1      37.810  31.554  28.748  1.00  0.00    -0.205 F 
ATOM     65  C   UNL A   1      36.167  31.441  32.017  1.00  0.00     0.022 A 
BRANCH  63  66
ATOM     66  S   UNL A   1      35.139  32.681  29.802  1.00  0.00     0.127 S 
ATOM     67  O   UNL A   1      35.934  33.751  29.200  1.00  0.00    -0.237 OA
ATOM     68  O   UNL A   1      34.612  31.705  28.849  1.00  0.00    -0.237 OA
ATOM     69  O   UNL A   1      34.190  33.102  30.823  1.00  0.00    -0.744 OA
ENDBRANCH  63  66
ENDBRANCH  45  59
BRANCH  46  70
ATOM     70  C   UNL A   1      47.107  27.767  26.418  1.00  0.00     0.023 A 
ATOM     71  C   UNL A   1      48.119  27.114  27.144  1.00  0.00     0.012 A 
ATOM     72  C   UNL A   1      47.271  27.963  25.032  1.00  0.00     0.148 A 
ATOM     73  C   UNL A   1      49.282  26.678  26.506  1.00  0.00     0.002 A 
ATOM     74  C   UNL A   1      48.407  27.480  24.394  1.00  0.00     0.091 A 
ATOM     75  F   UNL A   1      46.304  28.605  24.360  1.00  0.00    -0.205 F 
ATOM     76  C   UNL A   1      49.420  26.849  25.131  1.00  0.00     0.022 A 
BRANCH  74  77
ATOM     77  S   UNL A   1      48.599  27.537  22.608  1.00  0.00     0.127 S 
ATOM     78  O   UNL A   1      49.874  28.233  22.466  1.00  0.00    -0.237 OA
ATOM     79  O   UNL A   1      48.628  26.117  22.256  1.00  0.00    -0.237 OA
ATOM     80  O   UNL A   1      47.425  28.247  22.115  1.00  0.00    -0.744 OA
ENDBRANCH  74  77
ENDBRANCH  46  70
BRANCH  58  81
ATOM     81  C   UNL A   1      44.998  33.630  29.601  1.00  0.00     0.023 A 
ATOM     82  C   UNL A   1      45.770  33.805  30.765  1.00  0.00     0.012 A 
ATOM     83  C   UNL A   1      44.950  34.654  28.634  1.00  0.00     0.148 A 
ATOM     84  C   UNL A   1      46.476  34.989  30.970  1.00  0.00     0.002 A 
ATOM     85  C   UNL A   1      45.691  35.814  28.827  1.00  0.00     0.091 A 
ATOM     86  F   UNL A   1      44.193  34.469  27.544  1.00  0.00    -0.205 F 
ATOM     87  C   UNL A   1      46.448  35.985  29.997  1.00  0.00     0.022 A 
BRANCH  85  88
ATOM     88  S   UNL A   1      45.788  37.110  27.587  1.00  0.00     0.127 S 
ATOM     89  O   UNL A   1      44.381  37.471  27.422  1.00  0.00    -0.237 OA
ATOM     90  O   UNL A   1      46.603  38.122  28.260  1.00  0.00    -0.237 OA
ATOM     91  O   UNL A   1      46.418  36.505  26.421  1.00  0.00    -0.744 OA
ENDBRANCH  85  88
ENDBRANCH  58  81
ENDBRANCH  32  33
ENDBRANCH  25  27
ENDBRANCH  24  25
ENDBRANCH   1  24
TORSDOF 16
ENDMDL
MODEL 2
REMARK VINA RESULT:     -12.3      1.417      1.807
REMARK SMILES C[C@H]1[C@H](C(=O)OCCOC(=O)c2ccc(-c3c4nc(c(-c5cccc(S(=O)(=O)[O-])c5F)c5ccc([nH]5)c(-c5cccc(S(=O)(=O)[O-])c5F)c5nc(c(-c6cccc(S(=O)(=O)[O-])c6F)c6ccc3[nH]6)C=C5)C=C4)cc2)CCN1C(=O)Nc1ccc(F)c(Cl)c1
REMARK SMILES IDX 8 1 7 2 6 3 4 4 5 5 3 6 1 7 2 8 77 9 75 10 76 11 78 12 79 13
REMARK SMILES IDX 80 14 81 16 82 17 88 18 83 19 86 20 84 21 87 22 85 23 9 24
REMARK SMILES IDX 10 25 11 26 12 27 13 28 74 29 14 30 73 31 15 32 16 33 17 34
REMARK SMILES IDX 67 35 18 36 72 37 66 38 68 39 19 40 71 41 65 42 64 43 20 45
REMARK SMILES IDX 52 46 32 47 51 48 33 49 36 50 50 51 69 52 34 53 35 54 49 56
REMARK SMILES IDX 70 57 37 58 21 59 22 60 30 61 23 62 25 63 31 64 24 65 26 66
REMARK SMILES IDX 27 67 28 68 29 69 53 70 54 71 62 72 55 73 57 74 63 75 56 76
REMARK SMILES IDX 58 77 59 78 60 79 61 80 38 81 39 82 47 83 40 84 42 85 48 86
REMARK SMILES IDX 41 87 43 88 44 89 45 90 46 91
REMARK H PARENT 80 15 68 44 36 55
REMARK Flexibility Score: inf
ROOT
ATOM      1  C   UNL A   1      36.875  21.643  24.303  1.00  0.00     0.275 C 
ENDROOT
BRANCH   1   2
ATOM      2  C   UNL A   1      36.425  23.033  23.846  1.00  0.00     0.274 C 
BRANCH   2   3
ATOM      3  O   UNL A   1      35.459  22.968  22.777  1.00  0.00    -0.462 OA
BRANCH   3   4
ATOM      4  C   UNL A   1      34.212  23.415  23.076  1.00  0.00     0.311 C 
ATOM      5  O   UNL A   1      33.634  24.316  22.479  1.00  0.00    -0.252 OA
BRANCH   4   6
ATOM      6  C   UNL A   1      33.607  22.754  24.295  1.00  0.00     0.123 C 
ATOM      7  C   UNL A   1      34.050  23.477  26.675  1.00  0.00     0.032 C 
ATOM      8  C   UNL A   1      33.173  23.702  25.436  1.00  0.00     0.098 C 
ATOM      9  N   UNL A   1      31.766  23.363  25.698  1.00  0.00    -0.321 N 
ATOM     10  C   UNL A   1      32.356  21.986  23.885  1.00  0.00     0.039 C 
ATOM     11  C   UNL A   1      31.453  22.083  25.091  1.00  0.00     0.122 C 
BRANCH   9  12
ATOM     12  C   UNL A   1      30.852  23.909  26.556  1.00  0.00     0.322 C 
ATOM     13  O   UNL A   1      30.282  23.213  27.404  1.00  0.00    -0.248 OA
ATOM     14  N   UNL A   1      30.655  25.245  26.652  1.00  0.00    -0.308 N 
ATOM     15  H   UNL A   1      30.396  25.523  27.561  1.00  0.00     0.171 HD
BRANCH  14  16
ATOM     16  C   UNL A   1      30.734  26.321  25.765  1.00  0.00     0.044 A 
ATOM     17  C   UNL A   1      29.899  26.270  24.639  1.00  0.00     0.029 A 
ATOM     18  C   UNL A   1      31.643  27.370  25.904  1.00  0.00     0.049 A 
ATOM     19  C   UNL A   1      29.896  27.313  23.714  1.00  0.00     0.043 A 
ATOM     20  C   UNL A   1      31.667  28.394  24.952  1.00  0.00     0.078 A 
ATOM     21  C   UNL A   1      30.777  28.374  23.878  1.00  0.00     0.141 A 
ATOM     22  Cl  UNL A   1      32.837  29.651  25.083  1.00  0.00    -0.081 Cl
ATOM     23  F   UNL A   1      30.773  29.359  22.967  1.00  0.00    -0.205 F 
ENDBRANCH  14  16
ENDBRANCH   9  12
ENDBRANCH   4   6
ENDBRANCH   3   4
ENDBRANCH   2   3
ENDBRANCH   1   2
BRANCH   1  24
ATOM     24  O   UNL A   1      37.232  21.614  25.694  1.00  0.00    -0.458 OA
BRANCH  24  25
ATOM     25  C   UNL A   1      38.521  21.297  25.949  1.00  0.00     0.338 C 
ATOM     26  O   UNL A   1      39.103  20.260  25.681  1.00  0.00    -0.246 OA
BRANCH  25  27
ATOM     27  C   UNL A   1      39.208  22.462  26.511  1.00  0.00     0.060 A 
ATOM     28  C   UNL A   1      38.764  23.735  26.145  1.00  0.00     0.016 A 
ATOM     29  C   UNL A   1      40.334  22.295  27.314  1.00  0.00     0.016 A 
ATOM     30  C   UNL A   1      39.463  24.861  26.562  1.00  0.00     0.010 A 
ATOM     31  C   UNL A   1      41.017  23.428  27.758  1.00  0.00     0.010 A 
ATOM     32  C   UNL A   1      40.593  24.712  27.374  1.00  0.00    -0.014 A 
BRANCH  32  33
ATOM     33  C   UNL A   1      41.339  25.899  27.842  1.00  0.00     0.031 A 
ATOM     34  C   UNL A   1      40.628  26.963  28.621  1.00  0.00     0.074 A 
ATOM     35  C   UNL A   1      42.632  26.036  27.498  1.00  0.00     0.049 A 
ATOM     36  N   UNL A   1      41.041  28.156  28.952  1.00  0.00    -0.248 NA
ATOM     37  C   UNL A   1      39.264  26.647  29.080  1.00  0.00     0.031 C 
ATOM     38  C   UNL A   1      43.417  25.049  26.756  1.00  0.00     0.029 A 
ATOM     39  N   UNL A   1      43.501  27.080  27.690  1.00  0.00    -0.354 N 
ATOM     40  C   UNL A   1      39.976  28.755  29.610  1.00  0.00     0.074 A 
ATOM     41  C   UNL A   1      38.899  27.789  29.646  1.00  0.00     0.031 C 
ATOM     42  C   UNL A   1      44.642  25.546  26.524  1.00  0.00     0.029 A 
ATOM     43  C   UNL A   1      44.708  26.903  27.056  1.00  0.00     0.049 A 
ATOM     44  H   UNL A   1      43.283  27.875  28.229  1.00  0.00     0.167 HD
ATOM     45  C   UNL A   1      39.909  30.000  30.138  1.00  0.00     0.034 A 
ATOM     46  C   UNL A   1      45.734  27.759  26.881  1.00  0.00     0.034 A 
ATOM     47  C   UNL A   1      41.004  30.933  30.123  1.00  0.00     0.049 A 
ATOM     48  C   UNL A   1      45.630  29.139  27.469  1.00  0.00     0.074 A 
ATOM     49  C   UNL A   1      41.057  32.205  30.661  1.00  0.00     0.029 A 
ATOM     50  N   UNL A   1      42.238  30.692  29.539  1.00  0.00    -0.354 N 
ATOM     51  N   UNL A   1      44.647  29.667  28.159  1.00  0.00    -0.248 NA
ATOM     52  C   UNL A   1      46.779  30.034  27.278  1.00  0.00     0.031 C 
ATOM     53  C   UNL A   1      42.322  32.738  30.393  1.00  0.00     0.029 A 
ATOM     54  C   UNL A   1      43.061  31.791  29.701  1.00  0.00     0.049 A 
ATOM     55  H   UNL A   1      42.492  29.860  29.077  1.00  0.00     0.167 HD
ATOM     56  C   UNL A   1      45.072  30.942  28.514  1.00  0.00     0.074 A 
ATOM     57  C   UNL A   1      46.406  31.102  27.972  1.00  0.00     0.031 C 
ATOM     58  C   UNL A   1      44.412  31.897  29.212  1.00  0.00     0.034 A 
BRANCH  45  59
ATOM     59  C   UNL A   1      38.623  30.417  30.795  1.00  0.00     0.023 A 
ATOM     60  C   UNL A   1      38.410  30.124  32.156  1.00  0.00     0.012 A 
ATOM     61  C   UNL A   1      37.652  31.149  30.084  1.00  0.00     0.148 A 
ATOM     62  C   UNL A   1      37.240  30.532  32.795  1.00  0.00     0.002 A 
ATOM     63  C   UNL A   1      36.503  31.583  30.737  1.00  0.00     0.091 A 
ATOM     64  F   UNL A   1      37.860  31.394  28.783  1.00  0.00    -0.205 F 
ATOM     65  C   UNL A   1      36.293  31.269  32.089  1.00  0.00     0.022 A 
BRANCH  63  66
ATOM     66  S   UNL A   1      35.259  32.596  29.928  1.00  0.00     0.127 S 
ATOM     67  O   UNL A   1      34.789  31.699  28.873  1.00  0.00    -0.237 OA
ATOM     68  O   UNL A   1      34.296  32.827  31.005  1.00  0.00    -0.237 OA
ATOM     69  O   UNL A   1      35.955  33.792  29.472  1.00  0.00    -0.744 OA
ENDBRANCH  63  66
ENDBRANCH  45  59
BRANCH  46  70
ATOM     70  C   UNL A   1      46.947  27.316  26.140  1.00  0.00     0.023 A 
ATOM     71  C   UNL A   1      47.073  27.630  24.775  1.00  0.00     0.012 A 
ATOM     72  C   UNL A   1      47.999  26.641  26.791  1.00  0.00     0.148 A 
ATOM     73  C   UNL A   1      48.218  27.265  24.065  1.00  0.00     0.002 A 
ATOM     74  C   UNL A   1      49.159  26.327  26.091  1.00  0.00     0.091 A 
ATOM     75  F   UNL A   1      47.854  26.332  28.088  1.00  0.00    -0.205 F 
ATOM     76  C   UNL A   1      49.265  26.626  24.725  1.00  0.00     0.022 A 
BRANCH  74  77
ATOM     77  S   UNL A   1      50.605  25.630  26.898  1.00  0.00     0.127 S 
ATOM     78  O   UNL A   1      51.532  25.486  25.780  1.00  0.00    -0.237 OA
ATOM     79  O   UNL A   1      50.956  26.676  27.860  1.00  0.00    -0.237 OA
ATOM     80  O   UNL A   1      50.146  24.389  27.511  1.00  0.00    -0.744 OA
ENDBRANCH  74  77
ENDBRANCH  46  70
BRANCH  58  81
ATOM     81  C   UNL A   1      45.131  33.190  29.478  1.00  0.00     0.023 A 
ATOM     82  C   UNL A   1      45.945  33.314  30.620  1.00  0.00     0.012 A 
ATOM     83  C   UNL A   1      45.088  34.236  28.534  1.00  0.00     0.148 A 
ATOM     84  C   UNL A   1      46.698  34.469  30.826  1.00  0.00     0.002 A 
ATOM     85  C   UNL A   1      45.874  35.365  28.727  1.00  0.00     0.091 A 
ATOM     86  F   UNL A   1      44.291  34.100  27.465  1.00  0.00    -0.205 F 
ATOM     87  C   UNL A   1      46.674  35.486  29.875  1.00  0.00     0.022 A 
BRANCH  85  88
ATOM     88  S   UNL A   1      45.977  36.684  27.510  1.00  0.00     0.127 S 
ATOM     89  O   UNL A   1      46.818  37.660  28.200  1.00  0.00    -0.237 OA
ATOM     90  O   UNL A   1      46.621  36.012  26.380  1.00  0.00    -0.237 OA
ATOM     91  O   UNL A   1      44.606  37.107  27.259  1.00  0.00    -0.744 OA
ENDBRANCH  85  88
ENDBRANCH  58  81
ENDBRANCH  32  33
ENDBRANCH  25  27
ENDBRANCH  24  25
ENDBRANCH   1  24
TORSDOF 16
ENDMDL
MODEL 3
REMARK VINA RESULT:     -12.1      5.361      9.925
REMARK SMILES C[C@H]1[C@H](C(=O)OCCOC(=O)c2ccc(-c3c4nc(c(-c5cccc(S(=O)(=O)[O-])c5F)c5ccc([nH]5)c(-c5cccc(S(=O)(=O)[O-])c5F)c5nc(c(-c6cccc(S(=O)(=O)[O-])c6F)c6ccc3[nH]6)C=C5)C=C4)cc2)CCN1C(=O)Nc1ccc(F)c(Cl)c1
REMARK SMILES IDX 8 1 7 2 6 3 4 4 5 5 3 6 1 7 2 8 77 9 75 10 76 11 78 12 79 13
REMARK SMILES IDX 80 14 81 16 82 17 88 18 83 19 86 20 84 21 87 22 85 23 9 24
REMARK SMILES IDX 10 25 11 26 12 27 13 28 74 29 14 30 73 31 15 32 16 33 17 34
REMARK SMILES IDX 67 35 18 36 72 37 66 38 68 39 19 40 71 41 65 42 64 43 20 45
REMARK SMILES IDX 52 46 32 47 51 48 33 49 36 50 50 51 69 52 34 53 35 54 49 56
REMARK SMILES IDX 70 57 37 58 21 59 22 60 30 61 23 62 25 63 31 64 24 65 26 66
REMARK SMILES IDX 27 67 28 68 29 69 53 70 54 71 62 72 55 73 57 74 63 75 56 76
REMARK SMILES IDX 58 77 59 78 60 79 61 80 38 81 39 82 47 83 40 84 42 85 48 86
REMARK SMILES IDX 41 87 43 88 44 89 45 90 46 91
REMARK H PARENT 80 15 68 44 36 55
REMARK Flexibility Score: inf
ROOT
ATOM      1  C   UNL A   1      31.761  29.482  25.968  1.00  0.00     0.275 C 
ENDROOT
BRANCH   1   2
ATOM      2  C   UNL A   1      31.046  29.441  24.615  1.00  0.00     0.274 C 
BRANCH   2   3
ATOM      3  O   UNL A   1      31.583  28.425  23.745  1.00  0.00    -0.462 OA
BRANCH   3   4
ATOM      4  C   UNL A   1      30.804  27.329  23.560  1.00  0.00     0.311 C 
ATOM      5  O   UNL A   1      29.602  27.361  23.323  1.00  0.00    -0.252 OA
BRANCH   4   6
ATOM      6  C   UNL A   1      31.539  26.022  23.762  1.00  0.00     0.123 C 
ATOM      7  C   UNL A   1      33.282  25.629  25.548  1.00  0.00     0.032 C 
ATOM      8  C   UNL A   1      31.782  25.599  25.229  1.00  0.00     0.098 C 
ATOM      9  N   UNL A   1      31.232  24.238  25.328  1.00  0.00    -0.321 N 
ATOM     10  C   UNL A   1      30.743  24.891  23.122  1.00  0.00     0.039 C 
ATOM     11  C   UNL A   1      31.034  23.695  23.997  1.00  0.00     0.122 C 
BRANCH   9  12
ATOM     12  C   UNL A   1      31.114  23.389  26.394  1.00  0.00     0.322 C 
ATOM     13  O   UNL A   1      30.248  23.572  27.257  1.00  0.00    -0.248 OA
ATOM     14  N   UNL A   1      31.798  22.223  26.472  1.00  0.00    -0.308 N 
ATOM     15  H   UNL A   1      31.299  21.527  26.958  1.00  0.00     0.171 HD
BRANCH  14  16
ATOM     16  C   UNL A   1      33.044  21.777  26.024  1.00  0.00     0.044 A 
ATOM     17  C   UNL A   1      33.080  20.509  25.428  1.00  0.00     0.029 A 
ATOM     18  C   UNL A   1      34.230  22.485  26.217  1.00  0.00     0.049 A 
ATOM     19  C   UNL A   1      34.278  19.995  24.931  1.00  0.00     0.043 A 
ATOM     20  C   UNL A   1      35.437  21.949  25.755  1.00  0.00     0.078 A 
ATOM     21  C   UNL A   1      35.451  20.722  25.092  1.00  0.00     0.141 A 
ATOM     22  Cl  UNL A   1      36.911  22.787  26.056  1.00  0.00    -0.081 Cl
ATOM     23  F   UNL A   1      36.596  20.203  24.624  1.00  0.00    -0.205 F 
ENDBRANCH  14  16
ENDBRANCH   9  12
ENDBRANCH   4   6
ENDBRANCH   3   4
ENDBRANCH   2   3
ENDBRANCH   1   2
BRANCH   1  24
ATOM     24  O   UNL A   1      33.042  30.125  25.891  1.00  0.00    -0.458 OA
BRANCH  24  25
ATOM     25  C   UNL A   1      33.260  31.083  26.821  1.00  0.00     0.338 C 
ATOM     26  O   UNL A   1      32.489  31.949  27.196  1.00  0.00    -0.246 OA
BRANCH  25  27
ATOM     27  C   UNL A   1      34.567  30.867  27.447  1.00  0.00     0.060 A 
ATOM     28  C   UNL A   1      34.925  29.565  27.804  1.00  0.00     0.016 A 
ATOM     29  C   UNL A   1      35.383  31.951  27.761  1.00  0.00     0.016 A 
ATOM     30  C   UNL A   1      36.101  29.337  28.507  1.00  0.00     0.010 A 
ATOM     31  C   UNL A   1      36.580  31.717  28.439  1.00  0.00     0.010 A 
ATOM     32  C   UNL A   1      36.937  30.412  28.825  1.00  0.00    -0.014 A 
BRANCH  32  33
ATOM     33  C   UNL A   1      38.201  30.187  29.555  1.00  0.00     0.031 A 
ATOM     34  C   UNL A   1      39.234  29.263  28.984  1.00  0.00     0.074 A 
ATOM     35  C   UNL A   1      38.373  30.762  30.759  1.00  0.00     0.049 A 
ATOM     36  N   UNL A   1      40.309  28.782  29.547  1.00  0.00    -0.248 NA
ATOM     37  C   UNL A   1      39.024  28.812  27.598  1.00  0.00     0.031 C 
ATOM     38  C   UNL A   1      37.434  31.689  31.393  1.00  0.00     0.029 A 
ATOM     39  N   UNL A   1      39.377  30.618  31.683  1.00  0.00    -0.354 N 
ATOM     40  C   UNL A   1      40.877  27.931  28.609  1.00  0.00     0.074 A 
ATOM     41  C   UNL A   1      40.035  27.971  27.433  1.00  0.00     0.031 C 
ATOM     42  C   UNL A   1      37.887  32.005  32.616  1.00  0.00     0.029 A 
ATOM     43  C   UNL A   1      39.118  31.264  32.869  1.00  0.00     0.049 A 
ATOM     44  H   UNL A   1      40.200  30.105  31.513  1.00  0.00     0.167 HD
ATOM     45  C   UNL A   1      42.002  27.187  28.724  1.00  0.00     0.034 A 
ATOM     46  C   UNL A   1      39.775  31.222  34.044  1.00  0.00     0.034 A 
ATOM     47  C   UNL A   1      42.844  27.189  29.889  1.00  0.00     0.049 A 
ATOM     48  C   UNL A   1      41.017  30.381  34.148  1.00  0.00     0.074 A 
ATOM     49  C   UNL A   1      44.025  26.501  30.098  1.00  0.00     0.029 A 
ATOM     50  N   UNL A   1      42.592  27.914  31.044  1.00  0.00    -0.354 N 
ATOM     51  N   UNL A   1      41.588  29.641  33.227  1.00  0.00    -0.248 NA
ATOM     52  C   UNL A   1      41.718  30.381  35.438  1.00  0.00     0.031 C 
ATOM     53  C   UNL A   1      44.483  26.804  31.384  1.00  0.00     0.029 A 
ATOM     54  C   UNL A   1      43.594  27.692  31.970  1.00  0.00     0.049 A 
ATOM     55  H   UNL A   1      41.814  28.502  31.184  1.00  0.00     0.167 HD
ATOM     56  C   UNL A   1      42.733  29.117  33.814  1.00  0.00     0.074 A 
ATOM     57  C   UNL A   1      42.780  29.633  35.167  1.00  0.00     0.031 C 
ATOM     58  C   UNL A   1      43.654  28.275  33.287  1.00  0.00     0.034 A 
BRANCH  45  59
ATOM     59  C   UNL A   1      42.400  26.330  27.554  1.00  0.00     0.023 A 
ATOM     60  C   UNL A   1      43.256  26.854  26.567  1.00  0.00     0.012 A 
ATOM     61  C   UNL A   1      41.976  24.989  27.463  1.00  0.00     0.148 A 
ATOM     62  C   UNL A   1      43.667  26.066  25.493  1.00  0.00     0.002 A 
ATOM     63  C   UNL A   1      42.418  24.198  26.408  1.00  0.00     0.091 A 
ATOM     64  F   UNL A   1      41.140  24.517  28.397  1.00  0.00    -0.205 F 
ATOM     65  C   UNL A   1      43.257  24.738  25.419  1.00  0.00     0.022 A 
BRANCH  63  66
ATOM     66  S   UNL A   1      41.997  22.458  26.265  1.00  0.00     0.127 S 
ATOM     67  O   UNL A   1      42.651  22.098  25.008  1.00  0.00    -0.237 OA
ATOM     68  O   UNL A   1      42.619  21.888  27.461  1.00  0.00    -0.237 OA
ATOM     69  O   UNL A   1      40.541  22.401  26.256  1.00  0.00    -0.744 OA
ENDBRANCH  63  66
ENDBRANCH  45  59
BRANCH  46  70
ATOM     70  C   UNL A   1      39.279  32.025  35.196  1.00  0.00     0.023 A 
ATOM     71  C   UNL A   1      38.373  31.442  36.102  1.00  0.00     0.012 A 
ATOM     72  C   UNL A   1      39.741  33.334  35.433  1.00  0.00     0.148 A 
ATOM     73  C   UNL A   1      37.923  32.155  37.214  1.00  0.00     0.002 A 
ATOM     74  C   UNL A   1      39.330  34.020  36.571  1.00  0.00     0.091 A 
ATOM     75  F   UNL A   1      40.589  33.881  34.549  1.00  0.00    -0.205 F 
ATOM     76  C   UNL A   1      38.411  33.437  37.456  1.00  0.00     0.022 A 
BRANCH  74  77
ATOM     77  S   UNL A   1      40.016  35.617  37.026  1.00  0.00     0.127 S 
ATOM     78  O   UNL A   1      41.438  35.310  37.143  1.00  0.00    -0.237 OA
ATOM     79  O   UNL A   1      39.657  36.446  35.875  1.00  0.00    -0.237 OA
ATOM     80  O   UNL A   1      39.339  35.992  38.262  1.00  0.00    -0.744 OA
ENDBRANCH  74  77
ENDBRANCH  46  70
BRANCH  58  81
ATOM     81  C   UNL A   1      44.822  27.886  34.149  1.00  0.00     0.023 A 
ATOM     82  C   UNL A   1      45.947  28.729  34.220  1.00  0.00     0.012 A 
ATOM     83  C   UNL A   1      44.750  26.747  34.976  1.00  0.00     0.148 A 
ATOM     84  C   UNL A   1      46.994  28.435  35.092  1.00  0.00     0.002 A 
ATOM     85  C   UNL A   1      45.778  26.485  35.873  1.00  0.00     0.091 A 
ATOM     86  F   UNL A   1      43.675  25.952  34.876  1.00  0.00    -0.205 F 
ATOM     87  C   UNL A   1      46.902  27.324  35.928  1.00  0.00     0.022 A 
BRANCH  85  88
ATOM     88  S   UNL A   1      45.704  25.130  37.050  1.00  0.00     0.127 S 
ATOM     89  O   UNL A   1      44.341  25.256  37.564  1.00  0.00    -0.237 OA
ATOM     90  O   UNL A   1      45.930  23.964  36.194  1.00  0.00    -0.237 OA
ATOM     91  O   UNL A   1      46.762  25.381  38.019  1.00  0.00    -0.744 OA
ENDBRANCH  85  88
ENDBRANCH  58  81
ENDBRANCH  32  33
ENDBRANCH  25  27
ENDBRANCH  24  25
ENDBRANCH   1  24
TORSDOF 16
ENDMDL
