MODEL 1
REMARK VINA RESULT:     -11.5      0.000      0.000
REMARK SMILES CC(C)(C)OC(=O)N[C@@H](C(=O)OCCOC(=O)c1ccc(-c2c3nc(c(-c4cccc(S(=O)(=O)[O-])c4F)c4ccc([nH]4)c(-c4cccc(S(=O)(=O)[O-])c4F)c4nc(c(-c5cccc(S(=O)(=O)[O-])c5F)c5ccc2[nH]5)C=C4)C=C3)cc1)[C@H](O)c1ccccc1F
REMARK SMILES IDX 13 1 12 2 10 3 11 4 9 5 8 6 6 7 7 8 5 10 2 11 1 12 3 13 4 14
REMARK SMILES IDX 81 15 83 16 84 17 88 18 85 19 87 20 89 21 86 22 82 23 14 25
REMARK SMILES IDX 15 26 16 27 17 28 18 29 19 30 80 31 20 32 79 33 21 34 22 35
REMARK SMILES IDX 23 36 73 37 24 38 78 39 72 40 74 41 25 42 77 43 71 44 70 45
REMARK SMILES IDX 26 47 58 48 38 49 57 50 39 51 42 52 56 53 75 54 40 55 41 56
REMARK SMILES IDX 55 58 76 59 43 60 27 61 28 62 36 63 29 64 31 65 37 66 30 67
REMARK SMILES IDX 32 68 33 69 34 70 35 71 59 72 60 73 68 74 61 75 63 76 69 77
REMARK SMILES IDX 62 78 64 79 65 80 66 81 67 82 44 83 45 84 53 85 46 86 48 87
REMARK SMILES IDX 54 88 47 89 49 90 50 91 51 92 52 93
REMARK H PARENT 8 9 82 24 74 46 42 57
REMARK Flexibility Score: inf
ROOT
ATOM      1  C   UNL A   1      31.681  28.512  27.452  1.00  0.00     0.274 C 
ENDROOT
BRANCH   1   2
ATOM      2  O   UNL A   1      31.371  27.546  26.430  1.00  0.00    -0.460 OA
BRANCH   2   3
ATOM      3  C   UNL A   1      32.412  27.089  25.661  1.00  0.00     0.331 C 
ATOM      4  O   UNL A   1      33.516  26.861  26.130  1.00  0.00    -0.250 OA
BRANCH   3   5
ATOM      5  C   UNL A   1      32.027  27.060  24.167  1.00  0.00     0.228 C 
BRANCH   5   6
ATOM      6  N   UNL A   1      33.168  26.494  23.406  1.00  0.00    -0.305 N 
ATOM      7  C   UNL A   1      33.181  25.254  22.861  1.00  0.00     0.408 C 
ATOM      8  O   UNL A   1      34.068  24.872  22.111  1.00  0.00    -0.225 OA
ATOM      9  H   UNL A   1      33.967  27.057  23.291  1.00  0.00     0.168 HD
BRANCH   7  10
ATOM     10  O   UNL A   1      32.121  24.538  23.283  1.00  0.00    -0.444 OA
BRANCH  10  11
ATOM     11  C   UNL A   1      32.262  23.351  24.088  1.00  0.00     0.106 C 
ATOM     12  C   UNL A   1      30.971  23.310  24.917  1.00  0.00     0.056 C 
ATOM     13  C   UNL A   1      33.453  23.451  25.045  1.00  0.00     0.056 C 
ATOM     14  C   UNL A   1      32.331  22.120  23.185  1.00  0.00     0.056 C 
ENDBRANCH  10  11
ENDBRANCH   7  10
ENDBRANCH   5   6
BRANCH   5  15
ATOM     15  C   UNL A   1      31.599  28.348  23.409  1.00  0.00     0.181 C 
BRANCH  15  16
ATOM     16  C   UNL A   1      30.138  28.737  23.321  1.00  0.00     0.019 A 
ATOM     17  C   UNL A   1      29.806  30.110  23.305  1.00  0.00     0.009 A 
ATOM     18  C   UNL A   1      29.080  27.833  23.276  1.00  0.00     0.129 A 
ATOM     19  C   UNL A   1      28.483  30.541  23.183  1.00  0.00     0.001 A 
ATOM     20  C   UNL A   1      27.754  28.254  23.152  1.00  0.00     0.039 A 
ATOM     21  F   UNL A   1      29.293  26.521  23.359  1.00  0.00    -0.207 F 
ATOM     22  C   UNL A   1      27.454  29.611  23.092  1.00  0.00     0.003 A 
ENDBRANCH  15  16
BRANCH  15  23
ATOM     23  O   UNL A   1      32.405  29.487  23.670  1.00  0.00    -0.386 OA
ATOM     24  H   UNL A   1      32.097  30.230  23.128  1.00  0.00     0.211 HD
ENDBRANCH  15  23
ENDBRANCH   5  15
ENDBRANCH   3   5
ENDBRANCH   2   3
ENDBRANCH   1   2
BRANCH   1  25
ATOM     25  C   UNL A   1      31.596  29.932  26.890  1.00  0.00     0.275 C 
BRANCH  25  26
ATOM     26  O   UNL A   1      32.882  30.419  26.470  1.00  0.00    -0.458 OA
BRANCH  26  27
ATOM     27  C   UNL A   1      33.379  31.434  27.209  1.00  0.00     0.338 C 
ATOM     28  O   UNL A   1      32.778  32.405  27.653  1.00  0.00    -0.246 OA
BRANCH  27  29
ATOM     29  C   UNL A   1      34.778  31.176  27.547  1.00  0.00     0.060 A 
ATOM     30  C   UNL A   1      35.132  29.870  27.868  1.00  0.00     0.016 A 
ATOM     31  C   UNL A   1      35.648  32.233  27.799  1.00  0.00     0.016 A 
ATOM     32  C   UNL A   1      36.281  29.629  28.606  1.00  0.00     0.010 A 
ATOM     33  C   UNL A   1      36.873  31.964  28.413  1.00  0.00     0.010 A 
ATOM     34  C   UNL A   1      37.180  30.666  28.867  1.00  0.00    -0.014 A 
BRANCH  34  35
ATOM     35  C   UNL A   1      38.441  30.405  29.606  1.00  0.00     0.031 A 
ATOM     36  C   UNL A   1      39.469  29.469  29.032  1.00  0.00     0.074 A 
ATOM     37  C   UNL A   1      38.627  30.957  30.822  1.00  0.00     0.049 A 
ATOM     38  N   UNL A   1      40.469  28.875  29.627  1.00  0.00    -0.248 NA
ATOM     39  C   UNL A   1      39.339  29.135  27.603  1.00  0.00     0.031 C 
ATOM     40  C   UNL A   1      37.727  31.918  31.466  1.00  0.00     0.029 A 
ATOM     41  N   UNL A   1      39.614  30.755  31.753  1.00  0.00    -0.354 N 
ATOM     42  C   UNL A   1      41.034  28.033  28.675  1.00  0.00     0.074 A 
ATOM     43  C   UNL A   1      40.276  28.207  27.455  1.00  0.00     0.031 C 
ATOM     44  C   UNL A   1      38.193  32.212  32.687  1.00  0.00     0.029 A 
ATOM     45  C   UNL A   1      39.357  31.380  32.952  1.00  0.00     0.049 A 
ATOM     46  H   UNL A   1      40.422  30.218  31.583  1.00  0.00     0.167 HD
ATOM     47  C   UNL A   1      42.083  27.189  28.818  1.00  0.00     0.034 A 
ATOM     48  C   UNL A   1      39.936  31.242  34.158  1.00  0.00     0.034 A 
ATOM     49  C   UNL A   1      42.850  27.074  30.031  1.00  0.00     0.049 A 
ATOM     50  C   UNL A   1      41.077  30.281  34.301  1.00  0.00     0.074 A 
ATOM     51  C   UNL A   1      43.960  26.286  30.277  1.00  0.00     0.029 A 
ATOM     52  N   UNL A   1      42.585  27.769  31.202  1.00  0.00    -0.354 N 
ATOM     53  N   UNL A   1      41.615  29.503  33.393  1.00  0.00    -0.248 NA
ATOM     54  C   UNL A   1      41.704  30.187  35.625  1.00  0.00     0.031 C 
ATOM     55  C   UNL A   1      44.339  26.473  31.609  1.00  0.00     0.029 A 
ATOM     56  C   UNL A   1      43.503  27.422  32.177  1.00  0.00     0.049 A 
ATOM     57  H   UNL A   1      41.851  28.415  31.322  1.00  0.00     0.167 HD
ATOM     58  C   UNL A   1      42.675  28.865  34.020  1.00  0.00     0.074 A 
ATOM     59  C   UNL A   1      42.703  29.347  35.386  1.00  0.00     0.031 C 
ATOM     60  C   UNL A   1      43.547  27.962  33.512  1.00  0.00     0.034 A 
BRANCH  47  61
ATOM     61  C   UNL A   1      42.459  26.311  27.650  1.00  0.00     0.023 A 
ATOM     62  C   UNL A   1      43.327  26.790  26.648  1.00  0.00     0.012 A 
ATOM     63  C   UNL A   1      41.995  24.980  27.579  1.00  0.00     0.148 A 
ATOM     64  C   UNL A   1      43.693  25.975  25.576  1.00  0.00     0.002 A 
ATOM     65  C   UNL A   1      42.404  24.159  26.536  1.00  0.00     0.091 A 
ATOM     66  F   UNL A   1      41.159  24.544  28.532  1.00  0.00    -0.205 F 
ATOM     67  C   UNL A   1      43.241  24.659  25.525  1.00  0.00     0.022 A 
BRANCH  65  68
ATOM     68  S   UNL A   1      41.946  22.425  26.427  1.00  0.00     0.127 S 
ATOM     69  O   UNL A   1      40.488  22.511  26.336  1.00  0.00    -0.237 OA
ATOM     70  O   UNL A   1      42.610  22.008  25.192  1.00  0.00    -0.237 OA
ATOM     71  O   UNL A   1      42.457  21.795  27.635  1.00  0.00    -0.744 OA
ENDBRANCH  65  68
ENDBRANCH  47  61
BRANCH  48  72
ATOM     72  C   UNL A   1      39.430  32.030  35.316  1.00  0.00     0.023 A 
ATOM     73  C   UNL A   1      38.541  31.429  36.226  1.00  0.00     0.012 A 
ATOM     74  C   UNL A   1      39.866  33.351  35.551  1.00  0.00     0.148 A 
ATOM     75  C   UNL A   1      38.072  32.136  37.333  1.00  0.00     0.002 A 
ATOM     76  C   UNL A   1      39.442  34.028  36.687  1.00  0.00     0.091 A 
ATOM     77  F   UNL A   1      40.710  33.908  34.671  1.00  0.00    -0.205 F 
ATOM     78  C   UNL A   1      38.531  33.430  37.570  1.00  0.00     0.022 A 
BRANCH  76  79
ATOM     79  S   UNL A   1      40.083  35.642  37.147  1.00  0.00     0.127 S 
ATOM     80  O   UNL A   1      39.673  36.461  36.009  1.00  0.00    -0.237 OA
ATOM     81  O   UNL A   1      39.360  35.910  38.390  1.00  0.00    -0.237 OA
ATOM     82  O   UNL A   1      41.519  35.467  37.311  1.00  0.00    -0.744 OA
ENDBRANCH  76  79
ENDBRANCH  48  72
BRANCH  60  83
ATOM     83  C   UNL A   1      44.668  27.498  34.400  1.00  0.00     0.023 A 
ATOM     84  C   UNL A   1      45.841  28.264  34.531  1.00  0.00     0.012 A 
ATOM     85  C   UNL A   1      44.501  26.338  35.183  1.00  0.00     0.148 A 
ATOM     86  C   UNL A   1      46.844  27.869  35.416  1.00  0.00     0.002 A 
ATOM     87  C   UNL A   1      45.478  25.982  36.101  1.00  0.00     0.091 A 
ATOM     88  F   UNL A   1      43.384  25.615  35.022  1.00  0.00    -0.205 F 
ATOM     89  C   UNL A   1      46.656  26.739  36.211  1.00  0.00     0.022 A 
BRANCH  87  90
ATOM     90  S   UNL A   1      45.274  24.609  37.240  1.00  0.00     0.127 S 
ATOM     91  O   UNL A   1      46.521  24.666  38.001  1.00  0.00    -0.237 OA
ATOM     92  O   UNL A   1      44.082  25.006  37.990  1.00  0.00    -0.237 OA
ATOM     93  O   UNL A   1      45.105  23.420  36.416  1.00  0.00    -0.744 OA
ENDBRANCH  87  90
ENDBRANCH  60  83
ENDBRANCH  34  35
ENDBRANCH  27  29
ENDBRANCH  26  27
ENDBRANCH  25  26
ENDBRANCH   1  25
TORSDOF 20
ENDMDL
MODEL 2
REMARK VINA RESULT:     -11.0      5.290     10.396
REMARK SMILES CC(C)(C)OC(=O)N[C@@H](C(=O)OCCOC(=O)c1ccc(-c2c3nc(c(-c4cccc(S(=O)(=O)[O-])c4F)c4ccc([nH]4)c(-c4cccc(S(=O)(=O)[O-])c4F)c4nc(c(-c5cccc(S(=O)(=O)[O-])c5F)c5ccc2[nH]5)C=C4)C=C3)cc1)[C@H](O)c1ccccc1F
REMARK SMILES IDX 13 1 12 2 10 3 11 4 9 5 8 6 6 7 7 8 5 10 2 11 1 12 3 13 4 14
REMARK SMILES IDX 81 15 83 16 84 17 88 18 85 19 87 20 89 21 86 22 82 23 14 25
REMARK SMILES IDX 15 26 16 27 17 28 18 29 19 30 80 31 20 32 79 33 21 34 22 35
REMARK SMILES IDX 23 36 73 37 24 38 78 39 72 40 74 41 25 42 77 43 71 44 70 45
REMARK SMILES IDX 26 47 58 48 38 49 57 50 39 51 42 52 56 53 75 54 40 55 41 56
REMARK SMILES IDX 55 58 76 59 43 60 27 61 28 62 36 63 29 64 31 65 37 66 30 67
REMARK SMILES IDX 32 68 33 69 34 70 35 71 59 72 60 73 68 74 61 75 63 76 69 77
REMARK SMILES IDX 62 78 64 79 65 80 66 81 67 82 44 83 45 84 53 85 46 86 48 87
REMARK SMILES IDX 54 88 47 89 49 90 50 91 51 92 52 93
REMARK H PARENT 8 9 82 24 74 46 42 57
REMARK Flexibility Score: inf
ROOT
ATOM      1  C   UNL A   1      36.318  20.690  24.652  1.00  0.00     0.274 C 
ENDROOT
BRANCH   1   2
ATOM      2  O   UNL A   1      35.599  21.120  25.823  1.00  0.00    -0.460 OA
BRANCH   2   3
ATOM      3  C   UNL A   1      34.853  22.268  25.716  1.00  0.00     0.331 C 
ATOM      4  O   UNL A   1      35.351  23.378  25.808  1.00  0.00    -0.250 OA
BRANCH   3   5
ATOM      5  C   UNL A   1      33.347  21.943  25.623  1.00  0.00     0.228 C 
BRANCH   5   6
ATOM      6  N   UNL A   1      32.638  22.740  26.654  1.00  0.00    -0.305 N 
ATOM      7  C   UNL A   1      31.741  23.718  26.378  1.00  0.00     0.408 C 
ATOM      8  O   UNL A   1      31.059  24.250  27.242  1.00  0.00    -0.225 OA
ATOM      9  H   UNL A   1      32.832  22.547  27.599  1.00  0.00     0.168 HD
BRANCH   7  10
ATOM     10  O   UNL A   1      31.744  24.009  25.063  1.00  0.00    -0.444 OA
BRANCH  10  11
ATOM     11  C   UNL A   1      32.214  25.271  24.553  1.00  0.00     0.106 C 
ATOM     12  C   UNL A   1      33.079  24.883  23.345  1.00  0.00     0.056 C 
ATOM     13  C   UNL A   1      33.096  26.003  25.569  1.00  0.00     0.056 C 
ATOM     14  C   UNL A   1      31.028  26.113  24.084  1.00  0.00     0.056 C 
ENDBRANCH  10  11
ENDBRANCH   7  10
ENDBRANCH   5   6
BRANCH   5  15
ATOM     15  C   UNL A   1      32.816  20.489  25.761  1.00  0.00     0.181 C 
BRANCH  15  16
ATOM     16  C   UNL A   1      32.857  19.541  24.580  1.00  0.00     0.019 A 
ATOM     17  C   UNL A   1      33.524  18.306  24.730  1.00  0.00     0.009 A 
ATOM     18  C   UNL A   1      32.298  19.807  23.333  1.00  0.00     0.129 A 
ATOM     19  C   UNL A   1      33.566  17.366  23.697  1.00  0.00     0.001 A 
ATOM     20  C   UNL A   1      32.331  18.874  22.295  1.00  0.00     0.039 A 
ATOM     21  F   UNL A   1      31.712  20.976  23.077  1.00  0.00    -0.207 F 
ATOM     22  C   UNL A   1      32.955  17.645  22.479  1.00  0.00     0.003 A 
ENDBRANCH  15  16
BRANCH  15  23
ATOM     23  O   UNL A   1      33.209  19.821  26.951  1.00  0.00    -0.386 OA
ATOM     24  H   UNL A   1      33.461  18.909  26.740  1.00  0.00     0.211 HD
ENDBRANCH  15  23
ENDBRANCH   5  15
ENDBRANCH   3   5
ENDBRANCH   2   3
ENDBRANCH   1   2
BRANCH   1  25
ATOM     25  C   UNL A   1      37.786  20.428  24.992  1.00  0.00     0.275 C 
BRANCH  25  26
ATOM     26  O   UNL A   1      38.429  21.598  25.526  1.00  0.00    -0.458 OA
BRANCH  26  27
ATOM     27  C   UNL A   1      39.561  21.361  26.223  1.00  0.00     0.338 C 
ATOM     28  O   UNL A   1      40.273  20.365  26.183  1.00  0.00    -0.246 OA
BRANCH  27  29
ATOM     29  C   UNL A   1      39.937  22.544  26.996  1.00  0.00     0.060 A 
ATOM     30  C   UNL A   1      39.452  23.774  26.565  1.00  0.00     0.016 A 
ATOM     31  C   UNL A   1      40.949  22.470  27.949  1.00  0.00     0.016 A 
ATOM     32  C   UNL A   1      40.095  24.941  26.949  1.00  0.00     0.010 A 
ATOM     33  C   UNL A   1      41.496  23.657  28.442  1.00  0.00     0.010 A 
ATOM     34  C   UNL A   1      41.107  24.903  27.911  1.00  0.00    -0.014 A 
BRANCH  34  35
ATOM     35  C   UNL A   1      41.762  26.154  28.371  1.00  0.00     0.031 A 
ATOM     36  C   UNL A   1      40.962  27.192  29.109  1.00  0.00     0.074 A 
ATOM     37  C   UNL A   1      43.054  26.382  28.062  1.00  0.00     0.049 A 
ATOM     38  N   UNL A   1      41.242  28.450  29.325  1.00  0.00    -0.248 NA
ATOM     39  C   UNL A   1      39.662  26.766  29.656  1.00  0.00     0.031 C 
ATOM     40  C   UNL A   1      43.949  25.434  27.392  1.00  0.00     0.029 A 
ATOM     41  N   UNL A   1      43.829  27.501  28.233  1.00  0.00    -0.354 N 
ATOM     42  C   UNL A   1      40.123  28.987  29.952  1.00  0.00     0.074 A 
ATOM     43  C   UNL A   1      39.165  27.913  30.099  1.00  0.00     0.031 C 
ATOM     44  C   UNL A   1      45.141  26.012  27.196  1.00  0.00     0.029 A 
ATOM     45  C   UNL A   1      45.060  27.400  27.625  1.00  0.00     0.049 A 
ATOM     46  H   UNL A   1      43.536  28.295  28.736  1.00  0.00     0.167 HD
ATOM     47  C   UNL A   1      39.918  30.264  30.355  1.00  0.00     0.034 A 
ATOM     48  C   UNL A   1      45.991  28.334  27.363  1.00  0.00     0.034 A 
ATOM     49  C   UNL A   1      40.910  31.301  30.240  1.00  0.00     0.049 A 
ATOM     50  C   UNL A   1      45.732  29.746  27.792  1.00  0.00     0.074 A 
ATOM     51  C   UNL A   1      40.831  32.618  30.654  1.00  0.00     0.029 A 
ATOM     52  N   UNL A   1      42.163  31.136  29.667  1.00  0.00    -0.354 N 
ATOM     53  N   UNL A   1      44.680  30.241  28.399  1.00  0.00    -0.248 NA
ATOM     54  C   UNL A   1      46.789  30.727  27.520  1.00  0.00     0.031 C 
ATOM     55  C   UNL A   1      42.019  33.260  30.294  1.00  0.00     0.029 A 
ATOM     56  C   UNL A   1      42.863  32.329  29.709  1.00  0.00     0.049 A 
ATOM     57  H   UNL A   1      42.505  30.294  29.287  1.00  0.00     0.167 HD
ATOM     58  C   UNL A   1      44.969  31.579  28.627  1.00  0.00     0.074 A 
ATOM     59  C   UNL A   1      46.294  31.817  28.092  1.00  0.00     0.031 C 
ATOM     60  C   UNL A   1      44.205  32.525  29.224  1.00  0.00     0.034 A 
BRANCH  47  61
ATOM     61  C   UNL A   1      38.575  30.622  30.942  1.00  0.00     0.023 A 
ATOM     62  C   UNL A   1      38.301  30.371  32.302  1.00  0.00     0.012 A 
ATOM     63  C   UNL A   1      37.601  31.268  30.152  1.00  0.00     0.148 A 
ATOM     64  C   UNL A   1      37.067  30.719  32.854  1.00  0.00     0.002 A 
ATOM     65  C   UNL A   1      36.395  31.657  30.721  1.00  0.00     0.091 A 
ATOM     66  F   UNL A   1      37.871  31.486  28.857  1.00  0.00    -0.205 F 
ATOM     67  C   UNL A   1      36.120  31.370  32.068  1.00  0.00     0.022 A 
BRANCH  65  68
ATOM     68  S   UNL A   1      35.144  32.575  29.815  1.00  0.00     0.127 S 
ATOM     69  O   UNL A   1      35.899  33.750  29.377  1.00  0.00    -0.237 OA
ATOM     70  O   UNL A   1      34.794  31.642  28.743  1.00  0.00    -0.237 OA
ATOM     71  O   UNL A   1      34.072  32.842  30.763  1.00  0.00    -0.744 OA
ENDBRANCH  65  68
ENDBRANCH  47  61
BRANCH  48  72
ATOM     72  C   UNL A   1      47.242  27.951  26.650  1.00  0.00     0.023 A 
ATOM     73  C   UNL A   1      48.339  27.471  27.388  1.00  0.00     0.012 A 
ATOM     74  C   UNL A   1      47.330  28.010  25.244  1.00  0.00     0.148 A 
ATOM     75  C   UNL A   1      49.513  27.081  26.743  1.00  0.00     0.002 A 
ATOM     76  C   UNL A   1      48.480  27.564  24.603  1.00  0.00     0.091 A 
ATOM     77  F   UNL A   1      46.276  28.475  24.558  1.00  0.00    -0.205 F 
ATOM     78  C   UNL A   1      49.579  27.117  25.352  1.00  0.00     0.022 A 
BRANCH  76  79
ATOM     79  S   UNL A   1      48.608  27.445  22.816  1.00  0.00     0.127 S 
ATOM     80  O   UNL A   1      48.457  26.008  22.601  1.00  0.00    -0.237 OA
ATOM     81  O   UNL A   1      47.471  28.255  22.378  1.00  0.00    -0.237 OA
ATOM     82  O   UNL A   1      49.910  28.000  22.473  1.00  0.00    -0.744 OA
ENDBRANCH  76  79
ENDBRANCH  48  72
BRANCH  60  83
ATOM     83  C   UNL A   1      44.811  33.887  29.422  1.00  0.00     0.023 A 
ATOM     84  C   UNL A   1      45.573  34.172  30.570  1.00  0.00     0.012 A 
ATOM     85  C   UNL A   1      44.696  34.854  28.403  1.00  0.00     0.148 A 
ATOM     86  C   UNL A   1      46.198  35.411  30.710  1.00  0.00     0.002 A 
ATOM     87  C   UNL A   1      45.366  36.063  28.525  1.00  0.00     0.091 A 
ATOM     88  F   UNL A   1      43.946  34.565  27.331  1.00  0.00    -0.205 F 
ATOM     89  C   UNL A   1      46.107  36.348  29.683  1.00  0.00     0.022 A 
BRANCH  87  90
ATOM     90  S   UNL A   1      45.395  37.284  27.209  1.00  0.00     0.127 S 
ATOM     91  O   UNL A   1      43.972  37.423  26.901  1.00  0.00    -0.237 OA
ATOM     92  O   UNL A   1      45.992  38.441  27.876  1.00  0.00    -0.237 OA
ATOM     93  O   UNL A   1      46.206  36.712  26.142  1.00  0.00    -0.744 OA
ENDBRANCH  87  90
ENDBRANCH  60  83
ENDBRANCH  34  35
ENDBRANCH  27  29
ENDBRANCH  26  27
ENDBRANCH  25  26
ENDBRANCH   1  25
TORSDOF 20
ENDMDL
MODEL 3
REMARK VINA RESULT:     -11.0      4.918     10.151
REMARK SMILES CC(C)(C)OC(=O)N[C@@H](C(=O)OCCOC(=O)c1ccc(-c2c3nc(c(-c4cccc(S(=O)(=O)[O-])c4F)c4ccc([nH]4)c(-c4cccc(S(=O)(=O)[O-])c4F)c4nc(c(-c5cccc(S(=O)(=O)[O-])c5F)c5ccc2[nH]5)C=C4)C=C3)cc1)[C@H](O)c1ccccc1F
REMARK SMILES IDX 13 1 12 2 10 3 11 4 9 5 8 6 6 7 7 8 5 10 2 11 1 12 3 13 4 14
REMARK SMILES IDX 81 15 83 16 84 17 88 18 85 19 87 20 89 21 86 22 82 23 14 25
REMARK SMILES IDX 15 26 16 27 17 28 18 29 19 30 80 31 20 32 79 33 21 34 22 35
REMARK SMILES IDX 23 36 73 37 24 38 78 39 72 40 74 41 25 42 77 43 71 44 70 45
REMARK SMILES IDX 26 47 58 48 38 49 57 50 39 51 42 52 56 53 75 54 40 55 41 56
REMARK SMILES IDX 55 58 76 59 43 60 27 61 28 62 36 63 29 64 31 65 37 66 30 67
REMARK SMILES IDX 32 68 33 69 34 70 35 71 59 72 60 73 68 74 61 75 63 76 69 77
REMARK SMILES IDX 62 78 64 79 65 80 66 81 67 82 44 83 45 84 53 85 46 86 48 87
REMARK SMILES IDX 54 88 47 89 49 90 50 91 51 92 52 93
REMARK H PARENT 8 9 82 24 74 46 42 57
REMARK Flexibility Score: inf
ROOT
ATOM      1  C   UNL A   1      36.516  22.960  23.344  1.00  0.00     0.274 C 
ENDROOT
BRANCH   1   2
ATOM      2  O   UNL A   1      35.297  23.379  23.986  1.00  0.00    -0.460 OA
BRANCH   2   3
ATOM      3  C   UNL A   1      34.168  23.444  23.207  1.00  0.00     0.331 C 
ATOM      4  O   UNL A   1      34.219  23.499  21.990  1.00  0.00    -0.250 OA
BRANCH   3   5
ATOM      5  C   UNL A   1      32.901  23.584  24.079  1.00  0.00     0.228 C 
BRANCH   5   6
ATOM      6  N   UNL A   1      33.241  24.425  25.254  1.00  0.00    -0.305 N 
ATOM      7  C   UNL A   1      32.913  25.734  25.376  1.00  0.00     0.408 C 
ATOM      8  O   UNL A   1      33.067  26.359  26.415  1.00  0.00    -0.225 OA
ATOM      9  H   UNL A   1      33.737  24.003  25.992  1.00  0.00     0.168 HD
BRANCH   7  10
ATOM     10  O   UNL A   1      32.436  26.215  24.211  1.00  0.00    -0.444 OA
BRANCH  10  11
ATOM     11  C   UNL A   1      31.149  26.854  24.109  1.00  0.00     0.106 C 
ATOM     12  C   UNL A   1      30.820  26.786  22.611  1.00  0.00     0.056 C 
ATOM     13  C   UNL A   1      31.210  28.325  24.529  1.00  0.00     0.056 C 
ATOM     14  C   UNL A   1      30.112  26.056  24.898  1.00  0.00     0.056 C 
ENDBRANCH  10  11
ENDBRANCH   7  10
ENDBRANCH   5   6
BRANCH   5  15
ATOM     15  C   UNL A   1      32.153  22.342  24.639  1.00  0.00     0.181 C 
BRANCH  15  16
ATOM     16  C   UNL A   1      32.696  20.948  24.402  1.00  0.00     0.019 A 
ATOM     17  C   UNL A   1      32.101  20.155  23.396  1.00  0.00     0.009 A 
ATOM     18  C   UNL A   1      33.737  20.371  25.125  1.00  0.00     0.129 A 
ATOM     19  C   UNL A   1      32.577  18.876  23.095  1.00  0.00     0.001 A 
ATOM     20  C   UNL A   1      34.221  19.095  24.830  1.00  0.00     0.039 A 
ATOM     21  F   UNL A   1      34.310  21.016  26.139  1.00  0.00    -0.207 F 
ATOM     22  C   UNL A   1      33.650  18.349  23.805  1.00  0.00     0.003 A 
ENDBRANCH  15  16
BRANCH  15  23
ATOM     23  O   UNL A   1      31.690  22.477  25.974  1.00  0.00    -0.386 OA
ATOM     24  H   UNL A   1      30.730  22.609  25.970  1.00  0.00     0.211 HD
ENDBRANCH  15  23
ENDBRANCH   5  15
ENDBRANCH   3   5
ENDBRANCH   2   3
ENDBRANCH   1   2
BRANCH   1  25
ATOM     25  C   UNL A   1      37.042  21.673  23.983  1.00  0.00     0.275 C 
BRANCH  25  26
ATOM     26  O   UNL A   1      37.262  21.828  25.396  1.00  0.00    -0.458 OA
BRANCH  26  27
ATOM     27  C   UNL A   1      38.502  21.502  25.820  1.00  0.00     0.338 C 
ATOM     28  O   UNL A   1      39.162  20.513  25.524  1.00  0.00    -0.246 OA
BRANCH  27  29
ATOM     29  C   UNL A   1      39.059  22.581  26.634  1.00  0.00     0.060 A 
ATOM     30  C   UNL A   1      38.580  23.868  26.410  1.00  0.00     0.016 A 
ATOM     31  C   UNL A   1      40.202  22.369  27.398  1.00  0.00     0.016 A 
ATOM     32  C   UNL A   1      39.338  24.962  26.797  1.00  0.00     0.010 A 
ATOM     33  C   UNL A   1      40.884  23.476  27.910  1.00  0.00     0.010 A 
ATOM     34  C   UNL A   1      40.485  24.785  27.573  1.00  0.00    -0.014 A 
BRANCH  34  35
ATOM     35  C   UNL A   1      41.271  25.955  28.040  1.00  0.00     0.031 A 
ATOM     36  C   UNL A   1      40.603  27.034  28.848  1.00  0.00     0.074 A 
ATOM     37  C   UNL A   1      42.564  26.076  27.679  1.00  0.00     0.049 A 
ATOM     38  N   UNL A   1      41.006  28.254  29.090  1.00  0.00    -0.248 NA
ATOM     39  C   UNL A   1      39.295  26.708  29.441  1.00  0.00     0.031 C 
ATOM     40  C   UNL A   1      43.338  25.076  26.938  1.00  0.00     0.029 A 
ATOM     41  N   UNL A   1      43.445  27.114  27.848  1.00  0.00    -0.354 N 
ATOM     42  C   UNL A   1      39.970  28.867  29.784  1.00  0.00     0.074 A 
ATOM     43  C   UNL A   1      38.925  27.879  29.943  1.00  0.00     0.031 C 
ATOM     44  C   UNL A   1      44.568  25.550  26.705  1.00  0.00     0.029 A 
ATOM     45  C   UNL A   1      44.634  26.924  27.181  1.00  0.00     0.049 A 
ATOM     46  H   UNL A   1      43.248  27.913  28.389  1.00  0.00     0.167 HD
ATOM     47  C   UNL A   1      39.901  30.142  30.236  1.00  0.00     0.034 A 
ATOM     48  C   UNL A   1      45.634  27.779  26.905  1.00  0.00     0.034 A 
ATOM     49  C   UNL A   1      40.978  31.088  30.108  1.00  0.00     0.049 A 
ATOM     50  C   UNL A   1      45.525  29.193  27.390  1.00  0.00     0.074 A 
ATOM     51  C   UNL A   1      41.038  32.392  30.566  1.00  0.00     0.029 A 
ATOM     52  N   UNL A   1      42.184  30.831  29.472  1.00  0.00    -0.354 N 
ATOM     53  N   UNL A   1      44.551  29.758  28.060  1.00  0.00    -0.248 NA
ATOM     54  C   UNL A   1      46.655  30.083  27.099  1.00  0.00     0.031 C 
ATOM     55  C   UNL A   1      42.263  32.936  30.171  1.00  0.00     0.029 A 
ATOM     56  C   UNL A   1      42.992  31.954  29.518  1.00  0.00     0.049 A 
ATOM     57  H   UNL A   1      42.430  29.976  29.050  1.00  0.00     0.167 HD
ATOM     58  C   UNL A   1      44.970  31.056  28.316  1.00  0.00     0.074 A 
ATOM     59  C   UNL A   1      46.287  31.192  27.727  1.00  0.00     0.031 C 
ATOM     60  C   UNL A   1      44.324  32.045  28.978  1.00  0.00     0.034 A 
BRANCH  47  61
ATOM     61  C   UNL A   1      38.623  30.598  30.896  1.00  0.00     0.023 A 
ATOM     62  C   UNL A   1      38.444  30.445  32.286  1.00  0.00     0.012 A 
ATOM     63  C   UNL A   1      37.619  31.239  30.140  1.00  0.00     0.148 A 
ATOM     64  C   UNL A   1      37.272  30.884  32.904  1.00  0.00     0.002 A 
ATOM     65  C   UNL A   1      36.478  31.719  30.770  1.00  0.00     0.091 A 
ATOM     66  F   UNL A   1      37.798  31.364  28.817  1.00  0.00    -0.205 F 
ATOM     67  C   UNL A   1      36.295  31.529  32.149  1.00  0.00     0.022 A 
BRANCH  65  68
ATOM     68  S   UNL A   1      35.201  32.638  29.900  1.00  0.00     0.127 S 
ATOM     69  O   UNL A   1      34.250  32.913  30.978  1.00  0.00    -0.237 OA
ATOM     70  O   UNL A   1      35.936  33.809  29.422  1.00  0.00    -0.237 OA
ATOM     71  O   UNL A   1      34.713  31.756  28.850  1.00  0.00    -0.744 OA
ENDBRANCH  65  68
ENDBRANCH  47  61
BRANCH  48  72
ATOM     72  C   UNL A   1      46.813  27.311  26.122  1.00  0.00     0.023 A 
ATOM     73  C   UNL A   1      46.864  27.557  24.738  1.00  0.00     0.012 A 
ATOM     74  C   UNL A   1      47.903  26.674  26.750  1.00  0.00     0.148 A 
ATOM     75  C   UNL A   1      47.968  27.152  23.986  1.00  0.00     0.002 A 
ATOM     76  C   UNL A   1      49.024  26.328  26.006  1.00  0.00     0.091 A 
ATOM     77  F   UNL A   1      47.833  26.445  28.069  1.00  0.00    -0.205 F 
ATOM     78  C   UNL A   1      49.051  26.549  24.621  1.00  0.00     0.022 A 
BRANCH  76  79
ATOM     79  S   UNL A   1      50.518  25.672  26.756  1.00  0.00     0.127 S 
ATOM     80  O   UNL A   1      50.894  26.752  27.666  1.00  0.00    -0.237 OA
ATOM     81  O   UNL A   1      50.022  24.462  27.409  1.00  0.00    -0.237 OA
ATOM     82  O   UNL A   1      51.440  25.427  25.655  1.00  0.00    -0.744 OA
ENDBRANCH  76  79
ENDBRANCH  48  72
BRANCH  60  83
ATOM     83  C   UNL A   1      45.060  33.339  29.189  1.00  0.00     0.023 A 
ATOM     84  C   UNL A   1      45.891  33.515  30.311  1.00  0.00     0.012 A 
ATOM     85  C   UNL A   1      44.993  34.347  28.206  1.00  0.00     0.148 A 
ATOM     86  C   UNL A   1      46.632  34.687  30.461  1.00  0.00     0.002 A 
ATOM     87  C   UNL A   1      45.776  35.485  28.334  1.00  0.00     0.091 A 
ATOM     88  F   UNL A   1      44.177  34.163  27.159  1.00  0.00    -0.205 F 
ATOM     89  C   UNL A   1      46.587  35.663  29.467  1.00  0.00     0.022 A 
BRANCH  87  90
ATOM     90  S   UNL A   1      45.863  36.741  27.055  1.00  0.00     0.127 S 
ATOM     91  O   UNL A   1      46.318  35.963  25.903  1.00  0.00    -0.237 OA
ATOM     92  O   UNL A   1      44.474  37.195  26.975  1.00  0.00    -0.237 OA
ATOM     93  O   UNL A   1      46.804  37.745  27.535  1.00  0.00    -0.744 OA
ENDBRANCH  87  90
ENDBRANCH  60  83
ENDBRANCH  34  35
ENDBRANCH  27  29
ENDBRANCH  26  27
ENDBRANCH  25  26
ENDBRANCH   1  25
TORSDOF 20
ENDMDL
