MODEL 1
REMARK VINA RESULT:     -10.9      0.000      0.000
REMARK SMILES Cc1ccc(/C=C/C(=O)N[C@@H](CO)C(=O)OCCOC(=O)c2ccc(-c3c4nc(c(-c5cccc(S(=O)(=O)[O-])c5F)c5ccc([nH]5)c(-c5cccc(S(=O)(=O)[O-])c5F)c5nc(c(-c6cccc(S(=O)(=O)[O-])c6F)c6ccc3[nH]6)C=C5)C=C4)cc2)o1
REMARK SMILES IDX 17 1 16 2 14 3 15 4 11 5 10 6 8 7 9 8 7 10 6 11 5 12 1 13
REMARK SMILES IDX 2 14 3 15 85 16 4 17 12 18 13 19 18 21 19 22 20 23 21 24
REMARK SMILES IDX 22 25 23 26 84 27 24 28 83 29 25 30 26 31 27 32 77 33 28 34
REMARK SMILES IDX 82 35 76 36 78 37 29 38 81 39 75 40 74 41 30 43 62 44 42 45
REMARK SMILES IDX 61 46 43 47 46 48 60 49 79 50 44 51 45 52 59 54 80 55 47 56
REMARK SMILES IDX 31 57 32 58 40 59 33 60 35 61 41 62 34 63 36 64 37 65 38 66
REMARK SMILES IDX 39 67 63 68 64 69 72 70 65 71 67 72 73 73 66 74 68 75 69 76
REMARK SMILES IDX 70 77 71 78 48 79 49 80 57 81 50 82 52 83 58 84 51 85 53 86
REMARK SMILES IDX 54 87 55 88 56 89
REMARK H PARENT 10 9 13 20 78 42 46 53
REMARK Flexibility Score: inf
ROOT
ATOM      1  C   UNL A   1      35.525  22.140  24.086  1.00  0.00     0.274 C 
ENDROOT
BRANCH   1   2
ATOM      2  O   UNL A   1      35.553  23.559  23.834  1.00  0.00    -0.460 OA
BRANCH   2   3
ATOM      3  C   UNL A   1      34.499  24.270  24.318  1.00  0.00     0.331 C 
ATOM      4  O   UNL A   1      34.578  25.157  25.162  1.00  0.00    -0.250 OA
BRANCH   3   5
ATOM      5  C   UNL A   1      33.161  23.844  23.701  1.00  0.00     0.218 C 
BRANCH   5   6
ATOM      6  N   UNL A   1      32.058  23.658  24.654  1.00  0.00    -0.337 N 
ATOM      7  C   UNL A   1      31.467  22.539  25.150  1.00  0.00     0.244 C 
ATOM      8  O   UNL A   1      30.526  22.656  25.932  1.00  0.00    -0.270 OA
ATOM      9  H   UNL A   1      31.677  24.498  24.997  1.00  0.00     0.164 HD
BRANCH   7  10
ATOM     10  C   UNL A   1      31.991  21.191  24.839  1.00  0.00     0.075 C 
ATOM     11  C   UNL A   1      32.624  20.383  25.700  1.00  0.00     0.053 C 
BRANCH  11  12
ATOM     12  C   UNL A   1      33.006  19.071  25.303  1.00  0.00     0.127 A 
ATOM     13  C   UNL A   1      32.559  15.505  25.578  1.00  0.00     0.087 C 
ATOM     14  C   UNL A   1      33.060  16.849  25.220  1.00  0.00     0.101 A 
ATOM     15  C   UNL A   1      34.081  17.283  24.409  1.00  0.00     0.046 A 
ATOM     16  O   UNL A   1      32.418  17.915  25.772  1.00  0.00    -0.462 OA
ATOM     17  C   UNL A   1      34.028  18.696  24.439  1.00  0.00     0.050 A 
ENDBRANCH  11  12
ENDBRANCH   7  10
ENDBRANCH   5   6
BRANCH   5  18
ATOM     18  C   UNL A   1      32.768  24.884  22.644  1.00  0.00     0.193 C 
BRANCH  18  19
ATOM     19  O   UNL A   1      33.924  25.482  22.051  1.00  0.00    -0.394 OA
ATOM     20  H   UNL A   1      34.264  24.902  21.352  1.00  0.00     0.210 HD
ENDBRANCH  18  19
ENDBRANCH   5  18
ENDBRANCH   3   5
ENDBRANCH   2   3
ENDBRANCH   1   2
BRANCH   1  21
ATOM     21  C   UNL A   1      36.943  21.600  24.258  1.00  0.00     0.275 C 
BRANCH  21  22
ATOM     22  O   UNL A   1      37.265  21.474  25.655  1.00  0.00    -0.458 OA
BRANCH  22  23
ATOM     23  C   UNL A   1      38.572  21.249  25.917  1.00  0.00     0.338 C 
ATOM     24  O   UNL A   1      39.229  20.262  25.631  1.00  0.00    -0.246 OA
BRANCH  23  25
ATOM     25  C   UNL A   1      39.159  22.438  26.547  1.00  0.00     0.060 A 
ATOM     26  C   UNL A   1      38.658  23.688  26.195  1.00  0.00     0.016 A 
ATOM     27  C   UNL A   1      40.283  22.330  27.365  1.00  0.00     0.016 A 
ATOM     28  C   UNL A   1      39.322  24.840  26.603  1.00  0.00     0.010 A 
ATOM     29  C   UNL A   1      40.915  23.495  27.820  1.00  0.00     0.010 A 
ATOM     30  C   UNL A   1      40.466  24.763  27.409  1.00  0.00    -0.014 A 
BRANCH  30  31
ATOM     31  C   UNL A   1      41.212  26.004  27.762  1.00  0.00     0.031 A 
ATOM     32  C   UNL A   1      40.555  27.077  28.591  1.00  0.00     0.074 A 
ATOM     33  C   UNL A   1      42.489  26.173  27.360  1.00  0.00     0.049 A 
ATOM     34  N   UNL A   1      41.002  28.266  28.906  1.00  0.00    -0.248 NA
ATOM     35  C   UNL A   1      39.220  26.777  29.136  1.00  0.00     0.031 C 
ATOM     36  C   UNL A   1      43.258  25.215  26.566  1.00  0.00     0.029 A 
ATOM     37  N   UNL A   1      43.361  27.218  27.555  1.00  0.00    -0.354 N 
ATOM     38  C   UNL A   1      39.977  28.883  29.615  1.00  0.00     0.074 A 
ATOM     39  C   UNL A   1      38.892  27.929  29.705  1.00  0.00     0.031 C 
ATOM     40  C   UNL A   1      44.488  25.707  26.353  1.00  0.00     0.029 A 
ATOM     41  C   UNL A   1      44.577  27.042  26.935  1.00  0.00     0.049 A 
ATOM     42  H   UNL A   1      43.136  28.016  28.086  1.00  0.00     0.167 HD
ATOM     43  C   UNL A   1      39.944  30.125  30.153  1.00  0.00     0.034 A 
ATOM     44  C   UNL A   1      45.634  27.871  26.817  1.00  0.00     0.034 A 
ATOM     45  C   UNL A   1      41.048  31.047  30.144  1.00  0.00     0.049 A 
ATOM     46  C   UNL A   1      45.577  29.237  27.440  1.00  0.00     0.074 A 
ATOM     47  C   UNL A   1      41.118  32.306  30.718  1.00  0.00     0.029 A 
ATOM     48  N   UNL A   1      42.273  30.814  29.541  1.00  0.00    -0.354 N 
ATOM     49  N   UNL A   1      44.627  29.772  28.168  1.00  0.00    -0.248 NA
ATOM     50  C   UNL A   1      46.742  30.112  27.236  1.00  0.00     0.031 C 
ATOM     51  C   UNL A   1      42.388  32.834  30.459  1.00  0.00     0.029 A 
ATOM     52  C   UNL A   1      43.106  31.904  29.728  1.00  0.00     0.049 A 
ATOM     53  H   UNL A   1      42.515  29.995  29.052  1.00  0.00     0.167 HD
ATOM     54  C   UNL A   1      45.082  31.039  28.514  1.00  0.00     0.074 A 
ATOM     55  C   UNL A   1      46.409  31.179  27.950  1.00  0.00     0.031 C 
ATOM     56  C   UNL A   1      44.445  32.012  29.211  1.00  0.00     0.034 A 
BRANCH  43  57
ATOM     57  C   UNL A   1      38.676  30.561  30.835  1.00  0.00     0.023 A 
ATOM     58  C   UNL A   1      38.534  30.379  32.223  1.00  0.00     0.012 A 
ATOM     59  C   UNL A   1      37.663  31.220  30.113  1.00  0.00     0.148 A 
ATOM     60  C   UNL A   1      37.391  30.833  32.882  1.00  0.00     0.002 A 
ATOM     61  C   UNL A   1      36.543  31.700  30.781  1.00  0.00     0.091 A 
ATOM     62  F   UNL A   1      37.807  31.357  28.787  1.00  0.00    -0.205 F 
ATOM     63  C   UNL A   1      36.403  31.502  32.164  1.00  0.00     0.022 A 
BRANCH  61  64
ATOM     64  S   UNL A   1      35.255  32.634  29.946  1.00  0.00     0.127 S 
ATOM     65  O   UNL A   1      34.323  32.896  31.040  1.00  0.00    -0.237 OA
ATOM     66  O   UNL A   1      35.982  33.812  29.469  1.00  0.00    -0.237 OA
ATOM     67  O   UNL A   1      34.760  31.765  28.887  1.00  0.00    -0.744 OA
ENDBRANCH  61  64
ENDBRANCH  43  57
BRANCH  44  68
ATOM     68  C   UNL A   1      46.851  27.415  26.085  1.00  0.00     0.023 A 
ATOM     69  C   UNL A   1      46.998  27.735  24.722  1.00  0.00     0.012 A 
ATOM     70  C   UNL A   1      47.878  26.709  26.740  1.00  0.00     0.148 A 
ATOM     71  C   UNL A   1      48.141  27.345  24.021  1.00  0.00     0.002 A 
ATOM     72  C   UNL A   1      49.042  26.382  26.051  1.00  0.00     0.091 A 
ATOM     73  F   UNL A   1      47.709  26.381  28.028  1.00  0.00    -0.205 F 
ATOM     74  C   UNL A   1      49.170  26.686  24.689  1.00  0.00     0.022 A 
BRANCH  72  75
ATOM     75  S   UNL A   1      50.461  25.679  26.899  1.00  0.00     0.127 S 
ATOM     76  O   UNL A   1      49.913  24.433  27.424  1.00  0.00    -0.237 OA
ATOM     77  O   UNL A   1      51.427  25.517  25.811  1.00  0.00    -0.237 OA
ATOM     78  O   UNL A   1      50.844  26.683  27.884  1.00  0.00    -0.744 OA
ENDBRANCH  72  75
ENDBRANCH  44  68
BRANCH  56  79
ATOM     79  C   UNL A   1      45.170  33.315  29.414  1.00  0.00     0.023 A 
ATOM     80  C   UNL A   1      46.046  33.453  30.509  1.00  0.00     0.012 A 
ATOM     81  C   UNL A   1      45.050  34.368  28.487  1.00  0.00     0.148 A 
ATOM     82  C   UNL A   1      46.773  34.629  30.691  1.00  0.00     0.002 A 
ATOM     83  C   UNL A   1      45.807  35.523  28.653  1.00  0.00     0.091 A 
ATOM     84  F   UNL A   1      44.194  34.226  27.464  1.00  0.00    -0.205 F 
ATOM     85  C   UNL A   1      46.662  35.658  29.758  1.00  0.00     0.022 A 
BRANCH  83  86
ATOM     86  S   UNL A   1      45.782  36.858  27.452  1.00  0.00     0.127 S 
ATOM     87  O   UNL A   1      44.390  37.298  27.522  1.00  0.00    -0.237 OA
ATOM     88  O   UNL A   1      46.749  37.805  28.009  1.00  0.00    -0.237 OA
ATOM     89  O   UNL A   1      46.193  36.257  26.190  1.00  0.00    -0.744 OA
ENDBRANCH  83  86
ENDBRANCH  56  79
ENDBRANCH  30  31
ENDBRANCH  23  25
ENDBRANCH  22  23
ENDBRANCH  21  22
ENDBRANCH   1  21
TORSDOF 19
ENDMDL
MODEL 2
REMARK VINA RESULT:     -10.9      1.418      1.677
REMARK SMILES Cc1ccc(/C=C/C(=O)N[C@@H](CO)C(=O)OCCOC(=O)c2ccc(-c3c4nc(c(-c5cccc(S(=O)(=O)[O-])c5F)c5ccc([nH]5)c(-c5cccc(S(=O)(=O)[O-])c5F)c5nc(c(-c6cccc(S(=O)(=O)[O-])c6F)c6ccc3[nH]6)C=C5)C=C4)cc2)o1
REMARK SMILES IDX 17 1 16 2 14 3 15 4 11 5 10 6 8 7 9 8 7 10 6 11 5 12 1 13
REMARK SMILES IDX 2 14 3 15 85 16 4 17 12 18 13 19 18 21 19 22 20 23 21 24
REMARK SMILES IDX 22 25 23 26 84 27 24 28 83 29 25 30 26 31 27 32 77 33 28 34
REMARK SMILES IDX 82 35 76 36 78 37 29 38 81 39 75 40 74 41 30 43 62 44 42 45
REMARK SMILES IDX 61 46 43 47 46 48 60 49 79 50 44 51 45 52 59 54 80 55 47 56
REMARK SMILES IDX 31 57 32 58 40 59 33 60 35 61 41 62 34 63 36 64 37 65 38 66
REMARK SMILES IDX 39 67 63 68 64 69 72 70 65 71 67 72 73 73 66 74 68 75 69 76
REMARK SMILES IDX 70 77 71 78 48 79 49 80 57 81 50 82 52 83 58 84 51 85 53 86
REMARK SMILES IDX 54 87 55 88 56 89
REMARK H PARENT 10 9 13 20 78 42 46 53
REMARK Flexibility Score: inf
ROOT
ATOM      1  C   UNL A   1      35.685  21.742  25.614  1.00  0.00     0.274 C 
ENDROOT
BRANCH   1   2
ATOM      2  O   UNL A   1      35.941  23.039  25.040  1.00  0.00    -0.460 OA
BRANCH   2   3
ATOM      3  C   UNL A   1      34.848  23.721  24.600  1.00  0.00     0.331 C 
ATOM      4  O   UNL A   1      34.695  24.935  24.688  1.00  0.00    -0.250 OA
BRANCH   3   5
ATOM      5  C   UNL A   1      33.790  22.806  23.971  1.00  0.00     0.218 C 
BRANCH   5   6
ATOM      6  N   UNL A   1      32.496  22.768  24.667  1.00  0.00    -0.337 N 
ATOM      7  C   UNL A   1      31.792  21.745  25.218  1.00  0.00     0.244 C 
ATOM      8  O   UNL A   1      30.699  21.978  25.728  1.00  0.00    -0.270 OA
ATOM      9  H   UNL A   1      32.058  23.646  24.749  1.00  0.00     0.164 HD
BRANCH   7  10
ATOM     10  C   UNL A   1      32.355  20.379  25.295  1.00  0.00     0.075 C 
ATOM     11  C   UNL A   1      32.418  19.504  24.282  1.00  0.00     0.053 C 
BRANCH  11  12
ATOM     12  C   UNL A   1      33.063  18.248  24.460  1.00  0.00     0.127 A 
ATOM     13  C   UNL A   1      32.888  14.804  25.509  1.00  0.00     0.087 C 
ATOM     14  C   UNL A   1      33.364  16.119  25.030  1.00  0.00     0.101 A 
ATOM     15  C   UNL A   1      34.594  16.580  24.625  1.00  0.00     0.046 A 
ATOM     16  O   UNL A   1      32.442  17.118  24.948  1.00  0.00    -0.462 OA
ATOM     17  C   UNL A   1      34.397  17.925  24.235  1.00  0.00     0.050 A 
ENDBRANCH  11  12
ENDBRANCH   7  10
ENDBRANCH   5   6
BRANCH   5  18
ATOM     18  C   UNL A   1      33.587  23.238  22.514  1.00  0.00     0.193 C 
BRANCH  18  19
ATOM     19  O   UNL A   1      32.846  24.459  22.434  1.00  0.00    -0.394 OA
ATOM     20  H   UNL A   1      32.920  24.937  23.273  1.00  0.00     0.210 HD
ENDBRANCH  18  19
ENDBRANCH   5  18
ENDBRANCH   3   5
ENDBRANCH   2   3
ENDBRANCH   1   2
BRANCH   1  21
ATOM     21  C   UNL A   1      36.753  20.744  25.174  1.00  0.00     0.275 C 
BRANCH  21  22
ATOM     22  O   UNL A   1      38.007  21.415  24.955  1.00  0.00    -0.458 OA
BRANCH  22  23
ATOM     23  C   UNL A   1      38.988  21.082  25.824  1.00  0.00     0.338 C 
ATOM     24  O   UNL A   1      39.456  19.974  26.029  1.00  0.00    -0.246 OA
BRANCH  23  25
ATOM     25  C   UNL A   1      39.510  22.294  26.465  1.00  0.00     0.060 A 
ATOM     26  C   UNL A   1      39.011  23.527  26.054  1.00  0.00     0.016 A 
ATOM     27  C   UNL A   1      40.579  22.225  27.357  1.00  0.00     0.016 A 
ATOM     28  C   UNL A   1      39.625  24.701  26.480  1.00  0.00     0.010 A 
ATOM     29  C   UNL A   1      41.158  23.412  27.828  1.00  0.00     0.010 A 
ATOM     30  C   UNL A   1      40.714  24.662  27.361  1.00  0.00    -0.014 A 
BRANCH  30  31
ATOM     31  C   UNL A   1      41.412  25.925  27.735  1.00  0.00     0.031 A 
ATOM     32  C   UNL A   1      40.708  26.965  28.567  1.00  0.00     0.074 A 
ATOM     33  C   UNL A   1      42.687  26.142  27.350  1.00  0.00     0.049 A 
ATOM     34  N   UNL A   1      41.110  28.166  28.900  1.00  0.00    -0.248 NA
ATOM     35  C   UNL A   1      39.378  26.613  29.093  1.00  0.00     0.031 C 
ATOM     36  C   UNL A   1      43.499  25.219  26.557  1.00  0.00     0.029 A 
ATOM     37  N   UNL A   1      43.520  27.214  27.567  1.00  0.00    -0.354 N 
ATOM     38  C   UNL A   1      40.056  28.740  29.602  1.00  0.00     0.074 A 
ATOM     39  C   UNL A   1      39.004  27.748  29.669  1.00  0.00     0.031 C 
ATOM     40  C   UNL A   1      44.713  25.756  26.364  1.00  0.00     0.029 A 
ATOM     41  C   UNL A   1      44.749  27.087  26.960  1.00  0.00     0.049 A 
ATOM     42  H   UNL A   1      43.261  27.998  28.103  1.00  0.00     0.167 HD
ATOM     43  C   UNL A   1      39.974  29.974  30.152  1.00  0.00     0.034 A 
ATOM     44  C   UNL A   1      45.778  27.953  26.863  1.00  0.00     0.034 A 
ATOM     45  C   UNL A   1      41.045  30.934  30.165  1.00  0.00     0.049 A 
ATOM     46  C   UNL A   1      45.666  29.310  27.499  1.00  0.00     0.074 A 
ATOM     47  C   UNL A   1      41.065  32.188  30.752  1.00  0.00     0.029 A 
ATOM     48  N   UNL A   1      42.284  30.750  29.575  1.00  0.00    -0.354 N 
ATOM     49  N   UNL A   1      44.689  29.804  28.221  1.00  0.00    -0.248 NA
ATOM     50  C   UNL A   1      46.802  30.227  27.317  1.00  0.00     0.031 C 
ATOM     51  C   UNL A   1      42.318  32.763  30.515  1.00  0.00     0.029 A 
ATOM     52  C   UNL A   1      43.077  31.866  29.783  1.00  0.00     0.049 A 
ATOM     53  H   UNL A   1      42.560  29.944  29.081  1.00  0.00     0.167 HD
ATOM     54  C   UNL A   1      45.096  31.083  28.585  1.00  0.00     0.074 A 
ATOM     55  C   UNL A   1      46.423  31.274  28.038  1.00  0.00     0.031 C 
ATOM     56  C   UNL A   1      44.417  32.026  29.284  1.00  0.00     0.034 A 
BRANCH  43  57
ATOM     57  C   UNL A   1      38.683  30.359  30.823  1.00  0.00     0.023 A 
ATOM     58  C   UNL A   1      38.488  30.055  32.183  1.00  0.00     0.012 A 
ATOM     59  C   UNL A   1      37.702  31.088  30.125  1.00  0.00     0.148 A 
ATOM     60  C   UNL A   1      37.324  30.458  32.837  1.00  0.00     0.002 A 
ATOM     61  C   UNL A   1      36.560  31.517  30.792  1.00  0.00     0.091 A 
ATOM     62  F   UNL A   1      37.897  31.342  28.823  1.00  0.00    -0.205 F 
ATOM     63  C   UNL A   1      36.367  31.198  32.146  1.00  0.00     0.022 A 
BRANCH  61  64
ATOM     64  S   UNL A   1      35.310  32.533  29.996  1.00  0.00     0.127 S 
ATOM     65  O   UNL A   1      34.867  31.660  28.911  1.00  0.00    -0.237 OA
ATOM     66  O   UNL A   1      34.329  32.719  31.067  1.00  0.00    -0.237 OA
ATOM     67  O   UNL A   1      35.993  33.753  29.588  1.00  0.00    -0.744 OA
ENDBRANCH  61  64
ENDBRANCH  43  57
BRANCH  44  68
ATOM     68  C   UNL A   1      47.018  27.548  26.142  1.00  0.00     0.023 A 
ATOM     69  C   UNL A   1      48.007  26.814  26.824  1.00  0.00     0.012 A 
ATOM     70  C   UNL A   1      47.204  27.846  24.778  1.00  0.00     0.148 A 
ATOM     71  C   UNL A   1      49.164  26.397  26.165  1.00  0.00     0.002 A 
ATOM     72  C   UNL A   1      48.329  27.371  24.112  1.00  0.00     0.091 A 
ATOM     73  F   UNL A   1      46.272  28.576  24.150  1.00  0.00    -0.205 F 
ATOM     74  C   UNL A   1      49.317  26.660  24.806  1.00  0.00     0.022 A 
BRANCH  72  75
ATOM     75  S   UNL A   1      48.499  27.540  22.332  1.00  0.00     0.127 S 
ATOM     76  O   UNL A   1      49.679  28.389  22.219  1.00  0.00    -0.237 OA
ATOM     77  O   UNL A   1      48.694  26.154  21.903  1.00  0.00    -0.237 OA
ATOM     78  O   UNL A   1      47.237  28.123  21.889  1.00  0.00    -0.744 OA
ENDBRANCH  72  75
ENDBRANCH  44  68
BRANCH  56  79
ATOM     79  C   UNL A   1      45.094  33.351  29.508  1.00  0.00     0.023 A 
ATOM     80  C   UNL A   1      45.896  33.530  30.653  1.00  0.00     0.012 A 
ATOM     81  C   UNL A   1      45.004  34.385  28.557  1.00  0.00     0.148 A 
ATOM     82  C   UNL A   1      46.579  34.728  30.859  1.00  0.00     0.002 A 
ATOM     83  C   UNL A   1      45.719  35.563  28.750  1.00  0.00     0.091 A 
ATOM     84  F   UNL A   1      44.218  34.205  27.486  1.00  0.00    -0.205 F 
ATOM     85  C   UNL A   1      46.500  35.738  29.903  1.00  0.00     0.022 A 
BRANCH  83  86
ATOM     86  S   UNL A   1      45.735  36.878  27.526  1.00  0.00     0.127 S 
ATOM     87  O   UNL A   1      44.369  37.390  27.621  1.00  0.00    -0.237 OA
ATOM     88  O   UNL A   1      46.762  37.782  28.045  1.00  0.00    -0.237 OA
ATOM     89  O   UNL A   1      46.083  36.236  26.266  1.00  0.00    -0.744 OA
ENDBRANCH  83  86
ENDBRANCH  56  79
ENDBRANCH  30  31
ENDBRANCH  23  25
ENDBRANCH  22  23
ENDBRANCH  21  22
ENDBRANCH   1  21
TORSDOF 19
ENDMDL
MODEL 3
REMARK VINA RESULT:     -10.7      4.999      9.905
REMARK SMILES Cc1ccc(/C=C/C(=O)N[C@@H](CO)C(=O)OCCOC(=O)c2ccc(-c3c4nc(c(-c5cccc(S(=O)(=O)[O-])c5F)c5ccc([nH]5)c(-c5cccc(S(=O)(=O)[O-])c5F)c5nc(c(-c6cccc(S(=O)(=O)[O-])c6F)c6ccc3[nH]6)C=C5)C=C4)cc2)o1
REMARK SMILES IDX 17 1 16 2 14 3 15 4 11 5 10 6 8 7 9 8 7 10 6 11 5 12 1 13
REMARK SMILES IDX 2 14 3 15 85 16 4 17 12 18 13 19 18 21 19 22 20 23 21 24
REMARK SMILES IDX 22 25 23 26 84 27 24 28 83 29 25 30 26 31 27 32 77 33 28 34
REMARK SMILES IDX 82 35 76 36 78 37 29 38 81 39 75 40 74 41 30 43 62 44 42 45
REMARK SMILES IDX 61 46 43 47 46 48 60 49 79 50 44 51 45 52 59 54 80 55 47 56
REMARK SMILES IDX 31 57 32 58 40 59 33 60 35 61 41 62 34 63 36 64 37 65 38 66
REMARK SMILES IDX 39 67 63 68 64 69 72 70 65 71 67 72 73 73 66 74 68 75 69 76
REMARK SMILES IDX 70 77 71 78 48 79 49 80 57 81 50 82 52 83 58 84 51 85 53 86
REMARK SMILES IDX 54 87 55 88 56 89
REMARK H PARENT 10 9 13 20 78 42 46 53
REMARK Flexibility Score: inf
ROOT
ATOM      1  C   UNL A   1      32.078  27.788  25.632  1.00  0.00     0.274 C 
ENDROOT
BRANCH   1   2
ATOM      2  O   UNL A   1      30.812  27.140  25.395  1.00  0.00    -0.460 OA
BRANCH   2   3
ATOM      3  C   UNL A   1      30.496  26.912  24.091  1.00  0.00     0.331 C 
ATOM      4  O   UNL A   1      29.659  26.104  23.703  1.00  0.00    -0.250 OA
BRANCH   3   5
ATOM      5  C   UNL A   1      31.309  27.778  23.122  1.00  0.00     0.218 C 
BRANCH   5   6
ATOM      6  N   UNL A   1      31.823  27.082  21.933  1.00  0.00    -0.337 N 
ATOM      7  C   UNL A   1      32.849  26.207  21.767  1.00  0.00     0.244 C 
ATOM      8  O   UNL A   1      33.094  25.780  20.641  1.00  0.00    -0.270 OA
ATOM      9  H   UNL A   1      31.333  27.288  21.104  1.00  0.00     0.164 HD
BRANCH   7  10
ATOM     10  C   UNL A   1      33.614  25.692  22.923  1.00  0.00     0.075 C 
ATOM     11  C   UNL A   1      33.269  24.642  23.681  1.00  0.00     0.053 C 
BRANCH  11  12
ATOM     12  C   UNL A   1      34.135  24.190  24.716  1.00  0.00     0.127 A 
ATOM     13  C   UNL A   1      37.478  23.848  26.021  1.00  0.00     0.087 C 
ATOM     14  C   UNL A   1      36.015  23.761  25.824  1.00  0.00     0.101 A 
ATOM     15  C   UNL A   1      35.004  23.189  26.558  1.00  0.00     0.046 A 
ATOM     16  O   UNL A   1      35.504  24.352  24.710  1.00  0.00    -0.462 OA
ATOM     17  C   UNL A   1      33.805  23.486  25.869  1.00  0.00     0.050 A 
ENDBRANCH  11  12
ENDBRANCH   7  10
ENDBRANCH   5   6
BRANCH   5  18
ATOM     18  C   UNL A   1      30.440  28.968  22.695  1.00  0.00     0.193 C 
BRANCH  18  19
ATOM     19  O   UNL A   1      30.696  30.115  23.510  1.00  0.00    -0.394 OA
ATOM     20  H   UNL A   1      30.774  29.842  24.437  1.00  0.00     0.210 HD
ENDBRANCH  18  19
ENDBRANCH   5  18
ENDBRANCH   3   5
ENDBRANCH   2   3
ENDBRANCH   1   2
BRANCH   1  21
ATOM     21  C   UNL A   1      31.873  29.098  26.389  1.00  0.00     0.275 C 
BRANCH  21  22
ATOM     22  O   UNL A   1      32.838  30.078  25.966  1.00  0.00    -0.458 OA
BRANCH  22  23
ATOM     23  C   UNL A   1      33.135  31.018  26.891  1.00  0.00     0.338 C 
ATOM     24  O   UNL A   1      32.403  31.891  27.326  1.00  0.00    -0.246 OA
BRANCH  23  25
ATOM     25  C   UNL A   1      34.493  30.795  27.400  1.00  0.00     0.060 A 
ATOM     26  C   UNL A   1      34.917  29.485  27.603  1.00  0.00     0.016 A 
ATOM     27  C   UNL A   1      35.287  31.867  27.806  1.00  0.00     0.016 A 
ATOM     28  C   UNL A   1      36.108  29.238  28.279  1.00  0.00     0.010 A 
ATOM     29  C   UNL A   1      36.513  31.613  28.435  1.00  0.00     0.010 A 
ATOM     30  C   UNL A   1      36.918  30.295  28.717  1.00  0.00    -0.014 A 
BRANCH  30  31
ATOM     31  C   UNL A   1      38.144  30.011  29.514  1.00  0.00     0.031 A 
ATOM     32  C   UNL A   1      39.235  29.141  28.947  1.00  0.00     0.074 A 
ATOM     33  C   UNL A   1      38.300  30.545  30.744  1.00  0.00     0.049 A 
ATOM     34  N   UNL A   1      40.320  28.694  29.528  1.00  0.00    -0.248 NA
ATOM     35  C   UNL A   1      39.089  28.713  27.545  1.00  0.00     0.031 C 
ATOM     36  C   UNL A   1      37.336  31.418  31.414  1.00  0.00     0.029 A 
ATOM     37  N   UNL A   1      39.324  30.422  31.653  1.00  0.00    -0.354 N 
ATOM     38  C   UNL A   1      40.942  27.873  28.595  1.00  0.00     0.074 A 
ATOM     39  C   UNL A   1      40.127  27.900  27.399  1.00  0.00     0.031 C 
ATOM     40  C   UNL A   1      37.817  31.761  32.618  1.00  0.00     0.029 A 
ATOM     41  C   UNL A   1      39.090  31.084  32.837  1.00  0.00     0.049 A 
ATOM     42  H   UNL A   1      40.144  29.908  31.474  1.00  0.00     0.167 HD
ATOM     43  C   UNL A   1      42.093  27.169  28.715  1.00  0.00     0.034 A 
ATOM     44  C   UNL A   1      39.800  31.117  33.983  1.00  0.00     0.034 A 
ATOM     45  C   UNL A   1      42.953  27.205  29.867  1.00  0.00     0.049 A 
ATOM     46  C   UNL A   1      41.083  30.341  34.081  1.00  0.00     0.074 A 
ATOM     47  C   UNL A   1      44.169  26.566  30.048  1.00  0.00     0.029 A 
ATOM     48  N   UNL A   1      42.700  27.918  31.026  1.00  0.00    -0.354 N 
ATOM     49  N   UNL A   1      41.690  29.631  33.162  1.00  0.00    -0.248 NA
ATOM     50  C   UNL A   1      41.787  30.379  35.373  1.00  0.00     0.031 C 
ATOM     51  C   UNL A   1      44.649  26.893  31.321  1.00  0.00     0.029 A 
ATOM     52  C   UNL A   1      43.735  27.736  31.928  1.00  0.00     0.049 A 
ATOM     53  H   UNL A   1      41.902  28.472  31.185  1.00  0.00     0.167 HD
ATOM     54  C   UNL A   1      42.848  29.145  33.759  1.00  0.00     0.074 A 
ATOM     55  C   UNL A   1      42.879  29.674  35.107  1.00  0.00     0.031 C 
ATOM     56  C   UNL A   1      43.785  28.311  33.247  1.00  0.00     0.034 A 
BRANCH  43  57
ATOM     57  C   UNL A   1      42.517  26.315  27.552  1.00  0.00     0.023 A 
ATOM     58  C   UNL A   1      43.394  26.840  26.585  1.00  0.00     0.012 A 
ATOM     59  C   UNL A   1      42.108  24.971  27.463  1.00  0.00     0.148 A 
ATOM     60  C   UNL A   1      43.847  26.043  25.534  1.00  0.00     0.002 A 
ATOM     61  C   UNL A   1      42.591  24.172  26.432  1.00  0.00     0.091 A 
ATOM     62  F   UNL A   1      41.250  24.499  28.379  1.00  0.00    -0.205 F 
ATOM     63  C   UNL A   1      43.455  24.708  25.464  1.00  0.00     0.022 A 
BRANCH  61  64
ATOM     64  S   UNL A   1      42.192  22.425  26.306  1.00  0.00     0.127 S 
ATOM     65  O   UNL A   1      42.736  21.906  27.560  1.00  0.00    -0.237 OA
ATOM     66  O   UNL A   1      40.729  22.441  26.238  1.00  0.00    -0.237 OA
ATOM     67  O   UNL A   1      42.845  21.956  25.092  1.00  0.00    -0.744 OA
ENDBRANCH  61  64
ENDBRANCH  43  57
BRANCH  44  68
ATOM     68  C   UNL A   1      39.313  31.936  35.129  1.00  0.00     0.023 A 
ATOM     69  C   UNL A   1      38.458  31.352  36.082  1.00  0.00     0.012 A 
ATOM     70  C   UNL A   1      39.725  33.271  35.304  1.00  0.00     0.148 A 
ATOM     71  C   UNL A   1      38.010  32.088  37.181  1.00  0.00     0.002 A 
ATOM     72  C   UNL A   1      39.327  33.977  36.435  1.00  0.00     0.091 A 
ATOM     73  F   UNL A   1      40.511  33.826  34.370  1.00  0.00    -0.205 F 
ATOM     74  C   UNL A   1      38.458  33.393  37.367  1.00  0.00     0.022 A 
BRANCH  72  75
ATOM     75  S   UNL A   1      40.002  35.599  36.806  1.00  0.00     0.127 S 
ATOM     76  O   UNL A   1      39.502  36.398  35.693  1.00  0.00    -0.237 OA
ATOM     77  O   UNL A   1      39.394  35.902  38.104  1.00  0.00    -0.237 OA
ATOM     78  O   UNL A   1      41.445  35.400  36.863  1.00  0.00    -0.744 OA
ENDBRANCH  72  75
ENDBRANCH  44  68
BRANCH  56  79
ATOM     79  C   UNL A   1      44.932  27.918  34.138  1.00  0.00     0.023 A 
ATOM     80  C   UNL A   1      46.074  28.741  34.195  1.00  0.00     0.012 A 
ATOM     81  C   UNL A   1      44.852  26.787  34.973  1.00  0.00     0.148 A 
ATOM     82  C   UNL A   1      47.129  28.432  35.052  1.00  0.00     0.002 A 
ATOM     83  C   UNL A   1      45.892  26.505  35.853  1.00  0.00     0.091 A 
ATOM     84  F   UNL A   1      43.768  26.003  34.887  1.00  0.00    -0.205 F 
ATOM     85  C   UNL A   1      47.033  27.322  35.888  1.00  0.00     0.022 A 
BRANCH  83  86
ATOM     86  S   UNL A   1      45.807  25.142  37.020  1.00  0.00     0.127 S 
ATOM     87  O   UNL A   1      45.983  23.987  36.144  1.00  0.00    -0.237 OA
ATOM     88  O   UNL A   1      46.939  25.413  37.907  1.00  0.00    -0.237 OA
ATOM     89  O   UNL A   1      44.504  25.257  37.662  1.00  0.00    -0.744 OA
ENDBRANCH  83  86
ENDBRANCH  56  79
ENDBRANCH  30  31
ENDBRANCH  23  25
ENDBRANCH  22  23
ENDBRANCH  21  22
ENDBRANCH   1  21
TORSDOF 19
ENDMDL
