MODEL 1
REMARK VINA RESULT:     -12.8      0.000      0.000
REMARK SMILES CC(C)Oc1ccc(-c2ccc(/C(=C\c3ccc(S(C)(=O)=O)cc3)C(=O)OCCOC(=O)c3ccc(-c4c5nc(c(-c6cccc(S(=O)(=O)[O-])c6F)c6ccc([nH]6)c(-c6cccc(S(=O)(=O)[O-])c6F)c6nc(c(-c7cccc(S(=O)(=O)[O-])c7F)c7ccc4[nH]7)C=C6)C=C5)cc3)cc2)cc1
REMARK SMILES IDX 28 1 27 2 25 3 26 4 13 5 14 6 12 7 9 8 10 9 97 10 11 11
REMARK SMILES IDX 96 12 8 13 5 14 6 15 99 16 7 17 98 18 4 19 2 20 1 21 3 22
REMARK SMILES IDX 15 23 16 24 24 25 17 26 23 27 18 28 19 29 20 30 21 31 22 32
REMARK SMILES IDX 29 33 30 34 31 35 32 36 33 37 34 38 95 39 35 40 94 41 36 42
REMARK SMILES IDX 37 43 38 44 88 45 39 46 93 47 87 48 89 49 40 50 92 51 86 52
REMARK SMILES IDX 85 53 41 55 73 56 53 57 72 58 54 59 57 60 71 61 90 62 55 63
REMARK SMILES IDX 56 64 70 66 91 67 58 68 42 69 43 70 51 71 44 72 46 73 52 74
REMARK SMILES IDX 45 75 47 76 48 77 49 78 50 79 74 80 75 81 83 82 76 83 78 84
REMARK SMILES IDX 84 85 77 86 79 87 80 88 81 89 82 90 59 91 60 92 68 93 61 94
REMARK SMILES IDX 63 95 69 96 62 97 64 98 65 99 66 100 67 101
REMARK H PARENT 89 54 57 65
REMARK Flexibility Score: inf
ROOT
ATOM      1  C   UNL A   1      32.258  28.446  24.101  1.00  0.00     0.275 C 
ENDROOT
BRANCH   1   2
ATOM      2  O   UNL A   1      32.719  27.091  24.306  1.00  0.00    -0.458 OA
BRANCH   2   3
ATOM      3  C   UNL A   1      32.932  26.328  23.195  1.00  0.00     0.338 C 
ATOM      4  O   UNL A   1      32.919  26.735  22.045  1.00  0.00    -0.246 OA
BRANCH   3   5
ATOM      5  C   UNL A   1      33.183  24.888  23.574  1.00  0.00     0.067 C 
ATOM      6  C   UNL A   1      32.047  24.146  23.491  1.00  0.00     0.024 C 
BRANCH   5   7
ATOM      7  C   UNL A   1      34.563  24.432  23.989  1.00  0.00    -0.011 A 
ATOM      8  C   UNL A   1      36.926  23.149  25.035  1.00  0.00    -0.018 A 
ATOM      9  C   UNL A   1      36.559  23.005  23.703  1.00  0.00     0.009 A 
ATOM     10  C   UNL A   1      36.199  24.073  25.785  1.00  0.00     0.009 A 
ATOM     11  C   UNL A   1      35.427  23.665  23.192  1.00  0.00     0.009 A 
ATOM     12  C   UNL A   1      35.048  24.703  25.272  1.00  0.00     0.009 A 
BRANCH   8  13
ATOM     13  C   UNL A   1      38.034  22.393  25.635  1.00  0.00    -0.018 A 
ATOM     14  C   UNL A   1      40.259  21.001  26.689  1.00  0.00     0.119 A 
ATOM     15  C   UNL A   1      39.379  20.374  25.806  1.00  0.00     0.047 A 
ATOM     16  C   UNL A   1      40.035  22.324  27.049  1.00  0.00     0.047 A 
ATOM     17  C   UNL A   1      38.271  21.057  25.293  1.00  0.00     0.012 A 
ATOM     18  C   UNL A   1      38.925  23.009  26.536  1.00  0.00     0.012 A 
BRANCH  14  19
ATOM     19  O   UNL A   1      41.373  20.289  27.015  1.00  0.00    -0.491 OA
BRANCH  19  20
ATOM     20  C   UNL A   1      42.256  19.818  25.987  1.00  0.00     0.167 C 
ATOM     21  C   UNL A   1      43.413  20.763  25.696  1.00  0.00     0.052 C 
ATOM     22  C   UNL A   1      42.702  18.369  26.171  1.00  0.00     0.052 C 
ENDBRANCH  19  20
ENDBRANCH  14  19
ENDBRANCH   8  13
ENDBRANCH   5   7
BRANCH   6  23
ATOM     23  C   UNL A   1      31.917  22.707  23.716  1.00  0.00    -0.025 A 
ATOM     24  C   UNL A   1      32.049  21.863  22.605  1.00  0.00     0.009 A 
ATOM     25  C   UNL A   1      31.875  22.172  25.011  1.00  0.00     0.009 A 
ATOM     26  C   UNL A   1      32.281  20.504  22.790  1.00  0.00     0.021 A 
ATOM     27  C   UNL A   1      32.116  20.809  25.201  1.00  0.00     0.021 A 
ATOM     28  C   UNL A   1      32.356  19.993  24.090  1.00  0.00     0.067 A 
BRANCH  28  29
ATOM     29  S   UNL A   1      32.967  18.340  24.316  1.00  0.00     0.175 S 
ATOM     30  C   UNL A   1      32.747  17.595  22.729  1.00  0.00     0.163 C 
ATOM     31  O   UNL A   1      34.393  18.440  24.567  1.00  0.00    -0.224 OA
ATOM     32  O   UNL A   1      32.092  17.663  25.254  1.00  0.00    -0.224 OA
ENDBRANCH  28  29
ENDBRANCH   6  23
ENDBRANCH   3   5
ENDBRANCH   2   3
ENDBRANCH   1   2
BRANCH   1  33
ATOM     33  C   UNL A   1      32.064  29.125  25.459  1.00  0.00     0.275 C 
BRANCH  33  34
ATOM     34  O   UNL A   1      33.351  29.601  25.877  1.00  0.00    -0.458 OA
BRANCH  34  35
ATOM     35  C   UNL A   1      33.397  30.617  26.766  1.00  0.00     0.338 C 
ATOM     36  O   UNL A   1      32.510  31.422  27.018  1.00  0.00    -0.246 OA
BRANCH  35  37
ATOM     37  C   UNL A   1      34.697  30.542  27.466  1.00  0.00     0.060 A 
ATOM     38  C   UNL A   1      35.149  29.295  27.886  1.00  0.00     0.016 A 
ATOM     39  C   UNL A   1      35.444  31.677  27.775  1.00  0.00     0.016 A 
ATOM     40  C   UNL A   1      36.301  29.193  28.661  1.00  0.00     0.010 A 
ATOM     41  C   UNL A   1      36.654  31.548  28.486  1.00  0.00     0.010 A 
ATOM     42  C   UNL A   1      37.090  30.302  28.977  1.00  0.00    -0.014 A 
BRANCH  42  43
ATOM     43  C   UNL A   1      38.304  30.145  29.854  1.00  0.00     0.031 A 
ATOM     44  C   UNL A   1      39.490  29.332  29.383  1.00  0.00     0.074 A 
ATOM     45  C   UNL A   1      38.407  30.757  31.057  1.00  0.00     0.049 A 
ATOM     46  N   UNL A   1      40.509  28.879  30.070  1.00  0.00    -0.248 NA
ATOM     47  C   UNL A   1      39.533  28.970  27.957  1.00  0.00     0.031 C 
ATOM     48  C   UNL A   1      37.397  31.627  31.664  1.00  0.00     0.029 A 
ATOM     49  N   UNL A   1      39.423  30.750  31.988  1.00  0.00    -0.354 N 
ATOM     50  C   UNL A   1      41.241  28.084  29.197  1.00  0.00     0.074 A 
ATOM     51  C   UNL A   1      40.574  28.149  27.915  1.00  0.00     0.031 C 
ATOM     52  C   UNL A   1      37.871  32.128  32.812  1.00  0.00     0.029 A 
ATOM     53  C   UNL A   1      39.150  31.499  33.113  1.00  0.00     0.049 A 
ATOM     54  H   UNL A   1      40.266  30.257  31.863  1.00  0.00     0.167 HD
ATOM     55  C   UNL A   1      42.366  27.368  29.435  1.00  0.00     0.034 A 
ATOM     56  C   UNL A   1      39.797  31.620  34.291  1.00  0.00     0.034 A 
ATOM     57  C   UNL A   1      43.109  27.398  30.668  1.00  0.00     0.049 A 
ATOM     58  C   UNL A   1      41.035  30.808  34.542  1.00  0.00     0.074 A 
ATOM     59  C   UNL A   1      44.290  26.741  30.975  1.00  0.00     0.029 A 
ATOM     60  N   UNL A   1      42.772  28.148  31.783  1.00  0.00    -0.354 N 
ATOM     61  N   UNL A   1      41.688  30.023  33.721  1.00  0.00    -0.248 NA
ATOM     62  C   UNL A   1      41.610  30.874  35.895  1.00  0.00     0.031 C 
ATOM     63  C   UNL A   1      44.664  27.091  32.277  1.00  0.00     0.029 A 
ATOM     64  C   UNL A   1      43.719  27.969  32.779  1.00  0.00     0.049 A 
ATOM     65  H   UNL A   1      41.977  28.724  31.857  1.00  0.00     0.167 HD
ATOM     66  C   UNL A   1      42.742  29.496  34.458  1.00  0.00     0.074 A 
ATOM     67  C   UNL A   1      42.670  30.085  35.778  1.00  0.00     0.031 C 
ATOM     68  C   UNL A   1      43.664  28.578  34.081  1.00  0.00     0.034 A 
BRANCH  55  69
ATOM     69  C   UNL A   1      42.892  26.489  28.330  1.00  0.00     0.023 A 
ATOM     70  C   UNL A   1      42.242  25.280  28.015  1.00  0.00     0.012 A 
ATOM     71  C   UNL A   1      43.986  26.909  27.548  1.00  0.00     0.148 A 
ATOM     72  C   UNL A   1      42.678  24.498  26.947  1.00  0.00     0.002 A 
ATOM     73  C   UNL A   1      44.394  26.142  26.462  1.00  0.00     0.091 A 
ATOM     74  F   UNL A   1      44.612  28.048  27.882  1.00  0.00    -0.205 F 
ATOM     75  C   UNL A   1      43.743  24.935  26.164  1.00  0.00     0.022 A 
BRANCH  73  76
ATOM     76  S   UNL A   1      45.712  26.663  25.359  1.00  0.00     0.127 S 
ATOM     77  O   UNL A   1      46.805  26.906  26.299  1.00  0.00    -0.237 OA
ATOM     78  O   UNL A   1      45.890  25.484  24.509  1.00  0.00    -0.237 OA
ATOM     79  O   UNL A   1      45.206  27.836  24.661  1.00  0.00    -0.744 OA
ENDBRANCH  73  76
ENDBRANCH  55  69
BRANCH  56  80
ATOM     80  C   UNL A   1      39.240  32.506  35.357  1.00  0.00     0.023 A 
ATOM     81  C   UNL A   1      38.257  32.010  36.235  1.00  0.00     0.012 A 
ATOM     82  C   UNL A   1      39.717  33.820  35.537  1.00  0.00     0.148 A 
ATOM     83  C   UNL A   1      37.761  32.808  37.269  1.00  0.00     0.002 A 
ATOM     84  C   UNL A   1      39.279  34.577  36.617  1.00  0.00     0.091 A 
ATOM     85  F   UNL A   1      40.613  34.300  34.664  1.00  0.00    -0.205 F 
ATOM     86  C   UNL A   1      38.288  34.081  37.475  1.00  0.00     0.022 A 
BRANCH  84  87
ATOM     87  S   UNL A   1      40.058  36.139  37.044  1.00  0.00     0.127 S 
ATOM     88  O   UNL A   1      39.253  36.580  38.177  1.00  0.00    -0.237 OA
ATOM     89  O   UNL A   1      41.422  35.723  37.381  1.00  0.00    -0.237 OA
ATOM     90  O   UNL A   1      39.971  36.951  35.837  1.00  0.00    -0.744 OA
ENDBRANCH  84  87
ENDBRANCH  56  80
BRANCH  68  91
ATOM     91  C   UNL A   1      44.665  28.131  35.113  1.00  0.00     0.023 A 
ATOM     92  C   UNL A   1      45.918  28.773  35.175  1.00  0.00     0.012 A 
ATOM     93  C   UNL A   1      44.352  27.133  36.056  1.00  0.00     0.148 A 
ATOM     94  C   UNL A   1      46.853  28.415  36.145  1.00  0.00     0.002 A 
ATOM     95  C   UNL A   1      45.275  26.807  37.044  1.00  0.00     0.091 A 
ATOM     96  F   UNL A   1      43.160  26.523  35.971  1.00  0.00    -0.205 F 
ATOM     97  C   UNL A   1      46.528  27.441  37.085  1.00  0.00     0.022 A 
BRANCH  95  98
ATOM     98  S   UNL A   1      44.921  25.618  38.346  1.00  0.00     0.127 S 
ATOM     99  O   UNL A   1      46.187  25.590  39.075  1.00  0.00    -0.237 OA
ATOM    100  O   UNL A   1      43.819  26.261  39.062  1.00  0.00    -0.237 OA
ATOM    101  O   UNL A   1      44.562  24.378  37.670  1.00  0.00    -0.744 OA
ENDBRANCH  95  98
ENDBRANCH  68  91
ENDBRANCH  42  43
ENDBRANCH  35  37
ENDBRANCH  34  35
ENDBRANCH  33  34
ENDBRANCH   1  33
TORSDOF 20
ENDMDL
MODEL 2
REMARK VINA RESULT:     -12.4      4.425     10.805
REMARK SMILES CC(C)Oc1ccc(-c2ccc(/C(=C\c3ccc(S(C)(=O)=O)cc3)C(=O)OCCOC(=O)c3ccc(-c4c5nc(c(-c6cccc(S(=O)(=O)[O-])c6F)c6ccc([nH]6)c(-c6cccc(S(=O)(=O)[O-])c6F)c6nc(c(-c7cccc(S(=O)(=O)[O-])c7F)c7ccc4[nH]7)C=C6)C=C5)cc3)cc2)cc1
REMARK SMILES IDX 28 1 27 2 25 3 26 4 13 5 14 6 12 7 9 8 10 9 97 10 11 11
REMARK SMILES IDX 96 12 8 13 5 14 6 15 99 16 7 17 98 18 4 19 2 20 1 21 3 22
REMARK SMILES IDX 15 23 16 24 24 25 17 26 23 27 18 28 19 29 20 30 21 31 22 32
REMARK SMILES IDX 29 33 30 34 31 35 32 36 33 37 34 38 95 39 35 40 94 41 36 42
REMARK SMILES IDX 37 43 38 44 88 45 39 46 93 47 87 48 89 49 40 50 92 51 86 52
REMARK SMILES IDX 85 53 41 55 73 56 53 57 72 58 54 59 57 60 71 61 90 62 55 63
REMARK SMILES IDX 56 64 70 66 91 67 58 68 42 69 43 70 51 71 44 72 46 73 52 74
REMARK SMILES IDX 45 75 47 76 48 77 49 78 50 79 74 80 75 81 83 82 76 83 78 84
REMARK SMILES IDX 84 85 77 86 79 87 80 88 81 89 82 90 59 91 60 92 68 93 61 94
REMARK SMILES IDX 63 95 69 96 62 97 64 98 65 99 66 100 67 101
REMARK H PARENT 89 54 57 65
REMARK Flexibility Score: inf
ROOT
ATOM      1  C   UNL A   1      34.363  22.309  25.052  1.00  0.00     0.275 C 
ENDROOT
BRANCH   1   2
ATOM      2  O   UNL A   1      33.972  23.613  25.540  1.00  0.00    -0.458 OA
BRANCH   2   3
ATOM      3  C   UNL A   1      32.683  23.763  25.959  1.00  0.00     0.338 C 
ATOM      4  O   UNL A   1      32.063  22.962  26.640  1.00  0.00    -0.246 OA
BRANCH   3   5
ATOM      5  C   UNL A   1      32.104  25.065  25.458  1.00  0.00     0.067 C 
ATOM      6  C   UNL A   1      31.308  24.872  24.373  1.00  0.00     0.024 C 
BRANCH   5   7
ATOM      7  C   UNL A   1      32.441  26.369  26.144  1.00  0.00    -0.011 A 
ATOM      8  C   UNL A   1      33.042  29.076  26.944  1.00  0.00    -0.018 A 
ATOM      9  C   UNL A   1      31.784  28.524  27.159  1.00  0.00     0.009 A 
ATOM     10  C   UNL A   1      34.033  28.208  26.486  1.00  0.00     0.009 A 
ATOM     11  C   UNL A   1      31.512  27.191  26.802  1.00  0.00     0.009 A 
ATOM     12  C   UNL A   1      33.739  26.886  26.100  1.00  0.00     0.009 A 
BRANCH   8  13
ATOM     13  C   UNL A   1      33.337  30.492  27.201  1.00  0.00    -0.018 A 
ATOM     14  C   UNL A   1      33.897  33.189  27.843  1.00  0.00     0.119 A 
ATOM     15  C   UNL A   1      32.609  32.796  27.477  1.00  0.00     0.047 A 
ATOM     16  C   UNL A   1      34.910  32.240  27.894  1.00  0.00     0.047 A 
ATOM     17  C   UNL A   1      32.332  31.465  27.147  1.00  0.00     0.012 A 
ATOM     18  C   UNL A   1      34.633  30.906  27.562  1.00  0.00     0.012 A 
BRANCH  14  19
ATOM     19  O   UNL A   1      34.019  34.474  28.274  1.00  0.00    -0.491 OA
BRANCH  19  20
ATOM     20  C   UNL A   1      33.384  34.893  29.491  1.00  0.00     0.167 C 
ATOM     21  C   UNL A   1      34.151  34.503  30.745  1.00  0.00     0.052 C 
ATOM     22  C   UNL A   1      32.949  36.356  29.490  1.00  0.00     0.052 C 
ENDBRANCH  19  20
ENDBRANCH  14  19
ENDBRANCH   8  13
ENDBRANCH   5   7
BRANCH   6  23
ATOM     23  C   UNL A   1      30.529  25.884  23.661  1.00  0.00    -0.025 A 
ATOM     24  C   UNL A   1      29.187  26.047  24.032  1.00  0.00     0.009 A 
ATOM     25  C   UNL A   1      31.142  26.801  22.796  1.00  0.00     0.009 A 
ATOM     26  C   UNL A   1      28.499  27.196  23.655  1.00  0.00     0.021 A 
ATOM     27  C   UNL A   1      30.456  27.960  22.422  1.00  0.00     0.021 A 
ATOM     28  C   UNL A   1      29.153  28.166  22.888  1.00  0.00     0.067 A 
BRANCH  28  29
ATOM     29  S   UNL A   1      28.379  29.753  22.690  1.00  0.00     0.175 S 
ATOM     30  C   UNL A   1      29.408  30.837  23.633  1.00  0.00     0.163 C 
ATOM     31  O   UNL A   1      28.506  30.122  21.293  1.00  0.00    -0.224 OA
ATOM     32  O   UNL A   1      27.079  29.700  23.331  1.00  0.00    -0.224 OA
ENDBRANCH  28  29
ENDBRANCH   6  23
ENDBRANCH   3   5
ENDBRANCH   2   3
ENDBRANCH   1   2
BRANCH   1  33
ATOM     33  C   UNL A   1      35.498  21.763  25.923  1.00  0.00     0.275 C 
BRANCH  33  34
ATOM     34  O   UNL A   1      36.681  22.496  25.574  1.00  0.00    -0.458 OA
BRANCH  34  35
ATOM     35  C   UNL A   1      37.881  21.931  25.834  1.00  0.00     0.338 C 
ATOM     36  O   UNL A   1      38.229  20.785  25.584  1.00  0.00    -0.246 OA
BRANCH  35  37
ATOM     37  C   UNL A   1      38.754  22.978  26.407  1.00  0.00     0.060 A 
ATOM     38  C   UNL A   1      38.372  24.308  26.264  1.00  0.00     0.016 A 
ATOM     39  C   UNL A   1      39.971  22.681  27.018  1.00  0.00     0.016 A 
ATOM     40  C   UNL A   1      39.225  25.329  26.670  1.00  0.00     0.010 A 
ATOM     41  C   UNL A   1      40.785  23.724  27.504  1.00  0.00     0.010 A 
ATOM     42  C   UNL A   1      40.444  25.076  27.305  1.00  0.00    -0.014 A 
BRANCH  42  43
ATOM     43  C   UNL A   1      41.352  26.215  27.689  1.00  0.00     0.031 A 
ATOM     44  C   UNL A   1      40.865  27.304  28.620  1.00  0.00     0.074 A 
ATOM     45  C   UNL A   1      42.636  26.285  27.267  1.00  0.00     0.049 A 
ATOM     46  N   UNL A   1      41.393  28.475  28.873  1.00  0.00    -0.248 NA
ATOM     47  C   UNL A   1      39.615  27.050  29.356  1.00  0.00     0.031 C 
ATOM     48  C   UNL A   1      43.310  25.308  26.410  1.00  0.00     0.029 A 
ATOM     49  N   UNL A   1      43.616  27.223  27.513  1.00  0.00    -0.354 N 
ATOM     50  C   UNL A   1      40.487  29.139  29.692  1.00  0.00     0.074 A 
ATOM     51  C   UNL A   1      39.392  28.224  29.930  1.00  0.00     0.031 C 
ATOM     52  C   UNL A   1      44.598  25.649  26.270  1.00  0.00     0.029 A 
ATOM     53  C   UNL A   1      44.815  26.950  26.889  1.00  0.00     0.049 A 
ATOM     54  H   UNL A   1      43.474  28.014  28.081  1.00  0.00     0.167 HD
ATOM     55  C   UNL A   1      40.558  30.392  30.202  1.00  0.00     0.034 A 
ATOM     56  C   UNL A   1      45.942  27.678  26.750  1.00  0.00     0.034 A 
ATOM     57  C   UNL A   1      41.699  31.261  30.078  1.00  0.00     0.049 A 
ATOM     58  C   UNL A   1      45.997  29.070  27.311  1.00  0.00     0.074 A 
ATOM     59  C   UNL A   1      41.873  32.529  30.609  1.00  0.00     0.029 A 
ATOM     60  N   UNL A   1      42.872  30.947  29.411  1.00  0.00    -0.354 N 
ATOM     61  N   UNL A   1      45.112  29.701  28.042  1.00  0.00    -0.248 NA
ATOM     62  C   UNL A   1      47.197  29.864  27.001  1.00  0.00     0.031 C 
ATOM     63  C   UNL A   1      43.150  32.983  30.260  1.00  0.00     0.029 A 
ATOM     64  C   UNL A   1      43.772  31.996  29.515  1.00  0.00     0.049 A 
ATOM     65  H   UNL A   1      43.041  30.104  28.933  1.00  0.00     0.167 HD
ATOM     66  C   UNL A   1      45.642  30.966  28.272  1.00  0.00     0.074 A 
ATOM     67  C   UNL A   1      46.944  30.998  27.642  1.00  0.00     0.031 C 
ATOM     68  C   UNL A   1      45.079  32.017  28.916  1.00  0.00     0.034 A 
BRANCH  55  69
ATOM     69  C   UNL A   1      39.370  30.911  30.969  1.00  0.00     0.023 A 
ATOM     70  C   UNL A   1      38.171  31.217  30.297  1.00  0.00     0.012 A 
ATOM     71  C   UNL A   1      39.421  31.014  32.374  1.00  0.00     0.148 A 
ATOM     72  C   UNL A   1      37.045  31.628  31.009  1.00  0.00     0.002 A 
ATOM     73  C   UNL A   1      38.284  31.390  33.080  1.00  0.00     0.091 A 
ATOM     74  F   UNL A   1      40.581  30.747  32.993  1.00  0.00    -0.205 F 
ATOM     75  C   UNL A   1      37.097  31.701  32.398  1.00  0.00     0.022 A 
BRANCH  73  76
ATOM     76  S   UNL A   1      38.242  31.444  34.875  1.00  0.00     0.127 S 
ATOM     77  O   UNL A   1      36.941  32.065  35.120  1.00  0.00    -0.237 OA
ATOM     78  O   UNL A   1      38.317  30.026  35.230  1.00  0.00    -0.237 OA
ATOM     79  O   UNL A   1      39.402  32.227  35.276  1.00  0.00    -0.744 OA
ENDBRANCH  73  76
ENDBRANCH  55  69
BRANCH  56  80
ATOM     80  C   UNL A   1      47.096  27.121  25.983  1.00  0.00     0.023 A 
ATOM     81  C   UNL A   1      47.128  27.243  24.581  1.00  0.00     0.012 A 
ATOM     82  C   UNL A   1      48.187  26.517  26.641  1.00  0.00     0.148 A 
ATOM     83  C   UNL A   1      48.223  26.773  23.852  1.00  0.00     0.002 A 
ATOM     84  C   UNL A   1      49.308  26.127  25.918  1.00  0.00     0.091 A 
ATOM     85  F   UNL A   1      48.122  26.359  27.971  1.00  0.00    -0.205 F 
ATOM     86  C   UNL A   1      49.322  26.237  24.521  1.00  0.00     0.022 A 
BRANCH  84  87
ATOM     87  S   UNL A   1      50.821  25.614  26.739  1.00  0.00     0.127 S 
ATOM     88  O   UNL A   1      50.380  24.438  27.481  1.00  0.00    -0.237 OA
ATOM     89  O   UNL A   1      51.708  25.333  25.608  1.00  0.00    -0.237 OA
ATOM     90  O   UNL A   1      51.230  26.763  27.538  1.00  0.00    -0.744 OA
ENDBRANCH  84  87
ENDBRANCH  56  80
BRANCH  68  91
ATOM     91  C   UNL A   1      45.857  33.305  28.960  1.00  0.00     0.023 A 
ATOM     92  C   UNL A   1      46.825  33.485  29.968  1.00  0.00     0.012 A 
ATOM     93  C   UNL A   1      45.684  34.302  27.980  1.00  0.00     0.148 A 
ATOM     94  C   UNL A   1      47.595  34.647  30.014  1.00  0.00     0.002 A 
ATOM     95  C   UNL A   1      46.481  35.441  28.011  1.00  0.00     0.091 A 
ATOM     96  F   UNL A   1      44.747  34.117  27.038  1.00  0.00    -0.205 F 
ATOM     97  C   UNL A   1      47.430  35.619  29.031  1.00  0.00     0.022 A 
BRANCH  95  98
ATOM     98  S   UNL A   1      46.397  36.716  26.746  1.00  0.00     0.127 S 
ATOM     99  O   UNL A   1      47.419  37.656  27.203  1.00  0.00    -0.237 OA
ATOM    100  O   UNL A   1      46.749  35.974  25.534  1.00  0.00    -0.237 OA
ATOM    101  O   UNL A   1      45.030  37.218  26.772  1.00  0.00    -0.744 OA
ENDBRANCH  95  98
ENDBRANCH  68  91
ENDBRANCH  42  43
ENDBRANCH  35  37
ENDBRANCH  34  35
ENDBRANCH  33  34
ENDBRANCH   1  33
TORSDOF 20
ENDMDL
MODEL 3
REMARK VINA RESULT:     -11.7      4.560     10.714
REMARK SMILES CC(C)Oc1ccc(-c2ccc(/C(=C\c3ccc(S(C)(=O)=O)cc3)C(=O)OCCOC(=O)c3ccc(-c4c5nc(c(-c6cccc(S(=O)(=O)[O-])c6F)c6ccc([nH]6)c(-c6cccc(S(=O)(=O)[O-])c6F)c6nc(c(-c7cccc(S(=O)(=O)[O-])c7F)c7ccc4[nH]7)C=C6)C=C5)cc3)cc2)cc1
REMARK SMILES IDX 28 1 27 2 25 3 26 4 13 5 14 6 12 7 9 8 10 9 97 10 11 11
REMARK SMILES IDX 96 12 8 13 5 14 6 15 99 16 7 17 98 18 4 19 2 20 1 21 3 22
REMARK SMILES IDX 15 23 16 24 24 25 17 26 23 27 18 28 19 29 20 30 21 31 22 32
REMARK SMILES IDX 29 33 30 34 31 35 32 36 33 37 34 38 95 39 35 40 94 41 36 42
REMARK SMILES IDX 37 43 38 44 88 45 39 46 93 47 87 48 89 49 40 50 92 51 86 52
REMARK SMILES IDX 85 53 41 55 73 56 53 57 72 58 54 59 57 60 71 61 90 62 55 63
REMARK SMILES IDX 56 64 70 66 91 67 58 68 42 69 43 70 51 71 44 72 46 73 52 74
REMARK SMILES IDX 45 75 47 76 48 77 49 78 50 79 74 80 75 81 83 82 76 83 78 84
REMARK SMILES IDX 84 85 77 86 79 87 80 88 81 89 82 90 59 91 60 92 68 93 61 94
REMARK SMILES IDX 63 95 69 96 62 97 64 98 65 99 66 100 67 101
REMARK H PARENT 89 54 57 65
REMARK Flexibility Score: inf
ROOT
ATOM      1  C   UNL A   1      35.054  23.257  24.627  1.00  0.00     0.275 C 
ENDROOT
BRANCH   1   2
ATOM      2  O   UNL A   1      34.231  24.023  25.537  1.00  0.00    -0.458 OA
BRANCH   2   3
ATOM      3  C   UNL A   1      32.879  23.931  25.387  1.00  0.00     0.338 C 
ATOM      4  O   UNL A   1      32.221  22.912  25.518  1.00  0.00    -0.246 OA
BRANCH   3   5
ATOM      5  C   UNL A   1      32.287  25.272  25.023  1.00  0.00     0.067 C 
ATOM      6  C   UNL A   1      31.407  25.165  23.992  1.00  0.00     0.024 C 
BRANCH   5   7
ATOM      7  C   UNL A   1      32.698  26.521  25.769  1.00  0.00    -0.011 A 
ATOM      8  C   UNL A   1      33.233  29.172  26.775  1.00  0.00    -0.018 A 
ATOM      9  C   UNL A   1      32.216  28.391  27.310  1.00  0.00     0.009 A 
ATOM     10  C   UNL A   1      34.080  28.550  25.858  1.00  0.00     0.009 A 
ATOM     11  C   UNL A   1      31.987  27.085  26.840  1.00  0.00     0.009 A 
ATOM     12  C   UNL A   1      33.820  27.254  25.371  1.00  0.00     0.009 A 
BRANCH   8  13
ATOM     13  C   UNL A   1      33.436  30.576  27.159  1.00  0.00    -0.018 A 
ATOM     14  C   UNL A   1      33.805  33.237  28.041  1.00  0.00     0.119 A 
ATOM     15  C   UNL A   1      32.578  32.822  27.522  1.00  0.00     0.047 A 
ATOM     16  C   UNL A   1      34.851  32.328  28.126  1.00  0.00     0.047 A 
ATOM     17  C   UNL A   1      32.397  31.510  27.073  1.00  0.00     0.012 A 
ATOM     18  C   UNL A   1      34.671  31.012  27.675  1.00  0.00     0.012 A 
BRANCH  14  19
ATOM     19  O   UNL A   1      33.825  34.491  28.572  1.00  0.00    -0.491 OA
BRANCH  19  20
ATOM     20  C   UNL A   1      33.415  34.709  29.929  1.00  0.00     0.167 C 
ATOM     21  C   UNL A   1      34.461  34.302  30.956  1.00  0.00     0.052 C 
ATOM     22  C   UNL A   1      32.838  36.099  30.186  1.00  0.00     0.052 C 
ENDBRANCH  19  20
ENDBRANCH  14  19
ENDBRANCH   8  13
ENDBRANCH   5   7
BRANCH   6  23
ATOM     23  C   UNL A   1      30.594  26.234  23.414  1.00  0.00    -0.025 A 
ATOM     24  C   UNL A   1      29.254  26.318  23.815  1.00  0.00     0.009 A 
ATOM     25  C   UNL A   1      31.172  27.263  22.658  1.00  0.00     0.009 A 
ATOM     26  C   UNL A   1      28.533  27.485  23.585  1.00  0.00     0.021 A 
ATOM     27  C   UNL A   1      30.454  28.440  22.432  1.00  0.00     0.021 A 
ATOM     28  C   UNL A   1      29.152  28.556  22.932  1.00  0.00     0.067 A 
BRANCH  28  29
ATOM     29  S   UNL A   1      28.338  30.135  22.933  1.00  0.00     0.175 S 
ATOM     30  C   UNL A   1      28.293  30.580  21.223  1.00  0.00     0.163 C 
ATOM     31  O   UNL A   1      26.972  29.913  23.372  1.00  0.00    -0.224 OA
ATOM     32  O   UNL A   1      29.196  31.081  23.620  1.00  0.00    -0.224 OA
ENDBRANCH  28  29
ENDBRANCH   6  23
ENDBRANCH   3   5
ENDBRANCH   2   3
ENDBRANCH   1   2
BRANCH   1  33
ATOM     33  C   UNL A   1      35.798  22.173  25.409  1.00  0.00     0.275 C 
BRANCH  33  34
ATOM     34  O   UNL A   1      36.806  22.835  26.186  1.00  0.00    -0.458 OA
BRANCH  34  35
ATOM     35  C   UNL A   1      38.071  22.366  26.124  1.00  0.00     0.338 C 
ATOM     36  O   UNL A   1      38.443  21.300  25.649  1.00  0.00    -0.246 OA
BRANCH  35  37
ATOM     37  C   UNL A   1      38.965  23.415  26.657  1.00  0.00     0.060 A 
ATOM     38  C   UNL A   1      38.608  24.746  26.469  1.00  0.00     0.016 A 
ATOM     39  C   UNL A   1      40.178  23.117  27.277  1.00  0.00     0.016 A 
ATOM     40  C   UNL A   1      39.481  25.765  26.837  1.00  0.00     0.010 A 
ATOM     41  C   UNL A   1      41.012  24.161  27.724  1.00  0.00     0.010 A 
ATOM     42  C   UNL A   1      40.697  25.512  27.479  1.00  0.00    -0.014 A 
BRANCH  42  43
ATOM     43  C   UNL A   1      41.626  26.646  27.821  1.00  0.00     0.031 A 
ATOM     44  C   UNL A   1      41.184  27.743  28.765  1.00  0.00     0.074 A 
ATOM     45  C   UNL A   1      42.893  26.705  27.348  1.00  0.00     0.049 A 
ATOM     46  N   UNL A   1      41.729  28.912  28.991  1.00  0.00    -0.248 NA
ATOM     47  C   UNL A   1      39.962  27.501  29.550  1.00  0.00     0.031 C 
ATOM     48  C   UNL A   1      43.526  25.719  26.471  1.00  0.00     0.029 A 
ATOM     49  N   UNL A   1      43.888  27.637  27.551  1.00  0.00    -0.354 N 
ATOM     50  C   UNL A   1      40.860  29.585  29.841  1.00  0.00     0.074 A 
ATOM     51  C   UNL A   1      39.769  28.679  30.127  1.00  0.00     0.031 C 
ATOM     52  C   UNL A   1      44.810  26.050  26.278  1.00  0.00     0.029 A 
ATOM     53  C   UNL A   1      45.060  27.353  26.881  1.00  0.00     0.049 A 
ATOM     54  H   UNL A   1      43.774  28.433  28.120  1.00  0.00     0.167 HD
ATOM     55  C   UNL A   1      40.960  30.840  30.342  1.00  0.00     0.034 A 
ATOM     56  C   UNL A   1      46.185  28.073  26.695  1.00  0.00     0.034 A 
ATOM     57  C   UNL A   1      42.101  31.701  30.168  1.00  0.00     0.049 A 
ATOM     58  C   UNL A   1      46.272  29.467  27.246  1.00  0.00     0.074 A 
ATOM     59  C   UNL A   1      42.304  32.971  30.686  1.00  0.00     0.029 A 
ATOM     60  N   UNL A   1      43.245  31.376  29.457  1.00  0.00    -0.354 N 
ATOM     61  N   UNL A   1      45.420  30.108  28.008  1.00  0.00    -0.248 NA
ATOM     62  C   UNL A   1      47.464  30.252  26.885  1.00  0.00     0.031 C 
ATOM     63  C   UNL A   1      43.569  33.414  30.285  1.00  0.00     0.029 A 
ATOM     64  C   UNL A   1      44.155  32.419  29.521  1.00  0.00     0.049 A 
ATOM     65  H   UNL A   1      43.390  30.529  28.978  1.00  0.00     0.167 HD
ATOM     66  C   UNL A   1      45.967  31.370  28.210  1.00  0.00     0.074 A 
ATOM     67  C   UNL A   1      47.245  31.390  27.529  1.00  0.00     0.031 C 
ATOM     68  C   UNL A   1      45.438  32.428  28.870  1.00  0.00     0.034 A 
BRANCH  55  69
ATOM     69  C   UNL A   1      39.807  31.372  31.152  1.00  0.00     0.023 A 
ATOM     70  C   UNL A   1      38.688  31.935  30.509  1.00  0.00     0.012 A 
ATOM     71  C   UNL A   1      39.800  31.232  32.554  1.00  0.00     0.148 A 
ATOM     72  C   UNL A   1      37.586  32.362  31.248  1.00  0.00     0.002 A 
ATOM     73  C   UNL A   1      38.683  31.627  33.282  1.00  0.00     0.091 A 
ATOM     74  F   UNL A   1      40.887  30.721  33.152  1.00  0.00    -0.205 F 
ATOM     75  C   UNL A   1      37.577  32.195  32.630  1.00  0.00     0.022 A 
BRANCH  73  76
ATOM     76  S   UNL A   1      38.558  31.386  35.058  1.00  0.00     0.127 S 
ATOM     77  O   UNL A   1      38.735  29.939  35.172  1.00  0.00    -0.237 OA
ATOM     78  O   UNL A   1      39.683  32.178  35.558  1.00  0.00    -0.237 OA
ATOM     79  O   UNL A   1      37.248  31.894  35.437  1.00  0.00    -0.744 OA
ENDBRANCH  73  76
ENDBRANCH  55  69
BRANCH  56  80
ATOM     80  C   UNL A   1      47.305  27.504  25.886  1.00  0.00     0.023 A 
ATOM     81  C   UNL A   1      48.139  26.516  26.444  1.00  0.00     0.012 A 
ATOM     82  C   UNL A   1      47.514  27.898  24.549  1.00  0.00     0.148 A 
ATOM     83  C   UNL A   1      49.158  25.936  25.686  1.00  0.00     0.002 A 
ATOM     84  C   UNL A   1      48.476  27.259  23.776  1.00  0.00     0.091 A 
ATOM     85  F   UNL A   1      46.749  28.876  24.044  1.00  0.00    -0.205 F 
ATOM     86  C   UNL A   1      49.312  26.290  24.347  1.00  0.00     0.022 A 
BRANCH  84  87
ATOM     87  S   UNL A   1      48.589  27.532  22.004  1.00  0.00     0.127 S 
ATOM     88  O   UNL A   1      49.675  28.501  21.916  1.00  0.00    -0.237 OA
ATOM     89  O   UNL A   1      48.913  26.194  21.504  1.00  0.00    -0.237 OA
ATOM     90  O   UNL A   1      47.269  28.007  21.607  1.00  0.00    -0.744 OA
ENDBRANCH  84  87
ENDBRANCH  56  80
BRANCH  68  91
ATOM     91  C   UNL A   1      46.225  33.710  28.877  1.00  0.00     0.023 A 
ATOM     92  C   UNL A   1      45.973  34.674  27.881  1.00  0.00     0.012 A 
ATOM     93  C   UNL A   1      47.158  33.994  29.894  1.00  0.00     0.148 A 
ATOM     94  C   UNL A   1      46.652  35.891  27.881  1.00  0.00     0.002 A 
ATOM     95  C   UNL A   1      47.805  35.225  29.909  1.00  0.00     0.091 A 
ATOM     96  F   UNL A   1      47.395  33.058  30.824  1.00  0.00    -0.205 F 
ATOM     97  C   UNL A   1      47.559  36.171  28.899  1.00  0.00     0.022 A 
BRANCH  95  98
ATOM     98  S   UNL A   1      48.935  35.710  31.221  1.00  0.00     0.127 S 
ATOM     99  O   UNL A   1      49.282  37.074  30.826  1.00  0.00    -0.237 OA
ATOM    100  O   UNL A   1      48.087  35.616  32.410  1.00  0.00    -0.237 OA
ATOM    101  O   UNL A   1      50.030  34.751  31.182  1.00  0.00    -0.744 OA
ENDBRANCH  95  98
ENDBRANCH  68  91
ENDBRANCH  42  43
ENDBRANCH  35  37
ENDBRANCH  34  35
ENDBRANCH  33  34
ENDBRANCH   1  33
TORSDOF 20
ENDMDL
