MODEL 1
REMARK VINA RESULT:     -11.1      0.000      0.000
REMARK SMILES Cc1ccc(O)c(C[C@H](NC=O)C(=O)OCCOC(=O)c2ccc(-c3c4nc(c(-c5cccc(S(=O)(=O)[O-])c5F)c5ccc([nH]5)c(-c5cccc(S(=O)(=O)[O-])c5F)c5nc(c(-c6cccc(S(=O)(=O)[O-])c6F)c6ccc3[nH]6)C=C5)C=C4)cc2)n1
REMARK SMILES IDX 16 1 15 2 13 3 14 4 9 5 8 6 7 7 1 8 2 9 3 10 84 11 4 12 5 13
REMARK SMILES IDX 6 14 10 16 11 17 12 19 17 20 18 21 19 22 20 23 21 24 22 25
REMARK SMILES IDX 83 26 23 27 82 28 24 29 25 30 26 31 76 32 27 33 81 34 75 35
REMARK SMILES IDX 77 36 28 37 80 38 74 39 73 40 29 42 61 43 41 44 60 45 42 46
REMARK SMILES IDX 45 47 59 48 78 49 43 50 44 51 58 53 79 54 46 55 30 56 31 57
REMARK SMILES IDX 39 58 32 59 34 60 40 61 33 62 35 63 36 64 37 65 38 66 62 67
REMARK SMILES IDX 63 68 71 69 64 70 66 71 72 72 65 73 67 74 68 75 69 76 70 77
REMARK SMILES IDX 47 78 48 79 56 80 49 81 51 82 57 83 50 84 52 85 53 86 54 87
REMARK SMILES IDX 55 88
REMARK H PARENT 6 15 10 18 77 41 45 52
REMARK Flexibility Score: inf
ROOT
ATOM      1  C   UNL A   1      35.863  20.916  25.068  1.00  0.00     0.274 C 
ENDROOT
BRANCH   1   2
ATOM      2  O   UNL A   1      35.440  22.012  24.235  1.00  0.00    -0.461 OA
BRANCH   2   3
ATOM      3  C   UNL A   1      34.090  22.209  24.171  1.00  0.00     0.329 C 
ATOM      4  O   UNL A   1      33.513  22.782  23.253  1.00  0.00    -0.250 OA
BRANCH   3   5
ATOM      5  C   UNL A   1      33.358  21.681  25.421  1.00  0.00     0.198 C 
BRANCH   5   6
ATOM      6  C   UNL A   1      32.176  20.756  25.080  1.00  0.00     0.097 C 
BRANCH   6   7
ATOM      7  C   UNL A   1      32.612  19.512  24.358  1.00  0.00     0.085 A 
ATOM      8  C   UNL A   1      33.560  16.200  25.617  1.00  0.00     0.067 C 
ATOM      9  C   UNL A   1      33.249  17.296  24.646  1.00  0.00     0.038 A 
ATOM     10  C   UNL A   1      33.007  17.017  23.306  1.00  0.00     0.027 A 
ATOM     11  N   UNL A   1      33.089  18.532  25.169  1.00  0.00    -0.254 NA
ATOM     12  C   UNL A   1      32.574  18.045  22.469  1.00  0.00     0.050 A 
ATOM     13  C   UNL A   1      32.350  19.306  23.007  1.00  0.00     0.137 A 
BRANCH  13  14
ATOM     14  O   UNL A   1      31.830  20.311  22.245  1.00  0.00    -0.506 OA
ATOM     15  H   UNL A   1      32.021  21.204  22.455  1.00  0.00     0.293 HD
ENDBRANCH  13  14
ENDBRANCH   6   7
ENDBRANCH   5   6
BRANCH   5  16
ATOM     16  N   UNL A   1      32.916  22.789  26.272  1.00  0.00    -0.345 N 
ATOM     17  C   UNL A   1      31.619  23.050  26.589  1.00  0.00     0.337 C 
ATOM     18  H   UNL A   1      33.605  23.386  26.641  1.00  0.00     0.164 HD
ATOM     19  O   UNL A   1      31.276  23.983  27.301  1.00  0.00    -0.279 OA
ENDBRANCH   5  16
ENDBRANCH   3   5
ENDBRANCH   2   3
ENDBRANCH   1   2
BRANCH   1  20
ATOM     20  C   UNL A   1      37.389  20.791  25.120  1.00  0.00     0.275 C 
BRANCH  20  21
ATOM     21  O   UNL A   1      37.990  21.811  25.936  1.00  0.00    -0.458 OA
BRANCH  21  22
ATOM     22  C   UNL A   1      39.277  21.577  26.288  1.00  0.00     0.338 C 
ATOM     23  O   UNL A   1      39.916  20.556  26.103  1.00  0.00    -0.246 OA
BRANCH  22  24
ATOM     24  C   UNL A   1      39.877  22.822  26.792  1.00  0.00     0.060 A 
ATOM     25  C   UNL A   1      39.516  24.022  26.171  1.00  0.00     0.016 A 
ATOM     26  C   UNL A   1      40.810  22.808  27.828  1.00  0.00     0.016 A 
ATOM     27  C   UNL A   1      40.072  25.224  26.593  1.00  0.00     0.010 A 
ATOM     28  C   UNL A   1      41.378  24.015  28.245  1.00  0.00     0.010 A 
ATOM     29  C   UNL A   1      41.013  25.226  27.628  1.00  0.00    -0.014 A 
BRANCH  29  30
ATOM     30  C   UNL A   1      41.651  26.492  28.047  1.00  0.00     0.031 A 
ATOM     31  C   UNL A   1      40.833  27.534  28.748  1.00  0.00     0.074 A 
ATOM     32  C   UNL A   1      42.950  26.704  27.773  1.00  0.00     0.049 A 
ATOM     33  N   UNL A   1      41.163  28.751  29.087  1.00  0.00    -0.248 NA
ATOM     34  C   UNL A   1      39.459  27.154  29.115  1.00  0.00     0.031 C 
ATOM     35  C   UNL A   1      43.843  25.741  27.127  1.00  0.00     0.029 A 
ATOM     36  N   UNL A   1      43.737  27.809  27.976  1.00  0.00    -0.354 N 
ATOM     37  C   UNL A   1      40.029  29.300  29.671  1.00  0.00     0.074 A 
ATOM     38  C   UNL A   1      39.001  28.281  29.642  1.00  0.00     0.031 C 
ATOM     39  C   UNL A   1      45.051  26.306  26.966  1.00  0.00     0.029 A 
ATOM     40  C   UNL A   1      45.001  27.683  27.452  1.00  0.00     0.049 A 
ATOM     41  H   UNL A   1      43.426  28.613  28.451  1.00  0.00     0.167 HD
ATOM     42  C   UNL A   1      39.866  30.538  30.194  1.00  0.00     0.034 A 
ATOM     43  C   UNL A   1      45.991  28.589  27.342  1.00  0.00     0.034 A 
ATOM     44  C   UNL A   1      40.903  31.534  30.232  1.00  0.00     0.049 A 
ATOM     45  C   UNL A   1      45.761  29.981  27.869  1.00  0.00     0.074 A 
ATOM     46  C   UNL A   1      40.855  32.808  30.767  1.00  0.00     0.029 A 
ATOM     47  N   UNL A   1      42.175  31.370  29.702  1.00  0.00    -0.354 N 
ATOM     48  N   UNL A   1      44.715  30.463  28.495  1.00  0.00    -0.248 NA
ATOM     49  C   UNL A   1      46.852  30.949  27.686  1.00  0.00     0.031 C 
ATOM     50  C   UNL A   1      42.092  33.423  30.539  1.00  0.00     0.029 A 
ATOM     51  C   UNL A   1      42.916  32.524  29.879  1.00  0.00     0.049 A 
ATOM     52  H   UNL A   1      42.501  30.551  29.263  1.00  0.00     0.167 HD
ATOM     53  C   UNL A   1      45.029  31.781  28.805  1.00  0.00     0.074 A 
ATOM     54  C   UNL A   1      46.373  32.014  28.315  1.00  0.00     0.031 C 
ATOM     55  C   UNL A   1      44.270  32.719  29.424  1.00  0.00     0.034 A 
BRANCH  42  56
ATOM     56  C   UNL A   1      38.520  30.874  30.778  1.00  0.00     0.023 A 
ATOM     57  C   UNL A   1      38.232  30.522  32.112  1.00  0.00     0.012 A 
ATOM     58  C   UNL A   1      37.550  31.558  30.020  1.00  0.00     0.148 A 
ATOM     59  C   UNL A   1      36.988  30.815  32.672  1.00  0.00     0.002 A 
ATOM     60  C   UNL A   1      36.327  31.882  30.596  1.00  0.00     0.091 A 
ATOM     61  F   UNL A   1      37.832  31.860  28.744  1.00  0.00    -0.205 F 
ATOM     62  C   UNL A   1      36.041  31.502  31.917  1.00  0.00     0.022 A 
BRANCH  60  63
ATOM     63  S   UNL A   1      35.072  32.826  29.724  1.00  0.00     0.127 S 
ATOM     64  O   UNL A   1      35.866  33.910  29.146  1.00  0.00    -0.237 OA
ATOM     65  O   UNL A   1      34.570  31.853  28.753  1.00  0.00    -0.237 OA
ATOM     66  O   UNL A   1      34.102  33.226  30.734  1.00  0.00    -0.744 OA
ENDBRANCH  60  63
ENDBRANCH  42  56
BRANCH  43  67
ATOM     67  C   UNL A   1      47.293  28.201  26.730  1.00  0.00     0.023 A 
ATOM     68  C   UNL A   1      48.401  27.960  27.566  1.00  0.00     0.012 A 
ATOM     69  C   UNL A   1      47.433  28.028  25.339  1.00  0.00     0.148 A 
ATOM     70  C   UNL A   1      49.627  27.573  27.027  1.00  0.00     0.002 A 
ATOM     71  C   UNL A   1      48.643  27.589  24.813  1.00  0.00     0.091 A 
ATOM     72  F   UNL A   1      46.373  28.279  24.558  1.00  0.00    -0.205 F 
ATOM     73  C   UNL A   1      49.746  27.377  25.654  1.00  0.00     0.022 A 
BRANCH  71  74
ATOM     74  S   UNL A   1      48.852  27.181  23.076  1.00  0.00     0.127 S 
ATOM     75  O   UNL A   1      48.131  25.915  22.977  1.00  0.00    -0.237 OA
ATOM     76  O   UNL A   1      48.200  28.315  22.419  1.00  0.00    -0.237 OA
ATOM     77  O   UNL A   1      50.290  27.109  22.859  1.00  0.00    -0.744 OA
ENDBRANCH  71  74
ENDBRANCH  43  67
BRANCH  55  78
ATOM     78  C   UNL A   1      44.877  34.083  29.629  1.00  0.00     0.023 A 
ATOM     79  C   UNL A   1      45.622  34.342  30.796  1.00  0.00     0.012 A 
ATOM     80  C   UNL A   1      44.786  35.071  28.629  1.00  0.00     0.148 A 
ATOM     81  C   UNL A   1      46.248  35.575  30.976  1.00  0.00     0.002 A 
ATOM     82  C   UNL A   1      45.452  36.279  28.794  1.00  0.00     0.091 A 
ATOM     83  F   UNL A   1      44.058  34.807  27.535  1.00  0.00    -0.205 F 
ATOM     84  C   UNL A   1      46.175  36.537  29.971  1.00  0.00     0.022 A 
BRANCH  82  85
ATOM     85  S   UNL A   1      45.490  37.543  27.518  1.00  0.00     0.127 S 
ATOM     86  O   UNL A   1      46.272  38.596  28.166  1.00  0.00    -0.237 OA
ATOM     87  O   UNL A   1      46.178  36.857  26.424  1.00  0.00    -0.237 OA
ATOM     88  O   UNL A   1      44.100  37.880  27.243  1.00  0.00    -0.744 OA
ENDBRANCH  82  85
ENDBRANCH  55  78
ENDBRANCH  29  30
ENDBRANCH  22  24
ENDBRANCH  21  22
ENDBRANCH  20  21
ENDBRANCH   1  20
TORSDOF 18
ENDMDL
MODEL 2
REMARK VINA RESULT:     -11.1      1.968      3.265
REMARK SMILES Cc1ccc(O)c(C[C@H](NC=O)C(=O)OCCOC(=O)c2ccc(-c3c4nc(c(-c5cccc(S(=O)(=O)[O-])c5F)c5ccc([nH]5)c(-c5cccc(S(=O)(=O)[O-])c5F)c5nc(c(-c6cccc(S(=O)(=O)[O-])c6F)c6ccc3[nH]6)C=C5)C=C4)cc2)n1
REMARK SMILES IDX 16 1 15 2 13 3 14 4 9 5 8 6 7 7 1 8 2 9 3 10 84 11 4 12 5 13
REMARK SMILES IDX 6 14 10 16 11 17 12 19 17 20 18 21 19 22 20 23 21 24 22 25
REMARK SMILES IDX 83 26 23 27 82 28 24 29 25 30 26 31 76 32 27 33 81 34 75 35
REMARK SMILES IDX 77 36 28 37 80 38 74 39 73 40 29 42 61 43 41 44 60 45 42 46
REMARK SMILES IDX 45 47 59 48 78 49 43 50 44 51 58 53 79 54 46 55 30 56 31 57
REMARK SMILES IDX 39 58 32 59 34 60 40 61 33 62 35 63 36 64 37 65 38 66 62 67
REMARK SMILES IDX 63 68 71 69 64 70 66 71 72 72 65 73 67 74 68 75 69 76 70 77
REMARK SMILES IDX 47 78 48 79 56 80 49 81 51 82 57 83 50 84 52 85 53 86 54 87
REMARK SMILES IDX 55 88
REMARK H PARENT 6 15 10 18 77 41 45 52
REMARK Flexibility Score: inf
ROOT
ATOM      1  C   UNL A   1      35.459  20.032  24.990  1.00  0.00     0.274 C 
ENDROOT
BRANCH   1   2
ATOM      2  O   UNL A   1      34.173  20.678  24.950  1.00  0.00    -0.461 OA
BRANCH   2   3
ATOM      3  C   UNL A   1      33.892  21.485  26.016  1.00  0.00     0.329 C 
ATOM      4  O   UNL A   1      33.991  21.146  27.191  1.00  0.00    -0.250 OA
BRANCH   3   5
ATOM      5  C   UNL A   1      33.372  22.870  25.583  1.00  0.00     0.198 C 
BRANCH   5   6
ATOM      6  C   UNL A   1      34.501  23.889  25.344  1.00  0.00     0.097 C 
BRANCH   6   7
ATOM      7  C   UNL A   1      33.978  25.243  24.956  1.00  0.00     0.085 A 
ATOM      8  C   UNL A   1      33.620  28.337  26.894  1.00  0.00     0.067 C 
ATOM      9  C   UNL A   1      33.591  27.402  25.726  1.00  0.00     0.038 A 
ATOM     10  C   UNL A   1      33.493  27.883  24.425  1.00  0.00     0.027 A 
ATOM     11  N   UNL A   1      33.797  26.095  26.000  1.00  0.00    -0.254 NA
ATOM     12  C   UNL A   1      33.621  26.991  23.362  1.00  0.00     0.050 A 
ATOM     13  C   UNL A   1      33.891  25.655  23.630  1.00  0.00     0.137 A 
BRANCH  13  14
ATOM     14  O   UNL A   1      34.124  24.771  22.618  1.00  0.00    -0.506 OA
ATOM     15  H   UNL A   1      34.456  23.916  22.811  1.00  0.00     0.293 HD
ENDBRANCH  13  14
ENDBRANCH   6   7
ENDBRANCH   5   6
BRANCH   5  16
ATOM     16  N   UNL A   1      32.408  23.391  26.557  1.00  0.00    -0.345 N 
ATOM     17  C   UNL A   1      31.060  23.409  26.377  1.00  0.00     0.337 C 
ATOM     18  H   UNL A   1      32.761  23.753  27.401  1.00  0.00     0.164 HD
ATOM     19  O   UNL A   1      30.277  23.851  27.205  1.00  0.00    -0.279 OA
ENDBRANCH   5  16
ENDBRANCH   3   5
ENDBRANCH   2   3
ENDBRANCH   1   2
BRANCH   1  20
ATOM     20  C   UNL A   1      36.599  21.005  24.668  1.00  0.00     0.275 C 
BRANCH  20  21
ATOM     21  O   UNL A   1      37.222  21.522  25.857  1.00  0.00    -0.458 OA
BRANCH  21  22
ATOM     22  C   UNL A   1      38.534  21.215  25.994  1.00  0.00     0.338 C 
ATOM     23  O   UNL A   1      39.090  20.189  25.643  1.00  0.00    -0.246 OA
BRANCH  22  24
ATOM     24  C   UNL A   1      39.260  22.394  26.490  1.00  0.00     0.060 A 
ATOM     25  C   UNL A   1      38.805  23.657  26.099  1.00  0.00     0.016 A 
ATOM     26  C   UNL A   1      40.393  22.262  27.292  1.00  0.00     0.016 A 
ATOM     27  C   UNL A   1      39.470  24.802  26.520  1.00  0.00     0.010 A 
ATOM     28  C   UNL A   1      41.068  23.413  27.706  1.00  0.00     0.010 A 
ATOM     29  C   UNL A   1      40.611  24.686  27.320  1.00  0.00    -0.014 A 
BRANCH  29  30
ATOM     30  C   UNL A   1      41.356  25.896  27.728  1.00  0.00     0.031 A 
ATOM     31  C   UNL A   1      40.653  26.969  28.503  1.00  0.00     0.074 A 
ATOM     32  C   UNL A   1      42.647  26.031  27.377  1.00  0.00     0.049 A 
ATOM     33  N   UNL A   1      41.085  28.153  28.850  1.00  0.00    -0.248 NA
ATOM     34  C   UNL A   1      39.282  26.669  28.947  1.00  0.00     0.031 C 
ATOM     35  C   UNL A   1      43.433  25.030  26.654  1.00  0.00     0.029 A 
ATOM     36  N   UNL A   1      43.516  27.076  27.557  1.00  0.00    -0.354 N 
ATOM     37  C   UNL A   1      40.027  28.757  29.517  1.00  0.00     0.074 A 
ATOM     38  C   UNL A   1      38.934  27.809  29.528  1.00  0.00     0.031 C 
ATOM     39  C   UNL A   1      44.664  25.520  26.430  1.00  0.00     0.029 A 
ATOM     40  C   UNL A   1      44.735  26.883  26.951  1.00  0.00     0.049 A 
ATOM     41  H   UNL A   1      43.290  27.886  28.069  1.00  0.00     0.167 HD
ATOM     42  C   UNL A   1      39.980  29.989  30.077  1.00  0.00     0.034 A 
ATOM     43  C   UNL A   1      45.774  27.726  26.800  1.00  0.00     0.034 A 
ATOM     44  C   UNL A   1      41.081  30.914  30.074  1.00  0.00     0.049 A 
ATOM     45  C   UNL A   1      45.671  29.114  27.373  1.00  0.00     0.074 A 
ATOM     46  C   UNL A   1      41.151  32.173  30.640  1.00  0.00     0.029 A 
ATOM     47  N   UNL A   1      42.304  30.682  29.461  1.00  0.00    -0.354 N 
ATOM     48  N   UNL A   1      44.700  29.646  28.075  1.00  0.00    -0.248 NA
ATOM     49  C   UNL A   1      46.811  30.014  27.145  1.00  0.00     0.031 C 
ATOM     50  C   UNL A   1      42.409  32.712  30.350  1.00  0.00     0.029 A 
ATOM     51  C   UNL A   1      43.130  31.780  29.619  1.00  0.00     0.049 A 
ATOM     52  H   UNL A   1      42.548  29.856  28.983  1.00  0.00     0.167 HD
ATOM     53  C   UNL A   1      45.119  30.932  28.396  1.00  0.00     0.074 A 
ATOM     54  C   UNL A   1      46.443  31.090  27.828  1.00  0.00     0.031 C 
ATOM     55  C   UNL A   1      44.463  31.900  29.083  1.00  0.00     0.034 A 
BRANCH  42  56
ATOM     56  C   UNL A   1      38.697  30.395  30.753  1.00  0.00     0.023 A 
ATOM     57  C   UNL A   1      38.488  30.066  32.108  1.00  0.00     0.012 A 
ATOM     58  C   UNL A   1      37.711  31.123  30.060  1.00  0.00     0.148 A 
ATOM     59  C   UNL A   1      37.304  30.424  32.752  1.00  0.00     0.002 A 
ATOM     60  C   UNL A   1      36.550  31.511  30.719  1.00  0.00     0.091 A 
ATOM     61  F   UNL A   1      37.915  31.403  28.764  1.00  0.00    -0.205 F 
ATOM     62  C   UNL A   1      36.340  31.153  32.060  1.00  0.00     0.022 A 
BRANCH  60  63
ATOM     63  S   UNL A   1      35.284  32.512  29.930  1.00  0.00     0.127 S 
ATOM     64  O   UNL A   1      34.791  31.604  28.895  1.00  0.00    -0.237 OA
ATOM     65  O   UNL A   1      34.346  32.748  31.029  1.00  0.00    -0.237 OA
ATOM     66  O   UNL A   1      35.963  33.707  29.449  1.00  0.00    -0.744 OA
ENDBRANCH  60  63
ENDBRANCH  42  56
BRANCH  43  67
ATOM     67  C   UNL A   1      47.008  27.270  26.098  1.00  0.00     0.023 A 
ATOM     68  C   UNL A   1      47.166  27.560  24.729  1.00  0.00     0.012 A 
ATOM     69  C   UNL A   1      48.038  26.594  26.781  1.00  0.00     0.148 A 
ATOM     70  C   UNL A   1      48.318  27.167  24.048  1.00  0.00     0.002 A 
ATOM     71  C   UNL A   1      49.207  26.254  26.109  1.00  0.00     0.091 A 
ATOM     72  F   UNL A   1      47.861  26.312  28.078  1.00  0.00    -0.205 F 
ATOM     73  C   UNL A   1      49.343  26.526  24.739  1.00  0.00     0.022 A 
BRANCH  71  74
ATOM     74  S   UNL A   1      50.632  25.547  26.945  1.00  0.00     0.127 S 
ATOM     75  O   UNL A   1      51.553  25.330  25.833  1.00  0.00    -0.237 OA
ATOM     76  O   UNL A   1      51.011  26.625  27.859  1.00  0.00    -0.237 OA
ATOM     77  O   UNL A   1      50.143  24.344  27.606  1.00  0.00    -0.744 OA
ENDBRANCH  71  74
ENDBRANCH  43  67
BRANCH  55  78
ATOM     78  C   UNL A   1      45.172  33.214  29.282  1.00  0.00     0.023 A 
ATOM     79  C   UNL A   1      45.969  33.407  30.427  1.00  0.00     0.012 A 
ATOM     80  C   UNL A   1      45.118  34.219  28.295  1.00  0.00     0.148 A 
ATOM     81  C   UNL A   1      46.686  34.590  30.598  1.00  0.00     0.002 A 
ATOM     82  C   UNL A   1      45.873  35.375  28.451  1.00  0.00     0.091 A 
ATOM     83  F   UNL A   1      44.339  34.019  27.223  1.00  0.00    -0.205 F 
ATOM     84  C   UNL A   1      46.649  35.567  29.605  1.00  0.00     0.022 A 
BRANCH  82  85
ATOM     85  S   UNL A   1      45.960  36.649  27.187  1.00  0.00     0.127 S 
ATOM     86  O   UNL A   1      44.574  37.113  27.136  1.00  0.00    -0.237 OA
ATOM     87  O   UNL A   1      46.902  37.602  27.773  1.00  0.00    -0.237 OA
ATOM     88  O   UNL A   1      46.439  35.988  25.980  1.00  0.00    -0.744 OA
ENDBRANCH  82  85
ENDBRANCH  55  78
ENDBRANCH  29  30
ENDBRANCH  22  24
ENDBRANCH  21  22
ENDBRANCH  20  21
ENDBRANCH   1  20
TORSDOF 18
ENDMDL
MODEL 3
REMARK VINA RESULT:     -11.0      6.309     10.884
REMARK SMILES Cc1ccc(O)c(C[C@H](NC=O)C(=O)OCCOC(=O)c2ccc(-c3c4nc(c(-c5cccc(S(=O)(=O)[O-])c5F)c5ccc([nH]5)c(-c5cccc(S(=O)(=O)[O-])c5F)c5nc(c(-c6cccc(S(=O)(=O)[O-])c6F)c6ccc3[nH]6)C=C5)C=C4)cc2)n1
REMARK SMILES IDX 16 1 15 2 13 3 14 4 9 5 8 6 7 7 1 8 2 9 3 10 84 11 4 12 5 13
REMARK SMILES IDX 6 14 10 16 11 17 12 19 17 20 18 21 19 22 20 23 21 24 22 25
REMARK SMILES IDX 83 26 23 27 82 28 24 29 25 30 26 31 76 32 27 33 81 34 75 35
REMARK SMILES IDX 77 36 28 37 80 38 74 39 73 40 29 42 61 43 41 44 60 45 42 46
REMARK SMILES IDX 45 47 59 48 78 49 43 50 44 51 58 53 79 54 46 55 30 56 31 57
REMARK SMILES IDX 39 58 32 59 34 60 40 61 33 62 35 63 36 64 37 65 38 66 62 67
REMARK SMILES IDX 63 68 71 69 64 70 66 71 72 72 65 73 67 74 68 75 69 76 70 77
REMARK SMILES IDX 47 78 48 79 56 80 49 81 51 82 57 83 50 84 52 85 53 86 54 87
REMARK SMILES IDX 55 88
REMARK H PARENT 6 15 10 18 77 41 45 52
REMARK Flexibility Score: inf
ROOT
ATOM      1  C   UNL A   1      33.493  35.190  28.892  1.00  0.00     0.274 C 
ENDROOT
BRANCH   1   2
ATOM      2  O   UNL A   1      33.010  34.990  30.234  1.00  0.00    -0.461 OA
BRANCH   2   3
ATOM      3  C   UNL A   1      32.934  36.118  31.000  1.00  0.00     0.329 C 
ATOM      4  O   UNL A   1      32.843  37.258  30.556  1.00  0.00    -0.250 OA
BRANCH   3   5
ATOM      5  C   UNL A   1      33.037  35.812  32.508  1.00  0.00     0.198 C 
BRANCH   5   6
ATOM      6  C   UNL A   1      33.023  34.304  32.818  1.00  0.00     0.097 C 
BRANCH   6   7
ATOM      7  C   UNL A   1      34.407  33.739  32.973  1.00  0.00     0.085 A 
ATOM      8  C   UNL A   1      36.757  33.849  35.787  1.00  0.00     0.067 C 
ATOM      9  C   UNL A   1      36.190  33.506  34.445  1.00  0.00     0.038 A 
ATOM     10  C   UNL A   1      36.727  32.473  33.684  1.00  0.00     0.027 A 
ATOM     11  N   UNL A   1      35.064  34.160  34.086  1.00  0.00    -0.254 NA
ATOM     12  C   UNL A   1      36.077  32.089  32.512  1.00  0.00     0.050 A 
ATOM     13  C   UNL A   1      34.887  32.715  32.162  1.00  0.00     0.137 A 
BRANCH  13  14
ATOM     14  O   UNL A   1      34.169  32.299  31.080  1.00  0.00    -0.506 OA
ATOM     15  H   UNL A   1      34.315  31.446  30.721  1.00  0.00     0.293 HD
ENDBRANCH  13  14
ENDBRANCH   6   7
ENDBRANCH   5   6
BRANCH   5  16
ATOM     16  N   UNL A   1      31.978  36.499  33.252  1.00  0.00    -0.345 N 
ATOM     17  C   UNL A   1      30.647  36.262  33.100  1.00  0.00     0.337 C 
ATOM     18  H   UNL A   1      32.248  37.180  33.909  1.00  0.00     0.164 HD
ATOM     19  O   UNL A   1      29.783  36.850  33.733  1.00  0.00    -0.279 OA
ENDBRANCH   5  16
ENDBRANCH   3   5
ENDBRANCH   2   3
ENDBRANCH   1   2
BRANCH   1  20
ATOM     20  C   UNL A   1      33.575  33.874  28.111  1.00  0.00     0.275 C 
BRANCH  20  21
ATOM     21  O   UNL A   1      34.783  33.148  28.397  1.00  0.00    -0.458 OA
BRANCH  21  22
ATOM     22  C   UNL A   1      34.783  31.856  27.987  1.00  0.00     0.338 C 
ATOM     23  O   UNL A   1      33.988  31.324  27.235  1.00  0.00    -0.246 OA
BRANCH  22  24
ATOM     24  C   UNL A   1      36.014  31.199  28.456  1.00  0.00     0.060 A 
ATOM     25  C   UNL A   1      35.927  29.869  28.877  1.00  0.00     0.016 A 
ATOM     26  C   UNL A   1      37.223  31.890  28.521  1.00  0.00     0.016 A 
ATOM     27  C   UNL A   1      37.055  29.210  29.352  1.00  0.00     0.010 A 
ATOM     28  C   UNL A   1      38.354  31.232  29.008  1.00  0.00     0.010 A 
ATOM     29  C   UNL A   1      38.274  29.891  29.427  1.00  0.00    -0.014 A 
BRANCH  29  30
ATOM     30  C   UNL A   1      39.467  29.216  29.982  1.00  0.00     0.031 A 
ATOM     31  C   UNL A   1      40.093  29.739  31.239  1.00  0.00     0.074 A 
ATOM     32  C   UNL A   1      39.991  28.157  29.339  1.00  0.00     0.049 A 
ATOM     33  N   UNL A   1      41.204  29.374  31.820  1.00  0.00    -0.248 NA
ATOM     34  C   UNL A   1      39.371  30.818  31.934  1.00  0.00     0.031 C 
ATOM     35  C   UNL A   1      39.438  27.549  28.128  1.00  0.00     0.029 A 
ATOM     36  N   UNL A   1      41.121  27.426  29.597  1.00  0.00    -0.354 N 
ATOM     37  C   UNL A   1      41.339  30.202  32.927  1.00  0.00     0.074 A 
ATOM     38  C   UNL A   1      40.194  31.089  32.937  1.00  0.00     0.031 C 
ATOM     39  C   UNL A   1      40.245  26.549  27.735  1.00  0.00     0.029 A 
ATOM     40  C   UNL A   1      41.391  26.481  28.637  1.00  0.00     0.049 A 
ATOM     41  H   UNL A   1      41.684  27.564  30.393  1.00  0.00     0.167 HD
ATOM     42  C   UNL A   1      42.325  30.213  33.855  1.00  0.00     0.034 A 
ATOM     43  C   UNL A   1      42.463  25.679  28.483  1.00  0.00     0.034 A 
ATOM     44  C   UNL A   1      43.447  29.314  33.843  1.00  0.00     0.049 A 
ATOM     45  C   UNL A   1      43.578  25.758  29.491  1.00  0.00     0.074 A 
ATOM     46  C   UNL A   1      44.484  29.217  34.752  1.00  0.00     0.029 A 
ATOM     47  N   UNL A   1      43.684  28.361  32.862  1.00  0.00    -0.354 N 
ATOM     48  N   UNL A   1      43.656  26.485  30.579  1.00  0.00    -0.248 NA
ATOM     49  C   UNL A   1      44.747  24.898  29.257  1.00  0.00     0.031 C 
ATOM     50  C   UNL A   1      45.361  28.221  34.307  1.00  0.00     0.029 A 
ATOM     51  C   UNL A   1      44.859  27.684  33.131  1.00  0.00     0.049 A 
ATOM     52  H   UNL A   1      43.100  28.193  32.086  1.00  0.00     0.167 HD
ATOM     53  C   UNL A   1      44.867  26.153  31.176  1.00  0.00     0.074 A 
ATOM     54  C   UNL A   1      45.479  25.143  30.336  1.00  0.00     0.031 C 
ATOM     55  C   UNL A   1      45.429  26.649  32.306  1.00  0.00     0.034 A 
BRANCH  42  56
ATOM     56  C   UNL A   1      42.219  31.221  34.968  1.00  0.00     0.023 A 
ATOM     57  C   UNL A   1      41.647  30.843  36.200  1.00  0.00     0.012 A 
ATOM     58  C   UNL A   1      42.707  32.533  34.808  1.00  0.00     0.148 A 
ATOM     59  C   UNL A   1      41.531  31.763  37.242  1.00  0.00     0.002 A 
ATOM     60  C   UNL A   1      42.624  33.433  35.863  1.00  0.00     0.091 A 
ATOM     61  F   UNL A   1      43.222  32.882  33.620  1.00  0.00    -0.205 F 
ATOM     62  C   UNL A   1      42.027  33.054  37.076  1.00  0.00     0.022 A 
BRANCH  60  63
ATOM     63  S   UNL A   1      43.298  35.096  35.767  1.00  0.00     0.127 S 
ATOM     64  O   UNL A   1      42.325  35.759  34.900  1.00  0.00    -0.237 OA
ATOM     65  O   UNL A   1      43.261  35.527  37.165  1.00  0.00    -0.237 OA
ATOM     66  O   UNL A   1      44.637  34.951  35.215  1.00  0.00    -0.744 OA
ENDBRANCH  60  63
ENDBRANCH  42  56
BRANCH  43  67
ATOM     67  C   UNL A   1      42.518  24.719  27.344  1.00  0.00     0.023 A 
ATOM     68  C   UNL A   1      43.173  25.098  26.157  1.00  0.00     0.012 A 
ATOM     69  C   UNL A   1      41.967  23.426  27.442  1.00  0.00     0.148 A 
ATOM     70  C   UNL A   1      43.261  24.215  25.081  1.00  0.00     0.002 A 
ATOM     71  C   UNL A   1      42.106  22.532  26.386  1.00  0.00     0.091 A 
ATOM     72  F   UNL A   1      41.332  23.090  28.573  1.00  0.00    -0.205 F 
ATOM     73  C   UNL A   1      42.740  22.930  25.199  1.00  0.00     0.022 A 
BRANCH  71  74
ATOM     74  S   UNL A   1      41.585  20.816  26.497  1.00  0.00     0.127 S 
ATOM     75  O   UNL A   1      40.147  20.925  26.272  1.00  0.00    -0.237 OA
ATOM     76  O   UNL A   1      42.336  20.202  25.400  1.00  0.00    -0.237 OA
ATOM     77  O   UNL A   1      41.986  20.367  27.823  1.00  0.00    -0.744 OA
ENDBRANCH  71  74
ENDBRANCH  43  67
BRANCH  55  78
ATOM     78  C   UNL A   1      46.768  26.095  32.718  1.00  0.00     0.023 A 
ATOM     79  C   UNL A   1      47.947  26.737  32.290  1.00  0.00     0.012 A 
ATOM     80  C   UNL A   1      46.854  24.998  33.598  1.00  0.00     0.148 A 
ATOM     81  C   UNL A   1      49.194  26.280  32.714  1.00  0.00     0.002 A 
ATOM     82  C   UNL A   1      48.098  24.579  34.053  1.00  0.00     0.091 A 
ATOM     83  F   UNL A   1      45.720  24.393  33.978  1.00  0.00    -0.205 F 
ATOM     84  C   UNL A   1      49.269  25.211  33.604  1.00  0.00     0.022 A 
BRANCH  82  85
ATOM     85  S   UNL A   1      48.291  23.270  35.269  1.00  0.00     0.127 S 
ATOM     86  O   UNL A   1      47.135  23.497  36.136  1.00  0.00    -0.237 OA
ATOM     87  O   UNL A   1      48.208  22.066  34.442  1.00  0.00    -0.237 OA
ATOM     88  O   UNL A   1      49.589  23.488  35.893  1.00  0.00    -0.744 OA
ENDBRANCH  82  85
ENDBRANCH  55  78
ENDBRANCH  29  30
ENDBRANCH  22  24
ENDBRANCH  21  22
ENDBRANCH  20  21
ENDBRANCH   1  20
TORSDOF 18
ENDMDL
