MODEL 1
REMARK VINA RESULT:     -13.2      0.000      0.000
REMARK SMILES O=C(OCCOC(=O)c1cccc(OS(=O)(=O)c2cccc([N+](=O)[O-])c2)c1)c1ccc(-c2c3nc(c(-c4cccc(S(=O)(=O)[O-])c4F)c4ccc([nH]4)c(-c4cccc(S(=O)(=O)[O-])c4F)c4nc(c(-c5cccc(S(=O)(=O)[O-])c5F)c5ccc2[nH]5)C=C4)C=C3)cc1
REMARK SMILES IDX 5 1 4 2 3 3 2 4 1 5 28 6 29 7 90 8 30 9 89 10 31 11 32 12
REMARK SMILES IDX 33 13 83 14 34 15 88 16 82 17 84 18 35 19 87 20 81 21 80 22
REMARK SMILES IDX 36 24 68 25 48 26 67 27 49 28 52 29 66 30 85 31 50 32 51 33
REMARK SMILES IDX 65 35 86 36 53 37 37 38 38 39 46 40 39 41 41 42 47 43 40 44
REMARK SMILES IDX 42 45 43 46 44 47 45 48 69 49 70 50 78 51 71 52 73 53 79 54
REMARK SMILES IDX 72 55 74 56 75 57 76 58 77 59 54 60 55 61 63 62 56 63 58 64
REMARK SMILES IDX 64 65 57 66 59 67 60 68 61 69 62 70 6 71 7 72 8 73 9 74
REMARK SMILES IDX 10 75 27 76 11 77 13 78 12 79 14 80 15 81 16 82 17 83 18 84
REMARK SMILES IDX 19 85 26 86 20 87 22 88 21 89 23 90 24 91 25 92
REMARK H PARENT 84 23 52 34
REMARK Flexibility Score: inf
ROOT
ATOM      1  C   UNL A   1      32.432  31.044  26.798  1.00  0.00     0.275 C 
ENDROOT
BRANCH   1   2
ATOM      2  C   UNL A   1      31.594  32.315  26.974  1.00  0.00     0.275 C 
BRANCH   2   3
ATOM      3  O   UNL A   1      32.356  33.527  27.127  1.00  0.00    -0.458 OA
BRANCH   3   4
ATOM      4  C   UNL A   1      33.051  34.026  28.176  1.00  0.00     0.338 C 
ATOM      5  O   UNL A   1      32.692  35.108  28.642  1.00  0.00    -0.246 OA
BRANCH   4   6
ATOM      6  C   UNL A   1      34.263  33.386  28.787  1.00  0.00     0.060 A 
ATOM      7  C   UNL A   1      34.259  32.316  29.680  1.00  0.00     0.016 A 
ATOM      8  C   UNL A   1      35.519  33.920  28.423  1.00  0.00     0.016 A 
ATOM      9  C   UNL A   1      35.446  31.781  30.173  1.00  0.00     0.010 A 
ATOM     10  C   UNL A   1      36.720  33.366  28.893  1.00  0.00     0.010 A 
ATOM     11  C   UNL A   1      36.685  32.287  29.776  1.00  0.00    -0.014 A 
BRANCH  11  12
ATOM     12  C   UNL A   1      37.898  31.686  30.370  1.00  0.00     0.031 A 
ATOM     13  C   UNL A   1      38.285  32.011  31.775  1.00  0.00     0.074 A 
ATOM     14  C   UNL A   1      38.528  30.677  29.742  1.00  0.00     0.049 A 
ATOM     15  N   UNL A   1      39.213  31.457  32.510  1.00  0.00    -0.248 NA
ATOM     16  C   UNL A   1      37.489  33.036  32.462  1.00  0.00     0.031 C 
ATOM     17  C   UNL A   1      38.128  30.124  28.452  1.00  0.00     0.029 A 
ATOM     18  N   UNL A   1      39.589  29.899  30.130  1.00  0.00    -0.354 N 
ATOM     19  C   UNL A   1      39.084  32.027  33.764  1.00  0.00     0.074 A 
ATOM     20  C   UNL A   1      38.025  33.014  33.673  1.00  0.00     0.031 C 
ATOM     21  C   UNL A   1      38.924  29.085  28.167  1.00  0.00     0.029 A 
ATOM     22  C   UNL A   1      39.941  28.964  29.193  1.00  0.00     0.049 A 
ATOM     23  H   UNL A   1      40.050  30.003  30.993  1.00  0.00     0.167 HD
ATOM     24  C   UNL A   1      39.753  31.725  34.899  1.00  0.00     0.034 A 
ATOM     25  C   UNL A   1      40.982  28.117  29.121  1.00  0.00     0.034 A 
ATOM     26  C   UNL A   1      40.824  30.769  34.990  1.00  0.00     0.049 A 
ATOM     27  C   UNL A   1      41.908  28.011  30.282  1.00  0.00     0.074 A 
ATOM     28  C   UNL A   1      41.580  30.433  36.099  1.00  0.00     0.029 A 
ATOM     29  N   UNL A   1      41.312  30.017  33.933  1.00  0.00    -0.354 N 
ATOM     30  N   UNL A   1      41.802  28.588  31.451  1.00  0.00    -0.248 NA
ATOM     31  C   UNL A   1      43.063  27.118  30.141  1.00  0.00     0.031 C 
ATOM     32  C   UNL A   1      42.555  29.509  35.702  1.00  0.00     0.029 A 
ATOM     33  C   UNL A   1      42.377  29.236  34.356  1.00  0.00     0.049 A 
ATOM     34  H   UNL A   1      40.955  30.035  33.016  1.00  0.00     0.167 HD
ATOM     35  C   UNL A   1      42.839  28.081  32.216  1.00  0.00     0.074 A 
ATOM     36  C   UNL A   1      43.578  27.168  31.362  1.00  0.00     0.031 C 
ATOM     37  C   UNL A   1      43.122  28.331  33.516  1.00  0.00     0.034 A 
BRANCH  24  38
ATOM     38  C   UNL A   1      39.333  32.462  36.135  1.00  0.00     0.023 A 
ATOM     39  C   UNL A   1      39.909  33.713  36.436  1.00  0.00     0.012 A 
ATOM     40  C   UNL A   1      38.367  31.913  36.992  1.00  0.00     0.148 A 
ATOM     41  C   UNL A   1      39.546  34.394  37.597  1.00  0.00     0.002 A 
ATOM     42  C   UNL A   1      37.980  32.615  38.124  1.00  0.00     0.091 A 
ATOM     43  F   UNL A   1      37.861  30.707  36.694  1.00  0.00    -0.205 F 
ATOM     44  C   UNL A   1      38.576  33.850  38.435  1.00  0.00     0.022 A 
BRANCH  42  45
ATOM     45  S   UNL A   1      36.699  32.026  39.233  1.00  0.00     0.127 S 
ATOM     46  O   UNL A   1      37.281  32.325  40.541  1.00  0.00    -0.237 OA
ATOM     47  O   UNL A   1      35.565  32.872  38.860  1.00  0.00    -0.237 OA
ATOM     48  O   UNL A   1      36.531  30.610  38.940  1.00  0.00    -0.744 OA
ENDBRANCH  42  45
ENDBRANCH  24  38
BRANCH  25  49
ATOM     49  C   UNL A   1      41.211  27.387  27.843  1.00  0.00     0.023 A 
ATOM     50  C   UNL A   1      41.759  28.046  26.761  1.00  0.00     0.012 A 
ATOM     51  C   UNL A   1      40.860  25.984  27.780  1.00  0.00     0.148 A 
ATOM     52  C   UNL A   1      41.857  27.351  25.585  1.00  0.00     0.002 A 
ATOM     53  C   UNL A   1      41.195  24.941  26.649  1.00  0.00     0.091 A 
ATOM     54  F   UNL A   1      40.010  25.739  28.814  1.00  0.00    -0.205 F 
ATOM     55  C   UNL A   1      41.582  25.952  25.521  1.00  0.00     0.022 A 
BRANCH  53  56
ATOM     56  S   UNL A   1      41.074  22.377  26.632  1.00  0.00     0.127 S 
ATOM     57  O   UNL A   1      39.864  21.856  25.938  1.00  0.00    -0.237 OA
ATOM     58  O   UNL A   1      42.244  21.761  25.941  1.00  0.00    -0.237 OA
ATOM     59  O   UNL A   1      41.098  21.779  27.999  1.00  0.00    -0.744 OA
ENDBRANCH  53  56
ENDBRANCH  25  49
BRANCH  37  60
ATOM     60  C   UNL A   1      44.252  27.549  34.120  1.00  0.00     0.023 A 
ATOM     61  C   UNL A   1      45.586  27.958  33.931  1.00  0.00     0.012 A 
ATOM     62  C   UNL A   1      43.978  26.388  34.870  1.00  0.00     0.148 A 
ATOM     63  C   UNL A   1      46.635  27.193  34.439  1.00  0.00     0.002 A 
ATOM     64  C   UNL A   1      45.026  25.661  35.415  1.00  0.00     0.091 A 
ATOM     65  F   UNL A   1      42.701  26.005  35.012  1.00  0.00    -0.205 F 
ATOM     66  C   UNL A   1      46.356  26.051  35.186  1.00  0.00     0.022 A 
BRANCH  64  67
ATOM     67  S   UNL A   1      44.755  24.224  36.455  1.00  0.00     0.127 S 
ATOM     68  O   UNL A   1      43.918  23.389  35.595  1.00  0.00    -0.237 OA
ATOM     69  O   UNL A   1      46.118  23.727  36.653  1.00  0.00    -0.237 OA
ATOM     70  O   UNL A   1      44.111  24.718  37.664  1.00  0.00    -0.744 OA
ENDBRANCH  64  67
ENDBRANCH  37  60
ENDBRANCH  11  12
ENDBRANCH   4   6
ENDBRANCH   3   4
ENDBRANCH   2   3
ENDBRANCH   1   2
BRANCH   1  71
ATOM     71  O   UNL A   1      32.001  30.217  25.709  1.00  0.00    -0.458 OA
BRANCH  71  72
ATOM     72  C   UNL A   1      31.778  28.913  26.026  1.00  0.00     0.338 C 
ATOM     73  O   UNL A   1      31.730  28.437  27.147  1.00  0.00    -0.246 OA
BRANCH  72  74
ATOM     74  C   UNL A   1      31.448  28.163  24.794  1.00  0.00     0.063 A 
ATOM     75  C   UNL A   1      30.686  28.798  23.810  1.00  0.00     0.016 A 
ATOM     76  C   UNL A   1      31.892  26.849  24.609  1.00  0.00     0.064 A 
ATOM     77  C   UNL A   1      30.415  28.134  22.614  1.00  0.00     0.005 A 
ATOM     78  C   UNL A   1      31.571  26.163  23.434  1.00  0.00     0.143 A 
ATOM     79  C   UNL A   1      30.864  26.823  22.424  1.00  0.00     0.048 A 
BRANCH  78  80
ATOM     80  O   UNL A   1      31.930  24.857  23.175  1.00  0.00    -0.379 OA
BRANCH  80  81
ATOM     81  S   UNL A   1      33.371  24.519  22.479  1.00  0.00     0.339 S 
ATOM     82  O   UNL A   1      33.113  23.868  21.201  1.00  0.00    -0.181 OA
ATOM     83  O   UNL A   1      34.195  25.711  22.482  1.00  0.00    -0.181 OA
BRANCH  81  84
ATOM     84  C   UNL A   1      34.148  23.257  23.464  1.00  0.00     0.112 A 
ATOM     85  C   UNL A   1      35.947  23.168  23.701  1.00  0.00     0.024 A 
ATOM     86  C   UNL A   1      33.115  21.865  23.875  1.00  0.00     0.109 A 
ATOM     87  C   UNL A   1      36.678  21.703  24.509  1.00  0.00     0.009 A 
ATOM     88  C   UNL A   1      33.859  20.337  24.501  1.00  0.00     0.270 A 
ATOM     89  C   UNL A   1      35.618  20.276  24.909  1.00  0.00     0.086 A 
BRANCH  88  90
ATOM     90  N   UNL A   1      33.017  19.151  24.615  1.00  0.00     0.062 N 
ATOM     91  O   UNL A   1      33.131  18.290  23.732  1.00  0.00    -0.258 OA
ATOM     92  O   UNL A   1      32.369  19.013  25.664  1.00  0.00    -0.258 OA
ENDBRANCH  88  90
ENDBRANCH  81  84
ENDBRANCH  80  81
ENDBRANCH  78  80
ENDBRANCH  72  74
ENDBRANCH  71  72
ENDBRANCH   1  71
TORSDOF 18
ENDMDL
MODEL 2
REMARK VINA RESULT:     -13.0      5.541     11.227
REMARK SMILES O=C(OCCOC(=O)c1cccc(OS(=O)(=O)c2cccc([N+](=O)[O-])c2)c1)c1ccc(-c2c3nc(c(-c4cccc(S(=O)(=O)[O-])c4F)c4ccc([nH]4)c(-c4cccc(S(=O)(=O)[O-])c4F)c4nc(c(-c5cccc(S(=O)(=O)[O-])c5F)c5ccc2[nH]5)C=C4)C=C3)cc1
REMARK SMILES IDX 5 1 4 2 3 3 2 4 1 5 28 6 29 7 90 8 30 9 89 10 31 11 32 12
REMARK SMILES IDX 33 13 83 14 34 15 88 16 82 17 84 18 35 19 87 20 81 21 80 22
REMARK SMILES IDX 36 24 68 25 48 26 67 27 49 28 52 29 66 30 85 31 50 32 51 33
REMARK SMILES IDX 65 35 86 36 53 37 37 38 38 39 46 40 39 41 41 42 47 43 40 44
REMARK SMILES IDX 42 45 43 46 44 47 45 48 69 49 70 50 78 51 71 52 73 53 79 54
REMARK SMILES IDX 72 55 74 56 75 57 76 58 77 59 54 60 55 61 63 62 56 63 58 64
REMARK SMILES IDX 64 65 57 66 59 67 60 68 61 69 62 70 6 71 7 72 8 73 9 74
REMARK SMILES IDX 10 75 27 76 11 77 13 78 12 79 14 80 15 81 16 82 17 83 18 84
REMARK SMILES IDX 19 85 26 86 20 87 22 88 21 89 23 90 24 91 25 92
REMARK H PARENT 84 23 52 34
REMARK Flexibility Score: inf
ROOT
ATOM      1  C   UNL A   1      37.676  21.194  25.379  1.00  0.00     0.275 C 
ENDROOT
BRANCH   1   2
ATOM      2  C   UNL A   1      38.396  19.910  24.955  1.00  0.00     0.275 C 
BRANCH   2   3
ATOM      3  O   UNL A   1      39.350  19.406  25.909  1.00  0.00    -0.458 OA
BRANCH   3   4
ATOM      4  C   UNL A   1      40.642  19.730  26.146  1.00  0.00     0.338 C 
ATOM      5  O   UNL A   1      41.490  18.846  26.020  1.00  0.00    -0.246 OA
BRANCH   4   6
ATOM      6  C   UNL A   1      41.121  21.077  26.603  1.00  0.00     0.060 A 
ATOM      7  C   UNL A   1      41.388  21.444  27.921  1.00  0.00     0.016 A 
ATOM      8  C   UNL A   1      41.316  22.059  25.607  1.00  0.00     0.016 A 
ATOM      9  C   UNL A   1      41.850  22.719  28.237  1.00  0.00     0.010 A 
ATOM     10  C   UNL A   1      41.810  23.335  25.916  1.00  0.00     0.010 A 
ATOM     11  C   UNL A   1      42.080  23.670  27.242  1.00  0.00    -0.014 A 
BRANCH  11  12
ATOM     12  C   UNL A   1      42.539  25.011  27.663  1.00  0.00     0.031 A 
ATOM     13  C   UNL A   1      43.929  25.460  27.354  1.00  0.00     0.074 A 
ATOM     14  C   UNL A   1      41.652  25.915  28.117  1.00  0.00     0.049 A 
ATOM     15  N   UNL A   1      44.448  26.650  27.497  1.00  0.00    -0.248 NA
ATOM     16  C   UNL A   1      44.826  24.468  26.746  1.00  0.00     0.031 C 
ATOM     17  C   UNL A   1      40.223  25.669  28.276  1.00  0.00     0.029 A 
ATOM     18  N   UNL A   1      41.810  27.233  28.463  1.00  0.00    -0.354 N 
ATOM     19  C   UNL A   1      45.717  26.570  26.951  1.00  0.00     0.074 A 
ATOM     20  C   UNL A   1      45.911  25.197  26.528  1.00  0.00     0.031 C 
ATOM     21  C   UNL A   1      39.635  26.806  28.670  1.00  0.00     0.029 A 
ATOM     22  C   UNL A   1      40.647  27.820  28.886  1.00  0.00     0.049 A 
ATOM     23  H   UNL A   1      42.670  27.708  28.412  1.00  0.00     0.167 HD
ATOM     24  C   UNL A   1      46.621  27.560  26.776  1.00  0.00     0.034 A 
ATOM     25  C   UNL A   1      40.399  29.024  29.430  1.00  0.00     0.034 A 
ATOM     26  C   UNL A   1      46.449  28.917  27.220  1.00  0.00     0.049 A 
ATOM     27  C   UNL A   1      41.502  30.021  29.511  1.00  0.00     0.074 A 
ATOM     28  C   UNL A   1      47.338  29.973  27.113  1.00  0.00     0.029 A 
ATOM     29  N   UNL A   1      45.330  29.404  27.876  1.00  0.00    -0.354 N 
ATOM     30  N   UNL A   1      42.714  29.921  29.030  1.00  0.00    -0.248 NA
ATOM     31  C   UNL A   1      41.204  31.301  30.162  1.00  0.00     0.031 C 
ATOM     32  C   UNL A   1      46.772  31.087  27.746  1.00  0.00     0.029 A 
ATOM     33  C   UNL A   1      45.514  30.739  28.207  1.00  0.00     0.049 A 
ATOM     34  H   UNL A   1      44.523  28.879  28.080  1.00  0.00     0.167 HD
ATOM     35  C   UNL A   1      43.311  31.149  29.260  1.00  0.00     0.074 A 
ATOM     36  C   UNL A   1      42.331  31.968  29.949  1.00  0.00     0.031 C 
ATOM     37  C   UNL A   1      44.550  31.559  28.896  1.00  0.00     0.034 A 
BRANCH  24  38
ATOM     38  C   UNL A   1      47.891  27.183  26.074  1.00  0.00     0.023 A 
ATOM     39  C   UNL A   1      48.953  26.609  26.802  1.00  0.00     0.012 A 
ATOM     40  C   UNL A   1      48.026  27.397  24.693  1.00  0.00     0.148 A 
ATOM     41  C   UNL A   1      50.148  26.281  26.165  1.00  0.00     0.002 A 
ATOM     42  C   UNL A   1      49.203  27.030  24.057  1.00  0.00     0.091 A 
ATOM     43  F   UNL A   1      47.010  27.973  24.034  1.00  0.00    -0.205 F 
ATOM     44  C   UNL A   1      50.270  26.482  24.792  1.00  0.00     0.022 A 
BRANCH  42  45
ATOM     45  S   UNL A   1      49.433  27.195  22.286  1.00  0.00     0.127 S 
ATOM     46  O   UNL A   1      50.884  27.051  22.163  1.00  0.00    -0.237 OA
ATOM     47  O   UNL A   1      48.661  26.063  21.775  1.00  0.00    -0.237 OA
ATOM     48  O   UNL A   1      48.910  28.506  21.931  1.00  0.00    -0.744 OA
ENDBRANCH  42  45
ENDBRANCH  24  38
BRANCH  25  49
ATOM     49  C   UNL A   1      39.048  29.273  30.009  1.00  0.00     0.023 A 
ATOM     50  C   UNL A   1      38.761  28.855  31.292  1.00  0.00     0.012 A 
ATOM     51  C   UNL A   1      38.072  29.968  29.198  1.00  0.00     0.148 A 
ATOM     52  C   UNL A   1      37.476  29.024  31.735  1.00  0.00     0.002 A 
ATOM     53  C   UNL A   1      36.673  30.546  29.633  1.00  0.00     0.091 A 
ATOM     54  F   UNL A   1      38.495  29.891  27.908  1.00  0.00    -0.205 F 
ATOM     55  C   UNL A   1      36.520  29.768  30.981  1.00  0.00     0.022 A 
BRANCH  53  56
ATOM     56  S   UNL A   1      35.093  32.196  28.462  1.00  0.00     0.127 S 
ATOM     57  O   UNL A   1      34.263  32.983  29.416  1.00  0.00    -0.237 OA
ATOM     58  O   UNL A   1      35.831  33.195  27.636  1.00  0.00    -0.237 OA
ATOM     59  O   UNL A   1      34.163  31.536  27.499  1.00  0.00    -0.744 OA
ENDBRANCH  53  56
ENDBRANCH  25  49
BRANCH  37  60
ATOM     60  C   UNL A   1      44.894  32.992  29.182  1.00  0.00     0.023 A 
ATOM     61  C   UNL A   1      45.459  33.358  30.419  1.00  0.00     0.012 A 
ATOM     62  C   UNL A   1      44.635  33.981  28.214  1.00  0.00     0.148 A 
ATOM     63  C   UNL A   1      45.717  34.699  30.705  1.00  0.00     0.002 A 
ATOM     64  C   UNL A   1      44.942  35.306  28.486  1.00  0.00     0.091 A 
ATOM     65  F   UNL A   1      44.071  33.610  27.055  1.00  0.00    -0.205 F 
ATOM     66  C   UNL A   1      45.466  35.670  29.738  1.00  0.00     0.022 A 
BRANCH  64  67
ATOM     67  S   UNL A   1      44.725  36.609  27.273  1.00  0.00     0.127 S 
ATOM     68  O   UNL A   1      45.777  36.294  26.308  1.00  0.00    -0.237 OA
ATOM     69  O   UNL A   1      43.363  36.364  26.798  1.00  0.00    -0.237 OA
ATOM     70  O   UNL A   1      44.897  37.863  27.995  1.00  0.00    -0.744 OA
ENDBRANCH  64  67
ENDBRANCH  37  60
ENDBRANCH  11  12
ENDBRANCH   4   6
ENDBRANCH   3   4
ENDBRANCH   2   3
ENDBRANCH   1   2
BRANCH   1  71
ATOM     71  O   UNL A   1      36.652  21.608  24.464  1.00  0.00    -0.458 OA
BRANCH  71  72
ATOM     72  C   UNL A   1      35.389  21.235  24.804  1.00  0.00     0.338 C 
ATOM     73  O   UNL A   1      35.074  20.274  25.485  1.00  0.00    -0.246 OA
BRANCH  72  74
ATOM     74  C   UNL A   1      34.436  22.268  24.342  1.00  0.00     0.063 A 
ATOM     75  C   UNL A   1      34.826  23.120  23.305  1.00  0.00     0.016 A 
ATOM     76  C   UNL A   1      33.167  22.389  24.919  1.00  0.00     0.064 A 
ATOM     77  C   UNL A   1      33.923  24.061  22.810  1.00  0.00     0.005 A 
ATOM     78  C   UNL A   1      32.282  23.370  24.462  1.00  0.00     0.143 A 
ATOM     79  C   UNL A   1      32.652  24.179  23.382  1.00  0.00     0.048 A 
BRANCH  78  80
ATOM     80  O   UNL A   1      31.028  23.591  24.990  1.00  0.00    -0.379 OA
BRANCH  80  81
ATOM     81  S   UNL A   1      30.848  24.515  26.328  1.00  0.00     0.339 S 
ATOM     82  O   UNL A   1      29.435  24.519  26.686  1.00  0.00    -0.181 OA
ATOM     83  O   UNL A   1      31.804  24.095  27.333  1.00  0.00    -0.181 OA
BRANCH  81  84
ATOM     84  C   UNL A   1      31.183  26.198  25.854  1.00  0.00     0.112 A 
ATOM     85  C   UNL A   1      31.908  27.410  26.996  1.00  0.00     0.024 A 
ATOM     86  C   UNL A   1      30.411  26.733  24.341  1.00  0.00     0.109 A 
ATOM     87  C   UNL A   1      31.981  29.170  26.513  1.00  0.00     0.009 A 
ATOM     88  C   UNL A   1      30.314  28.498  23.947  1.00  0.00     0.270 A 
ATOM     89  C   UNL A   1      31.173  29.713  24.973  1.00  0.00     0.086 A 
BRANCH  88  90
ATOM     90  N   UNL A   1      29.485  28.914  22.821  1.00  0.00     0.062 N 
ATOM     91  O   UNL A   1      29.949  28.750  21.685  1.00  0.00    -0.258 OA
ATOM     92  O   UNL A   1      28.317  29.253  23.071  1.00  0.00    -0.258 OA
ENDBRANCH  88  90
ENDBRANCH  81  84
ENDBRANCH  80  81
ENDBRANCH  78  80
ENDBRANCH  72  74
ENDBRANCH  71  72
ENDBRANCH   1  71
TORSDOF 18
ENDMDL
MODEL 3
REMARK VINA RESULT:     -12.4      5.540     11.199
REMARK SMILES O=C(OCCOC(=O)c1cccc(OS(=O)(=O)c2cccc([N+](=O)[O-])c2)c1)c1ccc(-c2c3nc(c(-c4cccc(S(=O)(=O)[O-])c4F)c4ccc([nH]4)c(-c4cccc(S(=O)(=O)[O-])c4F)c4nc(c(-c5cccc(S(=O)(=O)[O-])c5F)c5ccc2[nH]5)C=C4)C=C3)cc1
REMARK SMILES IDX 5 1 4 2 3 3 2 4 1 5 28 6 29 7 90 8 30 9 89 10 31 11 32 12
REMARK SMILES IDX 33 13 83 14 34 15 88 16 82 17 84 18 35 19 87 20 81 21 80 22
REMARK SMILES IDX 36 24 68 25 48 26 67 27 49 28 52 29 66 30 85 31 50 32 51 33
REMARK SMILES IDX 65 35 86 36 53 37 37 38 38 39 46 40 39 41 41 42 47 43 40 44
REMARK SMILES IDX 42 45 43 46 44 47 45 48 69 49 70 50 78 51 71 52 73 53 79 54
REMARK SMILES IDX 72 55 74 56 75 57 76 58 77 59 54 60 55 61 63 62 56 63 58 64
REMARK SMILES IDX 64 65 57 66 59 67 60 68 61 69 62 70 6 71 7 72 8 73 9 74
REMARK SMILES IDX 10 75 27 76 11 77 13 78 12 79 14 80 15 81 16 82 17 83 18 84
REMARK SMILES IDX 19 85 26 86 20 87 22 88 21 89 23 90 24 91 25 92
REMARK H PARENT 84 23 52 34
REMARK Flexibility Score: inf
ROOT
ATOM      1  C   UNL A   1      38.347  21.063  25.454  1.00  0.00     0.275 C 
ENDROOT
BRANCH   1   2
ATOM      2  C   UNL A   1      38.810  19.633  25.152  1.00  0.00     0.275 C 
BRANCH   2   3
ATOM      3  O   UNL A   1      39.919  19.174  25.948  1.00  0.00    -0.458 OA
BRANCH   3   4
ATOM      4  C   UNL A   1      41.199  19.606  26.040  1.00  0.00     0.338 C 
ATOM      5  O   UNL A   1      42.098  18.783  25.863  1.00  0.00    -0.246 OA
BRANCH   4   6
ATOM      6  C   UNL A   1      41.611  21.005  26.395  1.00  0.00     0.060 A 
ATOM      7  C   UNL A   1      41.793  22.054  25.497  1.00  0.00     0.016 A 
ATOM      8  C   UNL A   1      41.835  21.277  27.763  1.00  0.00     0.016 A 
ATOM      9  C   UNL A   1      42.158  23.325  25.935  1.00  0.00     0.010 A 
ATOM     10  C   UNL A   1      42.173  22.563  28.213  1.00  0.00     0.010 A 
ATOM     11  C   UNL A   1      42.336  23.597  27.292  1.00  0.00    -0.014 A 
BRANCH  11  12
ATOM     12  C   UNL A   1      42.755  24.963  27.672  1.00  0.00     0.031 A 
ATOM     13  C   UNL A   1      44.122  25.453  27.326  1.00  0.00     0.074 A 
ATOM     14  C   UNL A   1      41.846  25.846  28.123  1.00  0.00     0.049 A 
ATOM     15  N   UNL A   1      44.601  26.664  27.432  1.00  0.00    -0.248 NA
ATOM     16  C   UNL A   1      45.042  24.479  26.724  1.00  0.00     0.031 C 
ATOM     17  C   UNL A   1      40.429  25.554  28.315  1.00  0.00     0.029 A 
ATOM     18  N   UNL A   1      41.963  27.177  28.435  1.00  0.00    -0.354 N 
ATOM     19  C   UNL A   1      45.862  26.615  26.864  1.00  0.00     0.074 A 
ATOM     20  C   UNL A   1      46.096  25.239  26.468  1.00  0.00     0.031 C 
ATOM     21  C   UNL A   1      39.809  26.679  28.695  1.00  0.00     0.029 A 
ATOM     22  C   UNL A   1      40.789  27.733  28.867  1.00  0.00     0.049 A 
ATOM     23  H   UNL A   1      42.805  27.680  28.357  1.00  0.00     0.167 HD
ATOM     24  C   UNL A   1      46.728  27.631  26.648  1.00  0.00     0.034 A 
ATOM     25  C   UNL A   1      40.508  28.940  29.389  1.00  0.00     0.034 A 
ATOM     26  C   UNL A   1      46.516  28.992  27.064  1.00  0.00     0.049 A 
ATOM     27  C   UNL A   1      41.576  29.976  29.425  1.00  0.00     0.074 A 
ATOM     28  C   UNL A   1      47.364  30.075  26.916  1.00  0.00     0.029 A 
ATOM     29  N   UNL A   1      45.393  29.455  27.731  1.00  0.00    -0.354 N 
ATOM     30  N   UNL A   1      42.782  29.907  28.923  1.00  0.00    -0.248 NA
ATOM     31  C   UNL A   1      41.245  31.260  30.052  1.00  0.00     0.031 C 
ATOM     32  C   UNL A   1      46.772  31.184  27.534  1.00  0.00     0.029 A 
ATOM     33  C   UNL A   1      45.536  30.802  28.027  1.00  0.00     0.049 A 
ATOM     34  H   UNL A   1      44.608  28.907  27.962  1.00  0.00     0.167 HD
ATOM     35  C   UNL A   1      43.340  31.160  29.112  1.00  0.00     0.074 A 
ATOM     36  C   UNL A   1      42.344  31.960  29.802  1.00  0.00     0.031 C 
ATOM     37  C   UNL A   1      44.556  31.604  28.716  1.00  0.00     0.034 A 
BRANCH  24  38
ATOM     38  C   UNL A   1      47.997  27.282  25.930  1.00  0.00     0.023 A 
ATOM     39  C   UNL A   1      49.089  26.757  26.650  1.00  0.00     0.012 A 
ATOM     40  C   UNL A   1      48.101  27.474  24.543  1.00  0.00     0.148 A 
ATOM     41  C   UNL A   1      50.283  26.456  25.997  1.00  0.00     0.002 A 
ATOM     42  C   UNL A   1      49.278  27.133  23.893  1.00  0.00     0.091 A 
ATOM     43  F   UNL A   1      47.055  28.004  23.893  1.00  0.00    -0.205 F 
ATOM     44  C   UNL A   1      50.374  26.635  24.619  1.00  0.00     0.022 A 
BRANCH  42  45
ATOM     45  S   UNL A   1      49.472  27.272  22.116  1.00  0.00     0.127 S 
ATOM     46  O   UNL A   1      48.344  26.475  21.633  1.00  0.00    -0.237 OA
ATOM     47  O   UNL A   1      49.335  28.714  21.910  1.00  0.00    -0.237 OA
ATOM     48  O   UNL A   1      50.788  26.730  21.809  1.00  0.00    -0.744 OA
ENDBRANCH  42  45
ENDBRANCH  24  38
BRANCH  25  49
ATOM     49  C   UNL A   1      39.161  29.155  29.987  1.00  0.00     0.023 A 
ATOM     50  C   UNL A   1      38.891  28.696  31.261  1.00  0.00     0.012 A 
ATOM     51  C   UNL A   1      38.167  29.861  29.207  1.00  0.00     0.148 A 
ATOM     52  C   UNL A   1      37.609  28.837  31.721  1.00  0.00     0.002 A 
ATOM     53  C   UNL A   1      36.765  30.408  29.672  1.00  0.00     0.091 A 
ATOM     54  F   UNL A   1      38.578  29.825  27.910  1.00  0.00    -0.205 F 
ATOM     55  C   UNL A   1      36.636  29.590  30.998  1.00  0.00     0.022 A 
BRANCH  53  56
ATOM     56  S   UNL A   1      35.154  32.071  28.564  1.00  0.00     0.127 S 
ATOM     57  O   UNL A   1      34.437  32.929  29.548  1.00  0.00    -0.237 OA
ATOM     58  O   UNL A   1      35.855  33.005  27.636  1.00  0.00    -0.237 OA
ATOM     59  O   UNL A   1      34.122  31.410  27.712  1.00  0.00    -0.744 OA
ENDBRANCH  53  56
ENDBRANCH  25  49
BRANCH  37  60
ATOM     60  C   UNL A   1      44.854  33.055  28.962  1.00  0.00     0.023 A 
ATOM     61  C   UNL A   1      44.512  34.027  28.003  1.00  0.00     0.012 A 
ATOM     62  C   UNL A   1      45.495  33.447  30.154  1.00  0.00     0.148 A 
ATOM     63  C   UNL A   1      44.849  35.365  28.206  1.00  0.00     0.002 A 
ATOM     64  C   UNL A   1      45.780  34.786  30.371  1.00  0.00     0.091 A 
ATOM     65  F   UNL A   1      45.835  32.498  31.038  1.00  0.00    -0.205 F 
ATOM     66  C   UNL A   1      45.475  35.745  29.392  1.00  0.00     0.022 A 
BRANCH  64  67
ATOM     67  S   UNL A   1      46.512  35.374  31.900  1.00  0.00     0.127 S 
ATOM     68  O   UNL A   1      47.093  36.648  31.480  1.00  0.00    -0.237 OA
ATOM     69  O   UNL A   1      45.345  35.491  32.775  1.00  0.00    -0.237 OA
ATOM     70  O   UNL A   1      47.471  34.354  32.304  1.00  0.00    -0.744 OA
ENDBRANCH  64  67
ENDBRANCH  37  60
ENDBRANCH  11  12
ENDBRANCH   4   6
ENDBRANCH   3   4
ENDBRANCH   2   3
ENDBRANCH   1   2
BRANCH   1  71
ATOM     71  O   UNL A   1      36.959  21.287  25.180  1.00  0.00    -0.458 OA
BRANCH  71  72
ATOM     72  C   UNL A   1      36.552  22.582  25.278  1.00  0.00     0.338 C 
ATOM     73  O   UNL A   1      37.189  23.569  24.952  1.00  0.00    -0.246 OA
BRANCH  72  74
ATOM     74  C   UNL A   1      35.136  22.616  25.707  1.00  0.00     0.063 A 
ATOM     75  C   UNL A   1      34.478  21.405  25.934  1.00  0.00     0.016 A 
ATOM     76  C   UNL A   1      34.468  23.831  25.892  1.00  0.00     0.064 A 
ATOM     77  C   UNL A   1      33.163  21.412  26.399  1.00  0.00     0.005 A 
ATOM     78  C   UNL A   1      33.131  23.838  26.303  1.00  0.00     0.143 A 
ATOM     79  C   UNL A   1      32.495  22.626  26.591  1.00  0.00     0.048 A 
BRANCH  78  80
ATOM     80  O   UNL A   1      32.379  24.980  26.476  1.00  0.00    -0.379 OA
BRANCH  80  81
ATOM     81  S   UNL A   1      30.996  25.194  25.628  1.00  0.00     0.339 S 
ATOM     82  O   UNL A   1      31.092  24.408  24.404  1.00  0.00    -0.181 OA
ATOM     83  O   UNL A   1      29.861  24.965  26.498  1.00  0.00    -0.181 OA
BRANCH  81  84
ATOM     84  C   UNL A   1      30.983  26.882  25.063  1.00  0.00     0.112 A 
ATOM     85  C   UNL A   1      31.830  28.219  25.957  1.00  0.00     0.024 A 
ATOM     86  C   UNL A   1      29.777  27.259  23.808  1.00  0.00     0.109 A 
ATOM     87  C   UNL A   1      31.554  29.953  25.454  1.00  0.00     0.009 A 
ATOM     88  C   UNL A   1      29.362  28.982  23.438  1.00  0.00     0.270 A 
ATOM     89  C   UNL A   1      30.306  30.332  24.182  1.00  0.00     0.086 A 
BRANCH  88  90
ATOM     90  N   UNL A   1      28.219  29.251  22.572  1.00  0.00     0.062 N 
ATOM     91  O   UNL A   1      27.108  29.337  23.111  1.00  0.00    -0.258 OA
ATOM     92  O   UNL A   1      28.458  29.531  21.387  1.00  0.00    -0.258 OA
ENDBRANCH  88  90
ENDBRANCH  81  84
ENDBRANCH  80  81
ENDBRANCH  78  80
ENDBRANCH  72  74
ENDBRANCH  71  72
ENDBRANCH   1  71
TORSDOF 18
ENDMDL
