MODEL 1
REMARK VINA RESULT:     -12.5      0.000      0.000
REMARK SMILES O=C(OCCOC(=O)c1ccc2c(c1)[C@@H]1C=CC[C@@H]1[C@H](c1ccncc1)N2)c1ccc(-c2c3nc(c(-c4cccc(S(=O)(=O)[O-])c4F)c4ccc([nH]4)c(-c4cccc(S(=O)(=O)[O-])c4F)c4nc(c(-c5cccc(S(=O)(=O)[O-])c5F)c5ccc2[nH]5)C=C4)C=C3)cc1
REMARK SMILES IDX 4 1 3 2 2 3 1 4 28 5 29 6 90 7 30 8 89 9 31 10 32 11 33 12
REMARK SMILES IDX 83 13 34 14 88 15 82 16 84 17 35 18 87 19 81 20 80 21 36 23
REMARK SMILES IDX 68 24 48 25 67 26 49 27 52 28 66 29 85 30 50 31 51 32 65 34
REMARK SMILES IDX 86 35 53 36 37 37 38 38 46 39 39 40 41 41 47 42 40 43 42 44
REMARK SMILES IDX 43 45 44 46 45 47 69 48 70 49 78 50 71 51 73 52 79 53 72 54
REMARK SMILES IDX 74 55 75 56 76 57 77 58 54 59 55 60 63 61 56 62 58 63 64 64
REMARK SMILES IDX 57 65 59 66 60 67 61 68 62 69 5 70 6 71 7 72 8 73 9 74 10 75
REMARK SMILES IDX 14 76 11 77 13 78 12 79 15 80 27 81 16 82 19 83 20 84 17 86
REMARK SMILES IDX 18 87 21 88 22 89 26 90 23 91 25 92 24 93
REMARK H PARENT 84 22 52 33 27 85
REMARK Flexibility Score: inf
ROOT
ATOM      1  C   UNL A   1      32.045  32.634  26.852  1.00  0.00     0.275 C 
ENDROOT
BRANCH   1   2
ATOM      2  O   UNL A   1      32.696  33.397  27.885  1.00  0.00    -0.458 OA
BRANCH   2   3
ATOM      3  C   UNL A   1      33.980  33.820  27.978  1.00  0.00     0.338 C 
ATOM      4  O   UNL A   1      34.315  34.846  27.390  1.00  0.00    -0.246 OA
BRANCH   3   5
ATOM      5  C   UNL A   1      35.038  33.029  28.675  1.00  0.00     0.060 A 
ATOM      6  C   UNL A   1      34.793  32.071  29.659  1.00  0.00     0.016 A 
ATOM      7  C   UNL A   1      36.371  33.276  28.307  1.00  0.00     0.016 A 
ATOM      8  C   UNL A   1      35.825  31.296  30.182  1.00  0.00     0.010 A 
ATOM      9  C   UNL A   1      37.412  32.498  28.825  1.00  0.00     0.010 A 
ATOM     10  C   UNL A   1      37.140  31.492  29.765  1.00  0.00    -0.014 A 
BRANCH  10  11
ATOM     11  C   UNL A   1      38.225  30.761  30.461  1.00  0.00     0.031 A 
ATOM     12  C   UNL A   1      38.772  31.366  31.723  1.00  0.00     0.074 A 
ATOM     13  C   UNL A   1      38.658  29.554  30.030  1.00  0.00     0.049 A 
ATOM     14  N   UNL A   1      39.759  30.949  32.465  1.00  0.00    -0.248 NA
ATOM     15  C   UNL A   1      38.070  32.547  32.264  1.00  0.00     0.031 C 
ATOM     16  C   UNL A   1      38.107  28.795  28.902  1.00  0.00     0.029 A 
ATOM     17  N   UNL A   1      39.757  28.810  30.408  1.00  0.00    -0.354 N 
ATOM     18  C   UNL A   1      39.728  31.744  33.603  1.00  0.00     0.074 A 
ATOM     19  C   UNL A   1      38.711  32.748  33.406  1.00  0.00     0.031 C 
ATOM     20  C   UNL A   1      38.977  27.823  28.558  1.00  0.00     0.029 A 
ATOM     21  C   UNL A   1      40.148  27.926  29.412  1.00  0.00     0.049 A 
ATOM     22  H   UNL A   1      40.209  28.895  31.279  1.00  0.00     0.167 HD
ATOM     23  C   UNL A   1      40.427  31.574  34.747  1.00  0.00     0.034 A 
ATOM     24  C   UNL A   1      41.372  27.416  29.155  1.00  0.00     0.034 A 
ATOM     25  C   UNL A   1      41.453  30.581  34.888  1.00  0.00     0.049 A 
ATOM     26  C   UNL A   1      42.380  27.516  30.262  1.00  0.00     0.074 A 
ATOM     27  C   UNL A   1      42.206  30.256  36.000  1.00  0.00     0.029 A 
ATOM     28  N   UNL A   1      41.893  29.770  33.852  1.00  0.00    -0.354 N 
ATOM     29  N   UNL A   1      42.297  28.180  31.388  1.00  0.00    -0.248 NA
ATOM     30  C   UNL A   1      43.573  26.673  30.136  1.00  0.00     0.031 C 
ATOM     31  C   UNL A   1      43.128  29.273  35.621  1.00  0.00     0.029 A 
ATOM     32  C   UNL A   1      42.922  28.959  34.285  1.00  0.00     0.049 A 
ATOM     33  H   UNL A   1      41.523  29.772  32.939  1.00  0.00     0.167 HD
ATOM     34  C   UNL A   1      43.349  27.727  32.168  1.00  0.00     0.074 A 
ATOM     35  C   UNL A   1      44.096  26.791  31.349  1.00  0.00     0.031 C 
ATOM     36  C   UNL A   1      43.626  28.007  33.466  1.00  0.00     0.034 A 
BRANCH  23  37
ATOM     37  C   UNL A   1      40.043  32.418  35.930  1.00  0.00     0.023 A 
ATOM     38  C   UNL A   1      40.715  33.641  36.149  1.00  0.00     0.012 A 
ATOM     39  C   UNL A   1      39.004  32.038  36.797  1.00  0.00     0.148 A 
ATOM     40  C   UNL A   1      40.379  34.456  37.229  1.00  0.00     0.002 A 
ATOM     41  C   UNL A   1      38.648  32.874  37.849  1.00  0.00     0.091 A 
ATOM     42  F   UNL A   1      38.391  30.864  36.582  1.00  0.00    -0.205 F 
ATOM     43  C   UNL A   1      39.340  34.077  38.073  1.00  0.00     0.022 A 
BRANCH  41  44
ATOM     44  S   UNL A   1      37.291  32.508  38.966  1.00  0.00     0.127 S 
ATOM     45  O   UNL A   1      37.530  33.465  40.046  1.00  0.00    -0.237 OA
ATOM     46  O   UNL A   1      36.126  32.806  38.133  1.00  0.00    -0.237 OA
ATOM     47  O   UNL A   1      37.439  31.109  39.339  1.00  0.00    -0.744 OA
ENDBRANCH  41  44
ENDBRANCH  23  37
BRANCH  24  48
ATOM     48  C   UNL A   1      41.728  26.731  27.873  1.00  0.00     0.023 A 
ATOM     49  C   UNL A   1      42.053  27.507  26.748  1.00  0.00     0.012 A 
ATOM     50  C   UNL A   1      41.653  25.323  27.721  1.00  0.00     0.148 A 
ATOM     51  C   UNL A   1      42.285  26.906  25.506  1.00  0.00     0.002 A 
ATOM     52  C   UNL A   1      41.955  24.726  26.498  1.00  0.00     0.091 A 
ATOM     53  F   UNL A   1      41.193  24.588  28.739  1.00  0.00    -0.205 F 
ATOM     54  C   UNL A   1      42.255  25.519  25.385  1.00  0.00     0.022 A 
BRANCH  52  55
ATOM     55  S   UNL A   1      42.033  22.938  26.268  1.00  0.00     0.127 S 
ATOM     56  O   UNL A   1      40.623  22.562  26.277  1.00  0.00    -0.237 OA
ATOM     57  O   UNL A   1      42.692  22.822  24.966  1.00  0.00    -0.237 OA
ATOM     58  O   UNL A   1      42.831  22.427  27.375  1.00  0.00    -0.744 OA
ENDBRANCH  52  55
ENDBRANCH  24  48
BRANCH  36  59
ATOM     59  C   UNL A   1      44.713  27.201  34.113  1.00  0.00     0.023 A 
ATOM     60  C   UNL A   1      46.056  27.603  34.019  1.00  0.00     0.012 A 
ATOM     61  C   UNL A   1      44.378  26.047  34.850  1.00  0.00     0.148 A 
ATOM     62  C   UNL A   1      47.060  26.841  34.612  1.00  0.00     0.002 A 
ATOM     63  C   UNL A   1      45.375  25.331  35.493  1.00  0.00     0.091 A 
ATOM     64  F   UNL A   1      43.092  25.668  34.901  1.00  0.00    -0.205 F 
ATOM     65  C   UNL A   1      46.718  25.714  35.360  1.00  0.00     0.022 A 
BRANCH  63  66
ATOM     66  S   UNL A   1      45.012  23.940  36.569  1.00  0.00     0.127 S 
ATOM     67  O   UNL A   1      44.285  23.047  35.668  1.00  0.00    -0.237 OA
ATOM     68  O   UNL A   1      46.351  23.480  36.938  1.00  0.00    -0.237 OA
ATOM     69  O   UNL A   1      44.234  24.480  37.676  1.00  0.00    -0.744 OA
ENDBRANCH  63  66
ENDBRANCH  36  59
ENDBRANCH  10  11
ENDBRANCH   3   5
ENDBRANCH   2   3
ENDBRANCH   1   2
BRANCH   1  70
ATOM     70  C   UNL A   1      32.145  31.105  26.954  1.00  0.00     0.275 C 
BRANCH  70  71
ATOM     71  O   UNL A   1      32.622  30.442  25.771  1.00  0.00    -0.458 OA
BRANCH  71  72
ATOM     72  C   UNL A   1      31.701  29.659  25.151  1.00  0.00     0.338 C 
ATOM     73  O   UNL A   1      30.666  30.056  24.629  1.00  0.00    -0.246 OA
BRANCH  72  74
ATOM     74  C   UNL A   1      32.149  28.250  25.061  1.00  0.00     0.060 A 
ATOM     75  C   UNL A   1      33.523  27.998  25.025  1.00  0.00     0.018 A 
ATOM     76  C   UNL A   1      31.261  27.181  24.967  1.00  0.00     0.022 A 
ATOM     77  C   UNL A   1      34.006  26.688  24.886  1.00  0.00     0.027 A 
ATOM     78  C   UNL A   1      31.752  25.860  24.805  1.00  0.00    -0.017 A 
ATOM     79  C   UNL A   1      33.136  25.605  24.726  1.00  0.00     0.038 A 
ATOM     80  C   UNL A   1      30.780  24.704  24.734  1.00  0.00     0.049 C 
ATOM     81  N   UNL A   1      33.639  24.315  24.540  1.00  0.00    -0.378 N 
ATOM     82  C   UNL A   1      29.967  24.607  25.976  1.00  0.00    -0.023 C 
ATOM     83  C   UNL A   1      31.428  23.324  24.767  1.00  0.00     0.031 C 
ATOM     84  C   UNL A   1      32.738  23.287  24.011  1.00  0.00     0.114 C 
ATOM     85  H   UNL A   1      34.575  24.101  24.760  1.00  0.00     0.161 HD
ATOM     86  C   UNL A   1      30.416  23.672  26.819  1.00  0.00    -0.030 C 
ATOM     87  C   UNL A   1      31.544  22.914  26.242  1.00  0.00     0.034 C 
BRANCH  84  88
ATOM     88  C   UNL A   1      33.256  21.854  24.076  1.00  0.00    -0.022 A 
ATOM     89  C   UNL A   1      32.377  20.823  23.683  1.00  0.00     0.026 A 
ATOM     90  C   UNL A   1      34.448  21.480  24.697  1.00  0.00     0.026 A 
ATOM     91  C   UNL A   1      32.709  19.505  23.943  1.00  0.00     0.111 A 
ATOM     92  C   UNL A   1      34.702  20.127  24.890  1.00  0.00     0.111 A 
ATOM     93  N   UNL A   1      33.871  19.130  24.515  1.00  0.00    -0.265 NA
ENDBRANCH  84  88
ENDBRANCH  72  74
ENDBRANCH  71  72
ENDBRANCH  70  71
ENDBRANCH   1  70
TORSDOF 15
ENDMDL
MODEL 2
REMARK VINA RESULT:     -12.4      1.932      8.011
REMARK SMILES O=C(OCCOC(=O)c1ccc2c(c1)[C@@H]1C=CC[C@@H]1[C@H](c1ccncc1)N2)c1ccc(-c2c3nc(c(-c4cccc(S(=O)(=O)[O-])c4F)c4ccc([nH]4)c(-c4cccc(S(=O)(=O)[O-])c4F)c4nc(c(-c5cccc(S(=O)(=O)[O-])c5F)c5ccc2[nH]5)C=C4)C=C3)cc1
REMARK SMILES IDX 4 1 3 2 2 3 1 4 28 5 29 6 90 7 30 8 89 9 31 10 32 11 33 12
REMARK SMILES IDX 83 13 34 14 88 15 82 16 84 17 35 18 87 19 81 20 80 21 36 23
REMARK SMILES IDX 68 24 48 25 67 26 49 27 52 28 66 29 85 30 50 31 51 32 65 34
REMARK SMILES IDX 86 35 53 36 37 37 38 38 46 39 39 40 41 41 47 42 40 43 42 44
REMARK SMILES IDX 43 45 44 46 45 47 69 48 70 49 78 50 71 51 73 52 79 53 72 54
REMARK SMILES IDX 74 55 75 56 76 57 77 58 54 59 55 60 63 61 56 62 58 63 64 64
REMARK SMILES IDX 57 65 59 66 60 67 61 68 62 69 5 70 6 71 7 72 8 73 9 74 10 75
REMARK SMILES IDX 14 76 11 77 13 78 12 79 15 80 27 81 16 82 19 83 20 84 17 86
REMARK SMILES IDX 18 87 21 88 22 89 26 90 23 91 25 92 24 93
REMARK H PARENT 84 22 52 33 27 85
REMARK Flexibility Score: inf
ROOT
ATOM      1  C   UNL A   1      33.213  28.281  26.696  1.00  0.00     0.275 C 
ENDROOT
BRANCH   1   2
ATOM      2  O   UNL A   1      33.564  29.665  26.511  1.00  0.00    -0.458 OA
BRANCH   2   3
ATOM      3  C   UNL A   1      34.241  30.508  27.327  1.00  0.00     0.338 C 
ATOM      4  O   UNL A   1      33.831  31.658  27.471  1.00  0.00    -0.246 OA
BRANCH   3   5
ATOM      5  C   UNL A   1      35.533  30.133  27.976  1.00  0.00     0.060 A 
ATOM      6  C   UNL A   1      35.665  29.720  29.301  1.00  0.00     0.016 A 
ATOM      7  C   UNL A   1      36.692  30.205  27.185  1.00  0.00     0.016 A 
ATOM      8  C   UNL A   1      36.889  29.280  29.800  1.00  0.00     0.010 A 
ATOM      9  C   UNL A   1      37.924  29.760  27.678  1.00  0.00     0.010 A 
ATOM     10  C   UNL A   1      38.026  29.284  28.995  1.00  0.00    -0.014 A 
BRANCH  10  11
ATOM     11  C   UNL A   1      39.336  28.963  29.608  1.00  0.00     0.031 A 
ATOM     12  C   UNL A   1      40.019  27.700  29.166  1.00  0.00     0.074 A 
ATOM     13  C   UNL A   1      39.941  29.808  30.474  1.00  0.00     0.049 A 
ATOM     14  N   UNL A   1      41.130  27.178  29.603  1.00  0.00    -0.248 NA
ATOM     15  C   UNL A   1      39.417  26.970  28.031  1.00  0.00     0.031 C 
ATOM     16  C   UNL A   1      39.448  31.131  30.872  1.00  0.00     0.029 A 
ATOM     17  N   UNL A   1      41.042  29.621  31.286  1.00  0.00    -0.354 N 
ATOM     18  C   UNL A   1      41.414  26.131  28.736  1.00  0.00     0.074 A 
ATOM     19  C   UNL A   1      40.304  26.007  27.825  1.00  0.00     0.031 C 
ATOM     20  C   UNL A   1      40.111  31.536  31.975  1.00  0.00     0.029 A 
ATOM     21  C   UNL A   1      41.033  30.486  32.371  1.00  0.00     0.049 A 
ATOM     22  H   UNL A   1      41.748  28.956  31.115  1.00  0.00     0.167 HD
ATOM     23  C   UNL A   1      42.555  25.411  28.659  1.00  0.00     0.034 A 
ATOM     24  C   UNL A   1      41.583  30.325  33.595  1.00  0.00     0.034 A 
ATOM     25  C   UNL A   1      43.623  25.547  29.608  1.00  0.00     0.049 A 
ATOM     26  C   UNL A   1      42.630  29.257  33.718  1.00  0.00     0.074 A 
ATOM     27  C   UNL A   1      44.857  24.926  29.627  1.00  0.00     0.029 A 
ATOM     28  N   UNL A   1      43.556  26.348  30.739  1.00  0.00    -0.354 N 
ATOM     29  N   UNL A   1      42.971  28.340  32.848  1.00  0.00    -0.248 NA
ATOM     30  C   UNL A   1      43.472  29.306  34.918  1.00  0.00     0.031 C 
ATOM     31  C   UNL A   1      45.520  25.326  30.793  1.00  0.00     0.029 A 
ATOM     32  C   UNL A   1      44.715  26.224  31.479  1.00  0.00     0.049 A 
ATOM     33  H   UNL A   1      42.793  26.922  30.978  1.00  0.00     0.167 HD
ATOM     34  C   UNL A   1      44.154  27.795  33.323  1.00  0.00     0.074 A 
ATOM     35  C   UNL A   1      44.421  28.436  34.597  1.00  0.00     0.031 C 
ATOM     36  C   UNL A   1      44.977  26.900  32.723  1.00  0.00     0.034 A 
BRANCH  23  37
ATOM     37  C   UNL A   1      42.722  24.495  27.479  1.00  0.00     0.023 A 
ATOM     38  C   UNL A   1      43.410  24.963  26.338  1.00  0.00     0.012 A 
ATOM     39  C   UNL A   1      42.244  23.173  27.502  1.00  0.00     0.148 A 
ATOM     40  C   UNL A   1      43.595  24.139  25.229  1.00  0.00     0.002 A 
ATOM     41  C   UNL A   1      42.465  22.345  26.407  1.00  0.00     0.091 A 
ATOM     42  F   UNL A   1      41.577  22.756  28.588  1.00  0.00    -0.205 F 
ATOM     43  C   UNL A   1      43.130  22.828  25.268  1.00  0.00     0.022 A 
BRANCH  41  44
ATOM     44  S   UNL A   1      41.955  20.624  26.372  1.00  0.00     0.127 S 
ATOM     45  O   UNL A   1      42.424  20.150  27.674  1.00  0.00    -0.237 OA
ATOM     46  O   UNL A   1      40.502  20.741  26.252  1.00  0.00    -0.237 OA
ATOM     47  O   UNL A   1      42.622  20.028  25.223  1.00  0.00    -0.744 OA
ENDBRANCH  41  44
ENDBRANCH  23  37
BRANCH  24  48
ATOM     48  C   UNL A   1      41.237  31.180  34.774  1.00  0.00     0.023 A 
ATOM     49  C   UNL A   1      42.242  31.956  35.374  1.00  0.00     0.012 A 
ATOM     50  C   UNL A   1      39.953  31.161  35.373  1.00  0.00     0.148 A 
ATOM     51  C   UNL A   1      41.984  32.684  36.541  1.00  0.00     0.002 A 
ATOM     52  C   UNL A   1      39.682  31.944  36.494  1.00  0.00     0.091 A 
ATOM     53  F   UNL A   1      39.035  30.308  34.905  1.00  0.00    -0.205 F 
ATOM     54  C   UNL A   1      40.703  32.693  37.089  1.00  0.00     0.022 A 
BRANCH  52  55
ATOM     55  S   UNL A   1      38.037  32.093  37.218  1.00  0.00     0.127 S 
ATOM     56  O   UNL A   1      38.260  33.042  38.304  1.00  0.00    -0.237 OA
ATOM     57  O   UNL A   1      37.251  32.613  36.099  1.00  0.00    -0.237 OA
ATOM     58  O   UNL A   1      37.655  30.746  37.624  1.00  0.00    -0.744 OA
ENDBRANCH  52  55
ENDBRANCH  24  48
BRANCH  36  59
ATOM     59  C   UNL A   1      46.301  26.654  33.383  1.00  0.00     0.023 A 
ATOM     60  C   UNL A   1      47.400  27.491  33.121  1.00  0.00     0.012 A 
ATOM     61  C   UNL A   1      46.435  25.592  34.301  1.00  0.00     0.148 A 
ATOM     62  C   UNL A   1      48.629  27.246  33.728  1.00  0.00     0.002 A 
ATOM     63  C   UNL A   1      47.642  25.395  34.951  1.00  0.00     0.091 A 
ATOM     64  F   UNL A   1      45.380  24.790  34.512  1.00  0.00    -0.205 F 
ATOM     65  C   UNL A   1      48.746  26.209  34.653  1.00  0.00     0.022 A 
BRANCH  63  66
ATOM     66  S   UNL A   1      47.845  24.160  36.238  1.00  0.00     0.127 S 
ATOM     67  O   UNL A   1      49.236  24.369  36.637  1.00  0.00    -0.237 OA
ATOM     68  O   UNL A   1      46.855  24.584  37.228  1.00  0.00    -0.237 OA
ATOM     69  O   UNL A   1      47.560  22.876  35.612  1.00  0.00    -0.744 OA
ENDBRANCH  63  66
ENDBRANCH  36  59
ENDBRANCH  10  11
ENDBRANCH   3   5
ENDBRANCH   2   3
ENDBRANCH   1   2
BRANCH   1  70
ATOM     70  C   UNL A   1      31.761  27.983  27.101  1.00  0.00     0.275 C 
BRANCH  70  71
ATOM     71  O   UNL A   1      31.303  26.653  26.805  1.00  0.00    -0.458 OA
BRANCH  71  72
ATOM     72  C   UNL A   1      31.101  26.405  25.485  1.00  0.00     0.338 C 
ATOM     73  O   UNL A   1      30.797  27.241  24.642  1.00  0.00    -0.246 OA
BRANCH  72  74
ATOM     74  C   UNL A   1      31.417  25.001  25.135  1.00  0.00     0.060 A 
ATOM     75  C   UNL A   1      30.949  24.505  23.915  1.00  0.00     0.018 A 
ATOM     76  C   UNL A   1      32.118  24.150  25.988  1.00  0.00     0.022 A 
ATOM     77  C   UNL A   1      31.171  23.168  23.554  1.00  0.00     0.027 A 
ATOM     78  C   UNL A   1      32.321  22.793  25.630  1.00  0.00    -0.017 A 
ATOM     79  C   UNL A   1      31.815  22.278  24.420  1.00  0.00     0.038 A 
ATOM     80  C   UNL A   1      33.109  21.887  26.550  1.00  0.00     0.049 C 
ATOM     81  N   UNL A   1      31.982  20.938  24.061  1.00  0.00    -0.378 N 
ATOM     82  C   UNL A   1      34.495  22.392  26.746  1.00  0.00    -0.023 C 
ATOM     83  C   UNL A   1      33.436  20.518  25.966  1.00  0.00     0.031 C 
ATOM     84  C   UNL A   1      32.311  19.973  25.113  1.00  0.00     0.114 C 
ATOM     85  H   UNL A   1      31.882  20.650  23.125  1.00  0.00     0.161 HD
ATOM     86  C   UNL A   1      35.392  21.755  25.985  1.00  0.00    -0.030 C 
ATOM     87  C   UNL A   1      34.775  20.648  25.227  1.00  0.00     0.034 C 
BRANCH  84  88
ATOM     88  C   UNL A   1      32.737  18.589  24.634  1.00  0.00    -0.022 A 
ATOM     89  C   UNL A   1      32.924  17.588  25.610  1.00  0.00     0.026 A 
ATOM     90  C   UNL A   1      33.163  18.308  23.336  1.00  0.00     0.026 A 
ATOM     91  C   UNL A   1      33.531  16.394  25.259  1.00  0.00     0.111 A 
ATOM     92  C   UNL A   1      33.739  17.069  23.078  1.00  0.00     0.111 A 
ATOM     93  N   UNL A   1      33.919  16.100  24.002  1.00  0.00    -0.265 NA
ENDBRANCH  84  88
ENDBRANCH  72  74
ENDBRANCH  71  72
ENDBRANCH  70  71
ENDBRANCH   1  70
TORSDOF 15
ENDMDL
MODEL 3
REMARK VINA RESULT:     -12.3      2.462      3.493
REMARK SMILES O=C(OCCOC(=O)c1ccc2c(c1)[C@@H]1C=CC[C@@H]1[C@H](c1ccncc1)N2)c1ccc(-c2c3nc(c(-c4cccc(S(=O)(=O)[O-])c4F)c4ccc([nH]4)c(-c4cccc(S(=O)(=O)[O-])c4F)c4nc(c(-c5cccc(S(=O)(=O)[O-])c5F)c5ccc2[nH]5)C=C4)C=C3)cc1
REMARK SMILES IDX 4 1 3 2 2 3 1 4 28 5 29 6 90 7 30 8 89 9 31 10 32 11 33 12
REMARK SMILES IDX 83 13 34 14 88 15 82 16 84 17 35 18 87 19 81 20 80 21 36 23
REMARK SMILES IDX 68 24 48 25 67 26 49 27 52 28 66 29 85 30 50 31 51 32 65 34
REMARK SMILES IDX 86 35 53 36 37 37 38 38 46 39 39 40 41 41 47 42 40 43 42 44
REMARK SMILES IDX 43 45 44 46 45 47 69 48 70 49 78 50 71 51 73 52 79 53 72 54
REMARK SMILES IDX 74 55 75 56 76 57 77 58 54 59 55 60 63 61 56 62 58 63 64 64
REMARK SMILES IDX 57 65 59 66 60 67 61 68 62 69 5 70 6 71 7 72 8 73 9 74 10 75
REMARK SMILES IDX 14 76 11 77 13 78 12 79 15 80 27 81 16 82 19 83 20 84 17 86
REMARK SMILES IDX 18 87 21 88 22 89 26 90 23 91 25 92 24 93
REMARK H PARENT 84 22 52 33 27 85
REMARK Flexibility Score: inf
ROOT
ATOM      1  C   UNL A   1      33.552  28.648  26.907  1.00  0.00     0.275 C 
ENDROOT
BRANCH   1   2
ATOM      2  O   UNL A   1      33.998  30.009  26.757  1.00  0.00    -0.458 OA
BRANCH   2   3
ATOM      3  C   UNL A   1      34.825  30.746  27.539  1.00  0.00     0.338 C 
ATOM      4  O   UNL A   1      34.576  31.936  27.716  1.00  0.00    -0.246 OA
BRANCH   3   5
ATOM      5  C   UNL A   1      36.093  30.197  28.107  1.00  0.00     0.060 A 
ATOM      6  C   UNL A   1      36.233  29.704  29.404  1.00  0.00     0.016 A 
ATOM      7  C   UNL A   1      37.218  30.182  27.267  1.00  0.00     0.016 A 
ATOM      8  C   UNL A   1      37.419  29.107  29.823  1.00  0.00     0.010 A 
ATOM      9  C   UNL A   1      38.412  29.579  27.678  1.00  0.00     0.010 A 
ATOM     10  C   UNL A   1      38.515  29.028  28.966  1.00  0.00    -0.014 A 
BRANCH  10  11
ATOM     11  C   UNL A   1      39.805  28.532  29.500  1.00  0.00     0.031 A 
ATOM     12  C   UNL A   1      40.602  29.465  30.367  1.00  0.00     0.074 A 
ATOM     13  C   UNL A   1      40.220  27.262  29.288  1.00  0.00     0.049 A 
ATOM     14  N   UNL A   1      41.781  29.283  30.891  1.00  0.00    -0.248 NA
ATOM     15  C   UNL A   1      39.958  30.735  30.761  1.00  0.00     0.031 C 
ATOM     16  C   UNL A   1      39.468  26.217  28.586  1.00  0.00     0.029 A 
ATOM     17  N   UNL A   1      41.443  26.668  29.528  1.00  0.00    -0.354 N 
ATOM     18  C   UNL A   1      41.973  30.354  31.754  1.00  0.00     0.074 A 
ATOM     19  C   UNL A   1      40.852  31.248  31.594  1.00  0.00     0.031 C 
ATOM     20  C   UNL A   1      40.304  25.204  28.276  1.00  0.00     0.029 A 
ATOM     21  C   UNL A   1      41.641  25.556  28.722  1.00  0.00     0.049 A 
ATOM     22  H   UNL A   1      42.095  26.994  30.190  1.00  0.00     0.167 HD
ATOM     23  C   UNL A   1      42.956  30.512  32.667  1.00  0.00     0.034 A 
ATOM     24  C   UNL A   1      42.799  25.019  28.277  1.00  0.00     0.034 A 
ATOM     25  C   UNL A   1      44.070  29.613  32.770  1.00  0.00     0.049 A 
ATOM     26  C   UNL A   1      44.045  25.433  29.004  1.00  0.00     0.074 A 
ATOM     27  C   UNL A   1      45.111  29.614  33.677  1.00  0.00     0.029 A 
ATOM     28  N   UNL A   1      44.299  28.561  31.894  1.00  0.00    -0.354 N 
ATOM     29  N   UNL A   1      44.196  26.374  29.902  1.00  0.00    -0.248 NA
ATOM     30  C   UNL A   1      45.237  24.610  28.775  1.00  0.00     0.031 C 
ATOM     31  C   UNL A   1      45.990  28.583  33.324  1.00  0.00     0.029 A 
ATOM     32  C   UNL A   1      45.475  27.917  32.221  1.00  0.00     0.049 A 
ATOM     33  H   UNL A   1      43.707  28.310  31.148  1.00  0.00     0.167 HD
ATOM     34  C   UNL A   1      45.451  26.168  30.453  1.00  0.00     0.074 A 
ATOM     35  C   UNL A   1      46.043  25.060  29.727  1.00  0.00     0.031 C 
ATOM     36  C   UNL A   1      46.027  26.792  31.510  1.00  0.00     0.034 A 
BRANCH  23  37
ATOM     37  C   UNL A   1      42.816  31.636  33.654  1.00  0.00     0.023 A 
ATOM     38  C   UNL A   1      43.238  32.932  33.285  1.00  0.00     0.012 A 
ATOM     39  C   UNL A   1      42.237  31.434  34.920  1.00  0.00     0.148 A 
ATOM     40  C   UNL A   1      43.113  34.002  34.170  1.00  0.00     0.002 A 
ATOM     41  C   UNL A   1      42.080  32.513  35.782  1.00  0.00     0.091 A 
ATOM     42  F   UNL A   1      41.860  30.192  35.257  1.00  0.00    -0.205 F 
ATOM     43  C   UNL A   1      42.526  33.794  35.414  1.00  0.00     0.022 A 
BRANCH  41  44
ATOM     44  S   UNL A   1      41.289  32.368  37.387  1.00  0.00     0.127 S 
ATOM     45  O   UNL A   1      39.973  31.845  37.022  1.00  0.00    -0.237 OA
ATOM     46  O   UNL A   1      42.159  31.409  38.067  1.00  0.00    -0.237 OA
ATOM     47  O   UNL A   1      41.284  33.707  37.959  1.00  0.00    -0.744 OA
ENDBRANCH  41  44
ENDBRANCH  23  37
BRANCH  24  48
ATOM     48  C   UNL A   1      42.872  24.020  27.165  1.00  0.00     0.023 A 
ATOM     49  C   UNL A   1      43.423  24.408  25.932  1.00  0.00     0.012 A 
ATOM     50  C   UNL A   1      42.314  22.722  27.276  1.00  0.00     0.148 A 
ATOM     51  C   UNL A   1      43.411  23.537  24.837  1.00  0.00     0.002 A 
ATOM     52  C   UNL A   1      42.369  21.834  26.203  1.00  0.00     0.091 A 
ATOM     53  F   UNL A   1      41.650  22.398  28.390  1.00  0.00    -0.205 F 
ATOM     54  C   UNL A   1      42.902  22.247  24.977  1.00  0.00     0.022 A 
BRANCH  52  55
ATOM     55  S   UNL A   1      41.822  20.119  26.315  1.00  0.00     0.127 S 
ATOM     56  O   UNL A   1      42.521  19.496  25.195  1.00  0.00    -0.237 OA
ATOM     57  O   UNL A   1      42.307  19.724  27.638  1.00  0.00    -0.237 OA
ATOM     58  O   UNL A   1      40.369  20.154  26.212  1.00  0.00    -0.744 OA
ENDBRANCH  52  55
ENDBRANCH  24  48
BRANCH  36  59
ATOM     59  C   UNL A   1      47.313  26.211  32.018  1.00  0.00     0.023 A 
ATOM     60  C   UNL A   1      48.545  26.603  31.465  1.00  0.00     0.012 A 
ATOM     61  C   UNL A   1      47.287  25.288  33.083  1.00  0.00     0.148 A 
ATOM     62  C   UNL A   1      49.733  26.048  31.934  1.00  0.00     0.002 A 
ATOM     63  C   UNL A   1      48.477  24.791  33.589  1.00  0.00     0.091 A 
ATOM     64  F   UNL A   1      46.098  24.908  33.574  1.00  0.00    -0.205 F 
ATOM     65  C   UNL A   1      49.700  25.154  33.004  1.00  0.00     0.022 A 
BRANCH  63  66
ATOM     66  S   UNL A   1      48.532  23.729  35.036  1.00  0.00     0.127 S 
ATOM     67  O   UNL A   1      48.047  24.626  36.083  1.00  0.00    -0.237 OA
ATOM     68  O   UNL A   1      47.603  22.661  34.667  1.00  0.00    -0.237 OA
ATOM     69  O   UNL A   1      49.918  23.303  35.170  1.00  0.00    -0.744 OA
ENDBRANCH  63  66
ENDBRANCH  36  59
ENDBRANCH  10  11
ENDBRANCH   3   5
ENDBRANCH   2   3
ENDBRANCH   1   2
BRANCH   1  70
ATOM     70  C   UNL A   1      32.166  28.438  27.533  1.00  0.00     0.275 C 
BRANCH  70  71
ATOM     71  O   UNL A   1      31.550  27.172  27.246  1.00  0.00    -0.458 OA
BRANCH  71  72
ATOM     72  C   UNL A   1      31.143  27.020  25.959  1.00  0.00     0.338 C 
ATOM     73  O   UNL A   1      30.647  27.896  25.261  1.00  0.00    -0.246 OA
BRANCH  72  74
ATOM     74  C   UNL A   1      31.484  25.678  25.430  1.00  0.00     0.060 A 
ATOM     75  C   UNL A   1      30.800  25.224  24.299  1.00  0.00     0.018 A 
ATOM     76  C   UNL A   1      32.418  24.843  26.039  1.00  0.00     0.022 A 
ATOM     77  C   UNL A   1      31.042  23.941  23.785  1.00  0.00     0.027 A 
ATOM     78  C   UNL A   1      32.644  23.538  25.530  1.00  0.00    -0.017 A 
ATOM     79  C   UNL A   1      31.927  23.061  24.414  1.00  0.00     0.038 A 
ATOM     80  C   UNL A   1      33.682  22.652  26.180  1.00  0.00     0.049 C 
ATOM     81  N   UNL A   1      32.117  21.770  23.913  1.00  0.00    -0.378 N 
ATOM     82  C   UNL A   1      35.034  23.272  26.121  1.00  0.00    -0.023 C 
ATOM     83  C   UNL A   1      33.981  21.362  25.424  1.00  0.00     0.031 C 
ATOM     84  C   UNL A   1      32.742  20.771  24.785  1.00  0.00     0.114 C 
ATOM     85  H   UNL A   1      31.838  21.537  22.998  1.00  0.00     0.161 HD
ATOM     86  C   UNL A   1      35.790  22.776  25.135  1.00  0.00    -0.030 C 
ATOM     87  C   UNL A   1      35.112  21.669  24.432  1.00  0.00     0.034 C 
BRANCH  84  88
ATOM     88  C   UNL A   1      33.161  19.470  24.109  1.00  0.00    -0.022 A 
ATOM     89  C   UNL A   1      32.406  19.037  22.999  1.00  0.00     0.026 A 
ATOM     90  C   UNL A   1      34.091  18.577  24.641  1.00  0.00     0.026 A 
ATOM     91  C   UNL A   1      32.594  17.760  22.500  1.00  0.00     0.111 A 
ATOM     92  C   UNL A   1      34.223  17.324  24.053  1.00  0.00     0.111 A 
ATOM     93  N   UNL A   1      33.510  16.899  22.987  1.00  0.00    -0.265 NA
ENDBRANCH  84  88
ENDBRANCH  72  74
ENDBRANCH  71  72
ENDBRANCH  70  71
ENDBRANCH   1  70
TORSDOF 15
ENDMDL
