MODEL 1
REMARK VINA RESULT:     -12.3      0.000      0.000
REMARK SMILES C[C@H]1CC[C@@H](C(=O)OCCOC(=O)c2ccc(-c3c4nc(c(-c5cccc(S(=O)(=O)[O-])c5F)c5ccc([nH]5)c(-c5cccc(S(=O)(=O)[O-])c5F)c5nc(c(-c6cccc(S(=O)(=O)[O-])c6F)c6ccc3[nH]6)C=C5)C=C4)cc2)[C@H]([N@@H+](C)CCS(C)(=O)=O)C1
REMARK SMILES IDX 9 1 8 2 6 3 7 4 5 5 1 6 2 7 3 8 86 9 4 10 77 11 78 12 79 13
REMARK SMILES IDX 80 15 81 16 82 17 83 18 84 19 85 20 10 21 11 22 12 23 13 24
REMARK SMILES IDX 14 25 15 26 76 27 16 28 75 29 17 30 18 31 19 32 69 33 20 34
REMARK SMILES IDX 74 35 68 36 70 37 21 38 73 39 67 40 66 41 22 43 54 44 34 45
REMARK SMILES IDX 53 46 35 47 38 48 52 49 71 50 36 51 37 52 51 54 72 55 39 56
REMARK SMILES IDX 23 57 24 58 32 59 25 60 27 61 33 62 26 63 28 64 29 65 30 66
REMARK SMILES IDX 31 67 55 68 56 69 64 70 57 71 59 72 65 73 58 74 60 75 61 76
REMARK SMILES IDX 62 77 63 78 40 79 41 80 49 81 42 82 44 83 50 84 43 85 45 86
REMARK SMILES IDX 46 87 47 88 48 89
REMARK H PARENT 78 14 70 42 38 53
REMARK Flexibility Score: inf
ROOT
ATOM      1  C   UNL A   1      36.199  20.058  25.002  1.00  0.00     0.274 C 
ENDROOT
BRANCH   1   2
ATOM      2  O   UNL A   1      36.328  21.310  24.275  1.00  0.00    -0.462 OA
BRANCH   2   3
ATOM      3  C   UNL A   1      35.492  22.295  24.696  1.00  0.00     0.315 C 
ATOM      4  O   UNL A   1      35.793  23.094  25.577  1.00  0.00    -0.252 OA
BRANCH   3   5
ATOM      5  C   UNL A   1      34.082  22.322  23.990  1.00  0.00     0.157 C 
ATOM      6  C   UNL A   1      29.893  25.560  24.762  1.00  0.00     0.008 C 
ATOM      7  C   UNL A   1      30.679  24.347  24.200  1.00  0.00    -0.008 C 
ATOM      8  C   UNL A   1      31.946  24.679  22.758  1.00  0.00     0.005 C 
ATOM      9  C   UNL A   1      31.245  23.124  25.616  1.00  0.00     0.069 C 
ATOM     10  C   UNL A   1      33.541  23.511  22.562  1.00  0.00     0.022 C 
ATOM     11  C   UNL A   1      32.743  21.911  25.344  1.00  0.00     0.198 C 
BRANCH  11  12
ATOM     12  N   UNL A   1      32.285  20.633  24.793  1.00  0.00    -0.333 N 
ATOM     13  C   UNL A   1      32.566  20.391  23.385  1.00  0.00     0.333 C 
ATOM     14  H   UNL A   1      31.271  20.524  24.780  1.00  0.00     0.348 HD
BRANCH  12  15
ATOM     15  C   UNL A   1      33.037  19.788  25.655  1.00  0.00     0.278 C 
BRANCH  15  16
ATOM     16  C   UNL A   1      32.526  18.300  25.401  1.00  0.00     0.197 C 
BRANCH  16  17
ATOM     17  S   UNL A   1      33.720  16.321  24.627  1.00  0.00     0.152 S 
ATOM     18  C   UNL A   1      35.363  15.885  25.376  1.00  0.00     0.158 C 
ATOM     19  O   UNL A   1      33.115  15.050  25.002  1.00  0.00    -0.229 OA
ATOM     20  O   UNL A   1      34.039  16.260  23.199  1.00  0.00    -0.229 OA
ENDBRANCH  16  17
ENDBRANCH  15  16
ENDBRANCH  12  15
ENDBRANCH  11  12
ENDBRANCH   3   5
ENDBRANCH   2   3
ENDBRANCH   1   2
BRANCH   1  21
ATOM     21  C   UNL A   1      37.521  19.261  25.001  1.00  0.00     0.275 C 
BRANCH  21  22
ATOM     22  O   UNL A   1      38.654  20.152  24.876  1.00  0.00    -0.458 OA
BRANCH  22  23
ATOM     23  C   UNL A   1      39.705  19.987  25.732  1.00  0.00     0.338 C 
ATOM     24  O   UNL A   1      40.452  19.021  25.751  1.00  0.00    -0.246 OA
BRANCH  23  25
ATOM     25  C   UNL A   1      39.948  21.248  26.518  1.00  0.00     0.060 A 
ATOM     26  C   UNL A   1      39.126  22.346  26.324  1.00  0.00     0.016 A 
ATOM     27  C   UNL A   1      41.150  21.452  27.216  1.00  0.00     0.016 A 
ATOM     28  C   UNL A   1      39.611  23.630  26.618  1.00  0.00     0.010 A 
ATOM     29  C   UNL A   1      41.556  22.756  27.622  1.00  0.00     0.010 A 
ATOM     30  C   UNL A   1      40.834  23.909  27.257  1.00  0.00    -0.014 A 
BRANCH  30  31
ATOM     31  C   UNL A   1      41.348  25.348  27.441  1.00  0.00     0.031 A 
ATOM     32  C   UNL A   1      42.690  25.826  26.869  1.00  0.00     0.074 A 
ATOM     33  C   UNL A   1      40.617  26.338  28.023  1.00  0.00     0.049 A 
ATOM     34  N   UNL A   1      43.409  26.882  27.192  1.00  0.00    -0.248 NA
ATOM     35  C   UNL A   1      43.291  25.040  25.779  1.00  0.00     0.031 C 
ATOM     36  C   UNL A   1      39.246  26.237  28.518  1.00  0.00     0.029 A 
ATOM     37  N   UNL A   1      40.930  27.669  28.273  1.00  0.00    -0.354 N 
ATOM     38  C   UNL A   1      44.584  26.819  26.444  1.00  0.00     0.074 A 
ATOM     39  C   UNL A   1      44.459  25.648  25.600  1.00  0.00     0.031 C 
ATOM     40  C   UNL A   1      38.793  27.446  28.867  1.00  0.00     0.029 A 
ATOM     41  C   UNL A   1      39.915  28.366  28.897  1.00  0.00     0.049 A 
ATOM     42  H   UNL A   1      41.792  28.076  28.028  1.00  0.00     0.167 HD
ATOM     43  C   UNL A   1      45.668  27.640  26.458  1.00  0.00     0.034 A 
ATOM     44  C   UNL A   1      39.872  29.544  29.555  1.00  0.00     0.034 A 
ATOM     45  C   UNL A   1      45.770  28.879  27.197  1.00  0.00     0.049 A 
ATOM     46  C   UNL A   1      41.116  30.364  29.706  1.00  0.00     0.074 A 
ATOM     47  C   UNL A   1      46.859  29.734  27.305  1.00  0.00     0.029 A 
ATOM     48  N   UNL A   1      44.749  29.461  27.926  1.00  0.00    -0.354 N 
ATOM     49  N   UNL A   1      42.281  30.206  29.137  1.00  0.00    -0.248 NA
ATOM     50  C   UNL A   1      41.042  31.521  30.614  1.00  0.00     0.031 C 
ATOM     51  C   UNL A   1      46.510  30.802  28.136  1.00  0.00     0.029 A 
ATOM     52  C   UNL A   1      45.187  30.646  28.502  1.00  0.00     0.049 A 
ATOM     53  H   UNL A   1      43.842  29.090  28.023  1.00  0.00     0.167 HD
ATOM     54  C   UNL A   1      43.071  31.253  29.596  1.00  0.00     0.074 A 
ATOM     55  C   UNL A   1      42.244  32.060  30.467  1.00  0.00     0.031 C 
ATOM     56  C   UNL A   1      44.375  31.500  29.329  1.00  0.00     0.034 A 
BRANCH  43  57
ATOM     57  C   UNL A   1      46.907  27.206  25.702  1.00  0.00     0.023 A 
ATOM     58  C   UNL A   1      47.833  26.308  26.263  1.00  0.00     0.012 A 
ATOM     59  C   UNL A   1      47.086  27.634  24.367  1.00  0.00     0.148 A 
ATOM     60  C   UNL A   1      48.936  25.873  25.522  1.00  0.00     0.002 A 
ATOM     61  C   UNL A   1      48.158  27.160  23.620  1.00  0.00     0.091 A 
ATOM     62  F   UNL A   1      46.192  28.486  23.845  1.00  0.00    -0.205 F 
ATOM     63  C   UNL A   1      49.093  26.290  24.201  1.00  0.00     0.022 A 
BRANCH  61  64
ATOM     64  S   UNL A   1      48.393  27.575  21.887  1.00  0.00     0.127 S 
ATOM     65  O   UNL A   1      49.554  28.462  21.952  1.00  0.00    -0.237 OA
ATOM     66  O   UNL A   1      48.658  26.267  21.289  1.00  0.00    -0.237 OA
ATOM     67  O   UNL A   1      47.153  28.203  21.451  1.00  0.00    -0.744 OA
ENDBRANCH  61  64
ENDBRANCH  43  57
BRANCH  44  68
ATOM     68  C   UNL A   1      38.617  29.968  30.254  1.00  0.00     0.023 A 
ATOM     69  C   UNL A   1      38.358  29.527  31.566  1.00  0.00     0.012 A 
ATOM     70  C   UNL A   1      37.670  30.794  29.613  1.00  0.00     0.148 A 
ATOM     71  C   UNL A   1      37.175  29.886  32.215  1.00  0.00     0.002 A 
ATOM     72  C   UNL A   1      36.539  31.220  30.295  1.00  0.00     0.091 A 
ATOM     73  F   UNL A   1      37.902  31.166  28.346  1.00  0.00    -0.205 F 
ATOM     74  C   UNL A   1      36.276  30.746  31.588  1.00  0.00     0.022 A 
BRANCH  72  75
ATOM     75  S   UNL A   1      35.417  32.448  29.619  1.00  0.00     0.127 S 
ATOM     76  O   UNL A   1      34.910  31.768  28.431  1.00  0.00    -0.237 OA
ATOM     77  O   UNL A   1      34.448  32.598  30.706  1.00  0.00    -0.237 OA
ATOM     78  O   UNL A   1      36.229  33.632  29.373  1.00  0.00    -0.744 OA
ENDBRANCH  72  75
ENDBRANCH  44  68
BRANCH  56  79
ATOM     79  C   UNL A   1      44.997  32.734  29.931  1.00  0.00     0.023 A 
ATOM     80  C   UNL A   1      45.673  32.660  31.167  1.00  0.00     0.012 A 
ATOM     81  C   UNL A   1      44.946  33.968  29.251  1.00  0.00     0.148 A 
ATOM     82  C   UNL A   1      46.254  33.797  31.730  1.00  0.00     0.002 A 
ATOM     83  C   UNL A   1      45.573  35.084  29.791  1.00  0.00     0.091 A 
ATOM     84  F   UNL A   1      44.280  34.027  28.088  1.00  0.00    -0.205 F 
ATOM     85  C   UNL A   1      46.214  35.005  31.037  1.00  0.00     0.022 A 
BRANCH  83  86
ATOM     86  S   UNL A   1      45.651  36.661  28.933  1.00  0.00     0.127 S 
ATOM     87  O   UNL A   1      46.412  37.477  29.878  1.00  0.00    -0.237 OA
ATOM     88  O   UNL A   1      46.373  36.310  27.710  1.00  0.00    -0.237 OA
ATOM     89  O   UNL A   1      44.270  37.078  28.726  1.00  0.00    -0.744 OA
ENDBRANCH  83  86
ENDBRANCH  56  79
ENDBRANCH  30  31
ENDBRANCH  23  25
ENDBRANCH  22  23
ENDBRANCH  21  22
ENDBRANCH   1  21
TORSDOF 18
ENDMDL
MODEL 2
REMARK VINA RESULT:     -12.2      5.230      7.554
REMARK SMILES C[C@H]1CC[C@@H](C(=O)OCCOC(=O)c2ccc(-c3c4nc(c(-c5cccc(S(=O)(=O)[O-])c5F)c5ccc([nH]5)c(-c5cccc(S(=O)(=O)[O-])c5F)c5nc(c(-c6cccc(S(=O)(=O)[O-])c6F)c6ccc3[nH]6)C=C5)C=C4)cc2)[C@H]([N@@H+](C)CCS(C)(=O)=O)C1
REMARK SMILES IDX 9 1 8 2 6 3 7 4 5 5 1 6 2 7 3 8 86 9 4 10 77 11 78 12 79 13
REMARK SMILES IDX 80 15 81 16 82 17 83 18 84 19 85 20 10 21 11 22 12 23 13 24
REMARK SMILES IDX 14 25 15 26 76 27 16 28 75 29 17 30 18 31 19 32 69 33 20 34
REMARK SMILES IDX 74 35 68 36 70 37 21 38 73 39 67 40 66 41 22 43 54 44 34 45
REMARK SMILES IDX 53 46 35 47 38 48 52 49 71 50 36 51 37 52 51 54 72 55 39 56
REMARK SMILES IDX 23 57 24 58 32 59 25 60 27 61 33 62 26 63 28 64 29 65 30 66
REMARK SMILES IDX 31 67 55 68 56 69 64 70 57 71 59 72 65 73 58 74 60 75 61 76
REMARK SMILES IDX 62 77 63 78 40 79 41 80 49 81 42 82 44 83 50 84 43 85 45 86
REMARK SMILES IDX 46 87 47 88 48 89
REMARK H PARENT 78 14 70 42 38 53
REMARK Flexibility Score: inf
ROOT
ATOM      1  C   UNL A   1      32.198  27.356  25.881  1.00  0.00     0.274 C 
ENDROOT
BRANCH   1   2
ATOM      2  O   UNL A   1      31.562  26.247  26.572  1.00  0.00    -0.462 OA
BRANCH   2   3
ATOM      3  C   UNL A   1      31.036  25.299  25.753  1.00  0.00     0.315 C 
ATOM      4  O   UNL A   1      29.937  25.414  25.220  1.00  0.00    -0.252 OA
BRANCH   3   5
ATOM      5  C   UNL A   1      31.931  24.015  25.556  1.00  0.00     0.157 C 
ATOM      6  C   UNL A   1      37.215  23.368  26.096  1.00  0.00     0.008 C 
ATOM      7  C   UNL A   1      35.758  22.992  25.716  1.00  0.00    -0.008 C 
ATOM      8  C   UNL A   1      34.541  22.515  27.160  1.00  0.00     0.005 C 
ATOM      9  C   UNL A   1      35.053  24.142  24.302  1.00  0.00     0.069 C 
ATOM     10  C   UNL A   1      32.594  22.859  26.959  1.00  0.00     0.022 C 
ATOM     11  C   UNL A   1      33.133  24.364  24.064  1.00  0.00     0.198 C 
BRANCH  11  12
ATOM     12  N   UNL A   1      32.604  23.358  23.140  1.00  0.00    -0.333 N 
ATOM     13  C   UNL A   1      32.903  23.548  21.727  1.00  0.00     0.333 C 
ATOM     14  H   UNL A   1      31.586  23.331  23.090  1.00  0.00     0.348 HD
BRANCH  12  15
ATOM     15  C   UNL A   1      33.276  22.234  23.695  1.00  0.00     0.278 C 
BRANCH  15  16
ATOM     16  C   UNL A   1      32.337  20.970  23.453  1.00  0.00     0.197 C 
BRANCH  16  17
ATOM     17  S   UNL A   1      32.781  18.588  23.723  1.00  0.00     0.152 S 
ATOM     18  C   UNL A   1      34.407  18.027  24.425  1.00  0.00     0.158 C 
ATOM     19  O   UNL A   1      32.006  17.931  24.767  1.00  0.00    -0.229 OA
ATOM     20  O   UNL A   1      32.698  17.761  22.517  1.00  0.00    -0.229 OA
ENDBRANCH  16  17
ENDBRANCH  15  16
ENDBRANCH  12  15
ENDBRANCH  11  12
ENDBRANCH   3   5
ENDBRANCH   2   3
ENDBRANCH   1   2
BRANCH   1  21
ATOM     21  C   UNL A   1      31.463  28.688  26.144  1.00  0.00     0.275 C 
BRANCH  21  22
ATOM     22  O   UNL A   1      32.056  29.386  27.264  1.00  0.00    -0.458 OA
BRANCH  22  23
ATOM     23  C   UNL A   1      32.571  30.633  27.050  1.00  0.00     0.338 C 
ATOM     24  O   UNL A   1      31.911  31.651  26.906  1.00  0.00    -0.246 OA
BRANCH  23  25
ATOM     25  C   UNL A   1      34.067  30.622  27.218  1.00  0.00     0.060 A 
ATOM     26  C   UNL A   1      34.746  29.414  27.238  1.00  0.00     0.016 A 
ATOM     27  C   UNL A   1      34.760  31.764  27.652  1.00  0.00     0.016 A 
ATOM     28  C   UNL A   1      35.988  29.333  27.887  1.00  0.00     0.010 A 
ATOM     29  C   UNL A   1      36.078  31.669  28.187  1.00  0.00     0.010 A 
ATOM     30  C   UNL A   1      36.707  30.428  28.403  1.00  0.00    -0.014 A 
BRANCH  30  31
ATOM     31  C   UNL A   1      38.009  30.243  29.203  1.00  0.00     0.031 A 
ATOM     32  C   UNL A   1      39.208  29.454  28.659  1.00  0.00     0.074 A 
ATOM     33  C   UNL A   1      38.249  30.848  30.399  1.00  0.00     0.049 A 
ATOM     34  N   UNL A   1      40.234  28.939  29.306  1.00  0.00    -0.248 NA
ATOM     35  C   UNL A   1      39.284  29.236  27.205  1.00  0.00     0.031 C 
ATOM     36  C   UNL A   1      37.372  31.785  31.095  1.00  0.00     0.029 A 
ATOM     37  N   UNL A   1      39.350  30.781  31.244  1.00  0.00    -0.354 N 
ATOM     38  C   UNL A   1      40.999  28.244  28.369  1.00  0.00     0.074 A 
ATOM     39  C   UNL A   1      40.350  28.452  27.089  1.00  0.00     0.031 C 
ATOM     40  C   UNL A   1      38.002  32.306  32.153  1.00  0.00     0.029 A 
ATOM     41  C   UNL A   1      39.214  31.542  32.387  1.00  0.00     0.049 A 
ATOM     42  H   UNL A   1      40.150  30.242  31.047  1.00  0.00     0.167 HD
ATOM     43  C   UNL A   1      42.121  27.496  28.546  1.00  0.00     0.034 A 
ATOM     44  C   UNL A   1      39.871  31.564  33.566  1.00  0.00     0.034 A 
ATOM     45  C   UNL A   1      42.857  27.372  29.785  1.00  0.00     0.049 A 
ATOM     46  C   UNL A   1      41.006  30.618  33.809  1.00  0.00     0.074 A 
ATOM     47  C   UNL A   1      43.969  26.586  30.053  1.00  0.00     0.029 A 
ATOM     48  N   UNL A   1      42.583  28.065  30.950  1.00  0.00    -0.354 N 
ATOM     49  N   UNL A   1      41.617  29.829  32.966  1.00  0.00    -0.248 NA
ATOM     50  C   UNL A   1      41.530  30.549  35.183  1.00  0.00     0.031 C 
ATOM     51  C   UNL A   1      44.335  26.768  31.391  1.00  0.00     0.029 A 
ATOM     52  C   UNL A   1      43.488  27.710  31.942  1.00  0.00     0.049 A 
ATOM     53  H   UNL A   1      41.853  28.716  31.061  1.00  0.00     0.167 HD
ATOM     54  C   UNL A   1      42.610  29.190  33.697  1.00  0.00     0.074 A 
ATOM     55  C   UNL A   1      42.543  29.706  35.047  1.00  0.00     0.031 C 
ATOM     56  C   UNL A   1      43.482  28.242  33.279  1.00  0.00     0.034 A 
BRANCH  43  57
ATOM     57  C   UNL A   1      42.619  26.663  27.383  1.00  0.00     0.023 A 
ATOM     58  C   UNL A   1      43.551  27.171  26.461  1.00  0.00     0.012 A 
ATOM     59  C   UNL A   1      42.215  25.312  27.279  1.00  0.00     0.148 A 
ATOM     60  C   UNL A   1      44.043  26.362  25.432  1.00  0.00     0.002 A 
ATOM     61  C   UNL A   1      42.744  24.501  26.283  1.00  0.00     0.091 A 
ATOM     62  F   UNL A   1      41.329  24.841  28.169  1.00  0.00    -0.205 F 
ATOM     63  C   UNL A   1      43.649  25.028  25.349  1.00  0.00     0.022 A 
BRANCH  61  64
ATOM     64  S   UNL A   1      42.360  22.749  26.152  1.00  0.00     0.127 S 
ATOM     65  O   UNL A   1      40.898  22.770  26.139  1.00  0.00    -0.237 OA
ATOM     66  O   UNL A   1      42.975  22.392  24.874  1.00  0.00    -0.237 OA
ATOM     67  O   UNL A   1      42.964  22.115  27.316  1.00  0.00    -0.744 OA
ENDBRANCH  61  64
ENDBRANCH  43  57
BRANCH  44  68
ATOM     68  C   UNL A   1      39.381  32.435  34.682  1.00  0.00     0.023 A 
ATOM     69  C   UNL A   1      38.362  31.977  35.538  1.00  0.00     0.012 A 
ATOM     70  C   UNL A   1      39.914  33.726  34.886  1.00  0.00     0.148 A 
ATOM     71  C   UNL A   1      37.872  32.794  36.559  1.00  0.00     0.002 A 
ATOM     72  C   UNL A   1      39.486  34.497  35.957  1.00  0.00     0.091 A 
ATOM     73  F   UNL A   1      40.849  34.172  34.035  1.00  0.00    -0.205 F 
ATOM     74  C   UNL A   1      38.446  34.044  36.780  1.00  0.00     0.022 A 
BRANCH  72  75
ATOM     75  S   UNL A   1      40.281  36.043  36.404  1.00  0.00     0.127 S 
ATOM     76  O   UNL A   1      39.563  36.407  37.622  1.00  0.00    -0.237 OA
ATOM     77  O   UNL A   1      41.667  35.620  36.607  1.00  0.00    -0.237 OA
ATOM     78  O   UNL A   1      40.088  36.932  35.266  1.00  0.00    -0.744 OA
ENDBRANCH  72  75
ENDBRANCH  44  68
BRANCH  56  79
ATOM     79  C   UNL A   1      44.495  27.729  34.271  1.00  0.00     0.023 A 
ATOM     80  C   UNL A   1      45.761  28.342  34.376  1.00  0.00     0.012 A 
ATOM     81  C   UNL A   1      44.178  26.658  35.130  1.00  0.00     0.148 A 
ATOM     82  C   UNL A   1      46.704  27.874  35.293  1.00  0.00     0.002 A 
ATOM     83  C   UNL A   1      45.102  26.231  36.077  1.00  0.00     0.091 A 
ATOM     84  F   UNL A   1      42.978  26.070  35.001  1.00  0.00    -0.205 F 
ATOM     85  C   UNL A   1      46.370  26.828  36.150  1.00  0.00     0.022 A 
BRANCH  83  86
ATOM     86  S   UNL A   1      44.732  24.952  37.282  1.00  0.00     0.127 S 
ATOM     87  O   UNL A   1      45.135  23.742  36.566  1.00  0.00    -0.237 OA
ATOM     88  O   UNL A   1      45.605  25.319  38.398  1.00  0.00    -0.237 OA
ATOM     89  O   UNL A   1      43.307  25.059  37.563  1.00  0.00    -0.744 OA
ENDBRANCH  83  86
ENDBRANCH  56  79
ENDBRANCH  30  31
ENDBRANCH  23  25
ENDBRANCH  22  23
ENDBRANCH  21  22
ENDBRANCH   1  21
TORSDOF 18
ENDMDL
MODEL 3
REMARK VINA RESULT:     -12.2      5.399      7.830
REMARK SMILES C[C@H]1CC[C@@H](C(=O)OCCOC(=O)c2ccc(-c3c4nc(c(-c5cccc(S(=O)(=O)[O-])c5F)c5ccc([nH]5)c(-c5cccc(S(=O)(=O)[O-])c5F)c5nc(c(-c6cccc(S(=O)(=O)[O-])c6F)c6ccc3[nH]6)C=C5)C=C4)cc2)[C@H]([N@@H+](C)CCS(C)(=O)=O)C1
REMARK SMILES IDX 9 1 8 2 6 3 7 4 5 5 1 6 2 7 3 8 86 9 4 10 77 11 78 12 79 13
REMARK SMILES IDX 80 15 81 16 82 17 83 18 84 19 85 20 10 21 11 22 12 23 13 24
REMARK SMILES IDX 14 25 15 26 76 27 16 28 75 29 17 30 18 31 19 32 69 33 20 34
REMARK SMILES IDX 74 35 68 36 70 37 21 38 73 39 67 40 66 41 22 43 54 44 34 45
REMARK SMILES IDX 53 46 35 47 38 48 52 49 71 50 36 51 37 52 51 54 72 55 39 56
REMARK SMILES IDX 23 57 24 58 32 59 25 60 27 61 33 62 26 63 28 64 29 65 30 66
REMARK SMILES IDX 31 67 55 68 56 69 64 70 57 71 59 72 65 73 58 74 60 75 61 76
REMARK SMILES IDX 62 77 63 78 40 79 41 80 49 81 42 82 44 83 50 84 43 85 45 86
REMARK SMILES IDX 46 87 47 88 48 89
REMARK H PARENT 78 14 70 42 38 53
REMARK Flexibility Score: inf
ROOT
ATOM      1  C   UNL A   1      31.927  27.797  26.020  1.00  0.00     0.274 C 
ENDROOT
BRANCH   1   2
ATOM      2  O   UNL A   1      33.281  27.271  25.953  1.00  0.00    -0.462 OA
BRANCH   2   3
ATOM      3  C   UNL A   1      33.528  26.489  24.869  1.00  0.00     0.315 C 
ATOM      4  O   UNL A   1      34.376  25.602  24.867  1.00  0.00    -0.252 OA
BRANCH   3   5
ATOM      5  C   UNL A   1      32.665  26.824  23.592  1.00  0.00     0.157 C 
ATOM      6  C   UNL A   1      27.825  29.067  23.182  1.00  0.00     0.008 C 
ATOM      7  C   UNL A   1      29.109  28.339  22.707  1.00  0.00    -0.008 C 
ATOM      8  C   UNL A   1      30.725  29.404  22.490  1.00  0.00     0.005 C 
ATOM      9  C   UNL A   1      29.307  26.584  23.547  1.00  0.00     0.069 C 
ATOM     10  C   UNL A   1      32.504  28.556  22.743  1.00  0.00     0.022 C 
ATOM     11  C   UNL A   1      31.053  25.733  23.674  1.00  0.00     0.198 C 
BRANCH  11  12
ATOM     12  N   UNL A   1      31.313  24.901  22.497  1.00  0.00    -0.333 N 
ATOM     13  C   UNL A   1      32.704  24.766  22.087  1.00  0.00     0.333 C 
ATOM     14  H   UNL A   1      30.921  25.269  21.631  1.00  0.00     0.348 HD
BRANCH  12  15
ATOM     15  C   UNL A   1      30.775  23.690  23.013  1.00  0.00     0.278 C 
BRANCH  15  16
ATOM     16  C   UNL A   1      31.659  23.296  24.279  1.00  0.00     0.197 C 
BRANCH  16  17
ATOM     17  S   UNL A   1      31.181  23.469  26.664  1.00  0.00     0.152 S 
ATOM     18  C   UNL A   1      29.587  22.793  27.336  1.00  0.00     0.158 C 
ATOM     19  O   UNL A   1      32.002  22.623  27.519  1.00  0.00    -0.229 OA
ATOM     20  O   UNL A   1      31.177  24.817  27.239  1.00  0.00    -0.229 OA
ENDBRANCH  16  17
ENDBRANCH  15  16
ENDBRANCH  12  15
ENDBRANCH  11  12
ENDBRANCH   3   5
ENDBRANCH   2   3
ENDBRANCH   1   2
BRANCH   1  21
ATOM     21  C   UNL A   1      31.921  29.332  26.186  1.00  0.00     0.275 C 
BRANCH  21  22
ATOM     22  O   UNL A   1      32.687  29.722  27.350  1.00  0.00    -0.458 OA
BRANCH  22  23
ATOM     23  C   UNL A   1      33.281  30.952  27.352  1.00  0.00     0.338 C 
ATOM     24  O   UNL A   1      32.690  32.018  27.430  1.00  0.00    -0.246 OA
BRANCH  23  25
ATOM     25  C   UNL A   1      34.777  30.815  27.450  1.00  0.00     0.060 A 
ATOM     26  C   UNL A   1      35.355  29.557  27.404  1.00  0.00     0.016 A 
ATOM     27  C   UNL A   1      35.579  31.883  27.886  1.00  0.00     0.016 A 
ATOM     28  C   UNL A   1      36.613  29.355  27.991  1.00  0.00     0.010 A 
ATOM     29  C   UNL A   1      36.907  31.665  28.357  1.00  0.00     0.010 A 
ATOM     30  C   UNL A   1      37.441  30.371  28.506  1.00  0.00    -0.014 A 
BRANCH  30  31
ATOM     31  C   UNL A   1      38.757  30.056  29.240  1.00  0.00     0.031 A 
ATOM     32  C   UNL A   1      39.821  29.112  28.660  1.00  0.00     0.074 A 
ATOM     33  C   UNL A   1      39.137  30.663  30.397  1.00  0.00     0.049 A 
ATOM     34  N   UNL A   1      40.816  28.498  29.268  1.00  0.00    -0.248 NA
ATOM     35  C   UNL A   1      39.785  28.843  27.213  1.00  0.00     0.031 C 
ATOM     36  C   UNL A   1      38.419  31.720  31.106  1.00  0.00     0.029 A 
ATOM     37  N   UNL A   1      40.270  30.490  31.182  1.00  0.00    -0.354 N 
ATOM     38  C   UNL A   1      41.437  27.689  28.317  1.00  0.00     0.074 A 
ATOM     39  C   UNL A   1      40.743  27.934  27.068  1.00  0.00     0.031 C 
ATOM     40  C   UNL A   1      39.168  32.193  32.107  1.00  0.00     0.029 A 
ATOM     41  C   UNL A   1      40.293  31.297  32.302  1.00  0.00     0.049 A 
ATOM     42  H   UNL A   1      40.988  29.854  30.961  1.00  0.00     0.167 HD
ATOM     43  C   UNL A   1      42.471  26.818  28.459  1.00  0.00     0.034 A 
ATOM     44  C   UNL A   1      41.017  31.276  33.441  1.00  0.00     0.034 A 
ATOM     45  C   UNL A   1      43.259  26.644  29.659  1.00  0.00     0.049 A 
ATOM     46  C   UNL A   1      42.045  30.208  33.657  1.00  0.00     0.074 A 
ATOM     47  C   UNL A   1      44.285  25.739  29.895  1.00  0.00     0.029 A 
ATOM     48  N   UNL A   1      43.138  27.399  30.811  1.00  0.00    -0.354 N 
ATOM     49  N   UNL A   1      42.508  29.327  32.810  1.00  0.00    -0.248 NA
ATOM     50  C   UNL A   1      42.637  30.119  35.001  1.00  0.00     0.031 C 
ATOM     51  C   UNL A   1      44.749  25.916  31.202  1.00  0.00     0.029 A 
ATOM     52  C   UNL A   1      44.052  26.969  31.764  1.00  0.00     0.049 A 
ATOM     53  H   UNL A   1      42.497  28.136  30.938  1.00  0.00     0.167 HD
ATOM     54  C   UNL A   1      43.460  28.596  33.509  1.00  0.00     0.074 A 
ATOM     55  C   UNL A   1      43.534  29.156  34.841  1.00  0.00     0.031 C 
ATOM     56  C   UNL A   1      44.188  27.538  33.079  1.00  0.00     0.034 A 
BRANCH  43  57
ATOM     57  C   UNL A   1      42.798  25.896  27.303  1.00  0.00     0.023 A 
ATOM     58  C   UNL A   1      43.689  26.282  26.284  1.00  0.00     0.012 A 
ATOM     59  C   UNL A   1      42.275  24.583  27.297  1.00  0.00     0.148 A 
ATOM     60  C   UNL A   1      44.023  25.391  25.260  1.00  0.00     0.002 A 
ATOM     61  C   UNL A   1      42.649  23.687  26.303  1.00  0.00     0.091 A 
ATOM     62  F   UNL A   1      41.431  24.229  28.277  1.00  0.00    -0.205 F 
ATOM     63  C   UNL A   1      43.512  24.094  25.274  1.00  0.00     0.022 A 
BRANCH  61  64
ATOM     64  S   UNL A   1      42.109  21.972  26.289  1.00  0.00     0.127 S 
ATOM     65  O   UNL A   1      42.486  21.535  27.632  1.00  0.00    -0.237 OA
ATOM     66  O   UNL A   1      40.669  22.102  26.072  1.00  0.00    -0.237 OA
ATOM     67  O   UNL A   1      42.832  21.330  25.199  1.00  0.00    -0.744 OA
ENDBRANCH  61  64
ENDBRANCH  43  57
BRANCH  44  68
ATOM     68  C   UNL A   1      40.700  32.233  34.550  1.00  0.00     0.023 A 
ATOM     69  C   UNL A   1      41.459  33.409  34.703  1.00  0.00     0.012 A 
ATOM     70  C   UNL A   1      39.657  31.969  35.463  1.00  0.00     0.148 A 
ATOM     71  C   UNL A   1      41.197  34.290  35.754  1.00  0.00     0.002 A 
ATOM     72  C   UNL A   1      39.345  32.892  36.451  1.00  0.00     0.091 A 
ATOM     73  F   UNL A   1      38.975  30.822  35.339  1.00  0.00    -0.205 F 
ATOM     74  C   UNL A   1      40.130  34.042  36.615  1.00  0.00     0.022 A 
BRANCH  72  75
ATOM     75  S   UNL A   1      37.894  32.725  37.495  1.00  0.00     0.127 S 
ATOM     76  O   UNL A   1      36.811  32.925  36.535  1.00  0.00    -0.237 OA
ATOM     77  O   UNL A   1      38.035  31.354  37.989  1.00  0.00    -0.237 OA
ATOM     78  O   UNL A   1      38.025  33.748  38.523  1.00  0.00    -0.744 OA
ENDBRANCH  72  75
ENDBRANCH  44  68
BRANCH  56  79
ATOM     79  C   UNL A   1      45.191  26.937  34.032  1.00  0.00     0.023 A 
ATOM     80  C   UNL A   1      46.537  27.355  34.004  1.00  0.00     0.012 A 
ATOM     81  C   UNL A   1      44.788  25.981  34.986  1.00  0.00     0.148 A 
ATOM     82  C   UNL A   1      47.471  26.805  34.883  1.00  0.00     0.002 A 
ATOM     83  C   UNL A   1      45.712  25.478  35.895  1.00  0.00     0.091 A 
ATOM     84  F   UNL A   1      43.509  25.578  34.985  1.00  0.00    -0.205 F 
ATOM     85  C   UNL A   1      47.056  25.877  35.835  1.00  0.00     0.022 A 
BRANCH  83  86
ATOM     86  S   UNL A   1      45.256  24.345  37.212  1.00  0.00     0.127 S 
ATOM     87  O   UNL A   1      45.082  23.091  36.481  1.00  0.00    -0.237 OA
ATOM     88  O   UNL A   1      46.435  24.388  38.077  1.00  0.00    -0.237 OA
ATOM     89  O   UNL A   1      44.043  24.887  37.810  1.00  0.00    -0.744 OA
ENDBRANCH  83  86
ENDBRANCH  56  79
ENDBRANCH  30  31
ENDBRANCH  23  25
ENDBRANCH  22  23
ENDBRANCH  21  22
ENDBRANCH   1  21
TORSDOF 18
ENDMDL
