MODEL 1
REMARK VINA RESULT:     -11.8      0.000      0.000
REMARK SMILES CCn1nc(-c2cccnc2)c2cc(C(=O)OCCOC(=O)c3ccc(-c4c5nc(c(-c6cccc(S(=O)(=O)[O-])c6F)c6ccc([nH]6)c(-c6cccc(S(=O)(=O)[O-])c6F)c6nc(c(-c7cccc(S(=O)(=O)[O-])c7F)c7ccc4[nH]7)C=C6)C=C5)cc3)sc21
REMARK SMILES IDX 19 1 18 2 17 3 15 4 16 5 14 6 3 7 4 8 87 9 5 10 12 11 86 12
REMARK SMILES IDX 13 13 2 14 1 15 6 16 7 17 11 18 8 19 10 20 9 21 20 22 21 23
REMARK SMILES IDX 22 24 23 25 24 26 85 27 25 28 84 29 26 30 27 31 28 32 78 33
REMARK SMILES IDX 29 34 83 35 77 36 79 37 30 38 82 39 76 40 75 41 31 43 63 44
REMARK SMILES IDX 43 45 62 46 44 47 47 48 61 49 80 50 45 51 46 52 60 54 81 55
REMARK SMILES IDX 48 56 32 57 33 58 41 59 34 60 36 61 42 62 35 63 37 64 38 65
REMARK SMILES IDX 39 66 40 67 64 68 65 69 73 70 66 71 68 72 74 73 67 74 69 75
REMARK SMILES IDX 70 76 71 77 72 78 49 79 50 80 58 81 51 82 53 83 59 84 52 85
REMARK SMILES IDX 54 86 55 87 56 88 57 89
REMARK H PARENT 79 42 47 53
REMARK Flexibility Score: inf
ROOT
ATOM      1  C   UNL A   1      39.594  20.348  26.066  1.00  0.00     0.275 C 
ENDROOT
BRANCH   1   2
ATOM      2  C   UNL A   1      39.191  21.812  26.140  1.00  0.00     0.275 C 
BRANCH   2   3
ATOM      3  O   UNL A   1      38.149  22.111  25.198  1.00  0.00    -0.458 OA
BRANCH   3   4
ATOM      4  C   UNL A   1      37.055  22.801  25.644  1.00  0.00     0.348 C 
ATOM      5  O   UNL A   1      37.112  23.837  26.304  1.00  0.00    -0.245 OA
BRANCH   4   6
ATOM      6  C   UNL A   1      35.826  22.168  25.194  1.00  0.00     0.115 A 
ATOM      7  N   UNL A   1      32.549  21.453  23.537  1.00  0.00    -0.254 N 
ATOM      8  N   UNL A   1      32.310  20.112  23.590  1.00  0.00    -0.171 NA
ATOM      9  C   UNL A   1      33.690  21.776  24.173  1.00  0.00     0.122 A 
ATOM     10  C   UNL A   1      33.326  19.609  24.346  1.00  0.00     0.103 A 
ATOM     11  C   UNL A   1      34.201  20.652  24.676  1.00  0.00     0.040 A 
ATOM     12  S   UNL A   1      34.604  23.132  24.399  1.00  0.00    -0.109 S 
ATOM     13  C   UNL A   1      35.440  20.820  25.300  1.00  0.00     0.040 A 
BRANCH   7  14
ATOM     14  C   UNL A   1      31.750  22.331  22.711  1.00  0.00     0.142 C 
ATOM     15  C   UNL A   1      30.990  23.389  23.483  1.00  0.00     0.029 C 
ENDBRANCH   7  14
BRANCH  10  16
ATOM     16  C   UNL A   1      33.405  18.183  24.613  1.00  0.00     0.021 A 
ATOM     17  C   UNL A   1      32.520  17.580  25.513  1.00  0.00     0.013 A 
ATOM     18  C   UNL A   1      34.376  17.377  24.035  1.00  0.00     0.121 A 
ATOM     19  C   UNL A   1      32.630  16.217  25.789  1.00  0.00     0.021 A 
ATOM     20  N   UNL A   1      34.508  16.049  24.286  1.00  0.00    -0.264 NA
ATOM     21  C   UNL A   1      33.633  15.502  25.158  1.00  0.00     0.111 A 
ENDBRANCH  10  16
ENDBRANCH   4   6
ENDBRANCH   3   4
ENDBRANCH   2   3
ENDBRANCH   1   2
BRANCH   1  22
ATOM     22  O   UNL A   1      40.759  20.203  25.265  1.00  0.00    -0.458 OA
BRANCH  22  23
ATOM     23  C   UNL A   1      41.856  19.753  25.914  1.00  0.00     0.338 C 
ATOM     24  O   UNL A   1      42.201  18.594  26.063  1.00  0.00    -0.246 OA
BRANCH  23  25
ATOM     25  C   UNL A   1      42.479  20.879  26.608  1.00  0.00     0.060 A 
ATOM     26  C   UNL A   1      42.339  20.916  27.996  1.00  0.00     0.016 A 
ATOM     27  C   UNL A   1      42.896  21.993  25.864  1.00  0.00     0.016 A 
ATOM     28  C   UNL A   1      42.407  22.140  28.617  1.00  0.00     0.010 A 
ATOM     29  C   UNL A   1      42.949  23.214  26.481  1.00  0.00     0.010 A 
ATOM     30  C   UNL A   1      42.620  23.279  27.830  1.00  0.00    -0.014 A 
BRANCH  30  31
ATOM     31  C   UNL A   1      42.646  24.560  28.495  1.00  0.00     0.031 A 
ATOM     32  C   UNL A   1      41.430  25.339  28.172  1.00  0.00     0.074 A 
ATOM     33  C   UNL A   1      43.622  24.895  29.359  1.00  0.00     0.049 A 
ATOM     34  N   UNL A   1      41.340  26.368  27.398  1.00  0.00    -0.248 NA
ATOM     35  C   UNL A   1      40.129  24.748  28.534  1.00  0.00     0.031 C 
ATOM     36  C   UNL A   1      44.654  24.013  29.919  1.00  0.00     0.029 A 
ATOM     37  N   UNL A   1      43.810  26.055  30.043  1.00  0.00    -0.354 N 
ATOM     38  C   UNL A   1      39.992  26.716  27.433  1.00  0.00     0.074 A 
ATOM     39  C   UNL A   1      39.286  25.554  27.888  1.00  0.00     0.031 C 
ATOM     40  C   UNL A   1      45.164  24.584  31.035  1.00  0.00     0.029 A 
ATOM     41  C   UNL A   1      44.596  25.911  31.183  1.00  0.00     0.049 A 
ATOM     42  H   UNL A   1      43.427  26.915  29.758  1.00  0.00     0.167 HD
ATOM     43  C   UNL A   1      39.630  28.026  27.463  1.00  0.00     0.034 A 
ATOM     44  C   UNL A   1      44.672  26.785  32.217  1.00  0.00     0.034 A 
ATOM     45  C   UNL A   1      40.730  28.862  27.050  1.00  0.00     0.049 A 
ATOM     46  C   UNL A   1      44.184  28.089  31.716  1.00  0.00     0.074 A 
ATOM     47  C   UNL A   1      41.452  29.064  25.894  1.00  0.00     0.029 A 
ATOM     48  N   UNL A   1      41.484  29.333  28.094  1.00  0.00    -0.354 N 
ATOM     49  N   UNL A   1      44.785  28.774  30.782  1.00  0.00    -0.248 NA
ATOM     50  C   UNL A   1      42.796  28.452  31.963  1.00  0.00     0.031 C 
ATOM     51  C   UNL A   1      42.769  29.405  26.325  1.00  0.00     0.029 A 
ATOM     52  C   UNL A   1      42.789  29.459  27.720  1.00  0.00     0.049 A 
ATOM     53  H   UNL A   1      41.132  29.549  28.987  1.00  0.00     0.167 HD
ATOM     54  C   UNL A   1      43.746  29.302  30.029  1.00  0.00     0.074 A 
ATOM     55  C   UNL A   1      42.571  29.215  30.891  1.00  0.00     0.031 C 
ATOM     56  C   UNL A   1      43.877  29.459  28.679  1.00  0.00     0.034 A 
BRANCH  43  57
ATOM     57  C   UNL A   1      38.530  28.589  28.353  1.00  0.00     0.023 A 
ATOM     58  C   UNL A   1      37.585  29.433  27.726  1.00  0.00     0.012 A 
ATOM     59  C   UNL A   1      38.546  28.602  29.769  1.00  0.00     0.148 A 
ATOM     60  C   UNL A   1      36.753  30.284  28.462  1.00  0.00     0.002 A 
ATOM     61  C   UNL A   1      37.667  29.395  30.498  1.00  0.00     0.091 A 
ATOM     62  F   UNL A   1      39.493  27.953  30.445  1.00  0.00    -0.205 F 
ATOM     63  C   UNL A   1      36.790  30.263  29.849  1.00  0.00     0.022 A 
BRANCH  61  64
ATOM     64  S   UNL A   1      37.656  29.385  32.297  1.00  0.00     0.127 S 
ATOM     65  O   UNL A   1      37.647  27.953  32.580  1.00  0.00    -0.237 OA
ATOM     66  O   UNL A   1      38.913  30.070  32.602  1.00  0.00    -0.237 OA
ATOM     67  O   UNL A   1      36.463  30.122  32.694  1.00  0.00    -0.744 OA
ENDBRANCH  61  64
ENDBRANCH  43  57
BRANCH  44  68
ATOM     68  C   UNL A   1      44.799  26.502  33.669  1.00  0.00     0.023 A 
ATOM     69  C   UNL A   1      46.033  26.693  34.323  1.00  0.00     0.012 A 
ATOM     70  C   UNL A   1      43.649  26.314  34.469  1.00  0.00     0.148 A 
ATOM     71  C   UNL A   1      46.115  26.721  35.723  1.00  0.00     0.002 A 
ATOM     72  C   UNL A   1      43.736  26.328  35.858  1.00  0.00     0.091 A 
ATOM     73  F   UNL A   1      42.456  26.216  33.869  1.00  0.00    -0.205 F 
ATOM     74  C   UNL A   1      44.966  26.544  36.489  1.00  0.00     0.022 A 
BRANCH  72  75
ATOM     75  S   UNL A   1      42.293  26.113  36.911  1.00  0.00     0.127 S 
ATOM     76  O   UNL A   1      41.890  24.745  36.589  1.00  0.00    -0.237 OA
ATOM     77  O   UNL A   1      42.862  26.285  38.245  1.00  0.00    -0.237 OA
ATOM     78  O   UNL A   1      41.339  27.132  36.495  1.00  0.00    -0.744 OA
ENDBRANCH  72  75
ENDBRANCH  44  68
BRANCH  56  79
ATOM     79  C   UNL A   1      45.266  29.474  28.104  1.00  0.00     0.023 A 
ATOM     80  C   UNL A   1      46.127  30.587  28.178  1.00  0.00     0.012 A 
ATOM     81  C   UNL A   1      45.764  28.250  27.630  1.00  0.00     0.148 A 
ATOM     82  C   UNL A   1      47.464  30.473  27.780  1.00  0.00     0.002 A 
ATOM     83  C   UNL A   1      47.101  28.128  27.289  1.00  0.00     0.091 A 
ATOM     84  F   UNL A   1      44.919  27.210  27.565  1.00  0.00    -0.205 F 
ATOM     85  C   UNL A   1      47.955  29.240  27.352  1.00  0.00     0.022 A 
BRANCH  83  86
ATOM     86  S   UNL A   1      47.812  26.537  26.866  1.00  0.00     0.127 S 
ATOM     87  O   UNL A   1      47.356  25.696  27.971  1.00  0.00    -0.237 OA
ATOM     88  O   UNL A   1      47.185  26.248  25.575  1.00  0.00    -0.237 OA
ATOM     89  O   UNL A   1      49.254  26.743  26.795  1.00  0.00    -0.744 OA
ENDBRANCH  83  86
ENDBRANCH  56  79
ENDBRANCH  30  31
ENDBRANCH  23  25
ENDBRANCH  22  23
ENDBRANCH   1  22
TORSDOF 16
ENDMDL
MODEL 2
REMARK VINA RESULT:     -11.7      4.986     10.152
REMARK SMILES CCn1nc(-c2cccnc2)c2cc(C(=O)OCCOC(=O)c3ccc(-c4c5nc(c(-c6cccc(S(=O)(=O)[O-])c6F)c6ccc([nH]6)c(-c6cccc(S(=O)(=O)[O-])c6F)c6nc(c(-c7cccc(S(=O)(=O)[O-])c7F)c7ccc4[nH]7)C=C6)C=C5)cc3)sc21
REMARK SMILES IDX 19 1 18 2 17 3 15 4 16 5 14 6 3 7 4 8 87 9 5 10 12 11 86 12
REMARK SMILES IDX 13 13 2 14 1 15 6 16 7 17 11 18 8 19 10 20 9 21 20 22 21 23
REMARK SMILES IDX 22 24 23 25 24 26 85 27 25 28 84 29 26 30 27 31 28 32 78 33
REMARK SMILES IDX 29 34 83 35 77 36 79 37 30 38 82 39 76 40 75 41 31 43 63 44
REMARK SMILES IDX 43 45 62 46 44 47 47 48 61 49 80 50 45 51 46 52 60 54 81 55
REMARK SMILES IDX 48 56 32 57 33 58 41 59 34 60 36 61 42 62 35 63 37 64 38 65
REMARK SMILES IDX 39 66 40 67 64 68 65 69 73 70 66 71 68 72 74 73 67 74 69 75
REMARK SMILES IDX 70 76 71 77 72 78 49 79 50 80 58 81 51 82 53 83 59 84 52 85
REMARK SMILES IDX 54 86 55 87 56 88 57 89
REMARK H PARENT 79 42 47 53
REMARK Flexibility Score: inf
ROOT
ATOM      1  C   UNL A   1      33.396  32.853  27.662  1.00  0.00     0.275 C 
ENDROOT
BRANCH   1   2
ATOM      2  C   UNL A   1      33.923  31.455  27.942  1.00  0.00     0.275 C 
BRANCH   2   3
ATOM      3  O   UNL A   1      34.078  30.706  26.727  1.00  0.00    -0.458 OA
BRANCH   3   4
ATOM      4  C   UNL A   1      33.755  29.376  26.744  1.00  0.00     0.348 C 
ATOM      5  O   UNL A   1      34.021  28.612  27.669  1.00  0.00    -0.245 OA
BRANCH   4   6
ATOM      6  C   UNL A   1      33.021  29.007  25.545  1.00  0.00     0.115 A 
ATOM      7  N   UNL A   1      31.585  27.132  22.644  1.00  0.00    -0.254 N 
ATOM      8  N   UNL A   1      30.536  27.841  22.135  1.00  0.00    -0.171 NA
ATOM      9  C   UNL A   1      32.180  27.791  23.655  1.00  0.00     0.122 A 
ATOM     10  C   UNL A   1      30.536  29.009  22.836  1.00  0.00     0.103 A 
ATOM     11  C   UNL A   1      31.544  28.953  23.806  1.00  0.00     0.040 A 
ATOM     12  S   UNL A   1      33.380  27.493  24.749  1.00  0.00    -0.109 S 
ATOM     13  C   UNL A   1      32.003  29.717  24.882  1.00  0.00     0.040 A 
BRANCH   7  14
ATOM     14  C   UNL A   1      31.841  25.767  22.241  1.00  0.00     0.142 C 
ATOM     15  C   UNL A   1      32.619  25.636  20.948  1.00  0.00     0.029 C 
ENDBRANCH   7  14
BRANCH  10  16
ATOM     16  C   UNL A   1      29.533  30.025  22.566  1.00  0.00     0.021 A 
ATOM     17  C   UNL A   1      28.786  30.581  23.610  1.00  0.00     0.013 A 
ATOM     18  C   UNL A   1      29.240  30.448  21.276  1.00  0.00     0.121 A 
ATOM     19  C   UNL A   1      27.801  31.528  23.334  1.00  0.00     0.021 A 
ATOM     20  N   UNL A   1      28.286  31.368  20.978  1.00  0.00    -0.264 NA
ATOM     21  C   UNL A   1      27.589  31.883  22.013  1.00  0.00     0.111 A 
ENDBRANCH  10  16
ENDBRANCH   4   6
ENDBRANCH   3   4
ENDBRANCH   2   3
ENDBRANCH   1   2
BRANCH   1  22
ATOM     22  O   UNL A   1      32.794  33.392  28.832  1.00  0.00    -0.458 OA
BRANCH  22  23
ATOM     23  C   UNL A   1      33.299  34.572  29.253  1.00  0.00     0.338 C 
ATOM     24  O   UNL A   1      32.786  35.672  29.150  1.00  0.00    -0.246 OA
BRANCH  23  25
ATOM     25  C   UNL A   1      34.683  34.361  29.677  1.00  0.00     0.060 A 
ATOM     26  C   UNL A   1      35.677  34.647  28.740  1.00  0.00     0.016 A 
ATOM     27  C   UNL A   1      34.934  33.610  30.835  1.00  0.00     0.016 A 
ATOM     28  C   UNL A   1      36.879  33.992  28.859  1.00  0.00     0.010 A 
ATOM     29  C   UNL A   1      36.127  32.947  30.944  1.00  0.00     0.010 A 
ATOM     30  C   UNL A   1      37.046  33.082  29.911  1.00  0.00    -0.014 A 
BRANCH  30  31
ATOM     31  C   UNL A   1      38.300  32.372  29.994  1.00  0.00     0.031 A 
ATOM     32  C   UNL A   1      38.150  30.989  29.490  1.00  0.00     0.074 A 
ATOM     33  C   UNL A   1      39.436  32.976  30.386  1.00  0.00     0.049 A 
ATOM     34  N   UNL A   1      38.127  29.900  30.182  1.00  0.00    -0.248 NA
ATOM     35  C   UNL A   1      37.706  30.819  28.093  1.00  0.00     0.031 C 
ATOM     36  C   UNL A   1      39.655  34.414  30.585  1.00  0.00     0.029 A 
ATOM     37  N   UNL A   1      40.682  32.455  30.544  1.00  0.00    -0.354 N 
ATOM     38  C   UNL A   1      37.962  28.888  29.238  1.00  0.00     0.074 A 
ATOM     39  C   UNL A   1      37.434  29.515  28.062  1.00  0.00     0.031 C 
ATOM     40  C   UNL A   1      40.985  34.667  30.560  1.00  0.00     0.029 A 
ATOM     41  C   UNL A   1      41.698  33.405  30.482  1.00  0.00     0.049 A 
ATOM     42  H   UNL A   1      40.850  31.496  30.688  1.00  0.00     0.167 HD
ATOM     43  C   UNL A   1      38.635  27.716  29.377  1.00  0.00     0.034 A 
ATOM     44  C   UNL A   1      43.014  33.156  30.268  1.00  0.00     0.034 A 
ATOM     45  C   UNL A   1      39.122  27.570  30.726  1.00  0.00     0.049 A 
ATOM     46  C   UNL A   1      43.242  31.731  30.595  1.00  0.00     0.074 A 
ATOM     47  C   UNL A   1      38.566  27.426  31.979  1.00  0.00     0.029 A 
ATOM     48  N   UNL A   1      40.410  28.011  30.896  1.00  0.00    -0.354 N 
ATOM     49  N   UNL A   1      43.099  31.235  31.793  1.00  0.00    -0.248 NA
ATOM     50  C   UNL A   1      43.236  30.761  29.511  1.00  0.00     0.031 C 
ATOM     51  C   UNL A   1      39.475  28.067  32.873  1.00  0.00     0.029 A 
ATOM     52  C   UNL A   1      40.577  28.525  32.147  1.00  0.00     0.049 A 
ATOM     53  H   UNL A   1      41.114  27.961  30.210  1.00  0.00     0.167 HD
ATOM     54  C   UNL A   1      42.527  29.990  31.577  1.00  0.00     0.074 A 
ATOM     55  C   UNL A   1      42.793  29.690  30.173  1.00  0.00     0.031 C 
ATOM     56  C   UNL A   1      41.625  29.476  32.464  1.00  0.00     0.034 A 
BRANCH  43  57
ATOM     57  C   UNL A   1      39.320  26.982  28.231  1.00  0.00     0.023 A 
ATOM     58  C   UNL A   1      39.105  25.587  28.161  1.00  0.00     0.012 A 
ATOM     59  C   UNL A   1      40.375  27.498  27.439  1.00  0.00     0.148 A 
ATOM     60  C   UNL A   1      39.929  24.750  27.400  1.00  0.00     0.002 A 
ATOM     61  C   UNL A   1      41.145  26.673  26.628  1.00  0.00     0.091 A 
ATOM     62  F   UNL A   1      40.746  28.773  27.549  1.00  0.00    -0.205 F 
ATOM     63  C   UNL A   1      40.948  25.293  26.629  1.00  0.00     0.022 A 
BRANCH  61  64
ATOM     64  S   UNL A   1      42.460  27.330  25.590  1.00  0.00     0.127 S 
ATOM     65  O   UNL A   1      43.488  27.637  26.582  1.00  0.00    -0.237 OA
ATOM     66  O   UNL A   1      42.753  26.185  24.727  1.00  0.00    -0.237 OA
ATOM     67  O   UNL A   1      41.885  28.473  24.892  1.00  0.00    -0.744 OA
ENDBRANCH  61  64
ENDBRANCH  43  57
BRANCH  44  68
ATOM     68  C   UNL A   1      43.995  33.946  29.482  1.00  0.00     0.023 A 
ATOM     69  C   UNL A   1      44.985  34.704  30.141  1.00  0.00     0.012 A 
ATOM     70  C   UNL A   1      44.141  33.735  28.091  1.00  0.00     0.148 A 
ATOM     71  C   UNL A   1      46.090  35.214  29.445  1.00  0.00     0.002 A 
ATOM     72  C   UNL A   1      45.232  34.256  27.401  1.00  0.00     0.091 A 
ATOM     73  F   UNL A   1      43.259  32.947  27.464  1.00  0.00    -0.205 F 
ATOM     74  C   UNL A   1      46.216  34.985  28.077  1.00  0.00     0.022 A 
BRANCH  72  75
ATOM     75  S   UNL A   1      45.463  33.993  25.636  1.00  0.00     0.127 S 
ATOM     76  O   UNL A   1      44.379  34.796  25.071  1.00  0.00    -0.237 OA
ATOM     77  O   UNL A   1      46.802  34.535  25.421  1.00  0.00    -0.237 OA
ATOM     78  O   UNL A   1      45.320  32.559  25.423  1.00  0.00    -0.744 OA
ENDBRANCH  72  75
ENDBRANCH  44  68
BRANCH  56  79
ATOM     79  C   UNL A   1      41.598  30.052  33.853  1.00  0.00     0.023 A 
ATOM     80  C   UNL A   1      42.538  29.722  34.850  1.00  0.00     0.012 A 
ATOM     81  C   UNL A   1      40.687  31.094  34.085  1.00  0.00     0.148 A 
ATOM     82  C   UNL A   1      42.560  30.425  36.060  1.00  0.00     0.002 A 
ATOM     83  C   UNL A   1      40.747  31.822  35.261  1.00  0.00     0.091 A 
ATOM     84  F   UNL A   1      39.800  31.380  33.120  1.00  0.00    -0.205 F 
ATOM     85  C   UNL A   1      41.677  31.486  36.258  1.00  0.00     0.022 A 
BRANCH  83  86
ATOM     86  S   UNL A   1      39.731  33.278  35.508  1.00  0.00     0.127 S 
ATOM     87  O   UNL A   1      40.271  33.820  36.753  1.00  0.00    -0.237 OA
ATOM     88  O   UNL A   1      40.028  34.071  34.313  1.00  0.00    -0.237 OA
ATOM     89  O   UNL A   1      38.354  32.805  35.581  1.00  0.00    -0.744 OA
ENDBRANCH  83  86
ENDBRANCH  56  79
ENDBRANCH  30  31
ENDBRANCH  23  25
ENDBRANCH  22  23
ENDBRANCH   1  22
TORSDOF 16
ENDMDL
MODEL 3
REMARK VINA RESULT:     -11.6      5.224     10.642
REMARK SMILES CCn1nc(-c2cccnc2)c2cc(C(=O)OCCOC(=O)c3ccc(-c4c5nc(c(-c6cccc(S(=O)(=O)[O-])c6F)c6ccc([nH]6)c(-c6cccc(S(=O)(=O)[O-])c6F)c6nc(c(-c7cccc(S(=O)(=O)[O-])c7F)c7ccc4[nH]7)C=C6)C=C5)cc3)sc21
REMARK SMILES IDX 19 1 18 2 17 3 15 4 16 5 14 6 3 7 4 8 87 9 5 10 12 11 86 12
REMARK SMILES IDX 13 13 2 14 1 15 6 16 7 17 11 18 8 19 10 20 9 21 20 22 21 23
REMARK SMILES IDX 22 24 23 25 24 26 85 27 25 28 84 29 26 30 27 31 28 32 78 33
REMARK SMILES IDX 29 34 83 35 77 36 79 37 30 38 82 39 76 40 75 41 31 43 63 44
REMARK SMILES IDX 43 45 62 46 44 47 47 48 61 49 80 50 45 51 46 52 60 54 81 55
REMARK SMILES IDX 48 56 32 57 33 58 41 59 34 60 36 61 42 62 35 63 37 64 38 65
REMARK SMILES IDX 39 66 40 67 64 68 65 69 73 70 66 71 68 72 74 73 67 74 69 75
REMARK SMILES IDX 70 76 71 77 72 78 49 79 50 80 58 81 51 82 53 83 59 84 52 85
REMARK SMILES IDX 54 86 55 87 56 88 57 89
REMARK H PARENT 79 42 47 53
REMARK Flexibility Score: inf
ROOT
ATOM      1  C   UNL A   1      34.249  33.745  27.902  1.00  0.00     0.275 C 
ENDROOT
BRANCH   1   2
ATOM      2  C   UNL A   1      33.868  34.437  29.202  1.00  0.00     0.275 C 
BRANCH   2   3
ATOM      3  O   UNL A   1      34.981  34.487  30.108  1.00  0.00    -0.458 OA
BRANCH   3   4
ATOM      4  C   UNL A   1      34.785  34.063  31.393  1.00  0.00     0.348 C 
ATOM      5  O   UNL A   1      33.687  34.008  31.944  1.00  0.00    -0.245 OA
BRANCH   4   6
ATOM      6  C   UNL A   1      36.040  33.647  31.997  1.00  0.00     0.115 A 
ATOM      7  N   UNL A   1      38.649  31.858  33.994  1.00  0.00    -0.254 N 
ATOM      8  N   UNL A   1      39.882  32.213  33.530  1.00  0.00    -0.171 NA
ATOM      9  C   UNL A   1      37.671  32.519  33.350  1.00  0.00     0.122 A 
ATOM     10  C   UNL A   1      39.637  33.179  32.602  1.00  0.00     0.103 A 
ATOM     11  C   UNL A   1      38.251  33.338  32.472  1.00  0.00     0.040 A 
ATOM     12  S   UNL A   1      36.021  32.506  33.322  1.00  0.00    -0.109 S 
ATOM     13  C   UNL A   1      37.350  34.038  31.665  1.00  0.00     0.040 A 
BRANCH   7  14
ATOM     14  C   UNL A   1      38.477  30.755  34.915  1.00  0.00     0.142 C 
ATOM     15  C   UNL A   1      38.151  31.176  36.333  1.00  0.00     0.029 C 
ENDBRANCH   7  14
BRANCH  10  16
ATOM     16  C   UNL A   1      40.735  33.796  31.879  1.00  0.00     0.021 A 
ATOM     17  C   UNL A   1      40.958  33.494  30.532  1.00  0.00     0.013 A 
ATOM     18  C   UNL A   1      41.629  34.662  32.495  1.00  0.00     0.121 A 
ATOM     19  C   UNL A   1      42.038  34.064  29.859  1.00  0.00     0.021 A 
ATOM     20  N   UNL A   1      42.690  35.231  31.865  1.00  0.00    -0.264 NA
ATOM     21  C   UNL A   1      42.869  34.917  30.565  1.00  0.00     0.111 A 
ENDBRANCH  10  16
ENDBRANCH   4   6
ENDBRANCH   3   4
ENDBRANCH   2   3
ENDBRANCH   1   2
BRANCH   1  22
ATOM     22  O   UNL A   1      35.431  32.977  28.086  1.00  0.00    -0.458 OA
BRANCH  22  23
ATOM     23  C   UNL A   1      35.311  31.657  27.827  1.00  0.00     0.338 C 
ATOM     24  O   UNL A   1      34.379  31.095  27.279  1.00  0.00    -0.246 OA
BRANCH  23  25
ATOM     25  C   UNL A   1      36.397  30.950  28.503  1.00  0.00     0.060 A 
ATOM     26  C   UNL A   1      37.407  31.735  29.061  1.00  0.00     0.016 A 
ATOM     27  C   UNL A   1      36.546  29.570  28.295  1.00  0.00     0.016 A 
ATOM     28  C   UNL A   1      38.652  31.172  29.209  1.00  0.00     0.010 A 
ATOM     29  C   UNL A   1      37.789  29.014  28.430  1.00  0.00     0.010 A 
ATOM     30  C   UNL A   1      38.839  29.844  28.802  1.00  0.00    -0.014 A 
BRANCH  30  31
ATOM     31  C   UNL A   1      40.164  29.284  28.927  1.00  0.00     0.031 A 
ATOM     32  C   UNL A   1      40.556  29.187  30.351  1.00  0.00     0.074 A 
ATOM     33  C   UNL A   1      40.851  28.835  27.861  1.00  0.00     0.049 A 
ATOM     34  N   UNL A   1      41.411  29.920  30.981  1.00  0.00    -0.248 NA
ATOM     35  C   UNL A   1      39.708  28.364  31.234  1.00  0.00     0.031 C 
ATOM     36  C   UNL A   1      40.347  28.641  26.496  1.00  0.00     0.029 A 
ATOM     37  N   UNL A   1      42.104  28.310  27.800  1.00  0.00    -0.354 N 
ATOM     38  C   UNL A   1      41.406  29.424  32.283  1.00  0.00     0.074 A 
ATOM     39  C   UNL A   1      40.176  28.702  32.435  1.00  0.00     0.031 C 
ATOM     40  C   UNL A   1      41.177  27.802  25.833  1.00  0.00     0.029 A 
ATOM     41  C   UNL A   1      42.324  27.517  26.677  1.00  0.00     0.049 A 
ATOM     42  H   UNL A   1      42.791  28.475  28.485  1.00  0.00     0.167 HD
ATOM     43  C   UNL A   1      42.572  29.321  32.974  1.00  0.00     0.034 A 
ATOM     44  C   UNL A   1      43.322  26.613  26.519  1.00  0.00     0.034 A 
ATOM     45  C   UNL A   1      43.595  30.130  32.359  1.00  0.00     0.049 A 
ATOM     46  C   UNL A   1      44.377  26.961  27.496  1.00  0.00     0.074 A 
ATOM     47  C   UNL A   1      43.813  31.474  32.147  1.00  0.00     0.029 A 
ATOM     48  N   UNL A   1      44.381  29.441  31.472  1.00  0.00    -0.354 N 
ATOM     49  N   UNL A   1      45.057  28.074  27.459  1.00  0.00    -0.248 NA
ATOM     50  C   UNL A   1      44.405  26.254  28.768  1.00  0.00     0.031 C 
ATOM     51  C   UNL A   1      44.534  31.551  30.918  1.00  0.00     0.029 A 
ATOM     52  C   UNL A   1      44.783  30.256  30.456  1.00  0.00     0.049 A 
ATOM     53  H   UNL A   1      44.622  28.490  31.558  1.00  0.00     0.167 HD
ATOM     54  C   UNL A   1      45.194  28.431  28.792  1.00  0.00     0.074 A 
ATOM     55  C   UNL A   1      44.930  27.206  29.541  1.00  0.00     0.031 C 
ATOM     56  C   UNL A   1      45.192  29.745  29.162  1.00  0.00     0.034 A 
BRANCH  43  57
ATOM     57  C   UNL A   1      42.953  28.123  33.833  1.00  0.00     0.023 A 
ATOM     58  C   UNL A   1      43.730  27.122  33.205  1.00  0.00     0.012 A 
ATOM     59  C   UNL A   1      42.356  27.775  35.069  1.00  0.00     0.148 A 
ATOM     60  C   UNL A   1      43.851  25.836  33.744  1.00  0.00     0.002 A 
ATOM     61  C   UNL A   1      42.538  26.519  35.637  1.00  0.00     0.091 A 
ATOM     62  F   UNL A   1      41.493  28.598  35.662  1.00  0.00    -0.205 F 
ATOM     63  C   UNL A   1      43.258  25.534  34.963  1.00  0.00     0.022 A 
BRANCH  61  64
ATOM     64  S   UNL A   1      41.814  26.087  37.226  1.00  0.00     0.127 S 
ATOM     65  O   UNL A   1      40.690  27.017  37.296  1.00  0.00    -0.237 OA
ATOM     66  O   UNL A   1      41.449  24.687  37.012  1.00  0.00    -0.237 OA
ATOM     67  O   UNL A   1      42.868  26.285  38.213  1.00  0.00    -0.744 OA
ENDBRANCH  61  64
ENDBRANCH  43  57
BRANCH  44  68
ATOM     68  C   UNL A   1      43.283  25.290  25.847  1.00  0.00     0.023 A 
ATOM     69  C   UNL A   1      44.291  24.931  24.928  1.00  0.00     0.012 A 
ATOM     70  C   UNL A   1      42.420  24.270  26.312  1.00  0.00     0.148 A 
ATOM     71  C   UNL A   1      44.449  23.603  24.507  1.00  0.00     0.002 A 
ATOM     72  C   UNL A   1      42.570  22.956  25.880  1.00  0.00     0.091 A 
ATOM     73  F   UNL A   1      41.512  24.574  27.248  1.00  0.00    -0.205 F 
ATOM     74  C   UNL A   1      43.592  22.616  24.987  1.00  0.00     0.022 A 
BRANCH  72  75
ATOM     75  S   UNL A   1      41.506  21.629  26.463  1.00  0.00     0.127 S 
ATOM     76  O   UNL A   1      40.189  22.083  26.016  1.00  0.00    -0.237 OA
ATOM     77  O   UNL A   1      42.033  20.475  25.738  1.00  0.00    -0.237 OA
ATOM     78  O   UNL A   1      41.667  21.593  27.911  1.00  0.00    -0.744 OA
ENDBRANCH  72  75
ENDBRANCH  44  68
BRANCH  56  79
ATOM     79  C   UNL A   1      45.480  30.775  28.105  1.00  0.00     0.023 A 
ATOM     80  C   UNL A   1      44.477  31.499  27.430  1.00  0.00     0.012 A 
ATOM     81  C   UNL A   1      46.825  31.134  27.928  1.00  0.00     0.148 A 
ATOM     82  C   UNL A   1      44.819  32.563  26.589  1.00  0.00     0.002 A 
ATOM     83  C   UNL A   1      47.156  32.222  27.137  1.00  0.00     0.091 A 
ATOM     84  F   UNL A   1      47.758  30.423  28.578  1.00  0.00    -0.205 F 
ATOM     85  C   UNL A   1      46.157  32.936  26.456  1.00  0.00     0.022 A 
BRANCH  83  86
ATOM     86  S   UNL A   1      48.841  32.827  27.043  1.00  0.00     0.127 S 
ATOM     87  O   UNL A   1      49.542  31.687  26.455  1.00  0.00    -0.237 OA
ATOM     88  O   UNL A   1      48.707  33.987  26.160  1.00  0.00    -0.237 OA
ATOM     89  O   UNL A   1      49.230  33.160  28.408  1.00  0.00    -0.744 OA
ENDBRANCH  83  86
ENDBRANCH  56  79
ENDBRANCH  30  31
ENDBRANCH  23  25
ENDBRANCH  22  23
ENDBRANCH   1  22
TORSDOF 16
ENDMDL
