MODEL 1
REMARK VINA RESULT:     -12.0      0.000      0.000
REMARK SMILES Cc1c(Cl)cccc1NC(=O)C[C@](C)(C(=O)OCCOC(=O)c1ccc(-c2c3nc(c(-c4cccc(S(=O)(=O)[O-])c4F)c4ccc([nH]4)c(-c4cccc(S(=O)(=O)[O-])c4F)c4nc(c(-c5cccc(S(=O)(=O)[O-])c5F)c5ccc2[nH]5)C=C4)C=C3)cc1)c1ccccc1
REMARK SMILES IDX 18 1 17 2 15 3 16 4 13 5 14 6 12 7 10 8 9 9 11 11 8 12 1 13
REMARK SMILES IDX 2 14 3 15 4 16 5 17 7 18 6 19 86 20 87 21 91 22 88 23 90 24
REMARK SMILES IDX 89 25 19 26 20 27 21 28 22 29 23 30 24 31 85 32 25 33 84 34
REMARK SMILES IDX 26 35 27 36 28 37 78 38 29 39 83 40 77 41 79 42 30 43 82 44
REMARK SMILES IDX 76 45 75 46 31 48 63 49 43 50 62 51 44 52 47 53 61 54 80 55
REMARK SMILES IDX 45 56 46 57 60 59 81 60 48 61 32 62 33 63 41 64 34 65 36 66
REMARK SMILES IDX 42 67 35 68 37 69 38 70 39 71 40 72 64 73 65 74 73 75 66 76
REMARK SMILES IDX 68 77 74 78 67 79 69 80 70 81 71 82 72 83 49 84 50 85 58 86
REMARK SMILES IDX 51 87 53 88 59 89 52 90 54 91 55 92 56 93 57 94
REMARK H PARENT 9 10 79 47 47 58
REMARK Flexibility Score: inf
ROOT
ATOM      1  C   UNL A   1      34.616  21.111  25.311  1.00  0.00     0.274 C 
ENDROOT
BRANCH   1   2
ATOM      2  O   UNL A   1      33.959  22.398  25.368  1.00  0.00    -0.461 OA
BRANCH   2   3
ATOM      3  C   UNL A   1      33.026  22.663  24.409  1.00  0.00     0.316 C 
ATOM      4  O   UNL A   1      32.321  21.787  23.924  1.00  0.00    -0.251 OA
BRANCH   3   5
ATOM      5  C   UNL A   1      33.050  24.154  23.925  1.00  0.00     0.099 C 
ATOM      6  C   UNL A   1      34.513  24.579  23.591  1.00  0.00     0.029 C 
BRANCH   5   7
ATOM      7  C   UNL A   1      32.182  24.320  22.638  1.00  0.00     0.123 C 
BRANCH   7   8
ATOM      8  C   UNL A   1      32.673  25.258  21.550  1.00  0.00     0.225 C 
ATOM      9  N   UNL A   1      32.522  26.611  21.556  1.00  0.00    -0.326 N 
ATOM     10  H   UNL A   1      32.991  27.041  20.804  1.00  0.00     0.169 HD
ATOM     11  O   UNL A   1      33.270  24.785  20.574  1.00  0.00    -0.275 OA
BRANCH   9  12
ATOM     12  C   UNL A   1      31.860  27.545  22.375  1.00  0.00     0.045 A 
ATOM     13  C   UNL A   1      34.121  28.365  23.310  1.00  0.00     0.048 C 
ATOM     14  C   UNL A   1      32.610  28.363  23.258  1.00  0.00    -0.009 A 
ATOM     15  C   UNL A   1      31.912  29.178  24.183  1.00  0.00     0.046 A 
ATOM     16  Cl  UNL A   1      32.740  30.143  25.360  1.00  0.00    -0.084 Cl
ATOM     17  C   UNL A   1      30.520  29.215  24.212  1.00  0.00     0.021 A 
ATOM     18  C   UNL A   1      30.470  27.689  22.353  1.00  0.00     0.026 A 
ATOM     19  C   UNL A   1      29.800  28.490  23.278  1.00  0.00     0.004 A 
ENDBRANCH   9  12
ENDBRANCH   7   8
ENDBRANCH   5   7
BRANCH   5  20
ATOM     20  C   UNL A   1      32.478  25.143  25.001  1.00  0.00    -0.030 A 
ATOM     21  C   UNL A   1      31.087  25.283  25.220  1.00  0.00     0.005 A 
ATOM     22  C   UNL A   1      33.321  25.909  25.827  1.00  0.00     0.005 A 
ATOM     23  C   UNL A   1      30.574  26.194  26.152  1.00  0.00     0.000 A 
ATOM     24  C   UNL A   1      32.807  26.824  26.756  1.00  0.00     0.000 A 
ATOM     25  C   UNL A   1      31.434  26.975  26.911  1.00  0.00     0.000 A 
ENDBRANCH   5  20
ENDBRANCH   3   5
ENDBRANCH   2   3
ENDBRANCH   1   2
BRANCH   1  26
ATOM     26  C   UNL A   1      36.008  21.253  24.693  1.00  0.00     0.275 C 
BRANCH  26  27
ATOM     27  O   UNL A   1      36.848  21.985  25.597  1.00  0.00    -0.458 OA
BRANCH  27  28
ATOM     28  C   UNL A   1      38.087  21.458  25.761  1.00  0.00     0.338 C 
ATOM     29  O   UNL A   1      38.495  20.393  25.348  1.00  0.00    -0.246 OA
BRANCH  28  30
ATOM     30  C   UNL A   1      38.952  22.540  26.265  1.00  0.00     0.060 A 
ATOM     31  C   UNL A   1      38.613  23.836  25.881  1.00  0.00     0.016 A 
ATOM     32  C   UNL A   1      40.020  22.313  27.133  1.00  0.00     0.016 A 
ATOM     33  C   UNL A   1      39.314  24.922  26.383  1.00  0.00     0.010 A 
ATOM     34  C   UNL A   1      40.744  23.406  27.619  1.00  0.00     0.010 A 
ATOM     35  C   UNL A   1      40.384  24.714  27.251  1.00  0.00    -0.014 A 
BRANCH  35  36
ATOM     36  C   UNL A   1      41.190  25.876  27.668  1.00  0.00     0.031 A 
ATOM     37  C   UNL A   1      40.538  26.929  28.507  1.00  0.00     0.074 A 
ATOM     38  C   UNL A   1      42.494  25.955  27.355  1.00  0.00     0.049 A 
ATOM     39  N   UNL A   1      41.004  28.087  28.887  1.00  0.00    -0.248 NA
ATOM     40  C   UNL A   1      39.184  26.625  28.997  1.00  0.00     0.031 C 
ATOM     41  C   UNL A   1      43.263  24.921  26.664  1.00  0.00     0.029 A 
ATOM     42  N   UNL A   1      43.399  26.963  27.572  1.00  0.00    -0.354 N 
ATOM     43  C   UNL A   1      39.986  28.672  29.627  1.00  0.00     0.074 A 
ATOM     44  C   UNL A   1      38.887  27.732  29.661  1.00  0.00     0.031 C 
ATOM     45  C   UNL A   1      44.521  25.362  26.486  1.00  0.00     0.029 A 
ATOM     46  C   UNL A   1      44.624  26.727  26.996  1.00  0.00     0.049 A 
ATOM     47  H   UNL A   1      43.191  27.774  28.089  1.00  0.00     0.167 HD
ATOM     48  C   UNL A   1      39.969  29.891  30.212  1.00  0.00     0.034 A 
ATOM     49  C   UNL A   1      45.685  27.548  26.856  1.00  0.00     0.034 A 
ATOM     50  C   UNL A   1      41.064  30.819  30.156  1.00  0.00     0.049 A 
ATOM     51  C   UNL A   1      45.588  28.954  27.394  1.00  0.00     0.074 A 
ATOM     52  C   UNL A   1      41.137  32.096  30.680  1.00  0.00     0.029 A 
ATOM     53  N   UNL A   1      42.271  30.573  29.520  1.00  0.00    -0.354 N 
ATOM     54  N   UNL A   1      44.632  29.505  28.104  1.00  0.00    -0.248 NA
ATOM     55  C   UNL A   1      46.716  29.852  27.112  1.00  0.00     0.031 C 
ATOM     56  C   UNL A   1      42.378  32.638  30.327  1.00  0.00     0.029 A 
ATOM     57  C   UNL A   1      43.091  31.684  29.616  1.00  0.00     0.049 A 
ATOM     58  H   UNL A   1      42.510  29.733  29.067  1.00  0.00     0.167 HD
ATOM     59  C   UNL A   1      45.054  30.803  28.373  1.00  0.00     0.074 A 
ATOM     60  C   UNL A   1      46.362  30.948  27.769  1.00  0.00     0.031 C 
ATOM     61  C   UNL A   1      44.412  31.791  29.047  1.00  0.00     0.034 A 
BRANCH  48  62
ATOM     62  C   UNL A   1      38.702  30.290  30.916  1.00  0.00     0.023 A 
ATOM     63  C   UNL A   1      38.478  29.895  32.250  1.00  0.00     0.012 A 
ATOM     64  C   UNL A   1      37.725  31.050  30.244  1.00  0.00     0.148 A 
ATOM     65  C   UNL A   1      37.281  30.214  32.890  1.00  0.00     0.002 A 
ATOM     66  C   UNL A   1      36.554  31.400  30.903  1.00  0.00     0.091 A 
ATOM     67  F   UNL A   1      37.945  31.387  28.966  1.00  0.00    -0.205 F 
ATOM     68  C   UNL A   1      36.324  30.971  32.220  1.00  0.00     0.022 A 
BRANCH  66  69
ATOM     69  S   UNL A   1      35.293  32.427  30.144  1.00  0.00     0.127 S 
ATOM     70  O   UNL A   1      36.064  33.612  29.768  1.00  0.00    -0.237 OA
ATOM     71  O   UNL A   1      34.859  31.601  29.018  1.00  0.00    -0.237 OA
ATOM     72  O   UNL A   1      34.279  32.639  31.167  1.00  0.00    -0.744 OA
ENDBRANCH  66  69
ENDBRANCH  48  62
BRANCH  49  73
ATOM     73  C   UNL A   1      46.918  27.081  26.161  1.00  0.00     0.023 A 
ATOM     74  C   UNL A   1      47.020  27.223  24.763  1.00  0.00     0.012 A 
ATOM     75  C   UNL A   1      47.983  26.487  26.867  1.00  0.00     0.148 A 
ATOM     76  C   UNL A   1      48.147  26.761  24.080  1.00  0.00     0.002 A 
ATOM     77  C   UNL A   1      49.124  26.077  26.188  1.00  0.00     0.091 A 
ATOM     78  F   UNL A   1      47.858  26.336  28.194  1.00  0.00    -0.205 F 
ATOM     79  C   UNL A   1      49.201  26.197  24.793  1.00  0.00     0.022 A 
BRANCH  77  80
ATOM     80  S   UNL A   1      50.575  25.435  27.032  1.00  0.00     0.127 S 
ATOM     81  O   UNL A   1      50.032  24.260  27.709  1.00  0.00    -0.237 OA
ATOM     82  O   UNL A   1      51.468  25.142  25.910  1.00  0.00    -0.237 OA
ATOM     83  O   UNL A   1      51.034  26.508  27.904  1.00  0.00    -0.744 OA
ENDBRANCH  77  80
ENDBRANCH  49  73
BRANCH  61  84
ATOM     84  C   UNL A   1      45.117  33.114  29.196  1.00  0.00     0.023 A 
ATOM     85  C   UNL A   1      45.975  33.330  30.292  1.00  0.00     0.012 A 
ATOM     86  C   UNL A   1      45.011  34.099  28.194  1.00  0.00     0.148 A 
ATOM     87  C   UNL A   1      46.702  34.515  30.399  1.00  0.00     0.002 A 
ATOM     88  C   UNL A   1      45.777  35.255  28.281  1.00  0.00     0.091 A 
ATOM     89  F   UNL A   1      44.178  33.878  27.167  1.00  0.00    -0.205 F 
ATOM     90  C   UNL A   1      46.614  35.470  29.388  1.00  0.00     0.022 A 
BRANCH  88  91
ATOM     91  S   UNL A   1      45.811  36.495  26.981  1.00  0.00     0.127 S 
ATOM     92  O   UNL A   1      46.790  37.446  27.503  1.00  0.00    -0.237 OA
ATOM     93  O   UNL A   1      46.267  35.719  25.828  1.00  0.00    -0.237 OA
ATOM     94  O   UNL A   1      44.451  37.004  26.872  1.00  0.00    -0.744 OA
ENDBRANCH  88  91
ENDBRANCH  61  84
ENDBRANCH  35  36
ENDBRANCH  28  30
ENDBRANCH  27  28
ENDBRANCH  26  27
ENDBRANCH   1  26
TORSDOF 18
ENDMDL
MODEL 2
REMARK VINA RESULT:     -12.0      4.880      9.749
REMARK SMILES Cc1c(Cl)cccc1NC(=O)C[C@](C)(C(=O)OCCOC(=O)c1ccc(-c2c3nc(c(-c4cccc(S(=O)(=O)[O-])c4F)c4ccc([nH]4)c(-c4cccc(S(=O)(=O)[O-])c4F)c4nc(c(-c5cccc(S(=O)(=O)[O-])c5F)c5ccc2[nH]5)C=C4)C=C3)cc1)c1ccccc1
REMARK SMILES IDX 18 1 17 2 15 3 16 4 13 5 14 6 12 7 10 8 9 9 11 11 8 12 1 13
REMARK SMILES IDX 2 14 3 15 4 16 5 17 7 18 6 19 86 20 87 21 91 22 88 23 90 24
REMARK SMILES IDX 89 25 19 26 20 27 21 28 22 29 23 30 24 31 85 32 25 33 84 34
REMARK SMILES IDX 26 35 27 36 28 37 78 38 29 39 83 40 77 41 79 42 30 43 82 44
REMARK SMILES IDX 76 45 75 46 31 48 63 49 43 50 62 51 44 52 47 53 61 54 80 55
REMARK SMILES IDX 45 56 46 57 60 59 81 60 48 61 32 62 33 63 41 64 34 65 36 66
REMARK SMILES IDX 42 67 35 68 37 69 38 70 39 71 40 72 64 73 65 74 73 75 66 76
REMARK SMILES IDX 68 77 74 78 67 79 69 80 70 81 71 82 72 83 49 84 50 85 58 86
REMARK SMILES IDX 51 87 53 88 59 89 52 90 54 91 55 92 56 93 57 94
REMARK H PARENT 9 10 79 47 47 58
REMARK Flexibility Score: inf
ROOT
ATOM      1  C   UNL A   1      31.394  29.282  24.527  1.00  0.00     0.274 C 
ENDROOT
BRANCH   1   2
ATOM      2  O   UNL A   1      31.314  27.954  23.960  1.00  0.00    -0.461 OA
BRANCH   2   3
ATOM      3  C   UNL A   1      31.137  26.916  24.827  1.00  0.00     0.316 C 
ATOM      4  O   UNL A   1      30.691  27.079  25.956  1.00  0.00    -0.251 OA
BRANCH   3   5
ATOM      5  C   UNL A   1      31.673  25.552  24.271  1.00  0.00     0.099 C 
ATOM      6  C   UNL A   1      30.629  24.930  23.293  1.00  0.00     0.029 C 
BRANCH   5   7
ATOM      7  C   UNL A   1      33.008  25.772  23.493  1.00  0.00     0.123 C 
BRANCH   7   8
ATOM      8  C   UNL A   1      33.226  25.007  22.200  1.00  0.00     0.225 C 
ATOM      9  N   UNL A   1      33.363  23.656  22.102  1.00  0.00    -0.326 N 
ATOM     10  H   UNL A   1      33.405  23.353  21.166  1.00  0.00     0.169 HD
ATOM     11  O   UNL A   1      33.277  25.634  21.134  1.00  0.00    -0.275 OA
BRANCH   9  12
ATOM     12  C   UNL A   1      33.460  22.587  23.013  1.00  0.00     0.045 A 
ATOM     13  C   UNL A   1      35.845  23.329  23.666  1.00  0.00     0.048 C 
ATOM     14  C   UNL A   1      34.663  22.389  23.739  1.00  0.00    -0.009 A 
ATOM     15  C   UNL A   1      34.792  21.218  24.526  1.00  0.00     0.046 A 
ATOM     16  Cl  UNL A   1      36.254  20.843  25.376  1.00  0.00    -0.084 Cl
ATOM     17  C   UNL A   1      33.756  20.292  24.626  1.00  0.00     0.021 A 
ATOM     18  C   UNL A   1      32.401  21.700  23.223  1.00  0.00     0.026 A 
ATOM     19  C   UNL A   1      32.550  20.548  23.996  1.00  0.00     0.004 A 
ENDBRANCH   9  12
ENDBRANCH   7   8
ENDBRANCH   5   7
BRANCH   5  20
ATOM     20  C   UNL A   1      31.966  24.514  25.412  1.00  0.00    -0.030 A 
ATOM     21  C   UNL A   1      33.213  24.471  26.078  1.00  0.00     0.005 A 
ATOM     22  C   UNL A   1      30.989  23.604  25.854  1.00  0.00     0.005 A 
ATOM     23  C   UNL A   1      33.490  23.519  27.068  1.00  0.00     0.000 A 
ATOM     24  C   UNL A   1      31.267  22.648  26.842  1.00  0.00     0.000 A 
ATOM     25  C   UNL A   1      32.521  22.598  27.440  1.00  0.00     0.000 A 
ENDBRANCH   5  20
ENDBRANCH   3   5
ENDBRANCH   2   3
ENDBRANCH   1   2
BRANCH   1  26
ATOM     26  C   UNL A   1      32.834  29.601  24.933  1.00  0.00     0.275 C 
BRANCH  26  27
ATOM     27  O   UNL A   1      32.915  29.645  26.365  1.00  0.00    -0.458 OA
BRANCH  27  28
ATOM     28  C   UNL A   1      33.203  30.871  26.871  1.00  0.00     0.338 C 
ATOM     29  O   UNL A   1      32.469  31.836  26.926  1.00  0.00    -0.246 OA
BRANCH  28  30
ATOM     30  C   UNL A   1      34.461  30.741  27.626  1.00  0.00     0.060 A 
ATOM     31  C   UNL A   1      34.773  29.467  28.099  1.00  0.00     0.016 A 
ATOM     32  C   UNL A   1      35.343  31.804  27.816  1.00  0.00     0.016 A 
ATOM     33  C   UNL A   1      35.981  29.234  28.739  1.00  0.00     0.010 A 
ATOM     34  C   UNL A   1      36.551  31.575  28.484  1.00  0.00     0.010 A 
ATOM     35  C   UNL A   1      36.874  30.284  28.937  1.00  0.00    -0.014 A 
BRANCH  35  36
ATOM     36  C   UNL A   1      38.091  30.034  29.731  1.00  0.00     0.031 A 
ATOM     37  C   UNL A   1      39.153  29.158  29.147  1.00  0.00     0.074 A 
ATOM     38  C   UNL A   1      38.270  30.631  30.922  1.00  0.00     0.049 A 
ATOM     39  N   UNL A   1      40.243  28.700  29.699  1.00  0.00    -0.248 NA
ATOM     40  C   UNL A   1      38.968  28.758  27.742  1.00  0.00     0.031 C 
ATOM     41  C   UNL A   1      37.366  31.611  31.521  1.00  0.00     0.029 A 
ATOM     42  N   UNL A   1      39.273  30.485  31.845  1.00  0.00    -0.354 N 
ATOM     43  C   UNL A   1      40.855  27.923  28.727  1.00  0.00     0.074 A 
ATOM     44  C   UNL A   1      40.028  27.990  27.542  1.00  0.00     0.031 C 
ATOM     45  C   UNL A   1      37.842  31.958  32.729  1.00  0.00     0.029 A 
ATOM     46  C   UNL A   1      39.046  31.180  33.009  1.00  0.00     0.049 A 
ATOM     47  H   UNL A   1      40.076  29.937  31.689  1.00  0.00     0.167 HD
ATOM     48  C   UNL A   1      41.999  27.208  28.822  1.00  0.00     0.034 A 
ATOM     49  C   UNL A   1      39.713  31.143  34.181  1.00  0.00     0.034 A 
ATOM     50  C   UNL A   1      42.802  27.141  30.011  1.00  0.00     0.049 A 
ATOM     51  C   UNL A   1      40.906  30.227  34.307  1.00  0.00     0.074 A 
ATOM     52  C   UNL A   1      43.958  26.415  30.229  1.00  0.00     0.029 A 
ATOM     53  N   UNL A   1      42.518  27.812  31.190  1.00  0.00    -0.354 N 
ATOM     54  N   UNL A   1      41.493  29.501  33.385  1.00  0.00    -0.248 NA
ATOM     55  C   UNL A   1      41.527  30.126  35.634  1.00  0.00     0.031 C 
ATOM     56  C   UNL A   1      44.353  26.619  31.556  1.00  0.00     0.029 A 
ATOM     57  C   UNL A   1      43.463  27.500  32.152  1.00  0.00     0.049 A 
ATOM     58  H   UNL A   1      41.756  28.420  31.325  1.00  0.00     0.167 HD
ATOM     59  C   UNL A   1      42.566  28.877  34.014  1.00  0.00     0.074 A 
ATOM     60  C   UNL A   1      42.559  29.329  35.390  1.00  0.00     0.031 C 
ATOM     61  C   UNL A   1      43.466  27.999  33.505  1.00  0.00     0.034 A 
BRANCH  48  62
ATOM     62  C   UNL A   1      42.406  26.411  27.614  1.00  0.00     0.023 A 
ATOM     63  C   UNL A   1      43.115  27.029  26.565  1.00  0.00     0.012 A 
ATOM     64  C   UNL A   1      42.070  25.047  27.516  1.00  0.00     0.148 A 
ATOM     65  C   UNL A   1      43.447  26.310  25.417  1.00  0.00     0.002 A 
ATOM     66  C   UNL A   1      42.442  24.328  26.389  1.00  0.00     0.091 A 
ATOM     67  F   UNL A   1      41.367  24.489  28.512  1.00  0.00    -0.205 F 
ATOM     68  C   UNL A   1      43.117  24.960  25.332  1.00  0.00     0.022 A 
BRANCH  66  69
ATOM     69  S   UNL A   1      42.118  22.570  26.219  1.00  0.00     0.127 S 
ATOM     70  O   UNL A   1      42.842  22.254  24.988  1.00  0.00    -0.237 OA
ATOM     71  O   UNL A   1      42.720  22.027  27.436  1.00  0.00    -0.237 OA
ATOM     72  O   UNL A   1      40.670  22.434  26.146  1.00  0.00    -0.744 OA
ENDBRANCH  66  69
ENDBRANCH  48  62
BRANCH  49  73
ATOM     73  C   UNL A   1      39.264  31.974  35.334  1.00  0.00     0.023 A 
ATOM     74  C   UNL A   1      38.331  31.443  36.246  1.00  0.00     0.012 A 
ATOM     75  C   UNL A   1      39.743  33.284  35.530  1.00  0.00     0.148 A 
ATOM     76  C   UNL A   1      37.863  32.211  37.315  1.00  0.00     0.002 A 
ATOM     77  C   UNL A   1      39.314  34.024  36.626  1.00  0.00     0.091 A 
ATOM     78  F   UNL A   1      40.612  33.782  34.638  1.00  0.00    -0.205 F 
ATOM     79  C   UNL A   1      38.361  33.496  37.509  1.00  0.00     0.022 A 
BRANCH  77  80
ATOM     80  S   UNL A   1      39.976  35.648  37.017  1.00  0.00     0.127 S 
ATOM     81  O   UNL A   1      39.275  35.967  38.258  1.00  0.00    -0.237 OA
ATOM     82  O   UNL A   1      41.402  35.360  37.173  1.00  0.00    -0.237 OA
ATOM     83  O   UNL A   1      39.653  36.494  35.876  1.00  0.00    -0.744 OA
ENDBRANCH  77  80
ENDBRANCH  49  73
BRANCH  61  84
ATOM     84  C   UNL A   1      44.542  27.482  34.424  1.00  0.00     0.023 A 
ATOM     85  C   UNL A   1      45.712  28.238  34.628  1.00  0.00     0.012 A 
ATOM     86  C   UNL A   1      44.343  26.300  35.165  1.00  0.00     0.148 A 
ATOM     87  C   UNL A   1      46.678  27.816  35.541  1.00  0.00     0.002 A 
ATOM     88  C   UNL A   1      45.285  25.912  36.110  1.00  0.00     0.091 A 
ATOM     89  F   UNL A   1      43.228  25.588  34.944  1.00  0.00    -0.205 F 
ATOM     90  C   UNL A   1      46.458  26.663  36.291  1.00  0.00     0.022 A 
BRANCH  88  91
ATOM     91  S   UNL A   1      45.044  24.501  37.196  1.00  0.00     0.127 S 
ATOM     92  O   UNL A   1      44.691  23.450  36.243  1.00  0.00    -0.237 OA
ATOM     93  O   UNL A   1      46.365  24.353  37.806  1.00  0.00    -0.237 OA
ATOM     94  O   UNL A   1      43.984  24.879  38.121  1.00  0.00    -0.744 OA
ENDBRANCH  88  91
ENDBRANCH  61  84
ENDBRANCH  35  36
ENDBRANCH  28  30
ENDBRANCH  27  28
ENDBRANCH  26  27
ENDBRANCH   1  26
TORSDOF 18
ENDMDL
MODEL 3
REMARK VINA RESULT:     -11.9      1.613      2.504
REMARK SMILES Cc1c(Cl)cccc1NC(=O)C[C@](C)(C(=O)OCCOC(=O)c1ccc(-c2c3nc(c(-c4cccc(S(=O)(=O)[O-])c4F)c4ccc([nH]4)c(-c4cccc(S(=O)(=O)[O-])c4F)c4nc(c(-c5cccc(S(=O)(=O)[O-])c5F)c5ccc2[nH]5)C=C4)C=C3)cc1)c1ccccc1
REMARK SMILES IDX 18 1 17 2 15 3 16 4 13 5 14 6 12 7 10 8 9 9 11 11 8 12 1 13
REMARK SMILES IDX 2 14 3 15 4 16 5 17 7 18 6 19 86 20 87 21 91 22 88 23 90 24
REMARK SMILES IDX 89 25 19 26 20 27 21 28 22 29 23 30 24 31 85 32 25 33 84 34
REMARK SMILES IDX 26 35 27 36 28 37 78 38 29 39 83 40 77 41 79 42 30 43 82 44
REMARK SMILES IDX 76 45 75 46 31 48 63 49 43 50 62 51 44 52 47 53 61 54 80 55
REMARK SMILES IDX 45 56 46 57 60 59 81 60 48 61 32 62 33 63 41 64 34 65 36 66
REMARK SMILES IDX 42 67 35 68 37 69 38 70 39 71 40 72 64 73 65 74 73 75 66 76
REMARK SMILES IDX 68 77 74 78 67 79 69 80 70 81 71 82 72 83 49 84 50 85 58 86
REMARK SMILES IDX 51 87 53 88 59 89 52 90 54 91 55 92 56 93 57 94
REMARK H PARENT 9 10 79 47 47 58
REMARK Flexibility Score: inf
ROOT
ATOM      1  C   UNL A   1      35.293  21.123  25.148  1.00  0.00     0.274 C 
ENDROOT
BRANCH   1   2
ATOM      2  O   UNL A   1      34.429  22.281  25.199  1.00  0.00    -0.461 OA
BRANCH   2   3
ATOM      3  C   UNL A   1      33.484  22.397  24.222  1.00  0.00     0.316 C 
ATOM      4  O   UNL A   1      33.489  21.689  23.223  1.00  0.00    -0.251 OA
BRANCH   3   5
ATOM      5  C   UNL A   1      32.498  23.592  24.460  1.00  0.00     0.099 C 
ATOM      6  C   UNL A   1      31.045  23.161  24.092  1.00  0.00     0.029 C 
BRANCH   5   7
ATOM      7  C   UNL A   1      32.520  24.024  25.959  1.00  0.00     0.123 C 
BRANCH   7   8
ATOM      8  C   UNL A   1      31.201  24.337  26.642  1.00  0.00     0.225 C 
ATOM      9  N   UNL A   1      30.532  25.518  26.548  1.00  0.00    -0.326 N 
ATOM     10  H   UNL A   1      29.653  25.485  26.991  1.00  0.00     0.169 HD
ATOM     11  O   UNL A   1      30.663  23.465  27.337  1.00  0.00    -0.275 OA
BRANCH   9  12
ATOM     12  C   UNL A   1      30.789  26.777  25.970  1.00  0.00     0.045 A 
ATOM     13  C   UNL A   1      29.263  26.198  23.971  1.00  0.00     0.048 C 
ATOM     14  C   UNL A   1      30.225  27.101  24.710  1.00  0.00    -0.009 A 
ATOM     15  C   UNL A   1      30.626  28.303  24.079  1.00  0.00     0.046 A 
ATOM     16  Cl  UNL A   1      30.062  28.742  22.501  1.00  0.00    -0.084 Cl
ATOM     17  C   UNL A   1      31.525  29.178  24.686  1.00  0.00     0.021 A 
ATOM     18  C   UNL A   1      31.598  27.725  26.602  1.00  0.00     0.026 A 
ATOM     19  C   UNL A   1      31.990  28.900  25.960  1.00  0.00     0.004 A 
ENDBRANCH   9  12
ENDBRANCH   7   8
ENDBRANCH   5   7
BRANCH   5  20
ATOM     20  C   UNL A   1      32.872  24.856  23.608  1.00  0.00    -0.030 A 
ATOM     21  C   UNL A   1      33.725  25.868  24.109  1.00  0.00     0.005 A 
ATOM     22  C   UNL A   1      32.410  25.025  22.289  1.00  0.00     0.005 A 
ATOM     23  C   UNL A   1      34.027  27.015  23.365  1.00  0.00     0.000 A 
ATOM     24  C   UNL A   1      32.709  26.176  21.547  1.00  0.00     0.000 A 
ATOM     25  C   UNL A   1      33.508  27.176  22.089  1.00  0.00     0.000 A 
ENDBRANCH   5  20
ENDBRANCH   3   5
ENDBRANCH   2   3
ENDBRANCH   1   2
BRANCH   1  26
ATOM     26  C   UNL A   1      36.696  21.527  24.691  1.00  0.00     0.275 C 
BRANCH  26  27
ATOM     27  O   UNL A   1      37.364  22.195  25.770  1.00  0.00    -0.458 OA
BRANCH  27  28
ATOM     28  C   UNL A   1      38.599  21.708  26.050  1.00  0.00     0.338 C 
ATOM     29  O   UNL A   1      39.061  20.635  25.721  1.00  0.00    -0.246 OA
BRANCH  28  30
ATOM     30  C   UNL A   1      39.401  22.835  26.560  1.00  0.00     0.060 A 
ATOM     31  C   UNL A   1      39.059  24.103  26.093  1.00  0.00     0.016 A 
ATOM     32  C   UNL A   1      40.410  22.677  27.509  1.00  0.00     0.016 A 
ATOM     33  C   UNL A   1      39.697  25.229  26.590  1.00  0.00     0.010 A 
ATOM     34  C   UNL A   1      41.072  23.811  27.992  1.00  0.00     0.010 A 
ATOM     35  C   UNL A   1      40.707  25.089  27.538  1.00  0.00    -0.014 A 
BRANCH  35  36
ATOM     36  C   UNL A   1      41.454  26.291  27.955  1.00  0.00     0.031 A 
ATOM     37  C   UNL A   1      40.731  27.343  28.733  1.00  0.00     0.074 A 
ATOM     38  C   UNL A   1      42.767  26.408  27.696  1.00  0.00     0.049 A 
ATOM     39  N   UNL A   1      41.139  28.528  29.098  1.00  0.00    -0.248 NA
ATOM     40  C   UNL A   1      39.367  27.006  29.174  1.00  0.00     0.031 C 
ATOM     41  C   UNL A   1      43.601  25.383  27.069  1.00  0.00     0.029 A 
ATOM     42  N   UNL A   1      43.626  27.453  27.920  1.00  0.00    -0.354 N 
ATOM     43  C   UNL A   1      40.070  29.097  29.776  1.00  0.00     0.074 A 
ATOM     44  C   UNL A   1      39.004  28.120  29.791  1.00  0.00     0.031 C 
ATOM     45  C   UNL A   1      44.849  25.863  26.932  1.00  0.00     0.029 A 
ATOM     46  C   UNL A   1      44.883  27.244  27.405  1.00  0.00     0.049 A 
ATOM     47  H   UNL A   1      43.368  28.270  28.404  1.00  0.00     0.167 HD
ATOM     48  C   UNL A   1      39.986  30.330  30.324  1.00  0.00     0.034 A 
ATOM     49  C   UNL A   1      45.920  28.098  27.286  1.00  0.00     0.034 A 
ATOM     50  C   UNL A   1      41.050  31.295  30.287  1.00  0.00     0.049 A 
ATOM     51  C   UNL A   1      45.751  29.515  27.777  1.00  0.00     0.074 A 
ATOM     52  C   UNL A   1      41.056  32.588  30.775  1.00  0.00     0.029 A 
ATOM     53  N   UNL A   1      42.291  31.074  29.710  1.00  0.00    -0.354 N 
ATOM     54  N   UNL A   1      44.747  30.051  28.428  1.00  0.00    -0.248 NA
ATOM     55  C   UNL A   1      46.860  30.444  27.516  1.00  0.00     0.031 C 
ATOM     56  C   UNL A   1      42.292  33.163  30.459  1.00  0.00     0.029 A 
ATOM     57  C   UNL A   1      43.067  32.216  29.808  1.00  0.00     0.049 A 
ATOM     58  H   UNL A   1      42.579  30.231  29.293  1.00  0.00     0.167 HD
ATOM     59  C   UNL A   1      45.112  31.371  28.677  1.00  0.00     0.074 A 
ATOM     60  C   UNL A   1      46.439  31.545  28.125  1.00  0.00     0.031 C 
ATOM     61  C   UNL A   1      44.407  32.354  29.292  1.00  0.00     0.034 A 
BRANCH  48  62
ATOM     62  C   UNL A   1      38.677  30.704  30.960  1.00  0.00     0.023 A 
ATOM     63  C   UNL A   1      38.432  30.391  32.312  1.00  0.00     0.012 A 
ATOM     64  C   UNL A   1      37.681  31.357  30.208  1.00  0.00     0.148 A 
ATOM     65  C   UNL A   1      37.199  30.684  32.893  1.00  0.00     0.002 A 
ATOM     66  C   UNL A   1      36.472  31.684  30.807  1.00  0.00     0.091 A 
ATOM     67  F   UNL A   1      37.923  31.616  28.916  1.00  0.00    -0.205 F 
ATOM     68  C   UNL A   1      36.223  31.336  32.144  1.00  0.00     0.022 A 
BRANCH  66  69
ATOM     69  S   UNL A   1      35.181  32.582  29.940  1.00  0.00     0.127 S 
ATOM     70  O   UNL A   1      34.197  32.783  31.003  1.00  0.00    -0.237 OA
ATOM     71  O   UNL A   1      35.879  33.796  29.519  1.00  0.00    -0.237 OA
ATOM     72  O   UNL A   1      34.755  31.717  28.849  1.00  0.00    -0.744 OA
ENDBRANCH  66  69
ENDBRANCH  48  62
BRANCH  49  73
ATOM     73  C   UNL A   1      47.198  27.656  26.658  1.00  0.00     0.023 A 
ATOM     74  C   UNL A   1      48.235  27.164  27.474  1.00  0.00     0.012 A 
ATOM     75  C   UNL A   1      47.399  27.729  25.265  1.00  0.00     0.148 A 
ATOM     76  C   UNL A   1      49.456  26.777  26.918  1.00  0.00     0.002 A 
ATOM     77  C   UNL A   1      48.597  27.293  24.712  1.00  0.00     0.091 A 
ATOM     78  F   UNL A   1      46.410  28.224  24.506  1.00  0.00    -0.205 F 
ATOM     79  C   UNL A   1      49.634  26.834  25.538  1.00  0.00     0.022 A 
BRANCH  77  80
ATOM     80  S   UNL A   1      48.880  27.230  22.939  1.00  0.00     0.127 S 
ATOM     81  O   UNL A   1      50.337  27.293  22.866  1.00  0.00    -0.237 OA
ATOM     82  O   UNL A   1      48.302  25.932  22.590  1.00  0.00    -0.237 OA
ATOM     83  O   UNL A   1      48.171  28.375  22.383  1.00  0.00    -0.744 OA
ENDBRANCH  77  80
ENDBRANCH  49  73
BRANCH  61  84
ATOM     84  C   UNL A   1      45.060  33.704  29.433  1.00  0.00     0.023 A 
ATOM     85  C   UNL A   1      45.829  33.996  30.576  1.00  0.00     0.012 A 
ATOM     86  C   UNL A   1      44.997  34.643  28.383  1.00  0.00     0.148 A 
ATOM     87  C   UNL A   1      46.510  35.208  30.681  1.00  0.00     0.002 A 
ATOM     88  C   UNL A   1      45.719  35.826  28.472  1.00  0.00     0.091 A 
ATOM     89  F   UNL A   1      44.247  34.350  27.310  1.00  0.00    -0.205 F 
ATOM     90  C   UNL A   1      46.467  36.116  29.625  1.00  0.00     0.022 A 
BRANCH  88  91
ATOM     91  S   UNL A   1      45.809  37.010  27.123  1.00  0.00     0.127 S 
ATOM     92  O   UNL A   1      44.415  37.434  27.006  1.00  0.00    -0.237 OA
ATOM     93  O   UNL A   1      46.712  38.025  27.664  1.00  0.00    -0.237 OA
ATOM     94  O   UNL A   1      46.332  36.278  25.977  1.00  0.00    -0.744 OA
ENDBRANCH  88  91
ENDBRANCH  61  84
ENDBRANCH  35  36
ENDBRANCH  28  30
ENDBRANCH  27  28
ENDBRANCH  26  27
ENDBRANCH   1  26
TORSDOF 18
ENDMDL
