MODEL 1
REMARK VINA RESULT:     -11.4      0.000      0.000
REMARK SMILES O=C(CCC(=O)N1CCC[C@@]2(CCC(=O)N(Cc3ccncc3)C2)C1)OCCOC(=O)c1ccc(-c2c3nc(c(-c4cccc(S(=O)(=O)[O-])c4F)c4ccc([nH]4)c(-c4cccc(S(=O)(=O)[O-])c4F)c4nc(c(-c5cccc(S(=O)(=O)[O-])c5F)c5ccc2[nH]5)C=C4)C=C3)cc1
REMARK SMILES IDX 27 1 26 2 2 3 1 4 3 5 4 6 5 7 6 8 7 9 8 10 25 11 9 12 11 13
REMARK SMILES IDX 10 14 12 15 24 16 13 17 16 18 14 19 15 20 17 21 18 22 19 23
REMARK SMILES IDX 23 24 20 25 22 26 21 27 28 28 29 29 30 30 31 31 32 32 33 33
REMARK SMILES IDX 94 34 34 35 93 36 35 37 36 38 37 39 87 40 38 41 92 42 86 43
REMARK SMILES IDX 88 44 39 45 91 46 85 47 84 48 40 50 72 51 52 52 71 53 53 54
REMARK SMILES IDX 56 55 70 56 89 57 54 58 55 59 69 61 90 62 57 63 41 64 42 65
REMARK SMILES IDX 50 66 43 67 45 68 51 69 44 70 46 71 47 72 48 73 49 74 73 75
REMARK SMILES IDX 74 76 82 77 75 78 77 79 83 80 76 81 78 82 79 83 80 84 81 85
REMARK SMILES IDX 58 86 59 87 67 88 60 89 62 90 68 91 61 92 63 93 64 94 65 95
REMARK SMILES IDX 66 96
REMARK H PARENT 88 49 56 60
REMARK Flexibility Score: inf
ROOT
ATOM      1  C   UNL A   1      38.661  21.076  25.945  1.00  0.00     0.274 C 
ENDROOT
BRANCH   1   2
ATOM      2  O   UNL A   1      37.970  21.724  24.848  1.00  0.00    -0.462 OA
BRANCH   2   3
ATOM      3  C   UNL A   1      36.642  21.682  24.594  1.00  0.00     0.306 C 
ATOM      4  O   UNL A   1      36.199  22.234  23.587  1.00  0.00    -0.252 OA
BRANCH   3   5
ATOM      5  C   UNL A   1      35.729  20.894  25.497  1.00  0.00     0.132 C 
BRANCH   5   6
ATOM      6  C   UNL A   1      35.441  19.496  24.961  1.00  0.00     0.112 C 
BRANCH   6   7
ATOM      7  C   UNL A   1      34.001  19.370  24.499  1.00  0.00     0.223 C 
ATOM      8  O   UNL A   1      33.601  18.287  24.069  1.00  0.00    -0.275 OA
BRANCH   7   9
ATOM      9  N   UNL A   1      33.207  20.518  24.456  1.00  0.00    -0.342 N 
ATOM     10  C   UNL A   1      32.305  20.643  23.314  1.00  0.00     0.119 C 
ATOM     11  C   UNL A   1      32.965  21.366  25.628  1.00  0.00     0.128 C 
ATOM     12  C   UNL A   1      31.910  22.072  22.952  1.00  0.00     0.022 C 
ATOM     13  C   UNL A   1      32.437  22.797  25.338  1.00  0.00     0.006 C 
ATOM     14  C   UNL A   1      32.554  23.127  23.835  1.00  0.00     0.012 C 
ATOM     15  C   UNL A   1      30.994  22.850  25.867  1.00  0.00     0.020 C 
ATOM     16  C   UNL A   1      33.246  23.854  26.131  1.00  0.00     0.128 C 
ATOM     17  C   UNL A   1      30.378  24.224  25.778  1.00  0.00     0.101 C 
ATOM     18  N   UNL A   1      32.622  25.184  26.155  1.00  0.00    -0.338 N 
ATOM     19  C   UNL A   1      31.251  25.362  26.249  1.00  0.00     0.222 C 
ATOM     20  O   UNL A   1      30.711  26.431  26.534  1.00  0.00    -0.275 OA
BRANCH  18  21
ATOM     21  C   UNL A   1      33.494  26.358  26.061  1.00  0.00     0.155 C 
BRANCH  21  22
ATOM     22  C   UNL A   1      33.456  27.108  24.754  1.00  0.00    -0.026 A 
ATOM     23  C   UNL A   1      33.653  26.464  23.533  1.00  0.00     0.025 A 
ATOM     24  C   UNL A   1      33.220  28.489  24.741  1.00  0.00     0.025 A 
ATOM     25  C   UNL A   1      33.609  27.222  22.370  1.00  0.00     0.111 A 
ATOM     26  C   UNL A   1      33.211  29.161  23.531  1.00  0.00     0.111 A 
ATOM     27  N   UNL A   1      33.390  28.556  22.339  1.00  0.00    -0.265 NA
ENDBRANCH  21  22
ENDBRANCH  18  21
ENDBRANCH   7   9
ENDBRANCH   6   7
ENDBRANCH   5   6
ENDBRANCH   3   5
ENDBRANCH   2   3
ENDBRANCH   1   2
BRANCH   1  28
ATOM     28  C   UNL A   1      39.440  19.856  25.468  1.00  0.00     0.275 C 
BRANCH  28  29
ATOM     29  O   UNL A   1      40.455  19.561  26.429  1.00  0.00    -0.458 OA
BRANCH  29  30
ATOM     30  C   UNL A   1      41.713  19.875  26.015  1.00  0.00     0.338 C 
ATOM     31  O   UNL A   1      42.408  19.248  25.248  1.00  0.00    -0.246 OA
BRANCH  30  32
ATOM     32  C   UNL A   1      41.983  21.261  26.454  1.00  0.00     0.060 A 
ATOM     33  C   UNL A   1      42.017  22.258  25.471  1.00  0.00     0.016 A 
ATOM     34  C   UNL A   1      42.128  21.583  27.806  1.00  0.00     0.016 A 
ATOM     35  C   UNL A   1      42.231  23.584  25.836  1.00  0.00     0.010 A 
ATOM     36  C   UNL A   1      42.353  22.906  28.170  1.00  0.00     0.010 A 
ATOM     37  C   UNL A   1      42.440  23.900  27.182  1.00  0.00    -0.014 A 
BRANCH  37  38
ATOM     38  C   UNL A   1      42.982  25.220  27.553  1.00  0.00     0.031 A 
ATOM     39  C   UNL A   1      42.039  26.196  28.198  1.00  0.00     0.074 A 
ATOM     40  C   UNL A   1      44.251  25.553  27.266  1.00  0.00     0.049 A 
ATOM     41  N   UNL A   1      42.236  27.442  28.524  1.00  0.00    -0.248 NA
ATOM     42  C   UNL A   1      40.685  25.698  28.504  1.00  0.00     0.031 C 
ATOM     43  C   UNL A   1      45.236  24.674  26.637  1.00  0.00     0.029 A 
ATOM     44  N   UNL A   1      44.913  26.743  27.428  1.00  0.00    -0.354 N 
ATOM     45  C   UNL A   1      41.027  27.887  29.044  1.00  0.00     0.074 A 
ATOM     46  C   UNL A   1      40.099  26.781  28.988  1.00  0.00     0.031 C 
ATOM     47  C   UNL A   1      46.366  25.371  26.422  1.00  0.00     0.029 A 
ATOM     48  C   UNL A   1      46.171  26.747  26.874  1.00  0.00     0.049 A 
ATOM     49  H   UNL A   1      44.524  27.518  27.894  1.00  0.00     0.167 HD
ATOM     50  C   UNL A   1      40.723  29.111  29.531  1.00  0.00     0.034 A 
ATOM     51  C   UNL A   1      47.043  27.765  26.725  1.00  0.00     0.034 A 
ATOM     52  C   UNL A   1      41.657  30.197  29.582  1.00  0.00     0.049 A 
ATOM     53  C   UNL A   1      46.665  29.125  27.255  1.00  0.00     0.074 A 
ATOM     54  C   UNL A   1      41.473  31.464  30.105  1.00  0.00     0.029 A 
ATOM     55  N   UNL A   1      42.945  30.152  29.072  1.00  0.00    -0.354 N 
ATOM     56  N   UNL A   1      45.569  29.497  27.874  1.00  0.00    -0.248 NA
ATOM     57  C   UNL A   1      47.654  30.201  27.091  1.00  0.00     0.031 C 
ATOM     58  C   UNL A   1      42.641  32.197  29.876  1.00  0.00     0.029 A 
ATOM     59  C   UNL A   1      43.563  31.377  29.245  1.00  0.00     0.049 A 
ATOM     60  H   UNL A   1      43.357  29.366  28.649  1.00  0.00     0.167 HD
ATOM     61  C   UNL A   1      45.750  30.836  28.201  1.00  0.00     0.074 A 
ATOM     62  C   UNL A   1      47.072  31.203  27.735  1.00  0.00     0.031 C 
ATOM     63  C   UNL A   1      44.898  31.696  28.814  1.00  0.00     0.034 A 
BRANCH  50  64
ATOM     64  C   UNL A   1      39.330  29.332  30.052  1.00  0.00     0.023 A 
ATOM     65  C   UNL A   1      39.005  28.945  31.367  1.00  0.00     0.012 A 
ATOM     66  C   UNL A   1      38.365  29.980  29.258  1.00  0.00     0.148 A 
ATOM     67  C   UNL A   1      37.730  29.184  31.878  1.00  0.00     0.002 A 
ATOM     68  C   UNL A   1      37.111  30.254  29.790  1.00  0.00     0.091 A 
ATOM     69  F   UNL A   1      38.690  30.312  28.001  1.00  0.00    -0.205 F 
ATOM     70  C   UNL A   1      36.788  29.848  31.096  1.00  0.00     0.022 A 
BRANCH  68  71
ATOM     71  S   UNL A   1      35.853  31.166  28.891  1.00  0.00     0.127 S 
ATOM     72  O   UNL A   1      35.260  30.114  28.066  1.00  0.00    -0.237 OA
ATOM     73  O   UNL A   1      34.996  31.649  29.973  1.00  0.00    -0.237 OA
ATOM     74  O   UNL A   1      36.556  32.206  28.155  1.00  0.00    -0.744 OA
ENDBRANCH  68  71
ENDBRANCH  50  64
BRANCH  51  75
ATOM     75  C   UNL A   1      48.356  27.543  26.054  1.00  0.00     0.023 A 
ATOM     76  C   UNL A   1      49.496  27.255  26.829  1.00  0.00     0.012 A 
ATOM     77  C   UNL A   1      48.485  27.629  24.654  1.00  0.00     0.148 A 
ATOM     78  C   UNL A   1      50.746  27.101  26.227  1.00  0.00     0.002 A 
ATOM     79  C   UNL A   1      49.722  27.416  24.055  1.00  0.00     0.091 A 
ATOM     80  F   UNL A   1      47.394  27.922  23.931  1.00  0.00    -0.205 F 
ATOM     81  C   UNL A   1      50.858  27.172  24.842  1.00  0.00     0.022 A 
BRANCH  79  82
ATOM     82  S   UNL A   1      49.928  27.360  22.272  1.00  0.00     0.127 S 
ATOM     83  O   UNL A   1      49.696  28.753  21.899  1.00  0.00    -0.237 OA
ATOM     84  O   UNL A   1      51.314  26.909  22.141  1.00  0.00    -0.237 OA
ATOM     85  O   UNL A   1      48.940  26.401  21.795  1.00  0.00    -0.744 OA
ENDBRANCH  79  82
ENDBRANCH  51  75
BRANCH  63  86
ATOM     86  C   UNL A   1      45.376  33.105  29.045  1.00  0.00     0.023 A 
ATOM     87  C   UNL A   1      46.125  33.409  30.198  1.00  0.00     0.012 A 
ATOM     88  C   UNL A   1      45.155  34.105  28.078  1.00  0.00     0.148 A 
ATOM     89  C   UNL A   1      46.619  34.696  30.402  1.00  0.00     0.002 A 
ATOM     90  C   UNL A   1      45.696  35.370  28.261  1.00  0.00     0.091 A 
ATOM     91  F   UNL A   1      44.429  33.795  26.993  1.00  0.00    -0.205 F 
ATOM     92  C   UNL A   1      46.416  35.673  29.428  1.00  0.00     0.022 A 
BRANCH  90  93
ATOM     93  S   UNL A   1      45.575  36.658  27.014  1.00  0.00     0.127 S 
ATOM     94  O   UNL A   1      46.215  36.019  25.865  1.00  0.00    -0.237 OA
ATOM     95  O   UNL A   1      44.128  36.831  26.888  1.00  0.00    -0.237 OA
ATOM     96  O   UNL A   1      46.278  37.812  27.557  1.00  0.00    -0.744 OA
ENDBRANCH  90  93
ENDBRANCH  63  86
ENDBRANCH  37  38
ENDBRANCH  30  32
ENDBRANCH  29  30
ENDBRANCH  28  29
ENDBRANCH   1  28
TORSDOF 19
ENDMDL
MODEL 2
REMARK VINA RESULT:     -11.3      1.789      2.172
REMARK SMILES O=C(CCC(=O)N1CCC[C@@]2(CCC(=O)N(Cc3ccncc3)C2)C1)OCCOC(=O)c1ccc(-c2c3nc(c(-c4cccc(S(=O)(=O)[O-])c4F)c4ccc([nH]4)c(-c4cccc(S(=O)(=O)[O-])c4F)c4nc(c(-c5cccc(S(=O)(=O)[O-])c5F)c5ccc2[nH]5)C=C4)C=C3)cc1
REMARK SMILES IDX 27 1 26 2 2 3 1 4 3 5 4 6 5 7 6 8 7 9 8 10 25 11 9 12 11 13
REMARK SMILES IDX 10 14 12 15 24 16 13 17 16 18 14 19 15 20 17 21 18 22 19 23
REMARK SMILES IDX 23 24 20 25 22 26 21 27 28 28 29 29 30 30 31 31 32 32 33 33
REMARK SMILES IDX 94 34 34 35 93 36 35 37 36 38 37 39 87 40 38 41 92 42 86 43
REMARK SMILES IDX 88 44 39 45 91 46 85 47 84 48 40 50 72 51 52 52 71 53 53 54
REMARK SMILES IDX 56 55 70 56 89 57 54 58 55 59 69 61 90 62 57 63 41 64 42 65
REMARK SMILES IDX 50 66 43 67 45 68 51 69 44 70 46 71 47 72 48 73 49 74 73 75
REMARK SMILES IDX 74 76 82 77 75 78 77 79 83 80 76 81 78 82 79 83 80 84 81 85
REMARK SMILES IDX 58 86 59 87 67 88 60 89 62 90 68 91 61 92 63 93 64 94 65 95
REMARK SMILES IDX 66 96
REMARK H PARENT 88 49 56 60
REMARK Flexibility Score: inf
ROOT
ATOM      1  C   UNL A   1      39.150  20.976  26.089  1.00  0.00     0.274 C 
ENDROOT
BRANCH   1   2
ATOM      2  O   UNL A   1      38.233  21.473  25.081  1.00  0.00    -0.462 OA
BRANCH   2   3
ATOM      3  C   UNL A   1      37.156  22.265  25.291  1.00  0.00     0.306 C 
ATOM      4  O   UNL A   1      37.152  23.413  24.847  1.00  0.00    -0.252 OA
BRANCH   3   5
ATOM      5  C   UNL A   1      35.943  21.713  25.993  1.00  0.00     0.132 C 
BRANCH   5   6
ATOM      6  C   UNL A   1      35.227  20.647  25.170  1.00  0.00     0.112 C 
BRANCH   6   7
ATOM      7  C   UNL A   1      33.721  20.755  25.322  1.00  0.00     0.223 C 
ATOM      8  O   UNL A   1      33.114  19.874  25.934  1.00  0.00    -0.275 OA
BRANCH   7   9
ATOM      9  N   UNL A   1      33.051  21.784  24.657  1.00  0.00    -0.342 N 
ATOM     10  C   UNL A   1      32.559  21.480  23.315  1.00  0.00     0.119 C 
ATOM     11  C   UNL A   1      32.506  22.959  25.346  1.00  0.00     0.128 C 
ATOM     12  C   UNL A   1      32.384  22.687  22.399  1.00  0.00     0.022 C 
ATOM     13  C   UNL A   1      32.184  24.186  24.451  1.00  0.00     0.006 C 
ATOM     14  C   UNL A   1      32.782  24.005  23.040  1.00  0.00     0.012 C 
ATOM     15  C   UNL A   1      30.653  24.340  24.452  1.00  0.00     0.020 C 
ATOM     16  C   UNL A   1      32.766  25.484  25.064  1.00  0.00     0.128 C 
ATOM     17  C   UNL A   1      30.180  25.576  23.727  1.00  0.00     0.101 C 
ATOM     18  N   UNL A   1      32.248  26.714  24.451  1.00  0.00    -0.338 N 
ATOM     19  C   UNL A   1      30.929  26.847  24.046  1.00  0.00     0.222 C 
ATOM     20  O   UNL A   1      30.393  27.922  23.779  1.00  0.00    -0.275 OA
BRANCH  18  21
ATOM     21  C   UNL A   1      33.174  27.833  24.255  1.00  0.00     0.155 C 
BRANCH  21  22
ATOM     22  C   UNL A   1      33.366  28.749  25.437  1.00  0.00    -0.026 A 
ATOM     23  C   UNL A   1      34.414  28.573  26.340  1.00  0.00     0.025 A 
ATOM     24  C   UNL A   1      32.478  29.811  25.656  1.00  0.00     0.025 A 
ATOM     25  C   UNL A   1      34.522  29.453  27.408  1.00  0.00     0.111 A 
ATOM     26  C   UNL A   1      32.660  30.626  26.760  1.00  0.00     0.111 A 
ATOM     27  N   UNL A   1      33.671  30.479  27.639  1.00  0.00    -0.265 NA
ENDBRANCH  21  22
ENDBRANCH  18  21
ENDBRANCH   7   9
ENDBRANCH   6   7
ENDBRANCH   5   6
ENDBRANCH   3   5
ENDBRANCH   2   3
ENDBRANCH   1   2
BRANCH   1  28
ATOM     28  C   UNL A   1      39.768  19.648  25.671  1.00  0.00     0.275 C 
BRANCH  28  29
ATOM     29  O   UNL A   1      40.881  19.377  26.525  1.00  0.00    -0.458 OA
BRANCH  29  30
ATOM     30  C   UNL A   1      42.088  19.664  25.965  1.00  0.00     0.338 C 
ATOM     31  O   UNL A   1      42.675  19.021  25.124  1.00  0.00    -0.246 OA
BRANCH  30  32
ATOM     32  C   UNL A   1      42.437  21.044  26.363  1.00  0.00     0.060 A 
ATOM     33  C   UNL A   1      42.630  21.985  25.345  1.00  0.00     0.016 A 
ATOM     34  C   UNL A   1      42.502  21.421  27.708  1.00  0.00     0.016 A 
ATOM     35  C   UNL A   1      42.924  23.306  25.668  1.00  0.00     0.010 A 
ATOM     36  C   UNL A   1      42.807  22.739  28.031  1.00  0.00     0.010 A 
ATOM     37  C   UNL A   1      43.053  23.672  27.011  1.00  0.00    -0.014 A 
BRANCH  37  38
ATOM     38  C   UNL A   1      43.672  24.962  27.368  1.00  0.00     0.031 A 
ATOM     39  C   UNL A   1      42.767  26.041  27.888  1.00  0.00     0.074 A 
ATOM     40  C   UNL A   1      44.984  25.178  27.172  1.00  0.00     0.049 A 
ATOM     41  N   UNL A   1      43.040  27.282  28.175  1.00  0.00    -0.248 NA
ATOM     42  C   UNL A   1      41.356  25.668  28.103  1.00  0.00     0.031 C 
ATOM     43  C   UNL A   1      45.938  24.193  26.666  1.00  0.00     0.029 A 
ATOM     44  N   UNL A   1      45.728  26.318  27.335  1.00  0.00    -0.354 N 
ATOM     45  C   UNL A   1      41.835  27.847  28.573  1.00  0.00     0.074 A 
ATOM     46  C   UNL A   1      40.826  26.818  28.488  1.00  0.00     0.031 C 
ATOM     47  C   UNL A   1      47.136  24.786  26.515  1.00  0.00     0.029 A 
ATOM     48  C   UNL A   1      47.021  26.194  26.888  1.00  0.00     0.049 A 
ATOM     49  H   UNL A   1      45.369  27.144  27.734  1.00  0.00     0.167 HD
ATOM     50  C   UNL A   1      41.596  29.115  28.978  1.00  0.00     0.034 A 
ATOM     51  C   UNL A   1      47.984  27.130  26.767  1.00  0.00     0.034 A 
ATOM     52  C   UNL A   1      42.611  30.125  29.059  1.00  0.00     0.049 A 
ATOM     53  C   UNL A   1      47.680  28.541  27.204  1.00  0.00     0.074 A 
ATOM     54  C   UNL A   1      42.492  31.427  29.509  1.00  0.00     0.029 A 
ATOM     55  N   UNL A   1      43.927  29.952  28.660  1.00  0.00    -0.354 N 
ATOM     56  N   UNL A   1      46.574  29.030  27.714  1.00  0.00    -0.248 NA
ATOM     57  C   UNL A   1      48.765  29.526  27.076  1.00  0.00     0.031 C 
ATOM     58  C   UNL A   1      43.732  32.053  29.345  1.00  0.00     0.029 A 
ATOM     59  C   UNL A   1      44.629  31.130  28.829  1.00  0.00     0.049 A 
ATOM     60  H   UNL A   1      44.304  29.115  28.307  1.00  0.00     0.167 HD
ATOM     61  C   UNL A   1      46.839  30.366  27.995  1.00  0.00     0.074 A 
ATOM     62  C   UNL A   1      48.219  30.602  27.624  1.00  0.00     0.031 C 
ATOM     63  C   UNL A   1      46.016  31.320  28.496  1.00  0.00     0.034 A 
BRANCH  50  64
ATOM     64  C   UNL A   1      40.190  29.472  29.372  1.00  0.00     0.023 A 
ATOM     65  C   UNL A   1      39.281  29.916  28.391  1.00  0.00     0.012 A 
ATOM     66  C   UNL A   1      39.756  29.309  30.700  1.00  0.00     0.148 A 
ATOM     67  C   UNL A   1      37.961  30.210  28.733  1.00  0.00     0.002 A 
ATOM     68  C   UNL A   1      38.429  29.562  31.024  1.00  0.00     0.091 A 
ATOM     69  F   UNL A   1      40.648  28.913  31.620  1.00  0.00    -0.205 F 
ATOM     70  C   UNL A   1      37.533  30.022  30.044  1.00  0.00     0.022 A 
BRANCH  68  71
ATOM     71  S   UNL A   1      37.760  29.283  32.667  1.00  0.00     0.127 S 
ATOM     72  O   UNL A   1      38.670  30.074  33.494  1.00  0.00    -0.237 OA
ATOM     73  O   UNL A   1      36.411  29.835  32.543  1.00  0.00    -0.237 OA
ATOM     74  O   UNL A   1      37.816  27.845  32.888  1.00  0.00    -0.744 OA
ENDBRANCH  68  71
ENDBRANCH  50  64
BRANCH  51  75
ATOM     75  C   UNL A   1      49.323  26.772  26.217  1.00  0.00     0.023 A 
ATOM     76  C   UNL A   1      50.222  26.023  27.002  1.00  0.00     0.012 A 
ATOM     77  C   UNL A   1      49.716  27.179  24.928  1.00  0.00     0.148 A 
ATOM     78  C   UNL A   1      51.501  25.724  26.530  1.00  0.00     0.002 A 
ATOM     79  C   UNL A   1      50.971  26.828  24.441  1.00  0.00     0.091 A 
ATOM     80  F   UNL A   1      48.857  27.907  24.200  1.00  0.00    -0.205 F 
ATOM     81  C   UNL A   1      51.872  26.118  25.248  1.00  0.00     0.022 A 
BRANCH  79  82
ATOM     82  S   UNL A   1      51.479  27.182  22.754  1.00  0.00     0.127 S 
ATOM     83  O   UNL A   1      52.735  26.442  22.658  1.00  0.00    -0.237 OA
ATOM     84  O   UNL A   1      50.371  26.622  21.980  1.00  0.00    -0.237 OA
ATOM     85  O   UNL A   1      51.588  28.633  22.677  1.00  0.00    -0.744 OA
ENDBRANCH  79  82
ENDBRANCH  51  75
BRANCH  63  86
ATOM     86  C   UNL A   1      46.589  32.697  28.704  1.00  0.00     0.023 A 
ATOM     87  C   UNL A   1      47.145  33.042  29.952  1.00  0.00     0.012 A 
ATOM     88  C   UNL A   1      46.655  33.615  27.638  1.00  0.00     0.148 A 
ATOM     89  C   UNL A   1      47.726  34.294  30.145  1.00  0.00     0.002 A 
ATOM     90  C   UNL A   1      47.284  34.839  27.822  1.00  0.00     0.091 A 
ATOM     91  F   UNL A   1      46.109  33.269  26.463  1.00  0.00    -0.205 F 
ATOM     92  C   UNL A   1      47.808  35.186  29.077  1.00  0.00     0.022 A 
BRANCH  90  93
ATOM     93  S   UNL A   1      47.528  36.007  26.479  1.00  0.00     0.127 S 
ATOM     94  O   UNL A   1      48.266  35.197  25.511  1.00  0.00    -0.237 OA
ATOM     95  O   UNL A   1      46.153  36.321  26.089  1.00  0.00    -0.237 OA
ATOM     96  O   UNL A   1      48.266  37.126  27.047  1.00  0.00    -0.744 OA
ENDBRANCH  90  93
ENDBRANCH  63  86
ENDBRANCH  37  38
ENDBRANCH  30  32
ENDBRANCH  29  30
ENDBRANCH  28  29
ENDBRANCH   1  28
TORSDOF 19
ENDMDL
MODEL 3
REMARK VINA RESULT:     -11.0      6.214     10.657
REMARK SMILES O=C(CCC(=O)N1CCC[C@@]2(CCC(=O)N(Cc3ccncc3)C2)C1)OCCOC(=O)c1ccc(-c2c3nc(c(-c4cccc(S(=O)(=O)[O-])c4F)c4ccc([nH]4)c(-c4cccc(S(=O)(=O)[O-])c4F)c4nc(c(-c5cccc(S(=O)(=O)[O-])c5F)c5ccc2[nH]5)C=C4)C=C3)cc1
REMARK SMILES IDX 27 1 26 2 2 3 1 4 3 5 4 6 5 7 6 8 7 9 8 10 25 11 9 12 11 13
REMARK SMILES IDX 10 14 12 15 24 16 13 17 16 18 14 19 15 20 17 21 18 22 19 23
REMARK SMILES IDX 23 24 20 25 22 26 21 27 28 28 29 29 30 30 31 31 32 32 33 33
REMARK SMILES IDX 94 34 34 35 93 36 35 37 36 38 37 39 87 40 38 41 92 42 86 43
REMARK SMILES IDX 88 44 39 45 91 46 85 47 84 48 40 50 72 51 52 52 71 53 53 54
REMARK SMILES IDX 56 55 70 56 89 57 54 58 55 59 69 61 90 62 57 63 41 64 42 65
REMARK SMILES IDX 50 66 43 67 45 68 51 69 44 70 46 71 47 72 48 73 49 74 73 75
REMARK SMILES IDX 74 76 82 77 75 78 77 79 83 80 76 81 78 82 79 83 80 84 81 85
REMARK SMILES IDX 58 86 59 87 67 88 60 89 62 90 68 91 61 92 63 93 64 94 65 95
REMARK SMILES IDX 66 96
REMARK H PARENT 88 49 56 60
REMARK Flexibility Score: inf
ROOT
ATOM      1  C   UNL A   1      33.693  35.719  28.480  1.00  0.00     0.274 C 
ENDROOT
BRANCH   1   2
ATOM      2  O   UNL A   1      33.668  34.277  28.335  1.00  0.00    -0.462 OA
BRANCH   2   3
ATOM      3  C   UNL A   1      34.730  33.442  28.407  1.00  0.00     0.306 C 
ATOM      4  O   UNL A   1      35.869  33.903  28.343  1.00  0.00    -0.252 OA
BRANCH   3   5
ATOM      5  C   UNL A   1      34.514  31.970  28.645  1.00  0.00     0.132 C 
BRANCH   5   6
ATOM      6  C   UNL A   1      33.568  31.346  27.624  1.00  0.00     0.112 C 
BRANCH   6   7
ATOM      7  C   UNL A   1      33.990  29.930  27.278  1.00  0.00     0.223 C 
ATOM      8  O   UNL A   1      34.861  29.380  27.955  1.00  0.00    -0.275 OA
BRANCH   7   9
ATOM      9  N   UNL A   1      33.469  29.337  26.126  1.00  0.00    -0.342 N 
ATOM     10  C   UNL A   1      32.247  29.925  25.586  1.00  0.00     0.119 C 
ATOM     11  C   UNL A   1      34.255  28.451  25.260  1.00  0.00     0.128 C 
ATOM     12  C   UNL A   1      31.386  28.981  24.752  1.00  0.00     0.022 C 
ATOM     13  C   UNL A   1      33.443  27.550  24.290  1.00  0.00     0.006 C 
ATOM     14  C   UNL A   1      31.943  27.572  24.651  1.00  0.00     0.012 C 
ATOM     15  C   UNL A   1      33.740  28.056  22.868  1.00  0.00     0.020 C 
ATOM     16  C   UNL A   1      33.938  26.083  24.357  1.00  0.00     0.128 C 
ATOM     17  C   UNL A   1      33.123  27.198  21.791  1.00  0.00     0.101 C 
ATOM     18  N   UNL A   1      33.441  25.239  23.262  1.00  0.00    -0.338 N 
ATOM     19  C   UNL A   1      33.298  25.708  21.966  1.00  0.00     0.222 C 
ATOM     20  O   UNL A   1      33.143  24.985  20.982  1.00  0.00    -0.275 OA
BRANCH  18  21
ATOM     21  C   UNL A   1      33.075  23.854  23.568  1.00  0.00     0.155 C 
BRANCH  21  22
ATOM     22  C   UNL A   1      32.487  23.611  24.935  1.00  0.00    -0.026 A 
ATOM     23  C   UNL A   1      31.139  23.845  25.206  1.00  0.00     0.025 A 
ATOM     24  C   UNL A   1      33.297  23.141  25.977  1.00  0.00     0.025 A 
ATOM     25  C   UNL A   1      30.671  23.604  26.490  1.00  0.00     0.111 A 
ATOM     26  C   UNL A   1      32.741  22.947  27.229  1.00  0.00     0.111 A 
ATOM     27  N   UNL A   1      31.439  23.157  27.509  1.00  0.00    -0.265 NA
ENDBRANCH  21  22
ENDBRANCH  18  21
ENDBRANCH   7   9
ENDBRANCH   6   7
ENDBRANCH   5   6
ENDBRANCH   3   5
ENDBRANCH   2   3
ENDBRANCH   1   2
BRANCH   1  28
ATOM     28  C   UNL A   1      32.536  36.211  29.342  1.00  0.00     0.275 C 
BRANCH  28  29
ATOM     29  O   UNL A   1      33.055  36.617  30.610  1.00  0.00    -0.458 OA
BRANCH  29  30
ATOM     30  C   UNL A   1      32.779  35.747  31.620  1.00  0.00     0.338 C 
ATOM     31  O   UNL A   1      31.703  35.541  32.134  1.00  0.00    -0.246 OA
BRANCH  30  32
ATOM     32  C   UNL A   1      33.974  34.897  31.803  1.00  0.00     0.060 A 
ATOM     33  C   UNL A   1      33.771  33.557  32.153  1.00  0.00     0.016 A 
ATOM     34  C   UNL A   1      35.262  35.386  31.565  1.00  0.00     0.016 A 
ATOM     35  C   UNL A   1      34.861  32.705  32.301  1.00  0.00     0.010 A 
ATOM     36  C   UNL A   1      36.353  34.539  31.723  1.00  0.00     0.010 A 
ATOM     37  C   UNL A   1      36.154  33.209  32.126  1.00  0.00    -0.014 A 
BRANCH  37  38
ATOM     38  C   UNL A   1      37.317  32.428  32.586  1.00  0.00     0.031 A 
ATOM     39  C   UNL A   1      37.861  32.740  33.951  1.00  0.00     0.074 A 
ATOM     40  C   UNL A   1      37.902  31.521  31.786  1.00  0.00     0.049 A 
ATOM     41  N   UNL A   1      38.924  32.274  34.543  1.00  0.00    -0.248 NA
ATOM     42  C   UNL A   1      37.105  33.722  34.751  1.00  0.00     0.031 C 
ATOM     43  C   UNL A   1      37.448  31.156  30.444  1.00  0.00     0.029 A 
ATOM     44  N   UNL A   1      39.035  30.773  31.975  1.00  0.00    -0.354 N 
ATOM     45  C   UNL A   1      38.984  32.925  35.768  1.00  0.00     0.074 A 
ATOM     46  C   UNL A   1      37.855  33.823  35.837  1.00  0.00     0.031 C 
ATOM     47  C   UNL A   1      38.324  30.286  29.911  1.00  0.00     0.029 A 
ATOM     48  C   UNL A   1      39.409  30.057  30.863  1.00  0.00     0.049 A 
ATOM     49  H   UNL A   1      39.533  30.752  32.825  1.00  0.00     0.167 HD
ATOM     50  C   UNL A   1      39.901  32.781  36.751  1.00  0.00     0.034 A 
ATOM     51  C   UNL A   1      40.523  29.331  30.640  1.00  0.00     0.034 A 
ATOM     52  C   UNL A   1      41.016  31.883  36.668  1.00  0.00     0.049 A 
ATOM     53  C   UNL A   1      41.540  29.209  31.747  1.00  0.00     0.074 A 
ATOM     54  C   UNL A   1      41.976  31.615  37.626  1.00  0.00     0.029 A 
ATOM     55  N   UNL A   1      41.333  31.123  35.553  1.00  0.00    -0.354 N 
ATOM     56  N   UNL A   1      41.513  29.718  32.956  1.00  0.00    -0.248 NA
ATOM     57  C   UNL A   1      42.729  28.389  31.469  1.00  0.00     0.031 C 
ATOM     58  C   UNL A   1      42.896  30.718  37.074  1.00  0.00     0.029 A 
ATOM     59  C   UNL A   1      42.489  30.402  35.787  1.00  0.00     0.049 A 
ATOM     60  H   UNL A   1      40.813  31.101  34.718  1.00  0.00     0.167 HD
ATOM     61  C   UNL A   1      42.661  29.256  33.591  1.00  0.00     0.074 A 
ATOM     62  C   UNL A   1      43.346  28.404  32.642  1.00  0.00     0.031 C 
ATOM     63  C   UNL A   1      43.121  29.523  34.839  1.00  0.00     0.034 A 
BRANCH  50  64
ATOM     64  C   UNL A   1      39.730  33.603  37.997  1.00  0.00     0.023 A 
ATOM     65  C   UNL A   1      40.389  34.843  38.114  1.00  0.00     0.012 A 
ATOM     66  C   UNL A   1      38.867  33.176  39.024  1.00  0.00     0.148 A 
ATOM     67  C   UNL A   1      40.206  35.637  39.245  1.00  0.00     0.002 A 
ATOM     68  C   UNL A   1      38.655  33.992  40.127  1.00  0.00     0.091 A 
ATOM     69  F   UNL A   1      38.274  31.979  38.902  1.00  0.00    -0.205 F 
ATOM     70  C   UNL A   1      39.331  35.219  40.244  1.00  0.00     0.022 A 
BRANCH  68  71
ATOM     71  S   UNL A   1      37.496  33.578  41.433  1.00  0.00     0.127 S 
ATOM     72  O   UNL A   1      37.293  34.877  42.071  1.00  0.00    -0.237 OA
ATOM     73  O   UNL A   1      36.346  33.085  40.674  1.00  0.00    -0.237 OA
ATOM     74  O   UNL A   1      38.158  32.579  42.260  1.00  0.00    -0.744 OA
ENDBRANCH  68  71
ENDBRANCH  50  64
BRANCH  51  75
ATOM     75  C   UNL A   1      40.737  28.659  29.326  1.00  0.00     0.023 A 
ATOM     76  C   UNL A   1      41.383  29.352  28.284  1.00  0.00     0.012 A 
ATOM     77  C   UNL A   1      40.294  27.341  29.099  1.00  0.00     0.148 A 
ATOM     78  C   UNL A   1      41.544  28.763  27.029  1.00  0.00     0.002 A 
ATOM     79  C   UNL A   1      40.510  26.739  27.864  1.00  0.00     0.091 A 
ATOM     80  F   UNL A   1      39.665  26.700  30.095  1.00  0.00    -0.205 F 
ATOM     81  C   UNL A   1      41.116  27.455  26.821  1.00  0.00     0.022 A 
BRANCH  79  82
ATOM     82  S   UNL A   1      40.108  25.016  27.554  1.00  0.00     0.127 S 
ATOM     83  O   UNL A   1      38.885  24.847  28.334  1.00  0.00    -0.237 OA
ATOM     84  O   UNL A   1      39.921  25.005  26.103  1.00  0.00    -0.237 OA
ATOM     85  O   UNL A   1      41.265  24.258  28.012  1.00  0.00    -0.744 OA
ENDBRANCH  79  82
ENDBRANCH  51  75
BRANCH  63  86
ATOM     86  C   UNL A   1      44.407  28.866  35.264  1.00  0.00     0.023 A 
ATOM     87  C   UNL A   1      45.632  29.533  35.066  1.00  0.00     0.012 A 
ATOM     88  C   UNL A   1      44.393  27.628  35.935  1.00  0.00     0.148 A 
ATOM     89  C   UNL A   1      46.827  28.962  35.500  1.00  0.00     0.002 A 
ATOM     90  C   UNL A   1      45.580  27.091  36.413  1.00  0.00     0.091 A 
ATOM     91  F   UNL A   1      43.217  27.005  36.101  1.00  0.00    -0.205 F 
ATOM     92  C   UNL A   1      46.800  27.749  36.185  1.00  0.00     0.022 A 
BRANCH  90  93
ATOM     93  S   UNL A   1      45.630  25.587  37.395  1.00  0.00     0.127 S 
ATOM     94  O   UNL A   1      47.063  25.295  37.417  1.00  0.00    -0.237 OA
ATOM     95  O   UNL A   1      45.079  26.035  38.674  1.00  0.00    -0.237 OA
ATOM     96  O   UNL A   1      44.807  24.616  36.687  1.00  0.00    -0.744 OA
ENDBRANCH  90  93
ENDBRANCH  63  86
ENDBRANCH  37  38
ENDBRANCH  30  32
ENDBRANCH  29  30
ENDBRANCH  28  29
ENDBRANCH   1  28
TORSDOF 19
ENDMDL
