MODEL 1
REMARK VINA RESULT:     -12.4      0.000      0.000
REMARK SMILES C[C@H]1CCc2sc3ncn4nc(/C=C\C(=O)OCCOC(=O)c5ccc(-c6c7nc(c(-c8cccc(S(=O)(=O)[O-])c8F)c8ccc([nH]8)c(-c8cccc(S(=O)(=O)[O-])c8F)c8nc(c(-c9cccc(S(=O)(=O)[O-])c9F)c9ccc6[nH]9)C=C8)C=C7)cc5)nc4c3c2C1
REMARK SMILES IDX 19 1 18 2 17 3 15 4 16 5 14 6 13 7 12 8 1 9 2 10 3 11 90 12
REMARK SMILES IDX 4 13 89 14 5 15 88 16 6 17 7 18 87 19 8 20 10 21 86 22 9 23
REMARK SMILES IDX 11 24 20 25 21 26 22 27 23 28 24 29 85 30 25 31 84 32 26 33
REMARK SMILES IDX 27 34 28 35 78 36 29 37 83 38 77 39 79 40 30 41 82 42 76 43
REMARK SMILES IDX 75 44 31 46 63 47 43 48 62 49 44 50 47 51 61 52 80 53 45 54
REMARK SMILES IDX 46 55 60 57 81 58 48 59 32 60 33 61 41 62 34 63 36 64 42 65
REMARK SMILES IDX 35 66 37 67 38 68 39 69 40 70 64 71 65 72 73 73 66 74 68 75
REMARK SMILES IDX 74 76 67 77 69 78 70 79 71 80 72 81 49 82 50 83 58 84 51 85
REMARK SMILES IDX 53 86 59 87 52 88 54 89 55 90 56 91 57 92
REMARK H PARENT 79 45 47 56
REMARK Flexibility Score: inf
ROOT
ATOM      1  C   UNL A   1      37.871  20.754  25.071  1.00  0.00     0.275 C 
ENDROOT
BRANCH   1   2
ATOM      2  C   UNL A   1      36.913  21.921  25.079  1.00  0.00     0.275 C 
BRANCH   2   3
ATOM      3  O   UNL A   1      35.992  21.713  26.137  1.00  0.00    -0.459 OA
BRANCH   3   4
ATOM      4  C   UNL A   1      34.845  21.104  25.846  1.00  0.00     0.331 C 
ATOM      5  O   UNL A   1      34.546  20.517  24.818  1.00  0.00    -0.247 OA
BRANCH   4   6
ATOM      6  C   UNL A   1      33.971  21.230  27.013  1.00  0.00     0.097 C 
ATOM      7  C   UNL A   1      32.978  22.129  27.137  1.00  0.00     0.058 C 
BRANCH   7   8
ATOM      8  C   UNL A   1      32.493  23.149  26.246  1.00  0.00     0.175 A 
ATOM      9  C   UNL A   1      34.345  29.931  26.700  1.00  0.00     0.008 C 
ATOM     10  C   UNL A   1      33.013  29.497  27.312  1.00  0.00    -0.009 C 
ATOM     11  C   UNL A   1      31.833  30.391  26.904  1.00  0.00     0.009 C 
ATOM     12  C   UNL A   1      32.734  28.024  26.979  1.00  0.00     0.041 C 
ATOM     13  C   UNL A   1      31.432  30.230  25.428  1.00  0.00     0.047 C 
ATOM     14  C   UNL A   1      31.990  27.753  25.723  1.00  0.00    -0.020 A 
ATOM     15  C   UNL A   1      31.378  28.782  25.035  1.00  0.00     0.011 A 
ATOM     16  C   UNL A   1      31.700  26.490  25.124  1.00  0.00     0.060 A 
ATOM     17  S   UNL A   1      30.537  28.237  23.658  1.00  0.00    -0.120 S 
ATOM     18  C   UNL A   1      30.906  26.597  23.988  1.00  0.00     0.129 A 
ATOM     19  C   UNL A   1      32.020  25.076  25.481  1.00  0.00     0.168 A 
ATOM     20  N   UNL A   1      30.418  25.585  23.193  1.00  0.00    -0.225 NA
ATOM     21  N   UNL A   1      31.470  24.102  24.703  1.00  0.00    -0.201 N 
ATOM     22  N   UNL A   1      32.733  24.506  26.423  1.00  0.00    -0.207 NA
ATOM     23  C   UNL A   1      30.697  24.365  23.579  1.00  0.00     0.227 A 
ATOM     24  N   UNL A   1      31.760  22.869  25.152  1.00  0.00    -0.145 NA
ENDBRANCH   7   8
ENDBRANCH   4   6
ENDBRANCH   3   4
ENDBRANCH   2   3
ENDBRANCH   1   2
BRANCH   1  25
ATOM     25  O   UNL A   1      39.041  21.229  25.685  1.00  0.00    -0.458 OA
BRANCH  25  26
ATOM     26  C   UNL A   1      40.042  20.336  25.790  1.00  0.00     0.338 C 
ATOM     27  O   UNL A   1      40.035  19.137  25.573  1.00  0.00    -0.246 OA
BRANCH  26  28
ATOM     28  C   UNL A   1      41.133  21.057  26.422  1.00  0.00     0.060 A 
ATOM     29  C   UNL A   1      41.217  20.886  27.799  1.00  0.00     0.016 A 
ATOM     30  C   UNL A   1      41.657  22.167  25.732  1.00  0.00     0.016 A 
ATOM     31  C   UNL A   1      41.545  21.994  28.523  1.00  0.00     0.010 A 
ATOM     32  C   UNL A   1      41.955  23.275  26.454  1.00  0.00     0.010 A 
ATOM     33  C   UNL A   1      41.795  23.186  27.826  1.00  0.00    -0.014 A 
BRANCH  33  34
ATOM     34  C   UNL A   1      42.073  24.350  28.602  1.00  0.00     0.031 A 
ATOM     35  C   UNL A   1      41.029  25.358  28.374  1.00  0.00     0.074 A 
ATOM     36  C   UNL A   1      43.112  24.434  29.442  1.00  0.00     0.049 A 
ATOM     37  N   UNL A   1      41.100  26.336  27.538  1.00  0.00    -0.248 NA
ATOM     38  C   UNL A   1      39.674  25.064  28.861  1.00  0.00     0.031 C 
ATOM     39  C   UNL A   1      44.000  23.389  29.948  1.00  0.00     0.029 A 
ATOM     40  N   UNL A   1      43.501  25.531  30.120  1.00  0.00    -0.354 N 
ATOM     41  C   UNL A   1      39.860  26.948  27.617  1.00  0.00     0.074 A 
ATOM     42  C   UNL A   1      38.969  25.979  28.194  1.00  0.00     0.031 C 
ATOM     43  C   UNL A   1      44.647  23.865  31.040  1.00  0.00     0.029 A 
ATOM     44  C   UNL A   1      44.325  25.274  31.199  1.00  0.00     0.049 A 
ATOM     45  H   UNL A   1      43.222  26.440  29.868  1.00  0.00     0.167 HD
ATOM     46  C   UNL A   1      39.764  28.298  27.514  1.00  0.00     0.034 A 
ATOM     47  C   UNL A   1      44.599  26.172  32.176  1.00  0.00     0.034 A 
ATOM     48  C   UNL A   1      40.969  28.865  26.954  1.00  0.00     0.049 A 
ATOM     49  C   UNL A   1      44.307  27.522  31.615  1.00  0.00     0.074 A 
ATOM     50  C   UNL A   1      41.660  28.688  25.771  1.00  0.00     0.029 A 
ATOM     51  N   UNL A   1      41.867  29.409  27.844  1.00  0.00    -0.354 N 
ATOM     52  N   UNL A   1      44.983  28.049  30.630  1.00  0.00    -0.248 NA
ATOM     53  C   UNL A   1      42.976  28.076  31.822  1.00  0.00     0.031 C 
ATOM     54  C   UNL A   1      43.038  28.703  26.143  1.00  0.00     0.029 A 
ATOM     55  C   UNL A   1      43.118  28.957  27.515  1.00  0.00     0.049 A 
ATOM     56  H   UNL A   1      41.648  30.017  28.588  1.00  0.00     0.167 HD
ATOM     57  C   UNL A   1      44.020  28.651  29.827  1.00  0.00     0.074 A 
ATOM     58  C   UNL A   1      42.822  28.726  30.663  1.00  0.00     0.031 C 
ATOM     59  C   UNL A   1      44.188  28.755  28.474  1.00  0.00     0.034 A 
BRANCH  46  60
ATOM     60  C   UNL A   1      38.772  29.123  28.291  1.00  0.00     0.023 A 
ATOM     61  C   UNL A   1      38.033  30.077  27.563  1.00  0.00     0.012 A 
ATOM     62  C   UNL A   1      38.708  29.201  29.703  1.00  0.00     0.148 A 
ATOM     63  C   UNL A   1      37.310  31.084  28.208  1.00  0.00     0.002 A 
ATOM     64  C   UNL A   1      37.917  30.146  30.338  1.00  0.00     0.091 A 
ATOM     65  F   UNL A   1      39.519  28.462  30.463  1.00  0.00    -0.205 F 
ATOM     66  C   UNL A   1      37.244  31.113  29.596  1.00  0.00     0.022 A 
BRANCH  64  67
ATOM     67  S   UNL A   1      37.760  30.179  32.128  1.00  0.00     0.127 S 
ATOM     68  O   UNL A   1      36.824  31.283  32.319  1.00  0.00    -0.237 OA
ATOM     69  O   UNL A   1      37.218  28.848  32.403  1.00  0.00    -0.237 OA
ATOM     70  O   UNL A   1      39.111  30.386  32.638  1.00  0.00    -0.744 OA
ENDBRANCH  64  67
ENDBRANCH  46  60
BRANCH  47  71
ATOM     71  C   UNL A   1      44.736  25.950  33.633  1.00  0.00     0.023 A 
ATOM     72  C   UNL A   1      46.002  26.112  34.229  1.00  0.00     0.012 A 
ATOM     73  C   UNL A   1      43.600  25.897  34.472  1.00  0.00     0.148 A 
ATOM     74  C   UNL A   1      46.130  26.268  35.614  1.00  0.00     0.002 A 
ATOM     75  C   UNL A   1      43.734  26.056  35.848  1.00  0.00     0.091 A 
ATOM     76  F   UNL A   1      42.387  25.787  33.915  1.00  0.00    -0.205 F 
ATOM     77  C   UNL A   1      44.997  26.254  36.421  1.00  0.00     0.022 A 
BRANCH  75  78
ATOM     78  S   UNL A   1      42.316  26.105  36.955  1.00  0.00     0.127 S 
ATOM     79  O   UNL A   1      42.951  26.387  38.244  1.00  0.00    -0.237 OA
ATOM     80  O   UNL A   1      41.540  27.210  36.400  1.00  0.00    -0.237 OA
ATOM     81  O   UNL A   1      41.694  24.790  36.868  1.00  0.00    -0.744 OA
ENDBRANCH  75  78
ENDBRANCH  47  71
BRANCH  59  82
ATOM     82  C   UNL A   1      45.538  28.397  27.895  1.00  0.00     0.023 A 
ATOM     83  C   UNL A   1      46.634  29.286  27.918  1.00  0.00     0.012 A 
ATOM     84  C   UNL A   1      45.756  27.068  27.493  1.00  0.00     0.148 A 
ATOM     85  C   UNL A   1      47.912  28.863  27.535  1.00  0.00     0.002 A 
ATOM     86  C   UNL A   1      47.035  26.639  27.161  1.00  0.00     0.091 A 
ATOM     87  F   UNL A   1      44.707  26.234  27.475  1.00  0.00    -0.205 F 
ATOM     88  C   UNL A   1      48.115  27.535  27.171  1.00  0.00     0.022 A 
BRANCH  86  89
ATOM     89  S   UNL A   1      47.381  24.910  26.825  1.00  0.00     0.127 S 
ATOM     90  O   UNL A   1      46.229  24.245  27.429  1.00  0.00    -0.237 OA
ATOM     91  O   UNL A   1      47.412  24.874  25.361  1.00  0.00    -0.237 OA
ATOM     92  O   UNL A   1      48.668  24.631  27.451  1.00  0.00    -0.744 OA
ENDBRANCH  86  89
ENDBRANCH  59  82
ENDBRANCH  33  34
ENDBRANCH  26  28
ENDBRANCH  25  26
ENDBRANCH   1  25
TORSDOF 15
ENDMDL
MODEL 2
REMARK VINA RESULT:     -12.3      4.637      9.941
REMARK SMILES C[C@H]1CCc2sc3ncn4nc(/C=C\C(=O)OCCOC(=O)c5ccc(-c6c7nc(c(-c8cccc(S(=O)(=O)[O-])c8F)c8ccc([nH]8)c(-c8cccc(S(=O)(=O)[O-])c8F)c8nc(c(-c9cccc(S(=O)(=O)[O-])c9F)c9ccc6[nH]9)C=C8)C=C7)cc5)nc4c3c2C1
REMARK SMILES IDX 19 1 18 2 17 3 15 4 16 5 14 6 13 7 12 8 1 9 2 10 3 11 90 12
REMARK SMILES IDX 4 13 89 14 5 15 88 16 6 17 7 18 87 19 8 20 10 21 86 22 9 23
REMARK SMILES IDX 11 24 20 25 21 26 22 27 23 28 24 29 85 30 25 31 84 32 26 33
REMARK SMILES IDX 27 34 28 35 78 36 29 37 83 38 77 39 79 40 30 41 82 42 76 43
REMARK SMILES IDX 75 44 31 46 63 47 43 48 62 49 44 50 47 51 61 52 80 53 45 54
REMARK SMILES IDX 46 55 60 57 81 58 48 59 32 60 33 61 41 62 34 63 36 64 42 65
REMARK SMILES IDX 35 66 37 67 38 68 39 69 40 70 64 71 65 72 73 73 66 74 68 75
REMARK SMILES IDX 74 76 67 77 69 78 70 79 71 80 72 81 49 82 50 83 58 84 51 85
REMARK SMILES IDX 53 86 59 87 52 88 54 89 55 90 56 91 57 92
REMARK H PARENT 79 45 47 56
REMARK Flexibility Score: inf
ROOT
ATOM      1  C   UNL A   1      40.878  20.792  26.907  1.00  0.00     0.275 C 
ENDROOT
BRANCH   1   2
ATOM      2  C   UNL A   1      42.377  20.748  26.723  1.00  0.00     0.275 C 
BRANCH   2   3
ATOM      3  O   UNL A   1      42.667  21.264  25.435  1.00  0.00    -0.459 OA
BRANCH   3   4
ATOM      4  C   UNL A   1      43.782  21.975  25.293  1.00  0.00     0.331 C 
ATOM      5  O   UNL A   1      44.934  21.610  25.469  1.00  0.00    -0.247 OA
BRANCH   4   6
ATOM      6  C   UNL A   1      43.397  23.314  24.843  1.00  0.00     0.097 C 
ATOM      7  C   UNL A   1      43.956  24.460  25.273  1.00  0.00     0.058 C 
BRANCH   7   8
ATOM      8  C   UNL A   1      45.018  24.715  26.210  1.00  0.00     0.175 A 
ATOM      9  C   UNL A   1      44.495  23.488  33.127  1.00  0.00     0.008 C 
ATOM     10  C   UNL A   1      44.277  24.914  32.622  1.00  0.00    -0.009 C 
ATOM     11  C   UNL A   1      45.074  25.969  33.402  1.00  0.00     0.009 C 
ATOM     12  C   UNL A   1      44.576  24.993  31.117  1.00  0.00     0.041 C 
ATOM     13  C   UNL A   1      46.588  25.898  33.143  1.00  0.00     0.047 C 
ATOM     14  C   UNL A   1      45.976  25.309  30.732  1.00  0.00    -0.020 A 
ATOM     15  C   UNL A   1      46.881  25.747  31.677  1.00  0.00     0.011 A 
ATOM     16  C   UNL A   1      46.546  25.332  29.423  1.00  0.00     0.060 A 
ATOM     17  S   UNL A   1      48.405  26.104  31.007  1.00  0.00    -0.120 S 
ATOM     18  C   UNL A   1      47.871  25.754  29.416  1.00  0.00     0.129 A 
ATOM     19  C   UNL A   1      46.016  25.050  28.056  1.00  0.00     0.168 A 
ATOM     20  N   UNL A   1      48.704  25.920  28.334  1.00  0.00    -0.225 NA
ATOM     21  N   UNL A   1      46.854  25.283  27.008  1.00  0.00    -0.201 N 
ATOM     22  N   UNL A   1      44.869  24.620  27.588  1.00  0.00    -0.207 NA
ATOM     23  C   UNL A   1      48.172  25.698  27.158  1.00  0.00     0.227 A 
ATOM     24  N   UNL A   1      46.258  25.069  25.823  1.00  0.00    -0.145 NA
ENDBRANCH   7   8
ENDBRANCH   4   6
ENDBRANCH   3   4
ENDBRANCH   2   3
ENDBRANCH   1   2
BRANCH   1  25
ATOM     25  O   UNL A   1      40.628  21.964  27.640  1.00  0.00    -0.458 OA
BRANCH  25  26
ATOM     26  C   UNL A   1      39.881  22.890  27.011  1.00  0.00     0.338 C 
ATOM     27  O   UNL A   1      38.836  22.757  26.400  1.00  0.00    -0.246 OA
BRANCH  26  28
ATOM     28  C   UNL A   1      40.681  24.103  27.029  1.00  0.00     0.060 A 
ATOM     29  C   UNL A   1      41.497  24.239  28.146  1.00  0.00     0.016 A 
ATOM     30  C   UNL A   1      40.234  25.181  26.242  1.00  0.00     0.016 A 
ATOM     31  C   UNL A   1      41.599  25.496  28.665  1.00  0.00     0.010 A 
ATOM     32  C   UNL A   1      40.312  26.425  26.776  1.00  0.00     0.010 A 
ATOM     33  C   UNL A   1      40.907  26.533  28.021  1.00  0.00    -0.014 A 
BRANCH  33  34
ATOM     34  C   UNL A   1      40.972  27.828  28.615  1.00  0.00     0.031 A 
ATOM     35  C   UNL A   1      42.128  28.560  28.081  1.00  0.00     0.074 A 
ATOM     36  C   UNL A   1      40.055  28.279  29.480  1.00  0.00     0.049 A 
ATOM     37  N   UNL A   1      43.288  28.640  28.637  1.00  0.00    -0.248 NA
ATOM     38  C   UNL A   1      42.099  28.948  26.664  1.00  0.00     0.031 C 
ATOM     39  C   UNL A   1      38.737  27.744  29.819  1.00  0.00     0.029 A 
ATOM     40  N   UNL A   1      40.107  29.439  30.163  1.00  0.00    -0.354 N 
ATOM     41  C   UNL A   1      44.057  29.348  27.729  1.00  0.00     0.074 A 
ATOM     42  C   UNL A   1      43.383  29.246  26.464  1.00  0.00     0.031 C 
ATOM     43  C   UNL A   1      38.025  28.716  30.442  1.00  0.00     0.029 A 
ATOM     44  C   UNL A   1      38.892  29.862  30.667  1.00  0.00     0.049 A 
ATOM     45  H   UNL A   1      40.942  29.944  30.292  1.00  0.00     0.167 HD
ATOM     46  C   UNL A   1      44.990  30.229  28.174  1.00  0.00     0.034 A 
ATOM     47  C   UNL A   1      38.654  31.113  31.127  1.00  0.00     0.034 A 
ATOM     48  C   UNL A   1      45.292  30.006  29.570  1.00  0.00     0.049 A 
ATOM     49  C   UNL A   1      39.980  31.710  31.457  1.00  0.00     0.074 A 
ATOM     50  C   UNL A   1      45.763  28.931  30.297  1.00  0.00     0.029 A 
ATOM     51  N   UNL A   1      44.672  30.838  30.475  1.00  0.00    -0.354 N 
ATOM     52  N   UNL A   1      40.749  31.262  32.412  1.00  0.00    -0.248 NA
ATOM     53  C   UNL A   1      40.658  32.485  30.426  1.00  0.00     0.031 C 
ATOM     54  C   UNL A   1      45.010  28.946  31.508  1.00  0.00     0.029 A 
ATOM     55  C   UNL A   1      44.172  30.063  31.490  1.00  0.00     0.049 A 
ATOM     56  H   UNL A   1      44.600  31.818  30.406  1.00  0.00     0.167 HD
ATOM     57  C   UNL A   1      42.032  31.297  31.875  1.00  0.00     0.074 A 
ATOM     58  C   UNL A   1      41.926  32.155  30.695  1.00  0.00     0.031 C 
ATOM     59  C   UNL A   1      42.985  30.394  32.255  1.00  0.00     0.034 A 
BRANCH  46  60
ATOM     60  C   UNL A   1      45.309  31.525  27.478  1.00  0.00     0.023 A 
ATOM     61  C   UNL A   1      46.643  31.713  27.066  1.00  0.00     0.012 A 
ATOM     62  C   UNL A   1      44.459  32.657  27.439  1.00  0.00     0.148 A 
ATOM     63  C   UNL A   1      47.117  32.970  26.683  1.00  0.00     0.002 A 
ATOM     64  C   UNL A   1      44.910  33.882  26.971  1.00  0.00     0.091 A 
ATOM     65  F   UNL A   1      43.242  32.615  27.985  1.00  0.00    -0.205 F 
ATOM     66  C   UNL A   1      46.249  34.053  26.625  1.00  0.00     0.022 A 
BRANCH  64  67
ATOM     67  S   UNL A   1      43.804  35.291  26.828  1.00  0.00     0.127 S 
ATOM     68  O   UNL A   1      43.182  35.309  28.148  1.00  0.00    -0.237 OA
ATOM     69  O   UNL A   1      44.743  36.382  26.567  1.00  0.00    -0.237 OA
ATOM     70  O   UNL A   1      42.922  34.986  25.706  1.00  0.00    -0.744 OA
ENDBRANCH  64  67
ENDBRANCH  46  60
BRANCH  47  71
ATOM     71  C   UNL A   1      37.445  31.951  30.966  1.00  0.00     0.023 A 
ATOM     72  C   UNL A   1      36.612  31.736  29.850  1.00  0.00     0.012 A 
ATOM     73  C   UNL A   1      36.943  32.720  32.040  1.00  0.00     0.148 A 
ATOM     74  C   UNL A   1      35.303  32.228  29.825  1.00  0.00     0.002 A 
ATOM     75  C   UNL A   1      35.638  33.203  32.011  1.00  0.00     0.091 A 
ATOM     76  F   UNL A   1      37.709  32.895  33.125  1.00  0.00    -0.205 F 
ATOM     77  C   UNL A   1      34.811  32.948  30.909  1.00  0.00     0.022 A 
BRANCH  75  78
ATOM     78  S   UNL A   1      34.909  34.096  33.393  1.00  0.00     0.127 S 
ATOM     79  O   UNL A   1      35.607  35.380  33.322  1.00  0.00    -0.237 OA
ATOM     80  O   UNL A   1      33.501  34.143  33.011  1.00  0.00    -0.237 OA
ATOM     81  O   UNL A   1      35.214  33.311  34.582  1.00  0.00    -0.744 OA
ENDBRANCH  75  78
ENDBRANCH  47  71
BRANCH  59  82
ATOM     82  C   UNL A   1      42.682  29.492  33.431  1.00  0.00     0.023 A 
ATOM     83  C   UNL A   1      41.883  28.334  33.314  1.00  0.00     0.012 A 
ATOM     84  C   UNL A   1      43.376  29.714  34.632  1.00  0.00     0.148 A 
ATOM     85  C   UNL A   1      41.768  27.430  34.375  1.00  0.00     0.002 A 
ATOM     86  C   UNL A   1      43.299  28.787  35.666  1.00  0.00     0.091 A 
ATOM     87  F   UNL A   1      44.131  30.817  34.732  1.00  0.00    -0.205 F 
ATOM     88  C   UNL A   1      42.488  27.648  35.546  1.00  0.00     0.022 A 
BRANCH  86  89
ATOM     89  S   UNL A   1      44.315  28.945  37.137  1.00  0.00     0.127 S 
ATOM     90  O   UNL A   1      45.657  29.059  36.570  1.00  0.00    -0.237 OA
ATOM     91  O   UNL A   1      43.800  30.173  37.746  1.00  0.00    -0.237 OA
ATOM     92  O   UNL A   1      44.065  27.743  37.925  1.00  0.00    -0.744 OA
ENDBRANCH  86  89
ENDBRANCH  59  82
ENDBRANCH  33  34
ENDBRANCH  26  28
ENDBRANCH  25  26
ENDBRANCH   1  25
TORSDOF 15
ENDMDL
MODEL 3
REMARK VINA RESULT:     -12.2      3.227      7.483
REMARK SMILES C[C@H]1CCc2sc3ncn4nc(/C=C\C(=O)OCCOC(=O)c5ccc(-c6c7nc(c(-c8cccc(S(=O)(=O)[O-])c8F)c8ccc([nH]8)c(-c8cccc(S(=O)(=O)[O-])c8F)c8nc(c(-c9cccc(S(=O)(=O)[O-])c9F)c9ccc6[nH]9)C=C8)C=C7)cc5)nc4c3c2C1
REMARK SMILES IDX 19 1 18 2 17 3 15 4 16 5 14 6 13 7 12 8 1 9 2 10 3 11 90 12
REMARK SMILES IDX 4 13 89 14 5 15 88 16 6 17 7 18 87 19 8 20 10 21 86 22 9 23
REMARK SMILES IDX 11 24 20 25 21 26 22 27 23 28 24 29 85 30 25 31 84 32 26 33
REMARK SMILES IDX 27 34 28 35 78 36 29 37 83 38 77 39 79 40 30 41 82 42 76 43
REMARK SMILES IDX 75 44 31 46 63 47 43 48 62 49 44 50 47 51 61 52 80 53 45 54
REMARK SMILES IDX 46 55 60 57 81 58 48 59 32 60 33 61 41 62 34 63 36 64 42 65
REMARK SMILES IDX 35 66 37 67 38 68 39 69 40 70 64 71 65 72 73 73 66 74 68 75
REMARK SMILES IDX 74 76 67 77 69 78 70 79 71 80 72 81 49 82 50 83 58 84 51 85
REMARK SMILES IDX 53 86 59 87 52 88 54 89 55 90 56 91 57 92
REMARK H PARENT 79 45 47 56
REMARK Flexibility Score: inf
ROOT
ATOM      1  C   UNL A   1      42.905  19.242  26.093  1.00  0.00     0.275 C 
ENDROOT
BRANCH   1   2
ATOM      2  C   UNL A   1      42.150  20.032  27.134  1.00  0.00     0.275 C 
BRANCH   2   3
ATOM      3  O   UNL A   1      40.787  19.647  27.061  1.00  0.00    -0.459 OA
BRANCH   3   4
ATOM      4  C   UNL A   1      40.044  20.189  26.100  1.00  0.00     0.331 C 
ATOM      5  O   UNL A   1      39.290  19.624  25.324  1.00  0.00    -0.247 OA
BRANCH   4   6
ATOM      6  C   UNL A   1      40.258  21.637  26.140  1.00  0.00     0.097 C 
ATOM      7  C   UNL A   1      39.283  22.561  26.074  1.00  0.00     0.058 C 
BRANCH   7   8
ATOM      8  C   UNL A   1      37.854  22.439  25.967  1.00  0.00     0.175 A 
ATOM      9  C   UNL A   1      34.499  16.274  25.366  1.00  0.00     0.008 C 
ATOM     10  C   UNL A   1      34.764  17.086  24.097  1.00  0.00    -0.009 C 
ATOM     11  C   UNL A   1      33.525  17.249  23.205  1.00  0.00     0.009 C 
ATOM     12  C   UNL A   1      35.369  18.450  24.460  1.00  0.00     0.041 C 
ATOM     13  C   UNL A   1      32.459  18.175  23.812  1.00  0.00     0.047 C 
ATOM     14  C   UNL A   1      34.414  19.561  24.704  1.00  0.00    -0.020 A 
ATOM     15  C   UNL A   1      33.079  19.421  24.376  1.00  0.00     0.011 A 
ATOM     16  C   UNL A   1      34.696  20.883  25.161  1.00  0.00     0.060 A 
ATOM     17  S   UNL A   1      32.180  20.833  24.687  1.00  0.00    -0.120 S 
ATOM     18  C   UNL A   1      33.569  21.697  25.197  1.00  0.00     0.129 A 
ATOM     19  C   UNL A   1      35.945  21.597  25.560  1.00  0.00     0.168 A 
ATOM     20  N   UNL A   1      33.490  23.023  25.555  1.00  0.00    -0.225 NA
ATOM     21  N   UNL A   1      35.833  22.923  25.850  1.00  0.00    -0.201 N 
ATOM     22  N   UNL A   1      37.200  21.243  25.695  1.00  0.00    -0.207 NA
ATOM     23  C   UNL A   1      34.623  23.607  25.855  1.00  0.00     0.227 A 
ATOM     24  N   UNL A   1      37.022  23.486  26.125  1.00  0.00    -0.145 NA
ENDBRANCH   7   8
ENDBRANCH   4   6
ENDBRANCH   3   4
ENDBRANCH   2   3
ENDBRANCH   1   2
BRANCH   1  25
ATOM     25  O   UNL A   1      43.140  20.141  25.041  1.00  0.00    -0.458 OA
BRANCH  25  26
ATOM     26  C   UNL A   1      44.409  20.191  24.596  1.00  0.00     0.338 C 
ATOM     27  O   UNL A   1      45.167  19.279  24.314  1.00  0.00    -0.246 OA
BRANCH  26  28
ATOM     28  C   UNL A   1      44.796  21.587  24.698  1.00  0.00     0.060 A 
ATOM     29  C   UNL A   1      45.834  21.835  25.589  1.00  0.00     0.016 A 
ATOM     30  C   UNL A   1      43.845  22.549  24.307  1.00  0.00     0.016 A 
ATOM     31  C   UNL A   1      45.722  22.967  26.340  1.00  0.00     0.010 A 
ATOM     32  C   UNL A   1      43.720  23.660  25.076  1.00  0.00     0.010 A 
ATOM     33  C   UNL A   1      44.603  23.788  26.134  1.00  0.00    -0.014 A 
BRANCH  33  34
ATOM     34  C   UNL A   1      44.469  24.933  26.973  1.00  0.00     0.031 A 
ATOM     35  C   UNL A   1      45.593  25.850  26.743  1.00  0.00     0.074 A 
ATOM     36  C   UNL A   1      43.423  25.119  27.788  1.00  0.00     0.049 A 
ATOM     37  N   UNL A   1      46.672  25.906  27.445  1.00  0.00    -0.248 NA
ATOM     38  C   UNL A   1      45.674  26.519  25.437  1.00  0.00     0.031 C 
ATOM     39  C   UNL A   1      42.140  24.421  27.848  1.00  0.00     0.029 A 
ATOM     40  N   UNL A   1      43.281  26.113  28.686  1.00  0.00    -0.354 N 
ATOM     41  C   UNL A   1      47.456  26.847  26.798  1.00  0.00     0.074 A 
ATOM     42  C   UNL A   1      46.934  26.955  25.463  1.00  0.00     0.031 C 
ATOM     43  C   UNL A   1      41.268  25.182  28.555  1.00  0.00     0.029 A 
ATOM     44  C   UNL A   1      41.982  26.323  29.108  1.00  0.00     0.049 A 
ATOM     45  H   UNL A   1      44.040  26.646  29.016  1.00  0.00     0.167 HD
ATOM     46  C   UNL A   1      48.239  27.688  27.520  1.00  0.00     0.034 A 
ATOM     47  C   UNL A   1      41.567  27.429  29.771  1.00  0.00     0.034 A 
ATOM     48  C   UNL A   1      48.412  27.206  28.872  1.00  0.00     0.049 A 
ATOM     49  C   UNL A   1      42.781  28.049  30.375  1.00  0.00     0.074 A 
ATOM     50  C   UNL A   1      48.913  26.045  29.426  1.00  0.00     0.029 A 
ATOM     51  N   UNL A   1      47.616  27.779  29.838  1.00  0.00    -0.354 N 
ATOM     52  N   UNL A   1      43.486  27.476  31.313  1.00  0.00    -0.248 NA
ATOM     53  C   UNL A   1      43.480  29.072  29.609  1.00  0.00     0.031 C 
ATOM     54  C   UNL A   1      48.038  25.748  30.513  1.00  0.00     0.029 A 
ATOM     55  C   UNL A   1      47.094  26.773  30.609  1.00  0.00     0.049 A 
ATOM     56  H   UNL A   1      47.450  28.743  29.954  1.00  0.00     0.167 HD
ATOM     57  C   UNL A   1      44.809  27.725  30.958  1.00  0.00     0.074 A 
ATOM     58  C   UNL A   1      44.739  28.797  29.966  1.00  0.00     0.031 C 
ATOM     59  C   UNL A   1      45.804  26.842  31.270  1.00  0.00     0.034 A 
BRANCH  46  60
ATOM     60  C   UNL A   1      48.493  29.122  27.138  1.00  0.00     0.023 A 
ATOM     61  C   UNL A   1      49.829  29.565  27.192  1.00  0.00     0.012 A 
ATOM     62  C   UNL A   1      47.493  30.113  26.986  1.00  0.00     0.148 A 
ATOM     63  C   UNL A   1      50.148  30.925  27.147  1.00  0.00     0.002 A 
ATOM     64  C   UNL A   1      47.820  31.453  26.850  1.00  0.00     0.091 A 
ATOM     65  F   UNL A   1      46.202  29.802  27.114  1.00  0.00    -0.205 F 
ATOM     66  C   UNL A   1      49.144  31.869  26.966  1.00  0.00     0.022 A 
BRANCH  64  67
ATOM     67  S   UNL A   1      46.556  32.696  26.557  1.00  0.00     0.127 S 
ATOM     68  O   UNL A   1      46.128  33.004  27.919  1.00  0.00    -0.237 OA
ATOM     69  O   UNL A   1      47.323  33.750  25.893  1.00  0.00    -0.237 OA
ATOM     70  O   UNL A   1      45.564  32.055  25.702  1.00  0.00    -0.744 OA
ENDBRANCH  64  67
ENDBRANCH  46  60
BRANCH  47  71
ATOM     71  C   UNL A   1      40.301  28.181  29.627  1.00  0.00     0.023 A 
ATOM     72  C   UNL A   1      39.626  28.148  28.391  1.00  0.00     0.012 A 
ATOM     73  C   UNL A   1      39.603  28.656  30.760  1.00  0.00     0.148 A 
ATOM     74  C   UNL A   1      38.283  28.526  28.294  1.00  0.00     0.002 A 
ATOM     75  C   UNL A   1      38.265  29.028  30.659  1.00  0.00     0.091 A 
ATOM     76  F   UNL A   1      40.219  28.652  31.950  1.00  0.00    -0.205 F 
ATOM     77  C   UNL A   1      37.599  28.952  29.429  1.00  0.00     0.022 A 
BRANCH  75  78
ATOM     78  S   UNL A   1      37.296  29.537  32.086  1.00  0.00     0.127 S 
ATOM     79  O   UNL A   1      38.028  30.721  32.540  1.00  0.00    -0.237 OA
ATOM     80  O   UNL A   1      35.996  29.816  31.482  1.00  0.00    -0.237 OA
ATOM     81  O   UNL A   1      37.332  28.416  33.016  1.00  0.00    -0.744 OA
ENDBRANCH  75  78
ENDBRANCH  47  71
BRANCH  59  82
ATOM     82  C   UNL A   1      45.474  25.694  32.198  1.00  0.00     0.023 A 
ATOM     83  C   UNL A   1      44.851  24.510  31.750  1.00  0.00     0.012 A 
ATOM     84  C   UNL A   1      45.977  25.737  33.509  1.00  0.00     0.148 A 
ATOM     85  C   UNL A   1      44.719  23.402  32.594  1.00  0.00     0.002 A 
ATOM     86  C   UNL A   1      45.890  24.617  34.328  1.00  0.00     0.091 A 
ATOM     87  F   UNL A   1      46.567  26.867  33.924  1.00  0.00    -0.205 F 
ATOM     88  C   UNL A   1      45.252  23.450  33.879  1.00  0.00     0.022 A 
BRANCH  86  89
ATOM     89  S   UNL A   1      46.684  24.574  35.937  1.00  0.00     0.127 S 
ATOM     90  O   UNL A   1      46.353  23.230  36.405  1.00  0.00    -0.237 OA
ATOM     91  O   UNL A   1      48.095  24.774  35.598  1.00  0.00    -0.237 OA
ATOM     92  O   UNL A   1      46.098  25.669  36.701  1.00  0.00    -0.744 OA
ENDBRANCH  86  89
ENDBRANCH  59  82
ENDBRANCH  33  34
ENDBRANCH  26  28
ENDBRANCH  25  26
ENDBRANCH   1  25
TORSDOF 15
ENDMDL
