MODEL 1
REMARK VINA RESULT:      -9.8      0.000      0.000
REMARK SMILES COc1ccc(-c2ccc(CCC(=O)OCCOC(=O)c3ccc(-c4c5nc(c(-c6cccc(S(=O)(=O)[O-])c6F)c6ccc([nH]6)c(-c6cccc(S(=O)(=O)[O-])c6F)c6nc(c(-c7cccc(S(=O)(=O)[O-])c7F)c7ccc4[nH]7)C=C6)C=C5)cc3)n2-c2ccc(C(C)=O)cc2)cc1
REMARK SMILES IDX 16 1 15 2 13 3 14 4 12 5 11 6 10 7 7 8 8 9 84 10 9 11 6 12
REMARK SMILES IDX 3 13 4 14 95 15 5 16 94 17 2 18 1 19 85 20 86 21 93 22 87 23
REMARK SMILES IDX 92 24 88 25 89 26 90 27 91 28 17 29 18 30 19 31 20 32 21 33
REMARK SMILES IDX 22 34 83 35 23 36 82 37 24 38 25 39 26 40 76 41 27 42 81 43
REMARK SMILES IDX 75 44 77 45 28 46 80 47 74 48 73 49 29 51 61 52 41 53 60 54
REMARK SMILES IDX 42 55 45 56 59 57 78 58 43 59 44 60 58 62 79 63 46 64 30 65
REMARK SMILES IDX 31 66 39 67 32 68 34 69 40 70 33 71 35 72 36 73 37 74 38 75
REMARK SMILES IDX 62 76 63 77 71 78 64 79 66 80 72 81 65 82 67 83 68 84 69 85
REMARK SMILES IDX 70 86 47 87 48 88 56 89 49 90 51 91 57 92 50 93 52 94 53 95
REMARK SMILES IDX 54 96 55 97
REMARK H PARENT 77 50 45 61
REMARK Flexibility Score: inf
ROOT
ATOM      1  C   UNL A   1      35.104  32.838  29.712  1.00  0.00     0.274 C 
ENDROOT
BRANCH   1   2
ATOM      2  O   UNL A   1      34.711  32.896  31.098  1.00  0.00    -0.462 OA
BRANCH   2   3
ATOM      3  C   UNL A   1      34.424  34.120  31.606  1.00  0.00     0.306 C 
ATOM      4  O   UNL A   1      33.592  34.890  31.136  1.00  0.00    -0.252 OA
BRANCH   3   5
ATOM      5  C   UNL A   1      35.328  34.501  32.759  1.00  0.00     0.129 C 
BRANCH   5   6
ATOM      6  C   UNL A   1      36.834  34.333  32.552  1.00  0.00     0.066 C 
BRANCH   6   7
ATOM      7  C   UNL A   1      37.443  33.240  33.396  1.00  0.00     0.024 A 
ATOM      8  C   UNL A   1      38.703  31.431  33.871  1.00  0.00     0.053 A 
ATOM      9  C   UNL A   1      37.727  31.528  34.842  1.00  0.00     0.029 A 
ATOM     10  N   UNL A   1      38.616  32.570  33.073  1.00  0.00    -0.314 N 
ATOM     11  C   UNL A   1      36.979  32.683  34.574  1.00  0.00     0.024 A 
BRANCH   8  12
ATOM     12  C   UNL A   1      39.749  30.424  33.805  1.00  0.00    -0.001 A 
ATOM     13  C   UNL A   1      41.758  28.497  33.703  1.00  0.00     0.118 A 
ATOM     14  C   UNL A   1      40.625  28.362  32.902  1.00  0.00     0.047 A 
ATOM     15  C   UNL A   1      41.917  29.622  34.513  1.00  0.00     0.047 A 
ATOM     16  C   UNL A   1      39.617  29.322  32.955  1.00  0.00     0.014 A 
ATOM     17  C   UNL A   1      40.912  30.586  34.564  1.00  0.00     0.014 A 
BRANCH  13  18
ATOM     18  O   UNL A   1      42.696  27.506  33.602  1.00  0.00    -0.497 OA
ATOM     19  C   UNL A   1      43.266  27.161  34.862  1.00  0.00     0.278 C 
ENDBRANCH  13  18
ENDBRANCH   8  12
BRANCH  10  20
ATOM     20  C   UNL A   1      39.582  33.015  32.138  1.00  0.00     0.046 A 
ATOM     21  C   UNL A   1      39.507  32.548  30.819  1.00  0.00     0.027 A 
ATOM     22  C   UNL A   1      40.575  33.917  32.513  1.00  0.00     0.027 A 
ATOM     23  C   UNL A   1      40.437  32.976  29.871  1.00  0.00     0.014 A 
ATOM     24  C   UNL A   1      41.514  34.326  31.563  1.00  0.00     0.014 A 
ATOM     25  C   UNL A   1      41.455  33.863  30.236  1.00  0.00     0.017 A 
BRANCH  25  26
ATOM     26  C   UNL A   1      42.500  34.351  29.283  1.00  0.00     0.159 C 
ATOM     27  C   UNL A   1      42.418  35.727  28.670  1.00  0.00     0.093 C 
ATOM     28  O   UNL A   1      43.453  33.618  29.010  1.00  0.00    -0.295 OA
ENDBRANCH  25  26
ENDBRANCH  10  20
ENDBRANCH   6   7
ENDBRANCH   5   6
ENDBRANCH   3   5
ENDBRANCH   2   3
ENDBRANCH   1   2
BRANCH   1  29
ATOM     29  C   UNL A   1      36.380  32.024  29.469  1.00  0.00     0.275 C 
BRANCH  29  30
ATOM     30  O   UNL A   1      36.473  31.445  28.160  1.00  0.00    -0.458 OA
BRANCH  30  31
ATOM     31  C   UNL A   1      36.269  30.112  28.169  1.00  0.00     0.338 C 
ATOM     32  O   UNL A   1      35.200  29.543  28.256  1.00  0.00    -0.246 OA
BRANCH  31  33
ATOM     33  C   UNL A   1      37.476  29.312  28.250  1.00  0.00     0.060 A 
ATOM     34  C   UNL A   1      37.739  28.656  29.461  1.00  0.00     0.016 A 
ATOM     35  C   UNL A   1      38.463  29.533  27.293  1.00  0.00     0.016 A 
ATOM     36  C   UNL A   1      39.026  28.223  29.722  1.00  0.00     0.010 A 
ATOM     37  C   UNL A   1      39.757  29.137  27.576  1.00  0.00     0.010 A 
ATOM     38  C   UNL A   1      40.032  28.474  28.780  1.00  0.00    -0.014 A 
BRANCH  38  39
ATOM     39  C   UNL A   1      41.341  27.828  28.985  1.00  0.00     0.031 A 
ATOM     40  C   UNL A   1      41.281  26.352  28.538  1.00  0.00     0.074 A 
ATOM     41  C   UNL A   1      42.322  28.584  29.571  1.00  0.00     0.049 A 
ATOM     42  N   UNL A   1      41.894  25.313  29.021  1.00  0.00    -0.248 NA
ATOM     43  C   UNL A   1      40.295  25.941  27.496  1.00  0.00     0.031 C 
ATOM     44  C   UNL A   1      42.194  30.021  29.914  1.00  0.00     0.029 A 
ATOM     45  N   UNL A   1      43.610  28.324  29.997  1.00  0.00    -0.354 N 
ATOM     46  C   UNL A   1      41.559  24.212  28.194  1.00  0.00     0.074 A 
ATOM     47  C   UNL A   1      40.455  24.621  27.390  1.00  0.00     0.031 C 
ATOM     48  C   UNL A   1      43.301  30.470  30.548  1.00  0.00     0.029 A 
ATOM     49  C   UNL A   1      44.273  29.396  30.653  1.00  0.00     0.049 A 
ATOM     50  H   UNL A   1      44.042  27.450  29.855  1.00  0.00     0.167 HD
ATOM     51  C   UNL A   1      42.326  23.087  28.105  1.00  0.00     0.034 A 
ATOM     52  C   UNL A   1      45.503  29.411  31.263  1.00  0.00     0.034 A 
ATOM     53  C   UNL A   1      43.480  23.250  28.923  1.00  0.00     0.049 A 
ATOM     54  C   UNL A   1      46.123  28.124  30.929  1.00  0.00     0.074 A 
ATOM     55  C   UNL A   1      43.669  23.208  30.278  1.00  0.00     0.029 A 
ATOM     56  N   UNL A   1      44.545  23.872  28.316  1.00  0.00    -0.354 N 
ATOM     57  N   UNL A   1      46.605  27.819  29.761  1.00  0.00    -0.248 NA
ATOM     58  C   UNL A   1      46.126  27.055  31.937  1.00  0.00     0.031 C 
ATOM     59  C   UNL A   1      44.658  24.186  30.494  1.00  0.00     0.029 A 
ATOM     60  C   UNL A   1      45.169  24.634  29.268  1.00  0.00     0.049 A 
ATOM     61  H   UNL A   1      44.810  23.787  27.372  1.00  0.00     0.167 HD
ATOM     62  C   UNL A   1      46.604  26.447  29.810  1.00  0.00     0.074 A 
ATOM     63  C   UNL A   1      46.672  26.087  31.208  1.00  0.00     0.031 C 
ATOM     64  C   UNL A   1      45.973  25.750  28.829  1.00  0.00     0.034 A 
BRANCH  51  65
ATOM     65  C   UNL A   1      42.345  21.894  27.181  1.00  0.00     0.023 A 
ATOM     66  C   UNL A   1      41.416  20.864  27.510  1.00  0.00     0.012 A 
ATOM     67  C   UNL A   1      43.354  21.582  26.257  1.00  0.00     0.148 A 
ATOM     68  C   UNL A   1      41.557  19.556  27.056  1.00  0.00     0.002 A 
ATOM     69  C   UNL A   1      43.460  20.277  25.762  1.00  0.00     0.091 A 
ATOM     70  F   UNL A   1      44.259  22.511  25.929  1.00  0.00    -0.205 F 
ATOM     71  C   UNL A   1      42.593  19.259  26.191  1.00  0.00     0.022 A 
BRANCH  69  72
ATOM     72  S   UNL A   1      44.708  19.783  24.568  1.00  0.00     0.127 S 
ATOM     73  O   UNL A   1      44.482  20.733  23.481  1.00  0.00    -0.237 OA
ATOM     74  O   UNL A   1      45.948  20.005  25.318  1.00  0.00    -0.237 OA
ATOM     75  O   UNL A   1      44.438  18.383  24.273  1.00  0.00    -0.744 OA
ENDBRANCH  69  72
ENDBRANCH  51  65
BRANCH  52  76
ATOM     76  C   UNL A   1      46.296  30.321  32.183  1.00  0.00     0.023 A 
ATOM     77  C   UNL A   1      47.432  31.044  31.798  1.00  0.00     0.012 A 
ATOM     78  C   UNL A   1      45.859  30.538  33.530  1.00  0.00     0.148 A 
ATOM     79  C   UNL A   1      48.030  31.986  32.666  1.00  0.00     0.002 A 
ATOM     80  C   UNL A   1      46.367  31.550  34.335  1.00  0.00     0.091 A 
ATOM     81  F   UNL A   1      44.957  29.720  34.079  1.00  0.00    -0.205 F 
ATOM     82  C   UNL A   1      47.473  32.273  33.912  1.00  0.00     0.022 A 
BRANCH  80  83
ATOM     83  S   UNL A   1      45.543  32.050  35.864  1.00  0.00     0.127 S 
ATOM     84  O   UNL A   1      46.220  33.303  36.190  1.00  0.00    -0.237 OA
ATOM     85  O   UNL A   1      44.160  32.198  35.412  1.00  0.00    -0.237 OA
ATOM     86  O   UNL A   1      45.751  30.969  36.820  1.00  0.00    -0.744 OA
ENDBRANCH  80  83
ENDBRANCH  52  76
BRANCH  64  87
ATOM     87  C   UNL A   1      45.938  26.449  27.471  1.00  0.00     0.023 A 
ATOM     88  C   UNL A   1      44.706  27.009  27.076  1.00  0.00     0.012 A 
ATOM     89  C   UNL A   1      46.991  26.482  26.527  1.00  0.00     0.148 A 
ATOM     90  C   UNL A   1      44.517  27.558  25.804  1.00  0.00     0.002 A 
ATOM     91  C   UNL A   1      46.800  27.019  25.247  1.00  0.00     0.091 A 
ATOM     92  F   UNL A   1      48.175  25.985  26.875  1.00  0.00    -0.205 F 
ATOM     93  C   UNL A   1      45.562  27.560  24.889  1.00  0.00     0.022 A 
BRANCH  91  94
ATOM     94  S   UNL A   1      48.059  27.017  23.952  1.00  0.00     0.127 S 
ATOM     95  O   UNL A   1      47.509  27.957  22.973  1.00  0.00    -0.237 OA
ATOM     96  O   UNL A   1      49.235  27.514  24.661  1.00  0.00    -0.237 OA
ATOM     97  O   UNL A   1      48.154  25.645  23.472  1.00  0.00    -0.744 OA
ENDBRANCH  91  94
ENDBRANCH  64  87
ENDBRANCH  38  39
ENDBRANCH  31  33
ENDBRANCH  30  31
ENDBRANCH  29  30
ENDBRANCH   1  29
TORSDOF 20
ENDMDL
MODEL 2
REMARK VINA RESULT:      -9.5      1.584      3.326
REMARK SMILES COc1ccc(-c2ccc(CCC(=O)OCCOC(=O)c3ccc(-c4c5nc(c(-c6cccc(S(=O)(=O)[O-])c6F)c6ccc([nH]6)c(-c6cccc(S(=O)(=O)[O-])c6F)c6nc(c(-c7cccc(S(=O)(=O)[O-])c7F)c7ccc4[nH]7)C=C6)C=C5)cc3)n2-c2ccc(C(C)=O)cc2)cc1
REMARK SMILES IDX 16 1 15 2 13 3 14 4 12 5 11 6 10 7 7 8 8 9 84 10 9 11 6 12
REMARK SMILES IDX 3 13 4 14 95 15 5 16 94 17 2 18 1 19 85 20 86 21 93 22 87 23
REMARK SMILES IDX 92 24 88 25 89 26 90 27 91 28 17 29 18 30 19 31 20 32 21 33
REMARK SMILES IDX 22 34 83 35 23 36 82 37 24 38 25 39 26 40 76 41 27 42 81 43
REMARK SMILES IDX 75 44 77 45 28 46 80 47 74 48 73 49 29 51 61 52 41 53 60 54
REMARK SMILES IDX 42 55 45 56 59 57 78 58 43 59 44 60 58 62 79 63 46 64 30 65
REMARK SMILES IDX 31 66 39 67 32 68 34 69 40 70 33 71 35 72 36 73 37 74 38 75
REMARK SMILES IDX 62 76 63 77 71 78 64 79 66 80 72 81 65 82 67 83 68 84 69 85
REMARK SMILES IDX 70 86 47 87 48 88 56 89 49 90 51 91 57 92 50 93 52 94 53 95
REMARK SMILES IDX 54 96 55 97
REMARK H PARENT 77 50 45 61
REMARK Flexibility Score: inf
ROOT
ATOM      1  C   UNL A   1      36.080  33.312  28.742  1.00  0.00     0.274 C 
ENDROOT
BRANCH   1   2
ATOM      2  O   UNL A   1      37.507  33.117  28.703  1.00  0.00    -0.462 OA
BRANCH   2   3
ATOM      3  C   UNL A   1      38.213  33.519  29.790  1.00  0.00     0.306 C 
ATOM      4  O   UNL A   1      38.477  34.688  30.054  1.00  0.00    -0.252 OA
BRANCH   3   5
ATOM      5  C   UNL A   1      38.756  32.358  30.595  1.00  0.00     0.129 C 
BRANCH   5   6
ATOM      6  C   UNL A   1      40.032  32.600  31.401  1.00  0.00     0.066 C 
BRANCH   6   7
ATOM      7  C   UNL A   1      39.992  32.012  32.790  1.00  0.00     0.024 A 
ATOM      8  C   UNL A   1      39.480  31.875  34.982  1.00  0.00     0.053 A 
ATOM      9  C   UNL A   1      40.578  31.069  34.757  1.00  0.00     0.029 A 
ATOM     10  N   UNL A   1      39.034  32.331  33.744  1.00  0.00    -0.314 N 
ATOM     11  C   UNL A   1      40.860  31.115  33.385  1.00  0.00     0.024 A 
BRANCH   8  12
ATOM     12  C   UNL A   1      38.800  32.063  36.253  1.00  0.00    -0.001 A 
ATOM     13  C   UNL A   1      37.502  32.398  38.695  1.00  0.00     0.118 A 
ATOM     14  C   UNL A   1      38.257  33.441  38.160  1.00  0.00     0.047 A 
ATOM     15  C   UNL A   1      37.346  31.207  37.985  1.00  0.00     0.047 A 
ATOM     16  C   UNL A   1      38.911  33.274  36.942  1.00  0.00     0.014 A 
ATOM     17  C   UNL A   1      37.996  31.039  36.763  1.00  0.00     0.014 A 
BRANCH  13  18
ATOM     18  O   UNL A   1      36.901  32.637  39.900  1.00  0.00    -0.497 OA
ATOM     19  C   UNL A   1      36.105  31.541  40.342  1.00  0.00     0.278 C 
ENDBRANCH  13  18
ENDBRANCH   8  12
BRANCH  10  20
ATOM     20  C   UNL A   1      37.791  32.955  33.477  1.00  0.00     0.046 A 
ATOM     21  C   UNL A   1      36.668  32.148  33.249  1.00  0.00     0.027 A 
ATOM     22  C   UNL A   1      37.678  34.344  33.463  1.00  0.00     0.027 A 
ATOM     23  C   UNL A   1      35.426  32.732  32.994  1.00  0.00     0.014 A 
ATOM     24  C   UNL A   1      36.436  34.921  33.188  1.00  0.00     0.014 A 
ATOM     25  C   UNL A   1      35.300  34.125  32.953  1.00  0.00     0.017 A 
BRANCH  25  26
ATOM     26  C   UNL A   1      34.009  34.824  32.666  1.00  0.00     0.159 C 
ATOM     27  C   UNL A   1      33.976  36.286  32.298  1.00  0.00     0.093 C 
ATOM     28  O   UNL A   1      32.957  34.183  32.715  1.00  0.00    -0.295 OA
ENDBRANCH  25  26
ENDBRANCH  10  20
ENDBRANCH   6   7
ENDBRANCH   5   6
ENDBRANCH   3   5
ENDBRANCH   2   3
ENDBRANCH   1   2
BRANCH   1  29
ATOM     29  C   UNL A   1      35.281  32.104  28.239  1.00  0.00     0.275 C 
BRANCH  29  30
ATOM     30  O   UNL A   1      35.527  30.889  28.960  1.00  0.00    -0.458 OA
BRANCH  30  31
ATOM     31  C   UNL A   1      36.042  29.919  28.176  1.00  0.00     0.338 C 
ATOM     32  O   UNL A   1      35.441  29.254  27.357  1.00  0.00    -0.246 OA
BRANCH  31  33
ATOM     33  C   UNL A   1      37.410  29.548  28.484  1.00  0.00     0.060 A 
ATOM     34  C   UNL A   1      38.352  29.627  27.450  1.00  0.00     0.016 A 
ATOM     35  C   UNL A   1      37.631  28.802  29.639  1.00  0.00     0.016 A 
ATOM     36  C   UNL A   1      39.540  28.931  27.571  1.00  0.00     0.010 A 
ATOM     37  C   UNL A   1      38.801  28.073  29.738  1.00  0.00     0.010 A 
ATOM     38  C   UNL A   1      39.755  28.148  28.714  1.00  0.00    -0.014 A 
BRANCH  38  39
ATOM     39  C   UNL A   1      41.101  27.583  28.915  1.00  0.00     0.031 A 
ATOM     40  C   UNL A   1      41.135  26.112  28.447  1.00  0.00     0.074 A 
ATOM     41  C   UNL A   1      42.031  28.389  29.515  1.00  0.00     0.049 A 
ATOM     42  N   UNL A   1      41.811  25.107  28.916  1.00  0.00    -0.248 NA
ATOM     43  C   UNL A   1      40.179  25.655  27.395  1.00  0.00     0.031 C 
ATOM     44  C   UNL A   1      41.813  29.810  29.878  1.00  0.00     0.029 A 
ATOM     45  N   UNL A   1      43.332  28.204  29.941  1.00  0.00    -0.354 N 
ATOM     46  C   UNL A   1      41.547  23.999  28.072  1.00  0.00     0.074 A 
ATOM     47  C   UNL A   1      40.421  24.350  27.271  1.00  0.00     0.031 C 
ATOM     48  C   UNL A   1      42.888  30.319  30.522  1.00  0.00     0.029 A 
ATOM     49  C   UNL A   1      43.925  29.306  30.615  1.00  0.00     0.049 A 
ATOM     50  H   UNL A   1      43.818  27.362  29.789  1.00  0.00     0.167 HD
ATOM     51  C   UNL A   1      42.383  22.925  27.970  1.00  0.00     0.034 A 
ATOM     52  C   UNL A   1      45.150  29.389  31.229  1.00  0.00     0.034 A 
ATOM     53  C   UNL A   1      43.523  23.148  28.795  1.00  0.00     0.049 A 
ATOM     54  C   UNL A   1      45.850  28.148  30.879  1.00  0.00     0.074 A 
ATOM     55  C   UNL A   1      43.711  23.099  30.149  1.00  0.00     0.029 A 
ATOM     56  N   UNL A   1      44.548  23.845  28.200  1.00  0.00    -0.354 N 
ATOM     57  N   UNL A   1      46.354  27.891  29.708  1.00  0.00    -0.248 NA
ATOM     58  C   UNL A   1      45.917  27.067  31.872  1.00  0.00     0.031 C 
ATOM     59  C   UNL A   1      44.636  24.133  30.383  1.00  0.00     0.029 A 
ATOM     60  C   UNL A   1      45.121  24.630  29.165  1.00  0.00     0.049 A 
ATOM     61  H   UNL A   1      44.821  23.790  27.256  1.00  0.00     0.167 HD
ATOM     62  C   UNL A   1      46.438  26.521  29.738  1.00  0.00     0.074 A 
ATOM     63  C   UNL A   1      46.525  26.146  31.131  1.00  0.00     0.031 C 
ATOM     64  C   UNL A   1      45.854  25.800  28.745  1.00  0.00     0.034 A 
BRANCH  51  65
ATOM     65  C   UNL A   1      42.479  21.750  27.029  1.00  0.00     0.023 A 
ATOM     66  C   UNL A   1      41.543  20.703  27.276  1.00  0.00     0.012 A 
ATOM     67  C   UNL A   1      43.552  21.465  26.171  1.00  0.00     0.148 A 
ATOM     68  C   UNL A   1      41.730  19.405  26.811  1.00  0.00     0.002 A 
ATOM     69  C   UNL A   1      43.707  20.171  25.662  1.00  0.00     0.091 A 
ATOM     70  F   UNL A   1      44.465  22.409  25.921  1.00  0.00    -0.205 F 
ATOM     71  C   UNL A   1      42.825  19.136  26.014  1.00  0.00     0.022 A 
BRANCH  69  72
ATOM     72  S   UNL A   1      45.039  19.712  24.547  1.00  0.00     0.127 S 
ATOM     73  O   UNL A   1      46.215  20.214  25.254  1.00  0.00    -0.237 OA
ATOM     74  O   UNL A   1      44.924  18.251  24.525  1.00  0.00    -0.237 OA
ATOM     75  O   UNL A   1      44.725  20.348  23.276  1.00  0.00    -0.744 OA
ENDBRANCH  69  72
ENDBRANCH  51  65
BRANCH  52  76
ATOM     76  C   UNL A   1      45.882  30.334  32.165  1.00  0.00     0.023 A 
ATOM     77  C   UNL A   1      47.215  30.732  32.007  1.00  0.00     0.012 A 
ATOM     78  C   UNL A   1      45.189  30.933  33.267  1.00  0.00     0.148 A 
ATOM     79  C   UNL A   1      47.784  31.730  32.831  1.00  0.00     0.002 A 
ATOM     80  C   UNL A   1      45.706  31.999  33.993  1.00  0.00     0.091 A 
ATOM     81  F   UNL A   1      44.013  30.440  33.664  1.00  0.00    -0.205 F 
ATOM     82  C   UNL A   1      47.020  32.395  33.790  1.00  0.00     0.022 A 
BRANCH  80  83
ATOM     83  S   UNL A   1      44.671  32.980  35.103  1.00  0.00     0.127 S 
ATOM     84  O   UNL A   1      45.539  34.113  35.422  1.00  0.00    -0.237 OA
ATOM     85  O   UNL A   1      43.538  33.300  34.235  1.00  0.00    -0.237 OA
ATOM     86  O   UNL A   1      44.340  32.120  36.232  1.00  0.00    -0.744 OA
ENDBRANCH  80  83
ENDBRANCH  52  76
BRANCH  64  87
ATOM     87  C   UNL A   1      45.779  26.515  27.397  1.00  0.00     0.023 A 
ATOM     88  C   UNL A   1      44.512  26.987  26.998  1.00  0.00     0.012 A 
ATOM     89  C   UNL A   1      46.835  26.642  26.465  1.00  0.00     0.148 A 
ATOM     90  C   UNL A   1      44.294  27.539  25.731  1.00  0.00     0.002 A 
ATOM     91  C   UNL A   1      46.617  27.183  25.191  1.00  0.00     0.091 A 
ATOM     92  F   UNL A   1      48.051  26.231  26.818  1.00  0.00    -0.205 F 
ATOM     93  C   UNL A   1      45.344  27.635  24.827  1.00  0.00     0.022 A 
BRANCH  91  94
ATOM     94  S   UNL A   1      47.884  27.296  23.909  1.00  0.00     0.127 S 
ATOM     95  O   UNL A   1      48.968  28.004  24.594  1.00  0.00    -0.237 OA
ATOM     96  O   UNL A   1      48.171  25.891  23.631  1.00  0.00    -0.237 OA
ATOM     97  O   UNL A   1      47.290  28.040  22.806  1.00  0.00    -0.744 OA
ENDBRANCH  91  94
ENDBRANCH  64  87
ENDBRANCH  38  39
ENDBRANCH  31  33
ENDBRANCH  30  31
ENDBRANCH  29  30
ENDBRANCH   1  29
TORSDOF 20
ENDMDL
MODEL 3
REMARK VINA RESULT:      -8.9      1.413      2.490
REMARK SMILES COc1ccc(-c2ccc(CCC(=O)OCCOC(=O)c3ccc(-c4c5nc(c(-c6cccc(S(=O)(=O)[O-])c6F)c6ccc([nH]6)c(-c6cccc(S(=O)(=O)[O-])c6F)c6nc(c(-c7cccc(S(=O)(=O)[O-])c7F)c7ccc4[nH]7)C=C6)C=C5)cc3)n2-c2ccc(C(C)=O)cc2)cc1
REMARK SMILES IDX 16 1 15 2 13 3 14 4 12 5 11 6 10 7 7 8 8 9 84 10 9 11 6 12
REMARK SMILES IDX 3 13 4 14 95 15 5 16 94 17 2 18 1 19 85 20 86 21 93 22 87 23
REMARK SMILES IDX 92 24 88 25 89 26 90 27 91 28 17 29 18 30 19 31 20 32 21 33
REMARK SMILES IDX 22 34 83 35 23 36 82 37 24 38 25 39 26 40 76 41 27 42 81 43
REMARK SMILES IDX 75 44 77 45 28 46 80 47 74 48 73 49 29 51 61 52 41 53 60 54
REMARK SMILES IDX 42 55 45 56 59 57 78 58 43 59 44 60 58 62 79 63 46 64 30 65
REMARK SMILES IDX 31 66 39 67 32 68 34 69 40 70 33 71 35 72 36 73 37 74 38 75
REMARK SMILES IDX 62 76 63 77 71 78 64 79 66 80 72 81 65 82 67 83 68 84 69 85
REMARK SMILES IDX 70 86 47 87 48 88 56 89 49 90 51 91 57 92 50 93 52 94 53 95
REMARK SMILES IDX 54 96 55 97
REMARK H PARENT 77 50 45 61
REMARK Flexibility Score: inf
ROOT
ATOM      1  C   UNL A   1      34.900  32.961  29.032  1.00  0.00     0.274 C 
ENDROOT
BRANCH   1   2
ATOM      2  O   UNL A   1      34.910  33.940  30.089  1.00  0.00    -0.462 OA
BRANCH   2   3
ATOM      3  C   UNL A   1      34.936  33.472  31.362  1.00  0.00     0.306 C 
ATOM      4  O   UNL A   1      34.010  32.875  31.902  1.00  0.00    -0.252 OA
BRANCH   3   5
ATOM      5  C   UNL A   1      36.195  33.867  32.104  1.00  0.00     0.129 C 
BRANCH   5   6
ATOM      6  C   UNL A   1      36.428  33.234  33.476  1.00  0.00     0.066 C 
BRANCH   6   7
ATOM      7  C   UNL A   1      37.059  31.864  33.411  1.00  0.00     0.024 A 
ATOM      8  C   UNL A   1      38.693  30.314  33.530  1.00  0.00     0.053 A 
ATOM      9  C   UNL A   1      37.685  29.801  32.738  1.00  0.00     0.029 A 
ATOM     10  N   UNL A   1      38.236  31.518  34.062  1.00  0.00    -0.314 N 
ATOM     11  C   UNL A   1      36.649  30.745  32.710  1.00  0.00     0.024 A 
BRANCH   8  12
ATOM     12  C   UNL A   1      39.926  29.638  33.893  1.00  0.00    -0.001 A 
ATOM     13  C   UNL A   1      42.279  28.332  34.613  1.00  0.00     0.118 A 
ATOM     14  C   UNL A   1      41.860  28.325  33.284  1.00  0.00     0.047 A 
ATOM     15  C   UNL A   1      41.557  29.038  35.575  1.00  0.00     0.047 A 
ATOM     16  C   UNL A   1      40.681  28.973  32.923  1.00  0.00     0.014 A 
ATOM     17  C   UNL A   1      40.379  29.691  35.215  1.00  0.00     0.014 A 
BRANCH  13  18
ATOM     18  O   UNL A   1      43.441  27.664  34.888  1.00  0.00    -0.497 OA
ATOM     19  C   UNL A   1      44.179  28.263  35.949  1.00  0.00     0.278 C 
ENDBRANCH  13  18
ENDBRANCH   8  12
BRANCH  10  20
ATOM     20  C   UNL A   1      38.824  32.240  35.130  1.00  0.00     0.046 A 
ATOM     21  C   UNL A   1      38.314  32.065  36.422  1.00  0.00     0.027 A 
ATOM     22  C   UNL A   1      39.902  33.093  34.905  1.00  0.00     0.027 A 
ATOM     23  C   UNL A   1      38.877  32.754  37.497  1.00  0.00     0.014 A 
ATOM     24  C   UNL A   1      40.449  33.794  35.982  1.00  0.00     0.014 A 
ATOM     25  C   UNL A   1      39.946  33.632  37.285  1.00  0.00     0.017 A 
BRANCH  25  26
ATOM     26  C   UNL A   1      40.589  34.421  38.382  1.00  0.00     0.159 C 
ATOM     27  C   UNL A   1      40.885  33.799  39.723  1.00  0.00     0.093 C 
ATOM     28  O   UNL A   1      40.897  35.597  38.174  1.00  0.00    -0.295 OA
ENDBRANCH  25  26
ENDBRANCH  10  20
ENDBRANCH   6   7
ENDBRANCH   5   6
ENDBRANCH   3   5
ENDBRANCH   2   3
ENDBRANCH   1   2
BRANCH   1  29
ATOM     29  C   UNL A   1      36.223  32.199  28.888  1.00  0.00     0.275 C 
BRANCH  29  30
ATOM     30  O   UNL A   1      36.316  31.393  27.705  1.00  0.00    -0.458 OA
BRANCH  30  31
ATOM     31  C   UNL A   1      36.125  30.082  27.958  1.00  0.00     0.338 C 
ATOM     32  O   UNL A   1      35.071  29.543  28.228  1.00  0.00    -0.246 OA
BRANCH  31  33
ATOM     33  C   UNL A   1      37.341  29.300  28.074  1.00  0.00     0.060 A 
ATOM     34  C   UNL A   1      37.612  28.705  29.313  1.00  0.00     0.016 A 
ATOM     35  C   UNL A   1      38.323  29.487  27.105  1.00  0.00     0.016 A 
ATOM     36  C   UNL A   1      38.904  28.298  29.592  1.00  0.00     0.010 A 
ATOM     37  C   UNL A   1      39.622  29.118  27.403  1.00  0.00     0.010 A 
ATOM     38  C   UNL A   1      39.906  28.516  28.636  1.00  0.00    -0.014 A 
BRANCH  38  39
ATOM     39  C   UNL A   1      41.223  27.895  28.869  1.00  0.00     0.031 A 
ATOM     40  C   UNL A   1      41.193  26.412  28.440  1.00  0.00     0.074 A 
ATOM     41  C   UNL A   1      42.182  28.674  29.459  1.00  0.00     0.049 A 
ATOM     42  N   UNL A   1      41.817  25.390  28.945  1.00  0.00    -0.248 NA
ATOM     43  C   UNL A   1      40.230  25.971  27.390  1.00  0.00     0.031 C 
ATOM     44  C   UNL A   1      42.026  30.113  29.780  1.00  0.00     0.029 A 
ATOM     45  N   UNL A   1      43.468  28.441  29.906  1.00  0.00    -0.354 N 
ATOM     46  C   UNL A   1      41.511  24.273  28.128  1.00  0.00     0.074 A 
ATOM     47  C   UNL A   1      40.412  24.653  27.303  1.00  0.00     0.031 C 
ATOM     48  C   UNL A   1      43.116  30.589  30.424  1.00  0.00     0.029 A 
ATOM     49  C   UNL A   1      44.104  29.532  30.557  1.00  0.00     0.049 A 
ATOM     50  H   UNL A   1      43.916  27.573  29.782  1.00  0.00     0.167 HD
ATOM     51  C   UNL A   1      42.298  23.160  28.065  1.00  0.00     0.034 A 
ATOM     52  C   UNL A   1      45.324  29.576  31.184  1.00  0.00     0.034 A 
ATOM     53  C   UNL A   1      43.438  23.352  28.898  1.00  0.00     0.049 A 
ATOM     54  C   UNL A   1      45.970  28.295  30.876  1.00  0.00     0.074 A 
ATOM     55  C   UNL A   1      43.608  23.331  30.255  1.00  0.00     0.029 A 
ATOM     56  N   UNL A   1      44.501  23.984  28.297  1.00  0.00    -0.354 N 
ATOM     57  N   UNL A   1      46.475  27.983  29.719  1.00  0.00    -0.248 NA
ATOM     58  C   UNL A   1      45.976  27.240  31.898  1.00  0.00     0.031 C 
ATOM     59  C   UNL A   1      44.577  24.328  30.472  1.00  0.00     0.029 A 
ATOM     60  C   UNL A   1      45.098  24.768  29.248  1.00  0.00     0.049 A 
ATOM     61  H   UNL A   1      44.781  23.891  27.359  1.00  0.00     0.167 HD
ATOM     62  C   UNL A   1      46.495  26.612  29.786  1.00  0.00     0.074 A 
ATOM     63  C   UNL A   1      46.549  26.272  31.190  1.00  0.00     0.031 C 
ATOM     64  C   UNL A   1      45.890  25.892  28.806  1.00  0.00     0.034 A 
BRANCH  51  65
ATOM     65  C   UNL A   1      42.350  21.955  27.157  1.00  0.00     0.023 A 
ATOM     66  C   UNL A   1      41.459  20.899  27.507  1.00  0.00     0.012 A 
ATOM     67  C   UNL A   1      43.363  21.664  26.230  1.00  0.00     0.148 A 
ATOM     68  C   UNL A   1      41.640  19.591  27.070  1.00  0.00     0.002 A 
ATOM     69  C   UNL A   1      43.508  20.357  25.753  1.00  0.00     0.091 A 
ATOM     70  F   UNL A   1      44.234  22.617  25.883  1.00  0.00    -0.205 F 
ATOM     71  C   UNL A   1      42.678  19.317  26.202  1.00  0.00     0.022 A 
BRANCH  69  72
ATOM     72  S   UNL A   1      44.764  19.888  24.556  1.00  0.00     0.127 S 
ATOM     73  O   UNL A   1      44.496  20.810  23.456  1.00  0.00    -0.237 OA
ATOM     74  O   UNL A   1      46.000  20.165  25.291  1.00  0.00    -0.237 OA
ATOM     75  O   UNL A   1      44.541  18.474  24.286  1.00  0.00    -0.744 OA
ENDBRANCH  69  72
ENDBRANCH  51  65
BRANCH  52  76
ATOM     76  C   UNL A   1      46.089  30.511  32.103  1.00  0.00     0.023 A 
ATOM     77  C   UNL A   1      47.421  30.899  31.911  1.00  0.00     0.012 A 
ATOM     78  C   UNL A   1      45.430  31.113  33.224  1.00  0.00     0.148 A 
ATOM     79  C   UNL A   1      48.020  31.889  32.724  1.00  0.00     0.002 A 
ATOM     80  C   UNL A   1      45.975  32.172  33.941  1.00  0.00     0.091 A 
ATOM     81  F   UNL A   1      44.261  30.629  33.651  1.00  0.00    -0.205 F 
ATOM     82  C   UNL A   1      47.287  32.557  33.704  1.00  0.00     0.022 A 
BRANCH  80  83
ATOM     83  S   UNL A   1      44.978  33.159  35.080  1.00  0.00     0.127 S 
ATOM     84  O   UNL A   1      44.790  32.246  36.205  1.00  0.00    -0.237 OA
ATOM     85  O   UNL A   1      45.874  34.285  35.346  1.00  0.00    -0.237 OA
ATOM     86  O   UNL A   1      43.760  33.515  34.364  1.00  0.00    -0.744 OA
ENDBRANCH  80  83
ENDBRANCH  52  76
BRANCH  64  87
ATOM     87  C   UNL A   1      45.863  26.572  27.438  1.00  0.00     0.023 A 
ATOM     88  C   UNL A   1      44.622  27.085  27.008  1.00  0.00     0.012 A 
ATOM     89  C   UNL A   1      46.936  26.631  26.519  1.00  0.00     0.148 A 
ATOM     90  C   UNL A   1      44.444  27.611  25.724  1.00  0.00     0.002 A 
ATOM     91  C   UNL A   1      46.758  27.146  25.228  1.00  0.00     0.091 A 
ATOM     92  F   UNL A   1      48.128  26.180  26.901  1.00  0.00    -0.205 F 
ATOM     93  C   UNL A   1      45.510  27.639  24.833  1.00  0.00     0.022 A 
BRANCH  91  94
ATOM     94  S   UNL A   1      48.046  27.171  23.963  1.00  0.00     0.127 S 
ATOM     95  O   UNL A   1      49.145  27.863  24.641  1.00  0.00    -0.237 OA
ATOM     96  O   UNL A   1      48.286  25.749  23.735  1.00  0.00    -0.237 OA
ATOM     97  O   UNL A   1      47.495  27.900  22.827  1.00  0.00    -0.744 OA
ENDBRANCH  91  94
ENDBRANCH  64  87
ENDBRANCH  38  39
ENDBRANCH  31  33
ENDBRANCH  30  31
ENDBRANCH  29  30
ENDBRANCH   1  29
TORSDOF 20
ENDMDL
