MODEL 1
REMARK VINA RESULT:     -12.0      0.000      0.000
REMARK SMILES O=C(OCCOC(=O)[C@H](Cc1ccc(O)cc1)NC(=O)c1ccc(Cl)s1)c1ccc(-c2c3nc(c(-c4cccc(S(=O)(=O)[O-])c4F)c4ccc([nH]4)c(-c4cccc(S(=O)(=O)[O-])c4F)c4nc(c(-c5cccc(S(=O)(=O)[O-])c5F)c5ccc2[nH]5)C=C4)C=C3)cc1
REMARK SMILES IDX 4 1 3 2 2 3 1 4 27 5 28 6 89 7 29 8 88 9 30 10 31 11 32 12
REMARK SMILES IDX 82 13 33 14 87 15 81 16 83 17 34 18 86 19 80 20 79 21 35 23
REMARK SMILES IDX 67 24 47 25 66 26 48 27 51 28 65 29 84 30 49 31 50 32 64 34
REMARK SMILES IDX 85 35 52 36 36 37 37 38 45 39 38 40 40 41 46 42 39 43 41 44
REMARK SMILES IDX 42 45 43 46 44 47 68 48 69 49 77 50 70 51 72 52 78 53 71 54
REMARK SMILES IDX 73 55 74 56 75 57 76 58 53 59 54 60 62 61 55 62 57 63 63 64
REMARK SMILES IDX 56 65 58 66 59 67 60 68 61 69 5 70 6 71 7 72 8 73 9 74 18 75
REMARK SMILES IDX 19 76 20 78 21 79 22 80 26 81 23 82 24 83 25 84 10 85 11 86
REMARK SMILES IDX 12 87 17 88 13 89 16 90 14 91 15 92
REMARK H PARENT 83 22 51 33 18 77 15 93
REMARK Flexibility Score: inf
ROOT
ATOM      1  C   UNL A   1      31.538  30.331  26.778  1.00  0.00     0.275 C 
ENDROOT
BRANCH   1   2
ATOM      2  O   UNL A   1      32.548  31.310  26.505  1.00  0.00    -0.458 OA
BRANCH   2   3
ATOM      3  C   UNL A   1      33.312  31.992  27.390  1.00  0.00     0.338 C 
ATOM      4  O   UNL A   1      32.964  33.122  27.728  1.00  0.00    -0.246 OA
BRANCH   3   5
ATOM      5  C   UNL A   1      34.660  31.506  27.822  1.00  0.00     0.060 A 
ATOM      6  C   UNL A   1      35.826  32.266  27.969  1.00  0.00     0.016 A 
ATOM      7  C   UNL A   1      34.735  30.148  28.134  1.00  0.00     0.016 A 
ATOM      8  C   UNL A   1      36.970  31.741  28.599  1.00  0.00     0.010 A 
ATOM      9  C   UNL A   1      35.889  29.621  28.715  1.00  0.00     0.010 A 
ATOM     10  C   UNL A   1      36.995  30.421  29.044  1.00  0.00    -0.014 A 
BRANCH  10  11
ATOM     11  C   UNL A   1      38.126  29.834  29.833  1.00  0.00     0.031 A 
ATOM     12  C   UNL A   1      38.389  30.349  31.226  1.00  0.00     0.074 A 
ATOM     13  C   UNL A   1      39.035  29.001  29.270  1.00  0.00     0.049 A 
ATOM     14  N   UNL A   1      39.430  30.163  31.994  1.00  0.00    -0.248 NA
ATOM     15  C   UNL A   1      37.367  31.233  31.811  1.00  0.00     0.031 C 
ATOM     16  C   UNL A   1      38.983  28.447  27.916  1.00  0.00     0.029 A 
ATOM     17  N   UNL A   1      40.243  28.536  29.753  1.00  0.00    -0.354 N 
ATOM     18  C   UNL A   1      39.216  30.953  33.115  1.00  0.00     0.074 A 
ATOM     19  C   UNL A   1      37.988  31.681  32.890  1.00  0.00     0.031 C 
ATOM     20  C   UNL A   1      40.140  27.814  27.643  1.00  0.00     0.029 A 
ATOM     21  C   UNL A   1      41.010  27.879  28.811  1.00  0.00     0.049 A 
ATOM     22  H   UNL A   1      40.531  28.661  30.685  1.00  0.00     0.167 HD
ATOM     23  C   UNL A   1      39.927  31.016  34.265  1.00  0.00     0.034 A 
ATOM     24  C   UNL A   1      42.266  27.385  28.876  1.00  0.00     0.034 A 
ATOM     25  C   UNL A   1      41.051  30.176  34.562  1.00  0.00     0.049 A 
ATOM     26  C   UNL A   1      42.999  27.402  30.196  1.00  0.00     0.074 A 
ATOM     27  C   UNL A   1      41.682  29.990  35.779  1.00  0.00     0.029 A 
ATOM     28  N   UNL A   1      41.710  29.383  33.641  1.00  0.00    -0.354 N 
ATOM     29  N   UNL A   1      42.630  27.928  31.337  1.00  0.00    -0.248 NA
ATOM     30  C   UNL A   1      44.280  26.678  30.262  1.00  0.00     0.031 C 
ATOM     31  C   UNL A   1      42.733  29.088  35.592  1.00  0.00     0.029 A 
ATOM     32  C   UNL A   1      42.745  28.707  34.261  1.00  0.00     0.049 A 
ATOM     33  H   UNL A   1      41.477  29.309  32.688  1.00  0.00     0.167 HD
ATOM     34  C   UNL A   1      43.590  27.535  32.265  1.00  0.00     0.074 A 
ATOM     35  C   UNL A   1      44.559  26.729  31.557  1.00  0.00     0.031 C 
ATOM     36  C   UNL A   1      43.656  27.822  33.588  1.00  0.00     0.034 A 
BRANCH  23  37
ATOM     37  C   UNL A   1      39.434  31.938  35.344  1.00  0.00     0.023 A 
ATOM     38  C   UNL A   1      38.543  31.450  36.322  1.00  0.00     0.012 A 
ATOM     39  C   UNL A   1      39.912  33.259  35.436  1.00  0.00     0.148 A 
ATOM     40  C   UNL A   1      38.093  32.278  37.347  1.00  0.00     0.002 A 
ATOM     41  C   UNL A   1      39.505  34.059  36.495  1.00  0.00     0.091 A 
ATOM     42  F   UNL A   1      40.747  33.706  34.488  1.00  0.00    -0.205 F 
ATOM     43  C   UNL A   1      38.583  33.577  37.441  1.00  0.00     0.022 A 
BRANCH  41  44
ATOM     44  S   UNL A   1      40.153  35.710  36.772  1.00  0.00     0.127 S 
ATOM     45  O   UNL A   1      41.595  35.463  36.771  1.00  0.00    -0.237 OA
ATOM     46  O   UNL A   1      39.657  36.430  35.600  1.00  0.00    -0.237 OA
ATOM     47  O   UNL A   1      39.600  36.154  38.043  1.00  0.00    -0.744 OA
ENDBRANCH  41  44
ENDBRANCH  23  37
BRANCH  24  48
ATOM     48  C   UNL A   1      42.903  26.701  27.707  1.00  0.00     0.023 A 
ATOM     49  C   UNL A   1      43.661  27.475  26.803  1.00  0.00     0.012 A 
ATOM     50  C   UNL A   1      42.679  25.339  27.422  1.00  0.00     0.148 A 
ATOM     51  C   UNL A   1      44.134  26.924  25.612  1.00  0.00     0.002 A 
ATOM     52  C   UNL A   1      43.189  24.784  26.249  1.00  0.00     0.091 A 
ATOM     53  F   UNL A   1      41.930  24.627  28.272  1.00  0.00    -0.205 F 
ATOM     54  C   UNL A   1      43.899  25.582  25.336  1.00  0.00     0.022 A 
BRANCH  52  55
ATOM     55  S   UNL A   1      42.992  23.054  25.801  1.00  0.00     0.127 S 
ATOM     56  O   UNL A   1      43.869  22.394  26.768  1.00  0.00    -0.237 OA
ATOM     57  O   UNL A   1      41.562  22.846  26.038  1.00  0.00    -0.237 OA
ATOM     58  O   UNL A   1      43.402  22.944  24.411  1.00  0.00    -0.744 OA
ENDBRANCH  52  55
ENDBRANCH  24  48
BRANCH  36  59
ATOM     59  C   UNL A   1      44.758  27.204  34.407  1.00  0.00     0.023 A 
ATOM     60  C   UNL A   1      45.955  27.912  34.624  1.00  0.00     0.012 A 
ATOM     61  C   UNL A   1      44.556  25.968  35.058  1.00  0.00     0.148 A 
ATOM     62  C   UNL A   1      46.944  27.390  35.461  1.00  0.00     0.002 A 
ATOM     63  C   UNL A   1      45.523  25.479  35.928  1.00  0.00     0.091 A 
ATOM     64  F   UNL A   1      43.415  25.304  34.826  1.00  0.00    -0.205 F 
ATOM     65  C   UNL A   1      46.722  26.184  36.122  1.00  0.00     0.022 A 
BRANCH  63  66
ATOM     66  S   UNL A   1      45.285  23.987  36.900  1.00  0.00     0.127 S 
ATOM     67  O   UNL A   1      46.658  23.642  37.261  1.00  0.00    -0.237 OA
ATOM     68  O   UNL A   1      44.463  24.468  38.011  1.00  0.00    -0.237 OA
ATOM     69  O   UNL A   1      44.615  23.036  36.022  1.00  0.00    -0.744 OA
ENDBRANCH  63  66
ENDBRANCH  36  59
ENDBRANCH  10  11
ENDBRANCH   3   5
ENDBRANCH   2   3
ENDBRANCH   1   2
BRANCH   1  70
ATOM     70  C   UNL A   1      31.943  28.864  26.556  1.00  0.00     0.274 C 
BRANCH  70  71
ATOM     71  O   UNL A   1      31.488  28.255  25.329  1.00  0.00    -0.461 OA
BRANCH  71  72
ATOM     72  C   UNL A   1      32.117  28.712  24.203  1.00  0.00     0.329 C 
ATOM     73  O   UNL A   1      33.293  29.066  24.208  1.00  0.00    -0.250 OA
BRANCH  72  74
ATOM     74  C   UNL A   1      31.250  28.601  22.913  1.00  0.00     0.197 C 
BRANCH  74  75
ATOM     75  N   UNL A   1      31.611  27.493  22.019  1.00  0.00    -0.338 N 
ATOM     76  C   UNL A   1      32.669  26.619  22.238  1.00  0.00     0.262 C 
ATOM     77  H   UNL A   1      31.065  27.359  21.210  1.00  0.00     0.164 HD
ATOM     78  O   UNL A   1      33.614  26.780  21.466  1.00  0.00    -0.268 OA
BRANCH  76  79
ATOM     79  C   UNL A   1      32.592  25.576  23.254  1.00  0.00     0.093 A 
ATOM     80  C   UNL A   1      33.557  25.026  24.075  1.00  0.00     0.027 A 
ATOM     81  S   UNL A   1      31.060  24.856  23.605  1.00  0.00    -0.118 S 
ATOM     82  C   UNL A   1      33.031  24.168  25.089  1.00  0.00     0.033 A 
ATOM     83  C   UNL A   1      31.690  23.970  24.899  1.00  0.00     0.094 A 
ATOM     84  Cl  UNL A   1      30.676  22.925  25.810  1.00  0.00    -0.072 Cl
ENDBRANCH  76  79
ENDBRANCH  74  75
BRANCH  74  85
ATOM     85  C   UNL A   1      29.763  28.570  23.343  1.00  0.00     0.072 C 
BRANCH  85  86
ATOM     86  C   UNL A   1      29.102  29.851  22.894  1.00  0.00    -0.045 A 
ATOM     87  C   UNL A   1      28.547  29.936  21.612  1.00  0.00     0.007 A 
ATOM     88  C   UNL A   1      29.156  30.994  23.701  1.00  0.00     0.007 A 
ATOM     89  C   UNL A   1      28.090  31.156  21.122  1.00  0.00     0.046 A 
ATOM     90  C   UNL A   1      28.679  32.211  23.219  1.00  0.00     0.046 A 
ATOM     91  C   UNL A   1      28.161  32.285  21.931  1.00  0.00     0.115 A 
BRANCH  91  92
ATOM     92  O   UNL A   1      27.733  33.500  21.482  1.00  0.00    -0.508 OA
ATOM     93  H   UNL A   1      28.041  34.285  21.892  1.00  0.00     0.293 HD
ENDBRANCH  91  92
ENDBRANCH  85  86
ENDBRANCH  74  85
ENDBRANCH  72  74
ENDBRANCH  71  72
ENDBRANCH  70  71
ENDBRANCH   1  70
TORSDOF 19
ENDMDL
MODEL 2
REMARK VINA RESULT:     -11.9      1.844      7.686
REMARK SMILES O=C(OCCOC(=O)[C@H](Cc1ccc(O)cc1)NC(=O)c1ccc(Cl)s1)c1ccc(-c2c3nc(c(-c4cccc(S(=O)(=O)[O-])c4F)c4ccc([nH]4)c(-c4cccc(S(=O)(=O)[O-])c4F)c4nc(c(-c5cccc(S(=O)(=O)[O-])c5F)c5ccc2[nH]5)C=C4)C=C3)cc1
REMARK SMILES IDX 4 1 3 2 2 3 1 4 27 5 28 6 89 7 29 8 88 9 30 10 31 11 32 12
REMARK SMILES IDX 82 13 33 14 87 15 81 16 83 17 34 18 86 19 80 20 79 21 35 23
REMARK SMILES IDX 67 24 47 25 66 26 48 27 51 28 65 29 84 30 49 31 50 32 64 34
REMARK SMILES IDX 85 35 52 36 36 37 37 38 45 39 38 40 40 41 46 42 39 43 41 44
REMARK SMILES IDX 42 45 43 46 44 47 68 48 69 49 77 50 70 51 72 52 78 53 71 54
REMARK SMILES IDX 73 55 74 56 75 57 76 58 53 59 54 60 62 61 55 62 57 63 63 64
REMARK SMILES IDX 56 65 58 66 59 67 60 68 61 69 5 70 6 71 7 72 8 73 9 74 18 75
REMARK SMILES IDX 19 76 20 78 21 79 22 80 26 81 23 82 24 83 25 84 10 85 11 86
REMARK SMILES IDX 12 87 17 88 13 89 16 90 14 91 15 92
REMARK H PARENT 83 22 51 33 18 77 15 93
REMARK Flexibility Score: inf
ROOT
ATOM      1  C   UNL A   1      31.376  32.164  26.762  1.00  0.00     0.275 C 
ENDROOT
BRANCH   1   2
ATOM      2  O   UNL A   1      32.257  33.291  26.844  1.00  0.00    -0.458 OA
BRANCH   2   3
ATOM      3  C   UNL A   1      32.953  33.732  27.918  1.00  0.00     0.338 C 
ATOM      4  O   UNL A   1      32.531  34.704  28.542  1.00  0.00    -0.246 OA
BRANCH   3   5
ATOM      5  C   UNL A   1      34.312  33.206  28.259  1.00  0.00     0.060 A 
ATOM      6  C   UNL A   1      35.544  33.827  28.019  1.00  0.00     0.016 A 
ATOM      7  C   UNL A   1      34.330  31.973  28.912  1.00  0.00     0.016 A 
ATOM      8  C   UNL A   1      36.735  33.338  28.589  1.00  0.00     0.010 A 
ATOM      9  C   UNL A   1      35.522  31.470  29.434  1.00  0.00     0.010 A 
ATOM     10  C   UNL A   1      36.731  32.183  29.366  1.00  0.00    -0.014 A 
BRANCH  10  11
ATOM     11  C   UNL A   1      37.932  31.678  30.106  1.00  0.00     0.031 A 
ATOM     12  C   UNL A   1      38.731  30.542  29.515  1.00  0.00     0.074 A 
ATOM     13  C   UNL A   1      38.212  32.072  31.372  1.00  0.00     0.049 A 
ATOM     14  N   UNL A   1      39.651  29.800  30.071  1.00  0.00    -0.248 NA
ATOM     15  C   UNL A   1      38.413  30.160  28.129  1.00  0.00     0.031 C 
ATOM     16  C   UNL A   1      37.513  33.111  32.132  1.00  0.00     0.029 A 
ATOM     17  N   UNL A   1      39.123  31.576  32.285  1.00  0.00    -0.354 N 
ATOM     18  C   UNL A   1      39.971  28.831  29.131  1.00  0.00     0.074 A 
ATOM     19  C   UNL A   1      39.089  29.029  28.002  1.00  0.00     0.031 C 
ATOM     20  C   UNL A   1      37.942  33.102  33.408  1.00  0.00     0.029 A 
ATOM     21  C   UNL A   1      38.975  32.084  33.560  1.00  0.00     0.049 A 
ATOM     22  H   UNL A   1      39.815  30.919  32.046  1.00  0.00     0.167 HD
ATOM     23  C   UNL A   1      40.957  27.905  29.160  1.00  0.00     0.034 A 
ATOM     24  C   UNL A   1      39.597  31.772  34.718  1.00  0.00     0.034 A 
ATOM     25  C   UNL A   1      41.940  27.808  30.201  1.00  0.00     0.049 A 
ATOM     26  C   UNL A   1      40.745  30.791  34.698  1.00  0.00     0.074 A 
ATOM     27  C   UNL A   1      43.113  27.076  30.205  1.00  0.00     0.029 A 
ATOM     28  N   UNL A   1      41.869  28.462  31.417  1.00  0.00    -0.354 N 
ATOM     29  N   UNL A   1      41.210  30.086  33.697  1.00  0.00    -0.248 NA
ATOM     30  C   UNL A   1      41.514  30.633  35.945  1.00  0.00     0.031 C 
ATOM     31  C   UNL A   1      43.750  27.280  31.431  1.00  0.00     0.029 A 
ATOM     32  C   UNL A   1      42.976  28.147  32.183  1.00  0.00     0.049 A 
ATOM     33  H   UNL A   1      41.140  29.063  31.696  1.00  0.00     0.167 HD
ATOM     34  C   UNL A   1      42.362  29.465  34.173  1.00  0.00     0.074 A 
ATOM     35  C   UNL A   1      42.526  29.873  35.549  1.00  0.00     0.031 C 
ATOM     36  C   UNL A   1      43.204  28.629  33.518  1.00  0.00     0.034 A 
BRANCH  23  37
ATOM     37  C   UNL A   1      41.105  27.000  27.969  1.00  0.00     0.023 A 
ATOM     38  C   UNL A   1      41.812  27.452  26.836  1.00  0.00     0.012 A 
ATOM     39  C   UNL A   1      40.614  25.681  28.002  1.00  0.00     0.148 A 
ATOM     40  C   UNL A   1      41.985  26.623  25.731  1.00  0.00     0.002 A 
ATOM     41  C   UNL A   1      40.843  24.841  26.920  1.00  0.00     0.091 A 
ATOM     42  F   UNL A   1      39.932  25.277  29.083  1.00  0.00    -0.205 F 
ATOM     43  C   UNL A   1      41.511  25.315  25.778  1.00  0.00     0.022 A 
BRANCH  41  44
ATOM     44  S   UNL A   1      40.370  23.110  26.916  1.00  0.00     0.127 S 
ATOM     45  O   UNL A   1      41.180  22.586  25.816  1.00  0.00    -0.237 OA
ATOM     46  O   UNL A   1      40.795  22.677  28.247  1.00  0.00    -0.237 OA
ATOM     47  O   UNL A   1      38.931  23.084  26.694  1.00  0.00    -0.744 OA
ENDBRANCH  41  44
ENDBRANCH  23  37
BRANCH  24  48
ATOM     48  C   UNL A   1      39.266  32.468  36.001  1.00  0.00     0.023 A 
ATOM     49  C   UNL A   1      39.970  33.646  36.330  1.00  0.00     0.012 A 
ATOM     50  C   UNL A   1      38.361  31.927  36.935  1.00  0.00     0.148 A 
ATOM     51  C   UNL A   1      39.823  34.240  37.584  1.00  0.00     0.002 A 
ATOM     52  C   UNL A   1      38.188  32.548  38.171  1.00  0.00     0.091 A 
ATOM     53  F   UNL A   1      37.727  30.791  36.622  1.00  0.00    -0.205 F 
ATOM     54  C   UNL A   1      38.934  33.692  38.503  1.00  0.00     0.022 A 
BRANCH  52  55
ATOM     55  S   UNL A   1      37.038  31.964  39.425  1.00  0.00     0.127 S 
ATOM     56  O   UNL A   1      37.354  32.841  40.551  1.00  0.00    -0.237 OA
ATOM     57  O   UNL A   1      35.746  32.231  38.790  1.00  0.00    -0.237 OA
ATOM     58  O   UNL A   1      37.337  30.556  39.628  1.00  0.00    -0.744 OA
ENDBRANCH  52  55
ENDBRANCH  24  48
BRANCH  36  59
ATOM     59  C   UNL A   1      44.442  28.148  34.229  1.00  0.00     0.023 A 
ATOM     60  C   UNL A   1      45.613  28.927  34.208  1.00  0.00     0.012 A 
ATOM     61  C   UNL A   1      44.402  26.977  35.016  1.00  0.00     0.148 A 
ATOM     62  C   UNL A   1      46.735  28.539  34.942  1.00  0.00     0.002 A 
ATOM     63  C   UNL A   1      45.505  26.623  35.783  1.00  0.00     0.091 A 
ATOM     64  F   UNL A   1      43.281  26.242  35.011  1.00  0.00    -0.205 F 
ATOM     65  C   UNL A   1      46.676  27.397  35.739  1.00  0.00     0.022 A 
BRANCH  63  66
ATOM     66  S   UNL A   1      45.489  25.228  36.916  1.00  0.00     0.127 S 
ATOM     67  O   UNL A   1      46.817  25.315  37.518  1.00  0.00    -0.237 OA
ATOM     68  O   UNL A   1      44.387  25.572  37.815  1.00  0.00    -0.237 OA
ATOM     69  O   UNL A   1      45.253  24.046  36.097  1.00  0.00    -0.744 OA
ENDBRANCH  63  66
ENDBRANCH  36  59
ENDBRANCH  10  11
ENDBRANCH   3   5
ENDBRANCH   2   3
ENDBRANCH   1   2
BRANCH   1  70
ATOM     70  C   UNL A   1      32.047  30.780  26.794  1.00  0.00     0.274 C 
BRANCH  70  71
ATOM     71  O   UNL A   1      32.493  30.259  25.524  1.00  0.00    -0.461 OA
BRANCH  71  72
ATOM     72  C   UNL A   1      31.726  29.239  25.029  1.00  0.00     0.329 C 
ATOM     73  O   UNL A   1      31.353  28.302  25.729  1.00  0.00    -0.250 OA
BRANCH  72  74
ATOM     74  C   UNL A   1      31.263  29.462  23.557  1.00  0.00     0.197 C 
BRANCH  74  75
ATOM     75  N   UNL A   1      32.057  28.749  22.546  1.00  0.00    -0.338 N 
ATOM     76  C   UNL A   1      33.182  27.985  22.826  1.00  0.00     0.262 C 
ATOM     77  H   UNL A   1      31.771  28.818  21.606  1.00  0.00     0.164 HD
ATOM     78  O   UNL A   1      34.237  28.496  22.450  1.00  0.00    -0.268 OA
BRANCH  76  79
ATOM     79  C   UNL A   1      33.069  26.669  23.446  1.00  0.00     0.093 A 
ATOM     80  C   UNL A   1      33.874  26.016  24.359  1.00  0.00     0.027 A 
ATOM     81  S   UNL A   1      31.702  25.680  23.074  1.00  0.00    -0.118 S 
ATOM     82  C   UNL A   1      33.299  24.816  24.880  1.00  0.00     0.033 A 
ATOM     83  C   UNL A   1      32.139  24.515  24.218  1.00  0.00     0.094 A 
ATOM     84  Cl  UNL A   1      31.177  23.110  24.437  1.00  0.00    -0.072 Cl
ENDBRANCH  76  79
ENDBRANCH  74  75
BRANCH  74  85
ATOM     85  C   UNL A   1      29.753  29.133  23.480  1.00  0.00     0.072 C 
BRANCH  85  86
ATOM     86  C   UNL A   1      29.034  30.306  22.859  1.00  0.00    -0.045 A 
ATOM     87  C   UNL A   1      28.609  30.237  21.526  1.00  0.00     0.007 A 
ATOM     88  C   UNL A   1      28.904  31.509  23.564  1.00  0.00     0.007 A 
ATOM     89  C   UNL A   1      28.101  31.366  20.890  1.00  0.00     0.046 A 
ATOM     90  C   UNL A   1      28.375  32.633  22.933  1.00  0.00     0.046 A 
ATOM     91  C   UNL A   1      27.990  32.556  21.600  1.00  0.00     0.115 A 
BRANCH  91  92
ATOM     92  O   UNL A   1      27.507  33.686  21.006  1.00  0.00    -0.508 OA
ATOM     93  H   UNL A   1      26.634  33.700  20.668  1.00  0.00     0.293 HD
ENDBRANCH  91  92
ENDBRANCH  85  86
ENDBRANCH  74  85
ENDBRANCH  72  74
ENDBRANCH  71  72
ENDBRANCH  70  71
ENDBRANCH   1  70
TORSDOF 19
ENDMDL
MODEL 3
REMARK VINA RESULT:     -11.8      4.868     10.114
REMARK SMILES O=C(OCCOC(=O)[C@H](Cc1ccc(O)cc1)NC(=O)c1ccc(Cl)s1)c1ccc(-c2c3nc(c(-c4cccc(S(=O)(=O)[O-])c4F)c4ccc([nH]4)c(-c4cccc(S(=O)(=O)[O-])c4F)c4nc(c(-c5cccc(S(=O)(=O)[O-])c5F)c5ccc2[nH]5)C=C4)C=C3)cc1
REMARK SMILES IDX 4 1 3 2 2 3 1 4 27 5 28 6 89 7 29 8 88 9 30 10 31 11 32 12
REMARK SMILES IDX 82 13 33 14 87 15 81 16 83 17 34 18 86 19 80 20 79 21 35 23
REMARK SMILES IDX 67 24 47 25 66 26 48 27 51 28 65 29 84 30 49 31 50 32 64 34
REMARK SMILES IDX 85 35 52 36 36 37 37 38 45 39 38 40 40 41 46 42 39 43 41 44
REMARK SMILES IDX 42 45 43 46 44 47 68 48 69 49 77 50 70 51 72 52 78 53 71 54
REMARK SMILES IDX 73 55 74 56 75 57 76 58 53 59 54 60 62 61 55 62 57 63 63 64
REMARK SMILES IDX 56 65 58 66 59 67 60 68 61 69 5 70 6 71 7 72 8 73 9 74 18 75
REMARK SMILES IDX 19 76 20 78 21 79 22 80 26 81 23 82 24 83 25 84 10 85 11 86
REMARK SMILES IDX 12 87 17 88 13 89 16 90 14 91 15 92
REMARK H PARENT 83 22 51 33 18 77 15 93
REMARK Flexibility Score: inf
ROOT
ATOM      1  C   UNL A   1      36.144  20.306  24.920  1.00  0.00     0.275 C 
ENDROOT
BRANCH   1   2
ATOM      2  O   UNL A   1      36.896  21.273  25.664  1.00  0.00    -0.458 OA
BRANCH   2   3
ATOM      3  C   UNL A   1      38.240  21.401  25.750  1.00  0.00     0.338 C 
ATOM      4  O   UNL A   1      38.950  20.448  25.430  1.00  0.00    -0.246 OA
BRANCH   3   5
ATOM      5  C   UNL A   1      38.890  22.582  26.400  1.00  0.00     0.060 A 
ATOM      6  C   UNL A   1      40.091  22.598  27.119  1.00  0.00     0.016 A 
ATOM      7  C   UNL A   1      38.223  23.797  26.236  1.00  0.00     0.016 A 
ATOM      8  C   UNL A   1      40.711  23.807  27.485  1.00  0.00     0.010 A 
ATOM      9  C   UNL A   1      38.821  24.990  26.644  1.00  0.00     0.010 A 
ATOM     10  C   UNL A   1      40.114  25.030  27.192  1.00  0.00    -0.014 A 
BRANCH  10  11
ATOM     11  C   UNL A   1      40.774  26.354  27.437  1.00  0.00     0.031 A 
ATOM     12  C   UNL A   1      42.229  26.522  27.077  1.00  0.00     0.074 A 
ATOM     13  C   UNL A   1      40.166  27.337  28.144  1.00  0.00     0.049 A 
ATOM     14  N   UNL A   1      43.057  27.479  27.404  1.00  0.00    -0.248 NA
ATOM     15  C   UNL A   1      42.846  25.443  26.288  1.00  0.00     0.031 C 
ATOM     16  C   UNL A   1      38.786  27.330  28.632  1.00  0.00     0.029 A 
ATOM     17  N   UNL A   1      40.672  28.517  28.654  1.00  0.00    -0.354 N 
ATOM     18  C   UNL A   1      44.297  27.085  26.918  1.00  0.00     0.074 A 
ATOM     19  C   UNL A   1      44.128  25.767  26.348  1.00  0.00     0.031 C 
ATOM     20  C   UNL A   1      38.589  28.383  29.446  1.00  0.00     0.029 A 
ATOM     21  C   UNL A   1      39.814  29.171  29.517  1.00  0.00     0.049 A 
ATOM     22  H   UNL A   1      41.564  28.862  28.423  1.00  0.00     0.167 HD
ATOM     23  C   UNL A   1      45.457  27.779  26.876  1.00  0.00     0.034 A 
ATOM     24  C   UNL A   1      39.988  30.275  30.276  1.00  0.00     0.034 A 
ATOM     25  C   UNL A   1      45.593  29.147  27.288  1.00  0.00     0.049 A 
ATOM     26  C   UNL A   1      41.267  31.068  30.143  1.00  0.00     0.074 A 
ATOM     27  C   UNL A   1      46.650  30.009  27.060  1.00  0.00     0.029 A 
ATOM     28  N   UNL A   1      44.646  29.852  28.009  1.00  0.00    -0.354 N 
ATOM     29  N   UNL A   1      42.335  30.798  29.434  1.00  0.00    -0.248 NA
ATOM     30  C   UNL A   1      41.328  32.364  30.841  1.00  0.00     0.031 C 
ATOM     31  C   UNL A   1      46.346  31.237  27.653  1.00  0.00     0.029 A 
ATOM     32  C   UNL A   1      45.096  31.139  28.238  1.00  0.00     0.049 A 
ATOM     33  H   UNL A   1      43.781  29.492  28.312  1.00  0.00     0.167 HD
ATOM     34  C   UNL A   1      43.154  31.918  29.541  1.00  0.00     0.074 A 
ATOM     35  C   UNL A   1      42.465  32.870  30.382  1.00  0.00     0.031 C 
ATOM     36  C   UNL A   1      44.373  32.130  28.988  1.00  0.00     0.034 A 
BRANCH  23  37
ATOM     37  C   UNL A   1      46.649  27.116  26.244  1.00  0.00     0.023 A 
ATOM     38  C   UNL A   1      46.812  27.166  24.844  1.00  0.00     0.012 A 
ATOM     39  C   UNL A   1      47.642  26.513  27.038  1.00  0.00     0.148 A 
ATOM     40  C   UNL A   1      47.921  26.582  24.238  1.00  0.00     0.002 A 
ATOM     41  C   UNL A   1      48.773  25.984  26.431  1.00  0.00     0.091 A 
ATOM     42  F   UNL A   1      47.459  26.463  28.366  1.00  0.00    -0.205 F 
ATOM     43  C   UNL A   1      48.906  26.003  25.032  1.00  0.00     0.022 A 
BRANCH  41  44
ATOM     44  S   UNL A   1      50.151  25.310  27.363  1.00  0.00     0.127 S 
ATOM     45  O   UNL A   1      50.474  26.421  28.257  1.00  0.00    -0.237 OA
ATOM     46  O   UNL A   1      49.537  24.157  28.020  1.00  0.00    -0.237 OA
ATOM     47  O   UNL A   1      51.178  24.981  26.384  1.00  0.00    -0.744 OA
ENDBRANCH  41  44
ENDBRANCH  23  37
BRANCH  24  48
ATOM     48  C   UNL A   1      38.897  30.809  31.149  1.00  0.00     0.023 A 
ATOM     49  C   UNL A   1      38.928  30.508  32.528  1.00  0.00     0.012 A 
ATOM     50  C   UNL A   1      37.789  31.502  30.625  1.00  0.00     0.148 A 
ATOM     51  C   UNL A   1      37.854  30.836  33.356  1.00  0.00     0.002 A 
ATOM     52  C   UNL A   1      36.736  31.863  31.465  1.00  0.00     0.091 A 
ATOM     53  F   UNL A   1      37.758  31.749  29.310  1.00  0.00    -0.205 F 
ATOM     54  C   UNL A   1      36.761  31.512  32.825  1.00  0.00     0.022 A 
BRANCH  52  55
ATOM     55  S   UNL A   1      35.290  32.776  30.910  1.00  0.00     0.127 S 
ATOM     56  O   UNL A   1      34.878  32.001  29.740  1.00  0.00    -0.237 OA
ATOM     57  O   UNL A   1      34.398  32.653  32.065  1.00  0.00    -0.237 OA
ATOM     58  O   UNL A   1      35.744  34.129  30.633  1.00  0.00    -0.744 OA
ENDBRANCH  52  55
ENDBRANCH  24  48
BRANCH  36  59
ATOM     59  C   UNL A   1      45.032  33.470  29.184  1.00  0.00     0.023 A 
ATOM     60  C   UNL A   1      45.869  33.688  30.294  1.00  0.00     0.012 A 
ATOM     61  C   UNL A   1      44.911  34.474  28.199  1.00  0.00     0.148 A 
ATOM     62  C   UNL A   1      46.560  34.893  30.434  1.00  0.00     0.002 A 
ATOM     63  C   UNL A   1      45.641  35.651  28.320  1.00  0.00     0.091 A 
ATOM     64  F   UNL A   1      44.097  34.252  27.157  1.00  0.00    -0.205 F 
ATOM     65  C   UNL A   1      46.457  35.866  29.441  1.00  0.00     0.022 A 
BRANCH  63  66
ATOM     66  S   UNL A   1      45.651  36.918  27.046  1.00  0.00     0.127 S 
ATOM     67  O   UNL A   1      46.198  36.190  25.903  1.00  0.00    -0.237 OA
ATOM     68  O   UNL A   1      44.231  37.255  26.932  1.00  0.00    -0.237 OA
ATOM     69  O   UNL A   1      46.488  37.997  27.555  1.00  0.00    -0.744 OA
ENDBRANCH  63  66
ENDBRANCH  36  59
ENDBRANCH  10  11
ENDBRANCH   3   5
ENDBRANCH   2   3
ENDBRANCH   1   2
BRANCH   1  70
ATOM     70  C   UNL A   1      34.627  20.293  25.172  1.00  0.00     0.274 C 
BRANCH  70  71
ATOM     71  O   UNL A   1      33.818  21.035  24.234  1.00  0.00    -0.461 OA
BRANCH  71  72
ATOM     72  C   UNL A   1      32.532  21.259  24.648  1.00  0.00     0.329 C 
ATOM     73  O   UNL A   1      31.858  20.387  25.188  1.00  0.00    -0.250 OA
BRANCH  72  74
ATOM     74  C   UNL A   1      32.077  22.742  24.499  1.00  0.00     0.197 C 
BRANCH  74  75
ATOM     75  N   UNL A   1      30.785  23.057  25.124  1.00  0.00    -0.338 N 
ATOM     76  C   UNL A   1      30.582  24.089  26.031  1.00  0.00     0.262 C 
ATOM     77  H   UNL A   1      30.010  22.500  24.882  1.00  0.00     0.164 HD
ATOM     78  O   UNL A   1      30.386  23.705  27.184  1.00  0.00    -0.268 OA
BRANCH  76  79
ATOM     79  C   UNL A   1      30.542  25.482  25.599  1.00  0.00     0.093 A 
ATOM     80  C   UNL A   1      30.991  26.640  26.203  1.00  0.00     0.027 A 
ATOM     81  S   UNL A   1      29.871  25.862  24.053  1.00  0.00    -0.118 S 
ATOM     82  C   UNL A   1      30.952  27.787  25.352  1.00  0.00     0.033 A 
ATOM     83  C   UNL A   1      30.320  27.487  24.175  1.00  0.00     0.094 A 
ATOM     84  Cl  UNL A   1      29.951  28.587  22.909  1.00  0.00    -0.072 Cl
ENDBRANCH  76  79
ENDBRANCH  74  75
BRANCH  74  85
ATOM     85  C   UNL A   1      33.228  23.644  25.004  1.00  0.00     0.072 C 
BRANCH  85  86
ATOM     86  C   UNL A   1      33.453  24.750  24.002  1.00  0.00    -0.045 A 
ATOM     87  C   UNL A   1      33.959  25.985  24.427  1.00  0.00     0.007 A 
ATOM     88  C   UNL A   1      33.036  24.595  22.674  1.00  0.00     0.007 A 
ATOM     89  C   UNL A   1      34.009  27.065  23.551  1.00  0.00     0.046 A 
ATOM     90  C   UNL A   1      33.106  25.671  21.791  1.00  0.00     0.046 A 
ATOM     91  C   UNL A   1      33.580  26.898  22.238  1.00  0.00     0.115 A 
BRANCH  91  92
ATOM     92  O   UNL A   1      33.604  27.936  21.354  1.00  0.00    -0.508 OA
ATOM     93  H   UNL A   1      33.879  28.786  21.637  1.00  0.00     0.293 HD
ENDBRANCH  91  92
ENDBRANCH  85  86
ENDBRANCH  74  85
ENDBRANCH  72  74
ENDBRANCH  71  72
ENDBRANCH  70  71
ENDBRANCH   1  70
TORSDOF 19
ENDMDL
