MODEL 1
REMARK VINA RESULT:     -12.0      0.000      0.000
REMARK SMILES O=C(OCCOC(=O)c1cccc(N[C@H]2CCCC[C@@H]2O)c1)c1ccc(-c2c3nc(c(-c4cccc(S(=O)(=O)[O-])c4F)c4ccc([nH]4)c(-c4cccc(S(=O)(=O)[O-])c4F)c4nc(c(-c5cccc(S(=O)(=O)[O-])c5F)c5ccc2[nH]5)C=C4)C=C3)cc1
REMARK SMILES IDX 4 1 3 2 2 3 1 4 23 5 24 6 85 7 25 8 84 9 26 10 27 11 28 12
REMARK SMILES IDX 78 13 29 14 83 15 77 16 79 17 30 18 82 19 76 20 75 21 31 23
REMARK SMILES IDX 63 24 43 25 62 26 44 27 47 28 61 29 80 30 45 31 46 32 60 34
REMARK SMILES IDX 81 35 48 36 32 37 33 38 41 39 34 40 36 41 42 42 35 43 37 44
REMARK SMILES IDX 38 45 39 46 40 47 64 48 65 49 73 50 66 51 68 52 74 53 67 54
REMARK SMILES IDX 69 55 70 56 71 57 72 58 49 59 50 60 58 61 51 62 53 63 59 64
REMARK SMILES IDX 52 65 54 66 55 67 56 68 57 69 5 70 6 71 7 72 8 73 9 74 10 75
REMARK SMILES IDX 22 76 11 77 13 78 12 79 14 80 15 82 16 83 20 84 17 85 19 86
REMARK SMILES IDX 18 87 21 88
REMARK H PARENT 79 22 47 33 14 81 21 89
REMARK Flexibility Score: inf
ROOT
ATOM      1  C   UNL A   1      31.666  31.932  27.047  1.00  0.00     0.275 C 
ENDROOT
BRANCH   1   2
ATOM      2  O   UNL A   1      32.516  33.091  26.964  1.00  0.00    -0.458 OA
BRANCH   2   3
ATOM      3  C   UNL A   1      33.353  33.613  27.893  1.00  0.00     0.338 C 
ATOM      4  O   UNL A   1      33.214  34.792  28.216  1.00  0.00    -0.246 OA
BRANCH   3   5
ATOM      5  C   UNL A   1      34.531  32.875  28.446  1.00  0.00     0.060 A 
ATOM      6  C   UNL A   1      34.471  31.737  29.252  1.00  0.00     0.016 A 
ATOM      7  C   UNL A   1      35.801  33.403  28.144  1.00  0.00     0.016 A 
ATOM      8  C   UNL A   1      35.636  31.105  29.690  1.00  0.00     0.010 A 
ATOM      9  C   UNL A   1      36.972  32.770  28.572  1.00  0.00     0.010 A 
ATOM     10  C   UNL A   1      36.891  31.620  29.360  1.00  0.00    -0.014 A 
BRANCH  10  11
ATOM     11  C   UNL A   1      38.090  31.026  29.989  1.00  0.00     0.031 A 
ATOM     12  C   UNL A   1      38.480  31.491  31.362  1.00  0.00     0.074 A 
ATOM     13  C   UNL A   1      38.761  30.030  29.383  1.00  0.00     0.049 A 
ATOM     14  N   UNL A   1      39.411  31.031  32.153  1.00  0.00    -0.248 NA
ATOM     15  C   UNL A   1      37.687  32.591  31.939  1.00  0.00     0.031 C 
ATOM     16  C   UNL A   1      38.434  29.467  28.074  1.00  0.00     0.029 A 
ATOM     17  N   UNL A   1      39.869  29.328  29.779  1.00  0.00    -0.354 N 
ATOM     18  C   UNL A   1      39.299  31.763  33.328  1.00  0.00     0.074 A 
ATOM     19  C   UNL A   1      38.245  32.731  33.132  1.00  0.00     0.031 C 
ATOM     20  C   UNL A   1      39.364  28.554  27.741  1.00  0.00     0.029 A 
ATOM     21  C   UNL A   1      40.347  28.472  28.816  1.00  0.00     0.049 A 
ATOM     22  H   UNL A   1      40.283  29.425  30.668  1.00  0.00     0.167 HD
ATOM     23  C   UNL A   1      39.989  31.609  34.481  1.00  0.00     0.034 A 
ATOM     24  C   UNL A   1      41.473  27.734  28.796  1.00  0.00     0.034 A 
ATOM     25  C   UNL A   1      41.051  30.659  34.650  1.00  0.00     0.049 A 
ATOM     26  C   UNL A   1      42.327  27.701  30.032  1.00  0.00     0.074 A 
ATOM     27  C   UNL A   1      41.799  30.389  35.780  1.00  0.00     0.029 A 
ATOM     28  N   UNL A   1      41.539  29.842  33.638  1.00  0.00    -0.354 N 
ATOM     29  N   UNL A   1      42.134  28.302  31.179  1.00  0.00    -0.248 NA
ATOM     30  C   UNL A   1      43.519  26.843  29.992  1.00  0.00     0.031 C 
ATOM     31  C   UNL A   1      42.761  29.429  35.444  1.00  0.00     0.029 A 
ATOM     32  C   UNL A   1      42.593  29.082  34.111  1.00  0.00     0.049 A 
ATOM     33  H   UNL A   1      41.187  29.809  32.720  1.00  0.00     0.167 HD
ATOM     34  C   UNL A   1      43.136  27.843  32.024  1.00  0.00     0.074 A 
ATOM     35  C   UNL A   1      43.946  26.926  31.245  1.00  0.00     0.031 C 
ATOM     36  C   UNL A   1      43.353  28.140  33.328  1.00  0.00     0.034 A 
BRANCH  23  37
ATOM     37  C   UNL A   1      39.575  32.470  35.643  1.00  0.00     0.023 A 
ATOM     38  C   UNL A   1      38.695  31.946  36.613  1.00  0.00     0.012 A 
ATOM     39  C   UNL A   1      40.041  33.791  35.773  1.00  0.00     0.148 A 
ATOM     40  C   UNL A   1      38.254  32.735  37.675  1.00  0.00     0.002 A 
ATOM     41  C   UNL A   1      39.625  34.561  36.853  1.00  0.00     0.091 A 
ATOM     42  F   UNL A   1      40.853  34.279  34.826  1.00  0.00    -0.205 F 
ATOM     43  C   UNL A   1      38.724  34.040  37.798  1.00  0.00     0.022 A 
BRANCH  41  44
ATOM     44  S   UNL A   1      40.213  36.235  37.131  1.00  0.00     0.127 S 
ATOM     45  O   UNL A   1      41.628  36.007  37.420  1.00  0.00    -0.237 OA
ATOM     46  O   UNL A   1      39.950  36.871  35.840  1.00  0.00    -0.237 OA
ATOM     47  O   UNL A   1      39.424  36.759  38.236  1.00  0.00    -0.744 OA
ENDBRANCH  41  44
ENDBRANCH  23  37
BRANCH  24  48
ATOM     48  C   UNL A   1      41.836  26.946  27.589  1.00  0.00     0.023 A 
ATOM     49  C   UNL A   1      42.373  27.591  26.461  1.00  0.00     0.012 A 
ATOM     50  C   UNL A   1      41.651  25.551  27.560  1.00  0.00     0.148 A 
ATOM     51  C   UNL A   1      42.698  26.862  25.315  1.00  0.00     0.002 A 
ATOM     52  C   UNL A   1      42.008  24.826  26.429  1.00  0.00     0.091 A 
ATOM     53  F   UNL A   1      41.137  24.962  28.649  1.00  0.00    -0.205 F 
ATOM     54  C   UNL A   1      42.520  25.481  25.300  1.00  0.00     0.022 A 
BRANCH  52  55
ATOM     55  S   UNL A   1      41.888  23.037  26.353  1.00  0.00     0.127 S 
ATOM     56  O   UNL A   1      42.492  22.747  25.056  1.00  0.00    -0.237 OA
ATOM     57  O   UNL A   1      42.681  22.638  27.514  1.00  0.00    -0.237 OA
ATOM     58  O   UNL A   1      40.465  22.744  26.458  1.00  0.00    -0.744 OA
ENDBRANCH  52  55
ENDBRANCH  24  48
BRANCH  36  59
ATOM     59  C   UNL A   1      44.471  27.412  34.019  1.00  0.00     0.023 A 
ATOM     60  C   UNL A   1      45.783  27.921  33.969  1.00  0.00     0.012 A 
ATOM     61  C   UNL A   1      44.201  26.256  34.775  1.00  0.00     0.148 A 
ATOM     62  C   UNL A   1      46.817  27.270  34.642  1.00  0.00     0.002 A 
ATOM     63  C   UNL A   1      45.225  25.643  35.484  1.00  0.00     0.091 A 
ATOM     64  F   UNL A   1      42.949  25.774  34.784  1.00  0.00    -0.205 F 
ATOM     65  C   UNL A   1      46.536  26.140  35.409  1.00  0.00     0.022 A 
BRANCH  63  66
ATOM     66  S   UNL A   1      44.927  24.247  36.575  1.00  0.00     0.127 S 
ATOM     67  O   UNL A   1      44.371  23.261  35.652  1.00  0.00    -0.237 OA
ATOM     68  O   UNL A   1      46.271  23.939  37.062  1.00  0.00    -0.237 OA
ATOM     69  O   UNL A   1      44.013  24.734  37.601  1.00  0.00    -0.744 OA
ENDBRANCH  63  66
ENDBRANCH  36  59
ENDBRANCH  10  11
ENDBRANCH   3   5
ENDBRANCH   2   3
ENDBRANCH   1   2
BRANCH   1  70
ATOM     70  C   UNL A   1      32.237  30.659  26.414  1.00  0.00     0.275 C 
BRANCH  70  71
ATOM     71  O   UNL A   1      32.648  29.679  27.377  1.00  0.00    -0.458 OA
BRANCH  71  72
ATOM     72  C   UNL A   1      31.945  28.518  27.330  1.00  0.00     0.338 C 
ATOM     73  O   UNL A   1      31.077  28.164  28.112  1.00  0.00    -0.246 OA
BRANCH  72  74
ATOM     74  C   UNL A   1      32.246  27.792  26.081  1.00  0.00     0.062 A 
ATOM     75  C   UNL A   1      33.459  27.105  26.024  1.00  0.00     0.016 A 
ATOM     76  C   UNL A   1      31.375  27.792  24.982  1.00  0.00     0.041 A 
ATOM     77  C   UNL A   1      33.784  26.395  24.879  1.00  0.00     0.003 A 
ATOM     78  C   UNL A   1      31.705  27.106  23.797  1.00  0.00     0.035 A 
ATOM     79  C   UNL A   1      32.918  26.409  23.782  1.00  0.00     0.026 A 
BRANCH  78  80
ATOM     80  N   UNL A   1      30.872  27.218  22.706  1.00  0.00    -0.380 N 
ATOM     81  H   UNL A   1      31.033  26.558  21.994  1.00  0.00     0.160 HD
BRANCH  80  82
ATOM     82  C   UNL A   1      29.774  28.172  22.434  1.00  0.00     0.107 C 
ATOM     83  C   UNL A   1      28.539  27.833  23.279  1.00  0.00     0.027 C 
ATOM     84  C   UNL A   1      30.191  29.663  22.525  1.00  0.00     0.136 C 
ATOM     85  C   UNL A   1      27.396  28.826  23.100  1.00  0.00     0.002 C 
ATOM     86  C   UNL A   1      28.998  30.595  22.309  1.00  0.00     0.034 C 
ATOM     87  C   UNL A   1      27.857  30.269  23.260  1.00  0.00     0.003 C 
BRANCH  84  88
ATOM     88  O   UNL A   1      31.194  30.004  21.571  1.00  0.00    -0.391 OA
ATOM     89  H   UNL A   1      31.895  30.512  22.007  1.00  0.00     0.211 HD
ENDBRANCH  84  88
ENDBRANCH  80  82
ENDBRANCH  78  80
ENDBRANCH  72  74
ENDBRANCH  71  72
ENDBRANCH  70  71
ENDBRANCH   1  70
TORSDOF 17
ENDMDL
MODEL 2
REMARK VINA RESULT:     -11.6      1.518      2.772
REMARK SMILES O=C(OCCOC(=O)c1cccc(N[C@H]2CCCC[C@@H]2O)c1)c1ccc(-c2c3nc(c(-c4cccc(S(=O)(=O)[O-])c4F)c4ccc([nH]4)c(-c4cccc(S(=O)(=O)[O-])c4F)c4nc(c(-c5cccc(S(=O)(=O)[O-])c5F)c5ccc2[nH]5)C=C4)C=C3)cc1
REMARK SMILES IDX 4 1 3 2 2 3 1 4 23 5 24 6 85 7 25 8 84 9 26 10 27 11 28 12
REMARK SMILES IDX 78 13 29 14 83 15 77 16 79 17 30 18 82 19 76 20 75 21 31 23
REMARK SMILES IDX 63 24 43 25 62 26 44 27 47 28 61 29 80 30 45 31 46 32 60 34
REMARK SMILES IDX 81 35 48 36 32 37 33 38 41 39 34 40 36 41 42 42 35 43 37 44
REMARK SMILES IDX 38 45 39 46 40 47 64 48 65 49 73 50 66 51 68 52 74 53 67 54
REMARK SMILES IDX 69 55 70 56 71 57 72 58 49 59 50 60 58 61 51 62 53 63 59 64
REMARK SMILES IDX 52 65 54 66 55 67 56 68 57 69 5 70 6 71 7 72 8 73 9 74 10 75
REMARK SMILES IDX 22 76 11 77 13 78 12 79 14 80 15 82 16 83 20 84 17 85 19 86
REMARK SMILES IDX 18 87 21 88
REMARK H PARENT 79 22 47 33 14 81 21 89
REMARK Flexibility Score: inf
ROOT
ATOM      1  C   UNL A   1      31.564  32.428  26.848  1.00  0.00     0.275 C 
ENDROOT
BRANCH   1   2
ATOM      2  O   UNL A   1      32.605  33.415  26.966  1.00  0.00    -0.458 OA
BRANCH   2   3
ATOM      3  C   UNL A   1      33.301  33.806  28.061  1.00  0.00     0.338 C 
ATOM      4  O   UNL A   1      33.041  34.897  28.566  1.00  0.00    -0.246 OA
BRANCH   3   5
ATOM      5  C   UNL A   1      34.468  33.047  28.608  1.00  0.00     0.060 A 
ATOM      6  C   UNL A   1      34.394  31.962  29.482  1.00  0.00     0.016 A 
ATOM      7  C   UNL A   1      35.746  33.497  28.222  1.00  0.00     0.016 A 
ATOM      8  C   UNL A   1      35.548  31.303  29.909  1.00  0.00     0.010 A 
ATOM      9  C   UNL A   1      36.906  32.836  28.638  1.00  0.00     0.010 A 
ATOM     10  C   UNL A   1      36.809  31.738  29.496  1.00  0.00    -0.014 A 
BRANCH  10  11
ATOM     11  C   UNL A   1      38.007  31.127  30.110  1.00  0.00     0.031 A 
ATOM     12  C   UNL A   1      38.420  31.583  31.479  1.00  0.00     0.074 A 
ATOM     13  C   UNL A   1      38.657  30.123  29.493  1.00  0.00     0.049 A 
ATOM     14  N   UNL A   1      39.354  31.108  32.257  1.00  0.00    -0.248 NA
ATOM     15  C   UNL A   1      37.650  32.693  32.068  1.00  0.00     0.031 C 
ATOM     16  C   UNL A   1      38.306  29.567  28.187  1.00  0.00     0.029 A 
ATOM     17  N   UNL A   1      39.759  29.404  29.875  1.00  0.00    -0.354 N 
ATOM     18  C   UNL A   1      39.267  31.839  33.435  1.00  0.00     0.074 A 
ATOM     19  C   UNL A   1      38.224  32.822  33.254  1.00  0.00     0.031 C 
ATOM     20  C   UNL A   1      39.219  28.642  27.841  1.00  0.00     0.029 A 
ATOM     21  C   UNL A   1      40.214  28.544  28.903  1.00  0.00     0.049 A 
ATOM     22  H   UNL A   1      40.185  29.494  30.758  1.00  0.00     0.167 HD
ATOM     23  C   UNL A   1      39.969  31.673  34.579  1.00  0.00     0.034 A 
ATOM     24  C   UNL A   1      41.329  27.791  28.869  1.00  0.00     0.034 A 
ATOM     25  C   UNL A   1      41.020  30.708  34.733  1.00  0.00     0.049 A 
ATOM     26  C   UNL A   1      42.198  27.743  30.094  1.00  0.00     0.074 A 
ATOM     27  C   UNL A   1      41.777  30.425  35.854  1.00  0.00     0.029 A 
ATOM     28  N   UNL A   1      41.484  29.887  33.714  1.00  0.00    -0.354 N 
ATOM     29  N   UNL A   1      42.027  28.344  31.245  1.00  0.00    -0.248 NA
ATOM     30  C   UNL A   1      43.377  26.868  30.038  1.00  0.00     0.031 C 
ATOM     31  C   UNL A   1      42.721  29.453  35.503  1.00  0.00     0.029 A 
ATOM     32  C   UNL A   1      42.532  29.111  34.172  1.00  0.00     0.049 A 
ATOM     33  H   UNL A   1      41.119  29.861  32.800  1.00  0.00     0.167 HD
ATOM     34  C   UNL A   1      43.032  27.870  32.076  1.00  0.00     0.074 A 
ATOM     35  C   UNL A   1      43.820  26.943  31.285  1.00  0.00     0.031 C 
ATOM     36  C   UNL A   1      43.270  28.160  33.378  1.00  0.00     0.034 A 
BRANCH  23  37
ATOM     37  C   UNL A   1      39.581  32.537  35.748  1.00  0.00     0.023 A 
ATOM     38  C   UNL A   1      38.724  32.016  36.740  1.00  0.00     0.012 A 
ATOM     39  C   UNL A   1      40.048  33.859  35.863  1.00  0.00     0.148 A 
ATOM     40  C   UNL A   1      38.307  32.807  37.809  1.00  0.00     0.002 A 
ATOM     41  C   UNL A   1      39.657  34.632  36.951  1.00  0.00     0.091 A 
ATOM     42  F   UNL A   1      40.838  34.345  34.896  1.00  0.00    -0.205 F 
ATOM     43  C   UNL A   1      38.779  34.112  37.917  1.00  0.00     0.022 A 
BRANCH  41  44
ATOM     44  S   UNL A   1      40.249  36.307  37.209  1.00  0.00     0.127 S 
ATOM     45  O   UNL A   1      39.977  36.921  35.911  1.00  0.00    -0.237 OA
ATOM     46  O   UNL A   1      39.389  36.774  38.296  1.00  0.00    -0.237 OA
ATOM     47  O   UNL A   1      41.657  36.184  37.560  1.00  0.00    -0.744 OA
ENDBRANCH  41  44
ENDBRANCH  23  37
BRANCH  24  48
ATOM     48  C   UNL A   1      41.667  27.001  27.655  1.00  0.00     0.023 A 
ATOM     49  C   UNL A   1      42.181  27.643  26.516  1.00  0.00     0.012 A 
ATOM     50  C   UNL A   1      41.478  25.606  27.633  1.00  0.00     0.148 A 
ATOM     51  C   UNL A   1      42.482  26.911  25.365  1.00  0.00     0.002 A 
ATOM     52  C   UNL A   1      41.812  24.879  26.496  1.00  0.00     0.091 A 
ATOM     53  F   UNL A   1      40.987  25.019  28.733  1.00  0.00    -0.205 F 
ATOM     54  C   UNL A   1      42.302  25.531  25.356  1.00  0.00     0.022 A 
BRANCH  52  55
ATOM     55  S   UNL A   1      41.688  23.089  26.425  1.00  0.00     0.127 S 
ATOM     56  O   UNL A   1      40.244  22.882  26.497  1.00  0.00    -0.237 OA
ATOM     57  O   UNL A   1      42.296  22.802  25.128  1.00  0.00    -0.237 OA
ATOM     58  O   UNL A   1      42.444  22.607  27.572  1.00  0.00    -0.744 OA
ENDBRANCH  52  55
ENDBRANCH  24  48
BRANCH  36  59
ATOM     59  C   UNL A   1      44.386  27.416  34.054  1.00  0.00     0.023 A 
ATOM     60  C   UNL A   1      45.699  27.922  34.014  1.00  0.00     0.012 A 
ATOM     61  C   UNL A   1      44.113  26.244  34.786  1.00  0.00     0.148 A 
ATOM     62  C   UNL A   1      46.731  27.255  34.673  1.00  0.00     0.002 A 
ATOM     63  C   UNL A   1      45.135  25.614  35.482  1.00  0.00     0.091 A 
ATOM     64  F   UNL A   1      42.860  25.766  34.785  1.00  0.00    -0.205 F 
ATOM     65  C   UNL A   1      46.447  26.110  35.417  1.00  0.00     0.022 A 
BRANCH  63  66
ATOM     66  S   UNL A   1      44.833  24.198  36.544  1.00  0.00     0.127 S 
ATOM     67  O   UNL A   1      43.939  24.764  37.550  1.00  0.00    -0.237 OA
ATOM     68  O   UNL A   1      44.200  23.250  35.627  1.00  0.00    -0.237 OA
ATOM     69  O   UNL A   1      46.143  23.779  37.029  1.00  0.00    -0.744 OA
ENDBRANCH  63  66
ENDBRANCH  36  59
ENDBRANCH  10  11
ENDBRANCH   3   5
ENDBRANCH   2   3
ENDBRANCH   1   2
BRANCH   1  70
ATOM     70  C   UNL A   1      32.049  30.988  26.661  1.00  0.00     0.275 C 
BRANCH  70  71
ATOM     71  O   UNL A   1      31.282  30.248  25.701  1.00  0.00    -0.458 OA
BRANCH  71  72
ATOM     72  C   UNL A   1      31.981  29.283  25.051  1.00  0.00     0.338 C 
ATOM     73  O   UNL A   1      33.197  29.198  24.968  1.00  0.00    -0.246 OA
BRANCH  72  74
ATOM     74  C   UNL A   1      31.069  28.218  24.589  1.00  0.00     0.062 A 
ATOM     75  C   UNL A   1      30.054  28.593  23.708  1.00  0.00     0.016 A 
ATOM     76  C   UNL A   1      31.188  26.887  25.015  1.00  0.00     0.041 A 
ATOM     77  C   UNL A   1      29.178  27.629  23.232  1.00  0.00     0.003 A 
ATOM     78  C   UNL A   1      30.285  25.902  24.571  1.00  0.00     0.035 A 
ATOM     79  C   UNL A   1      29.294  26.307  23.670  1.00  0.00     0.026 A 
BRANCH  78  80
ATOM     80  N   UNL A   1      30.372  24.632  25.095  1.00  0.00    -0.380 N 
ATOM     81  H   UNL A   1      29.989  24.530  25.996  1.00  0.00     0.160 HD
BRANCH  80  82
ATOM     82  C   UNL A   1      30.947  23.396  24.520  1.00  0.00     0.107 C 
ATOM     83  C   UNL A   1      32.029  23.731  23.484  1.00  0.00     0.027 C 
ATOM     84  C   UNL A   1      31.409  22.360  25.577  1.00  0.00     0.136 C 
ATOM     85  C   UNL A   1      32.715  22.497  22.910  1.00  0.00     0.002 C 
ATOM     86  C   UNL A   1      32.061  21.141  24.924  1.00  0.00     0.034 C 
ATOM     87  C   UNL A   1      33.198  21.547  23.998  1.00  0.00     0.003 C 
BRANCH  84  88
ATOM     88  O   UNL A   1      30.331  21.898  26.390  1.00  0.00    -0.391 OA
ATOM     89  H   UNL A   1      30.418  22.267  27.282  1.00  0.00     0.211 HD
ENDBRANCH  84  88
ENDBRANCH  80  82
ENDBRANCH  78  80
ENDBRANCH  72  74
ENDBRANCH  71  72
ENDBRANCH  70  71
ENDBRANCH   1  70
TORSDOF 17
ENDMDL
MODEL 3
REMARK VINA RESULT:     -11.6      5.851     12.172
REMARK SMILES O=C(OCCOC(=O)c1cccc(N[C@H]2CCCC[C@@H]2O)c1)c1ccc(-c2c3nc(c(-c4cccc(S(=O)(=O)[O-])c4F)c4ccc([nH]4)c(-c4cccc(S(=O)(=O)[O-])c4F)c4nc(c(-c5cccc(S(=O)(=O)[O-])c5F)c5ccc2[nH]5)C=C4)C=C3)cc1
REMARK SMILES IDX 4 1 3 2 2 3 1 4 23 5 24 6 85 7 25 8 84 9 26 10 27 11 28 12
REMARK SMILES IDX 78 13 29 14 83 15 77 16 79 17 30 18 82 19 76 20 75 21 31 23
REMARK SMILES IDX 63 24 43 25 62 26 44 27 47 28 61 29 80 30 45 31 46 32 60 34
REMARK SMILES IDX 81 35 48 36 32 37 33 38 41 39 34 40 36 41 42 42 35 43 37 44
REMARK SMILES IDX 38 45 39 46 40 47 64 48 65 49 73 50 66 51 68 52 74 53 67 54
REMARK SMILES IDX 69 55 70 56 71 57 72 58 49 59 50 60 58 61 51 62 53 63 59 64
REMARK SMILES IDX 52 65 54 66 55 67 56 68 57 69 5 70 6 71 7 72 8 73 9 74 10 75
REMARK SMILES IDX 22 76 11 77 13 78 12 79 14 80 15 82 16 83 20 84 17 85 19 86
REMARK SMILES IDX 18 87 21 88
REMARK H PARENT 79 22 47 33 14 81 21 89
REMARK Flexibility Score: inf
ROOT
ATOM      1  C   UNL A   1      40.989  21.094  26.562  1.00  0.00     0.275 C 
ENDROOT
BRANCH   1   2
ATOM      2  O   UNL A   1      39.708  21.635  26.934  1.00  0.00    -0.458 OA
BRANCH   2   3
ATOM      3  C   UNL A   1      39.072  22.739  26.470  1.00  0.00     0.338 C 
ATOM      4  O   UNL A   1      38.236  22.606  25.577  1.00  0.00    -0.246 OA
BRANCH   3   5
ATOM      5  C   UNL A   1      39.432  24.131  26.884  1.00  0.00     0.060 A 
ATOM      6  C   UNL A   1      40.068  25.078  26.081  1.00  0.00     0.016 A 
ATOM      7  C   UNL A   1      39.124  24.490  28.210  1.00  0.00     0.016 A 
ATOM      8  C   UNL A   1      40.331  26.364  26.557  1.00  0.00     0.010 A 
ATOM      9  C   UNL A   1      39.376  25.779  28.691  1.00  0.00     0.010 A 
ATOM     10  C   UNL A   1      39.994  26.720  27.864  1.00  0.00    -0.014 A 
BRANCH  10  11
ATOM     11  C   UNL A   1      40.449  28.027  28.384  1.00  0.00     0.031 A 
ATOM     12  C   UNL A   1      41.923  28.301  28.435  1.00  0.00     0.074 A 
ATOM     13  C   UNL A   1      39.559  28.980  28.717  1.00  0.00     0.049 A 
ATOM     14  N   UNL A   1      42.544  29.410  28.734  1.00  0.00    -0.248 NA
ATOM     15  C   UNL A   1      42.817  27.193  28.056  1.00  0.00     0.031 C 
ATOM     16  C   UNL A   1      38.106  28.836  28.653  1.00  0.00     0.029 A 
ATOM     17  N   UNL A   1      39.746  30.250  29.194  1.00  0.00    -0.354 N 
ATOM     18  C   UNL A   1      43.895  29.143  28.554  1.00  0.00     0.074 A 
ATOM     19  C   UNL A   1      44.010  27.756  28.168  1.00  0.00     0.031 C 
ATOM     20  C   UNL A   1      37.530  29.949  29.143  1.00  0.00     0.029 A 
ATOM     21  C   UNL A   1      38.577  30.879  29.552  1.00  0.00     0.049 A 
ATOM     22  H   UNL A   1      40.632  30.674  29.272  1.00  0.00     0.167 HD
ATOM     23  C   UNL A   1      44.940  29.995  28.660  1.00  0.00     0.034 A 
ATOM     24  C   UNL A   1      38.383  32.057  30.172  1.00  0.00     0.034 A 
ATOM     25  C   UNL A   1      44.810  31.364  29.070  1.00  0.00     0.049 A 
ATOM     26  C   UNL A   1      39.578  32.929  30.440  1.00  0.00     0.074 A 
ATOM     27  C   UNL A   1      45.791  32.331  29.182  1.00  0.00     0.029 A 
ATOM     28  N   UNL A   1      43.617  31.952  29.469  1.00  0.00    -0.354 N 
ATOM     29  N   UNL A   1      40.835  32.712  30.144  1.00  0.00    -0.248 NA
ATOM     30  C   UNL A   1      39.321  34.231  31.069  1.00  0.00     0.031 C 
ATOM     31  C   UNL A   1      45.195  33.496  29.679  1.00  0.00     0.029 A 
ATOM     32  C   UNL A   1      43.838  33.262  29.850  1.00  0.00     0.049 A 
ATOM     33  H   UNL A   1      42.742  31.501  29.480  1.00  0.00     0.167 HD
ATOM     34  C   UNL A   1      41.513  33.874  30.483  1.00  0.00     0.074 A 
ATOM     35  C   UNL A   1      40.524  34.786  31.026  1.00  0.00     0.031 C 
ATOM     36  C   UNL A   1      42.829  34.165  30.342  1.00  0.00     0.034 A 
BRANCH  23  37
ATOM     37  C   UNL A   1      46.296  29.459  28.289  1.00  0.00     0.023 A 
ATOM     38  C   UNL A   1      46.698  29.470  26.937  1.00  0.00     0.012 A 
ATOM     39  C   UNL A   1      47.166  28.939  29.264  1.00  0.00     0.148 A 
ATOM     40  C   UNL A   1      47.928  28.935  26.555  1.00  0.00     0.002 A 
ATOM     41  C   UNL A   1      48.406  28.440  28.881  1.00  0.00     0.091 A 
ATOM     42  F   UNL A   1      46.755  28.912  30.539  1.00  0.00    -0.205 F 
ATOM     43  C   UNL A   1      48.783  28.427  27.528  1.00  0.00     0.022 A 
BRANCH  41  44
ATOM     44  S   UNL A   1      49.601  27.811  30.064  1.00  0.00     0.127 S 
ATOM     45  O   UNL A   1      48.887  26.666  30.626  1.00  0.00    -0.237 OA
ATOM     46  O   UNL A   1      50.731  27.461  29.203  1.00  0.00    -0.237 OA
ATOM     47  O   UNL A   1      49.861  28.904  30.991  1.00  0.00    -0.744 OA
ENDBRANCH  41  44
ENDBRANCH  23  37
BRANCH  24  48
ATOM     48  C   UNL A   1      37.012  32.494  30.549  1.00  0.00     0.023 A 
ATOM     49  C   UNL A   1      36.544  32.294  31.859  1.00  0.00     0.012 A 
ATOM     50  C   UNL A   1      36.172  33.111  29.603  1.00  0.00     0.148 A 
ATOM     51  C   UNL A   1      35.251  32.683  32.216  1.00  0.00     0.002 A 
ATOM     52  C   UNL A   1      34.898  33.526  29.974  1.00  0.00     0.091 A 
ATOM     53  F   UNL A   1      36.644  33.288  28.362  1.00  0.00    -0.205 F 
ATOM     54  C   UNL A   1      34.430  33.302  31.277  1.00  0.00     0.022 A 
BRANCH  52  55
ATOM     55  S   UNL A   1      33.805  34.402  28.852  1.00  0.00     0.127 S 
ATOM     56  O   UNL A   1      33.407  33.343  27.928  1.00  0.00    -0.237 OA
ATOM     57  O   UNL A   1      32.757  34.864  29.759  1.00  0.00    -0.237 OA
ATOM     58  O   UNL A   1      34.620  35.461  28.272  1.00  0.00    -0.744 OA
ENDBRANCH  52  55
ENDBRANCH  24  48
BRANCH  36  59
ATOM     59  C   UNL A   1      43.267  35.553  30.714  1.00  0.00     0.023 A 
ATOM     60  C   UNL A   1      43.683  35.834  32.030  1.00  0.00     0.012 A 
ATOM     61  C   UNL A   1      43.328  36.562  29.734  1.00  0.00     0.148 A 
ATOM     62  C   UNL A   1      44.128  37.111  32.370  1.00  0.00     0.002 A 
ATOM     63  C   UNL A   1      43.821  37.817  30.067  1.00  0.00     0.091 A 
ATOM     64  F   UNL A   1      42.900  36.278  28.495  1.00  0.00    -0.205 F 
ATOM     65  C   UNL A   1      44.209  38.097  31.387  1.00  0.00     0.022 A 
BRANCH  63  66
ATOM     66  S   UNL A   1      44.054  39.106  28.840  1.00  0.00     0.127 S 
ATOM     67  O   UNL A   1      44.578  40.201  29.653  1.00  0.00    -0.237 OA
ATOM     68  O   UNL A   1      45.027  38.500  27.931  1.00  0.00    -0.237 OA
ATOM     69  O   UNL A   1      42.742  39.334  28.249  1.00  0.00    -0.744 OA
ENDBRANCH  63  66
ENDBRANCH  36  59
ENDBRANCH  10  11
ENDBRANCH   3   5
ENDBRANCH   2   3
ENDBRANCH   1   2
BRANCH   1  70
ATOM     70  C   UNL A   1      41.046  19.567  26.459  1.00  0.00     0.275 C 
BRANCH  70  71
ATOM     71  O   UNL A   1      41.924  19.098  25.427  1.00  0.00    -0.458 OA
BRANCH  71  72
ATOM     72  C   UNL A   1      43.049  18.491  25.883  1.00  0.00     0.338 C 
ATOM     73  O   UNL A   1      43.112  17.409  26.446  1.00  0.00    -0.246 OA
BRANCH  72  74
ATOM     74  C   UNL A   1      44.244  19.240  25.447  1.00  0.00     0.062 A 
ATOM     75  C   UNL A   1      45.462  18.559  25.474  1.00  0.00     0.016 A 
ATOM     76  C   UNL A   1      44.185  20.580  25.038  1.00  0.00     0.041 A 
ATOM     77  C   UNL A   1      46.613  19.212  25.062  1.00  0.00     0.003 A 
ATOM     78  C   UNL A   1      45.350  21.270  24.651  1.00  0.00     0.035 A 
ATOM     79  C   UNL A   1      46.551  20.552  24.667  1.00  0.00     0.026 A 
BRANCH  78  80
ATOM     80  N   UNL A   1      45.265  22.612  24.358  1.00  0.00    -0.380 N 
ATOM     81  H   UNL A   1      44.811  22.822  23.510  1.00  0.00     0.160 HD
BRANCH  80  82
ATOM     82  C   UNL A   1      45.744  23.790  25.114  1.00  0.00     0.107 C 
ATOM     83  C   UNL A   1      45.396  23.658  26.603  1.00  0.00     0.027 C 
ATOM     84  C   UNL A   1      47.233  24.144  24.860  1.00  0.00     0.136 C 
ATOM     85  C   UNL A   1      45.932  24.807  27.450  1.00  0.00     0.002 C 
ATOM     86  C   UNL A   1      47.688  25.319  25.725  1.00  0.00     0.034 C 
ATOM     87  C   UNL A   1      47.412  25.066  27.199  1.00  0.00     0.003 C 
BRANCH  84  88
ATOM     88  O   UNL A   1      47.485  24.478  23.497  1.00  0.00    -0.391 OA
ATOM     89  H   UNL A   1      48.275  24.007  23.189  1.00  0.00     0.211 HD
ENDBRANCH  84  88
ENDBRANCH  80  82
ENDBRANCH  78  80
ENDBRANCH  72  74
ENDBRANCH  71  72
ENDBRANCH  70  71
ENDBRANCH   1  70
TORSDOF 17
ENDMDL
