MODEL 1
REMARK VINA RESULT:     -10.4      0.000      0.000
REMARK SMILES CC[C@H](Oc1ccc(C)nc1C[NH3+])C(=O)OCCOC(=O)c1ccc(-c2c3nc(c(-c4cccc(S(=O)(=O)[O-])c4F)c4ccc([nH]4)c(-c4cccc(S(=O)(=O)[O-])c4F)c4nc(c(-c5cccc(S(=O)(=O)[O-])c5F)c5ccc2[nH]5)C=C4)C=C3)cc1
REMARK SMILES IDX 17 1 16 2 14 3 15 4 3 5 2 6 1 7 4 8 5 9 6 10 11 11 7 12
REMARK SMILES IDX 10 13 8 14 9 15 12 16 13 17 18 21 19 22 20 23 21 24 22 25
REMARK SMILES IDX 23 26 84 27 24 28 83 29 25 30 26 31 27 32 77 33 28 34 82 35
REMARK SMILES IDX 76 36 78 37 29 38 81 39 75 40 74 41 30 43 62 44 42 45 61 46
REMARK SMILES IDX 43 47 46 48 60 49 79 50 44 51 45 52 59 54 80 55 47 56 31 57
REMARK SMILES IDX 32 58 40 59 33 60 35 61 41 62 34 63 36 64 37 65 38 66 39 67
REMARK SMILES IDX 63 68 64 69 72 70 65 71 67 72 73 73 66 74 68 75 69 76 70 77
REMARK SMILES IDX 71 78 48 79 49 80 57 81 50 82 52 83 58 84 51 85 53 86 54 87
REMARK SMILES IDX 55 88 56 89
REMARK H PARENT 13 18 13 19 13 20 78 42 46 53
REMARK Flexibility Score: inf
ROOT
ATOM      1  C   UNL A   1      36.681  22.505  23.752  1.00  0.00     0.274 C 
ENDROOT
BRANCH   1   2
ATOM      2  O   UNL A   1      35.778  23.323  24.517  1.00  0.00    -0.459 OA
BRANCH   2   3
ATOM      3  C   UNL A   1      34.783  23.944  23.826  1.00  0.00     0.347 C 
ATOM      4  O   UNL A   1      34.763  24.082  22.609  1.00  0.00    -0.248 OA
BRANCH   3   5
ATOM      5  C   UNL A   1      33.618  24.345  24.750  1.00  0.00     0.282 C 
BRANCH   5   6
ATOM      6  C   UNL A   1      33.929  25.647  25.516  1.00  0.00     0.054 C 
ATOM      7  C   UNL A   1      33.497  26.917  24.803  1.00  0.00     0.008 C 
ENDBRANCH   5   6
BRANCH   5   8
ATOM      8  O   UNL A   1      32.930  23.342  25.469  1.00  0.00    -0.477 OA
BRANCH   8   9
ATOM      9  C   UNL A   1      32.749  22.076  25.023  1.00  0.00     0.147 A 
ATOM     10  C   UNL A   1      32.201  21.723  23.797  1.00  0.00     0.050 A 
ATOM     11  C   UNL A   1      33.243  21.050  25.843  1.00  0.00     0.136 A 
ATOM     12  C   UNL A   1      32.234  20.393  23.384  1.00  0.00     0.027 A 
ATOM     13  N   UNL A   1      33.280  19.748  25.444  1.00  0.00    -0.248 NA
ATOM     14  C   UNL A   1      32.804  19.442  24.219  1.00  0.00     0.038 A 
ATOM     15  C   UNL A   1      32.912  18.010  23.800  1.00  0.00     0.067 C 
BRANCH  11  16
ATOM     16  C   UNL A   1      33.742  21.340  27.251  1.00  0.00     0.320 C 
BRANCH  16  17
ATOM     17  N   UNL A   1      34.927  22.215  27.274  1.00  0.00    -0.352 N 
ATOM     18  H   UNL A   1      35.681  21.781  26.743  1.00  0.00     0.344 HD
ATOM     19  H   UNL A   1      35.227  22.357  28.238  1.00  0.00     0.344 HD
ATOM     20  H   UNL A   1      34.691  23.116  26.856  1.00  0.00     0.344 HD
ENDBRANCH  16  17
ENDBRANCH  11  16
ENDBRANCH   8   9
ENDBRANCH   5   8
ENDBRANCH   3   5
ENDBRANCH   2   3
ENDBRANCH   1   2
BRANCH   1  21
ATOM     21  C   UNL A   1      36.958  21.190  24.486  1.00  0.00     0.275 C 
BRANCH  21  22
ATOM     22  O   UNL A   1      37.396  21.415  25.842  1.00  0.00    -0.458 OA
BRANCH  22  23
ATOM     23  C   UNL A   1      38.727  21.281  26.042  1.00  0.00     0.338 C 
ATOM     24  O   UNL A   1      39.431  20.330  25.724  1.00  0.00    -0.246 OA
BRANCH  23  25
ATOM     25  C   UNL A   1      39.284  22.511  26.620  1.00  0.00     0.060 A 
ATOM     26  C   UNL A   1      38.721  23.730  26.240  1.00  0.00     0.016 A 
ATOM     27  C   UNL A   1      40.427  22.482  27.417  1.00  0.00     0.016 A 
ATOM     28  C   UNL A   1      39.328  24.927  26.595  1.00  0.00     0.010 A 
ATOM     29  C   UNL A   1      41.012  23.690  27.816  1.00  0.00     0.010 A 
ATOM     30  C   UNL A   1      40.481  24.919  27.385  1.00  0.00    -0.014 A 
BRANCH  30  31
ATOM     31  C   UNL A   1      41.126  26.207  27.731  1.00  0.00     0.031 A 
ATOM     32  C   UNL A   1      42.530  26.495  27.282  1.00  0.00     0.074 A 
ATOM     33  C   UNL A   1      40.432  27.128  28.427  1.00  0.00     0.049 A 
ATOM     34  N   UNL A   1      43.279  27.535  27.539  1.00  0.00    -0.248 NA
ATOM     35  C   UNL A   1      43.181  25.479  26.437  1.00  0.00     0.031 C 
ATOM     36  C   UNL A   1      39.054  26.965  28.898  1.00  0.00     0.029 A 
ATOM     37  N   UNL A   1      40.788  28.377  28.864  1.00  0.00    -0.354 N 
ATOM     38  C   UNL A   1      44.504  27.279  26.936  1.00  0.00     0.074 A 
ATOM     39  C   UNL A   1      44.398  25.987  26.292  1.00  0.00     0.031 C 
ATOM     40  C   UNL A   1      38.682  28.073  29.556  1.00  0.00     0.029 A 
ATOM     41  C   UNL A   1      39.807  29.002  29.598  1.00  0.00     0.049 A 
ATOM     42  H   UNL A   1      41.662  28.787  28.672  1.00  0.00     0.167 HD
ATOM     43  C   UNL A   1      45.612  28.057  26.911  1.00  0.00     0.034 A 
ATOM     44  C   UNL A   1      39.820  30.178  30.253  1.00  0.00     0.034 A 
ATOM     45  C   UNL A   1      45.692  29.365  27.503  1.00  0.00     0.049 A 
ATOM     46  C   UNL A   1      41.063  31.022  30.204  1.00  0.00     0.074 A 
ATOM     47  C   UNL A   1      46.756  30.249  27.496  1.00  0.00     0.029 A 
ATOM     48  N   UNL A   1      44.666  29.980  28.204  1.00  0.00    -0.354 N 
ATOM     49  N   UNL A   1      42.185  30.799  29.564  1.00  0.00    -0.248 NA
ATOM     50  C   UNL A   1      41.036  32.288  30.951  1.00  0.00     0.031 C 
ATOM     51  C   UNL A   1      46.375  31.398  28.200  1.00  0.00     0.029 A 
ATOM     52  C   UNL A   1      45.071  31.230  28.638  1.00  0.00     0.049 A 
ATOM     53  H   UNL A   1      43.779  29.586  28.368  1.00  0.00     0.167 HD
ATOM     54  C   UNL A   1      42.991  31.903  29.813  1.00  0.00     0.074 A 
ATOM     55  C   UNL A   1      42.217  32.807  30.641  1.00  0.00     0.031 C 
ATOM     56  C   UNL A   1      44.265  32.137  29.414  1.00  0.00     0.034 A 
BRANCH  43  57
ATOM     57  C   UNL A   1      46.821  27.526  26.192  1.00  0.00     0.023 A 
ATOM     58  C   UNL A   1      46.987  27.792  24.818  1.00  0.00     0.012 A 
ATOM     59  C   UNL A   1      47.819  26.813  26.885  1.00  0.00     0.148 A 
ATOM     60  C   UNL A   1      48.116  27.334  24.139  1.00  0.00     0.002 A 
ATOM     61  C   UNL A   1      48.958  26.390  26.208  1.00  0.00     0.091 A 
ATOM     62  F   UNL A   1      47.630  26.546  28.185  1.00  0.00    -0.205 F 
ATOM     63  C   UNL A   1      49.105  26.643  24.836  1.00  0.00     0.022 A 
BRANCH  61  64
ATOM     64  S   UNL A   1      50.312  25.550  27.040  1.00  0.00     0.127 S 
ATOM     65  O   UNL A   1      51.272  25.386  25.950  1.00  0.00    -0.237 OA
ATOM     66  O   UNL A   1      50.706  26.526  28.058  1.00  0.00    -0.237 OA
ATOM     67  O   UNL A   1      49.747  24.319  27.574  1.00  0.00    -0.744 OA
ENDBRANCH  61  64
ENDBRANCH  43  57
BRANCH  44  68
ATOM     68  C   UNL A   1      38.602  30.634  30.979  1.00  0.00     0.023 A 
ATOM     69  C   UNL A   1      38.522  30.459  32.373  1.00  0.00     0.012 A 
ATOM     70  C   UNL A   1      37.549  31.286  30.307  1.00  0.00     0.148 A 
ATOM     71  C   UNL A   1      37.408  30.909  33.083  1.00  0.00     0.002 A 
ATOM     72  C   UNL A   1      36.469  31.784  31.027  1.00  0.00     0.091 A 
ATOM     73  F   UNL A   1      37.630  31.422  28.975  1.00  0.00    -0.205 F 
ATOM     74  C   UNL A   1      36.389  31.584  32.413  1.00  0.00     0.022 A 
BRANCH  72  75
ATOM     75  S   UNL A   1      35.195  32.786  30.255  1.00  0.00     0.127 S 
ATOM     76  O   UNL A   1      34.293  33.041  31.374  1.00  0.00    -0.237 OA
ATOM     77  O   UNL A   1      35.953  33.951  29.796  1.00  0.00    -0.237 OA
ATOM     78  O   UNL A   1      34.661  31.964  29.176  1.00  0.00    -0.744 OA
ENDBRANCH  72  75
ENDBRANCH  44  68
BRANCH  56  79
ATOM     79  C   UNL A   1      44.900  33.428  29.853  1.00  0.00     0.023 A 
ATOM     80  C   UNL A   1      45.650  33.460  31.044  1.00  0.00     0.012 A 
ATOM     81  C   UNL A   1      44.819  34.584  29.053  1.00  0.00     0.148 A 
ATOM     82  C   UNL A   1      46.291  34.631  31.447  1.00  0.00     0.002 A 
ATOM     83  C   UNL A   1      45.494  35.737  29.440  1.00  0.00     0.091 A 
ATOM     84  F   UNL A   1      44.082  34.540  27.934  1.00  0.00    -0.205 F 
ATOM     85  C   UNL A   1      46.223  35.764  30.640  1.00  0.00     0.022 A 
BRANCH  83  86
ATOM     86  S   UNL A   1      45.529  37.210  28.413  1.00  0.00     0.127 S 
ATOM     87  O   UNL A   1      44.123  37.612  28.420  1.00  0.00    -0.237 OA
ATOM     88  O   UNL A   1      46.419  38.097  29.163  1.00  0.00    -0.237 OA
ATOM     89  O   UNL A   1      46.057  36.781  27.125  1.00  0.00    -0.744 OA
ENDBRANCH  83  86
ENDBRANCH  56  79
ENDBRANCH  30  31
ENDBRANCH  23  25
ENDBRANCH  22  23
ENDBRANCH  21  22
ENDBRANCH   1  21
TORSDOF 19
ENDMDL
MODEL 2
REMARK VINA RESULT:     -10.2      1.369      8.379
REMARK SMILES CC[C@H](Oc1ccc(C)nc1C[NH3+])C(=O)OCCOC(=O)c1ccc(-c2c3nc(c(-c4cccc(S(=O)(=O)[O-])c4F)c4ccc([nH]4)c(-c4cccc(S(=O)(=O)[O-])c4F)c4nc(c(-c5cccc(S(=O)(=O)[O-])c5F)c5ccc2[nH]5)C=C4)C=C3)cc1
REMARK SMILES IDX 17 1 16 2 14 3 15 4 3 5 2 6 1 7 4 8 5 9 6 10 11 11 7 12
REMARK SMILES IDX 10 13 8 14 9 15 12 16 13 17 18 21 19 22 20 23 21 24 22 25
REMARK SMILES IDX 23 26 84 27 24 28 83 29 25 30 26 31 27 32 77 33 28 34 82 35
REMARK SMILES IDX 76 36 78 37 29 38 81 39 75 40 74 41 30 43 62 44 42 45 61 46
REMARK SMILES IDX 43 47 46 48 60 49 79 50 44 51 45 52 59 54 80 55 47 56 31 57
REMARK SMILES IDX 32 58 40 59 33 60 35 61 41 62 34 63 36 64 37 65 38 66 39 67
REMARK SMILES IDX 63 68 64 69 72 70 65 71 67 72 73 73 66 74 68 75 69 76 70 77
REMARK SMILES IDX 71 78 48 79 49 80 57 81 50 82 52 83 58 84 51 85 53 86 54 87
REMARK SMILES IDX 55 88 56 89
REMARK H PARENT 13 18 13 19 13 20 78 42 46 53
REMARK Flexibility Score: inf
ROOT
ATOM      1  C   UNL A   1      35.347  20.074  25.039  1.00  0.00     0.274 C 
ENDROOT
BRANCH   1   2
ATOM      2  O   UNL A   1      34.573  20.976  24.227  1.00  0.00    -0.459 OA
BRANCH   2   3
ATOM      3  C   UNL A   1      33.485  21.545  24.815  1.00  0.00     0.347 C 
ATOM      4  O   UNL A   1      32.427  20.966  25.027  1.00  0.00    -0.248 OA
BRANCH   3   5
ATOM      5  C   UNL A   1      33.788  22.975  25.297  1.00  0.00     0.282 C 
BRANCH   5   6
ATOM      6  C   UNL A   1      34.363  22.978  26.728  1.00  0.00     0.054 C 
ATOM      7  C   UNL A   1      33.463  22.338  27.771  1.00  0.00     0.008 C 
ENDBRANCH   5   6
BRANCH   5   8
ATOM      8  O   UNL A   1      32.885  24.016  24.980  1.00  0.00    -0.477 OA
BRANCH   8   9
ATOM      9  C   UNL A   1      32.829  25.200  25.635  1.00  0.00     0.147 A 
ATOM     10  C   UNL A   1      33.807  26.184  25.607  1.00  0.00     0.050 A 
ATOM     11  C   UNL A   1      31.638  25.475  26.324  1.00  0.00     0.136 A 
ATOM     12  C   UNL A   1      33.550  27.428  26.178  1.00  0.00     0.027 A 
ATOM     13  N   UNL A   1      31.380  26.690  26.883  1.00  0.00    -0.248 NA
ATOM     14  C   UNL A   1      32.320  27.652  26.782  1.00  0.00     0.038 A 
ATOM     15  C   UNL A   1      31.974  28.986  27.362  1.00  0.00     0.067 C 
BRANCH  11  16
ATOM     16  C   UNL A   1      30.571  24.405  26.509  1.00  0.00     0.320 C 
BRANCH  16  17
ATOM     17  N   UNL A   1      29.205  24.956  26.555  1.00  0.00    -0.352 N 
ATOM     18  H   UNL A   1      29.203  25.895  26.159  1.00  0.00     0.344 HD
ATOM     19  H   UNL A   1      28.886  24.994  27.522  1.00  0.00     0.344 HD
ATOM     20  H   UNL A   1      28.580  24.357  26.014  1.00  0.00     0.344 HD
ENDBRANCH  16  17
ENDBRANCH  11  16
ENDBRANCH   8   9
ENDBRANCH   5   8
ENDBRANCH   3   5
ENDBRANCH   2   3
ENDBRANCH   1   2
BRANCH   1  21
ATOM     21  C   UNL A   1      36.843  20.282  24.784  1.00  0.00     0.275 C 
BRANCH  21  22
ATOM     22  O   UNL A   1      37.416  21.233  25.705  1.00  0.00    -0.458 OA
BRANCH  22  23
ATOM     23  C   UNL A   1      38.722  21.035  25.992  1.00  0.00     0.338 C 
ATOM     24  O   UNL A   1      39.389  20.036  25.753  1.00  0.00    -0.246 OA
BRANCH  23  25
ATOM     25  C   UNL A   1      39.313  22.254  26.561  1.00  0.00     0.060 A 
ATOM     26  C   UNL A   1      38.810  23.486  26.140  1.00  0.00     0.016 A 
ATOM     27  C   UNL A   1      40.432  22.196  27.391  1.00  0.00     0.016 A 
ATOM     28  C   UNL A   1      39.455  24.665  26.488  1.00  0.00     0.010 A 
ATOM     29  C   UNL A   1      41.053  23.388  27.782  1.00  0.00     0.010 A 
ATOM     30  C   UNL A   1      40.585  24.628  27.311  1.00  0.00    -0.014 A 
BRANCH  30  31
ATOM     31  C   UNL A   1      41.271  25.896  27.648  1.00  0.00     0.031 A 
ATOM     32  C   UNL A   1      40.553  26.961  28.427  1.00  0.00     0.074 A 
ATOM     33  C   UNL A   1      42.553  26.074  27.275  1.00  0.00     0.049 A 
ATOM     34  N   UNL A   1      40.965  28.156  28.761  1.00  0.00    -0.248 NA
ATOM     35  C   UNL A   1      39.190  26.645  28.887  1.00  0.00     0.031 C 
ATOM     36  C   UNL A   1      43.357  25.101  26.532  1.00  0.00     0.029 A 
ATOM     37  N   UNL A   1      43.402  27.135  27.461  1.00  0.00    -0.354 N 
ATOM     38  C   UNL A   1      39.900  28.754  29.422  1.00  0.00     0.074 A 
ATOM     39  C   UNL A   1      38.822  27.789  29.449  1.00  0.00     0.031 C 
ATOM     40  C   UNL A   1      44.582  25.608  26.329  1.00  0.00     0.029 A 
ATOM     41  C   UNL A   1      44.636  26.958  26.879  1.00  0.00     0.049 A 
ATOM     42  H   UNL A   1      43.152  27.945  27.962  1.00  0.00     0.167 HD
ATOM     43  C   UNL A   1      39.832  29.991  29.968  1.00  0.00     0.034 A 
ATOM     44  C   UNL A   1      45.683  27.798  26.778  1.00  0.00     0.034 A 
ATOM     45  C   UNL A   1      40.926  30.924  29.988  1.00  0.00     0.049 A 
ATOM     46  C   UNL A   1      45.580  29.163  27.396  1.00  0.00     0.074 A 
ATOM     47  C   UNL A   1      40.971  32.186  30.553  1.00  0.00     0.029 A 
ATOM     48  N   UNL A   1      42.172  30.695  29.424  1.00  0.00    -0.354 N 
ATOM     49  N   UNL A   1      44.593  29.684  28.085  1.00  0.00    -0.248 NA
ATOM     50  C   UNL A   1      46.741  30.052  27.242  1.00  0.00     0.031 C 
ATOM     51  C   UNL A   1      42.243  32.723  30.324  1.00  0.00     0.029 A 
ATOM     52  C   UNL A   1      42.992  31.792  29.623  1.00  0.00     0.049 A 
ATOM     53  H   UNL A   1      42.435  29.872  28.952  1.00  0.00     0.167 HD
ATOM     54  C   UNL A   1      45.018  30.951  28.463  1.00  0.00     0.074 A 
ATOM     55  C   UNL A   1      46.366  31.109  27.950  1.00  0.00     0.031 C 
ATOM     56  C   UNL A   1      44.348  31.907  29.151  1.00  0.00     0.034 A 
BRANCH  43  57
ATOM     57  C   UNL A   1      38.538  30.398  30.617  1.00  0.00     0.023 A 
ATOM     58  C   UNL A   1      38.316  30.098  31.975  1.00  0.00     0.012 A 
ATOM     59  C   UNL A   1      37.567  31.124  29.899  1.00  0.00     0.148 A 
ATOM     60  C   UNL A   1      37.136  30.492  32.604  1.00  0.00     0.002 A 
ATOM     61  C   UNL A   1      36.407  31.543  30.543  1.00  0.00     0.091 A 
ATOM     62  F   UNL A   1      37.784  31.374  28.601  1.00  0.00    -0.205 F 
ATOM     63  C   UNL A   1      36.187  31.223  31.892  1.00  0.00     0.022 A 
BRANCH  61  64
ATOM     64  S   UNL A   1      35.162  32.544  29.721  1.00  0.00     0.127 S 
ATOM     65  O   UNL A   1      34.316  32.945  30.843  1.00  0.00    -0.237 OA
ATOM     66  O   UNL A   1      35.962  33.626  29.144  1.00  0.00    -0.237 OA
ATOM     67  O   UNL A   1      34.536  31.670  28.740  1.00  0.00    -0.744 OA
ENDBRANCH  61  64
ENDBRANCH  43  57
BRANCH  44  68
ATOM     68  C   UNL A   1      46.926  27.351  26.090  1.00  0.00     0.023 A 
ATOM     69  C   UNL A   1      47.125  27.682  24.737  1.00  0.00     0.012 A 
ATOM     70  C   UNL A   1      47.933  26.647  26.780  1.00  0.00     0.148 A 
ATOM     71  C   UNL A   1      48.297  27.306  24.078  1.00  0.00     0.002 A 
ATOM     72  C   UNL A   1      49.122  26.327  26.135  1.00  0.00     0.091 A 
ATOM     73  F   UNL A   1      47.716  26.318  28.062  1.00  0.00    -0.205 F 
ATOM     74  C   UNL A   1      49.301  26.642  24.781  1.00  0.00     0.022 A 
BRANCH  72  75
ATOM     75  S   UNL A   1      50.512  25.603  27.013  1.00  0.00     0.127 S 
ATOM     76  O   UNL A   1      49.941  24.351  27.501  1.00  0.00    -0.237 OA
ATOM     77  O   UNL A   1      51.506  25.454  25.949  1.00  0.00    -0.237 OA
ATOM     78  O   UNL A   1      50.875  26.581  28.030  1.00  0.00    -0.744 OA
ENDBRANCH  72  75
ENDBRANCH  44  68
BRANCH  56  79
ATOM     79  C   UNL A   1      45.063  33.206  29.405  1.00  0.00     0.023 A 
ATOM     80  C   UNL A   1      45.851  33.347  30.564  1.00  0.00     0.012 A 
ATOM     81  C   UNL A   1      45.018  34.253  28.466  1.00  0.00     0.148 A 
ATOM     82  C   UNL A   1      46.564  34.522  30.797  1.00  0.00     0.002 A 
ATOM     83  C   UNL A   1      45.764  35.406  28.684  1.00  0.00     0.091 A 
ATOM     84  F   UNL A   1      44.244  34.109  27.380  1.00  0.00    -0.205 F 
ATOM     85  C   UNL A   1      46.531  35.545  29.853  1.00  0.00     0.022 A 
BRANCH  83  86
ATOM     86  S   UNL A   1      45.843  36.733  27.476  1.00  0.00     0.127 S 
ATOM     87  O   UNL A   1      44.454  37.186  27.438  1.00  0.00    -0.237 OA
ATOM     88  O   UNL A   1      46.774  37.674  28.101  1.00  0.00    -0.237 OA
ATOM     89  O   UNL A   1      46.342  36.122  26.252  1.00  0.00    -0.744 OA
ENDBRANCH  83  86
ENDBRANCH  56  79
ENDBRANCH  30  31
ENDBRANCH  23  25
ENDBRANCH  22  23
ENDBRANCH  21  22
ENDBRANCH   1  21
TORSDOF 19
ENDMDL
MODEL 3
REMARK VINA RESULT:      -9.9      1.767      2.679
REMARK SMILES CC[C@H](Oc1ccc(C)nc1C[NH3+])C(=O)OCCOC(=O)c1ccc(-c2c3nc(c(-c4cccc(S(=O)(=O)[O-])c4F)c4ccc([nH]4)c(-c4cccc(S(=O)(=O)[O-])c4F)c4nc(c(-c5cccc(S(=O)(=O)[O-])c5F)c5ccc2[nH]5)C=C4)C=C3)cc1
REMARK SMILES IDX 17 1 16 2 14 3 15 4 3 5 2 6 1 7 4 8 5 9 6 10 11 11 7 12
REMARK SMILES IDX 10 13 8 14 9 15 12 16 13 17 18 21 19 22 20 23 21 24 22 25
REMARK SMILES IDX 23 26 84 27 24 28 83 29 25 30 26 31 27 32 77 33 28 34 82 35
REMARK SMILES IDX 76 36 78 37 29 38 81 39 75 40 74 41 30 43 62 44 42 45 61 46
REMARK SMILES IDX 43 47 46 48 60 49 79 50 44 51 45 52 59 54 80 55 47 56 31 57
REMARK SMILES IDX 32 58 40 59 33 60 35 61 41 62 34 63 36 64 37 65 38 66 39 67
REMARK SMILES IDX 63 68 64 69 72 70 65 71 67 72 73 73 66 74 68 75 69 76 70 77
REMARK SMILES IDX 71 78 48 79 49 80 57 81 50 82 52 83 58 84 51 85 53 86 54 87
REMARK SMILES IDX 55 88 56 89
REMARK H PARENT 13 18 13 19 13 20 78 42 46 53
REMARK Flexibility Score: inf
ROOT
ATOM      1  C   UNL A   1      36.882  19.796  24.623  1.00  0.00     0.274 C 
ENDROOT
BRANCH   1   2
ATOM      2  O   UNL A   1      36.039  20.676  25.388  1.00  0.00    -0.459 OA
BRANCH   2   3
ATOM      3  C   UNL A   1      35.583  21.790  24.753  1.00  0.00     0.347 C 
ATOM      4  O   UNL A   1      36.280  22.544  24.086  1.00  0.00    -0.248 OA
BRANCH   3   5
ATOM      5  C   UNL A   1      34.054  21.921  24.870  1.00  0.00     0.282 C 
BRANCH   5   6
ATOM      6  C   UNL A   1      33.420  22.345  23.529  1.00  0.00     0.054 C 
ATOM      7  C   UNL A   1      32.243  21.492  23.090  1.00  0.00     0.008 C 
ENDBRANCH   5   6
BRANCH   5   8
ATOM      8  O   UNL A   1      33.497  22.491  26.037  1.00  0.00    -0.477 OA
BRANCH   8   9
ATOM      9  C   UNL A   1      33.138  23.792  26.151  1.00  0.00     0.147 A 
ATOM     10  C   UNL A   1      33.977  24.880  25.958  1.00  0.00     0.050 A 
ATOM     11  C   UNL A   1      31.780  24.043  26.397  1.00  0.00     0.136 A 
ATOM     12  C   UNL A   1      33.442  26.166  25.929  1.00  0.00     0.027 A 
ATOM     13  N   UNL A   1      31.250  25.298  26.368  1.00  0.00    -0.248 NA
ATOM     14  C   UNL A   1      32.077  26.333  26.111  1.00  0.00     0.038 A 
ATOM     15  C   UNL A   1      31.446  27.688  26.035  1.00  0.00     0.067 C 
BRANCH  11  16
ATOM     16  C   UNL A   1      30.820  22.914  26.744  1.00  0.00     0.320 C 
BRANCH  16  17
ATOM     17  N   UNL A   1      29.500  23.395  27.186  1.00  0.00    -0.352 N 
ATOM     18  H   UNL A   1      28.899  23.534  26.374  1.00  0.00     0.344 HD
ATOM     19  H   UNL A   1      29.608  24.277  27.684  1.00  0.00     0.344 HD
ATOM     20  H   UNL A   1      29.077  22.703  27.806  1.00  0.00     0.344 HD
ENDBRANCH  16  17
ENDBRANCH  11  16
ENDBRANCH   8   9
ENDBRANCH   5   8
ENDBRANCH   3   5
ENDBRANCH   2   3
ENDBRANCH   1   2
BRANCH   1  21
ATOM     21  C   UNL A   1      38.215  19.577  25.344  1.00  0.00     0.275 C 
BRANCH  21  22
ATOM     22  O   UNL A   1      38.903  20.820  25.591  1.00  0.00    -0.458 OA
BRANCH  22  23
ATOM     23  C   UNL A   1      39.945  20.738  26.447  1.00  0.00     0.338 C 
ATOM     24  O   UNL A   1      40.588  19.736  26.735  1.00  0.00    -0.246 OA
BRANCH  23  25
ATOM     25  C   UNL A   1      40.308  22.072  26.943  1.00  0.00     0.060 A 
ATOM     26  C   UNL A   1      39.762  23.183  26.299  1.00  0.00     0.016 A 
ATOM     27  C   UNL A   1      41.273  22.237  27.936  1.00  0.00     0.016 A 
ATOM     28  C   UNL A   1      40.219  24.461  26.592  1.00  0.00     0.010 A 
ATOM     29  C   UNL A   1      41.699  23.529  28.265  1.00  0.00     0.010 A 
ATOM     30  C   UNL A   1      41.194  24.647  27.577  1.00  0.00    -0.014 A 
BRANCH  30  31
ATOM     31  C   UNL A   1      41.685  26.017  27.854  1.00  0.00     0.031 A 
ATOM     32  C   UNL A   1      43.068  26.424  27.434  1.00  0.00     0.074 A 
ATOM     33  C   UNL A   1      40.869  26.900  28.461  1.00  0.00     0.049 A 
ATOM     34  N   UNL A   1      43.692  27.554  27.644  1.00  0.00    -0.248 NA
ATOM     35  C   UNL A   1      43.856  25.433  26.684  1.00  0.00     0.031 C 
ATOM     36  C   UNL A   1      39.499  26.621  28.896  1.00  0.00     0.029 A 
ATOM     37  N   UNL A   1      41.074  28.207  28.824  1.00  0.00    -0.354 N 
ATOM     38  C   UNL A   1      44.961  27.393  27.102  1.00  0.00     0.074 A 
ATOM     39  C   UNL A   1      45.018  26.058  26.546  1.00  0.00     0.031 C 
ATOM     40  C   UNL A   1      38.985  27.723  29.463  1.00  0.00     0.029 A 
ATOM     41  C   UNL A   1      40.003  28.769  29.479  1.00  0.00     0.049 A 
ATOM     42  H   UNL A   1      41.907  28.696  28.634  1.00  0.00     0.167 HD
ATOM     43  C   UNL A   1      45.981  28.283  27.061  1.00  0.00     0.034 A 
ATOM     44  C   UNL A   1      39.865  29.979  30.051  1.00  0.00     0.034 A 
ATOM     45  C   UNL A   1      45.898  29.627  27.565  1.00  0.00     0.049 A 
ATOM     46  C   UNL A   1      41.013  30.947  29.987  1.00  0.00     0.074 A 
ATOM     47  C   UNL A   1      46.862  30.619  27.532  1.00  0.00     0.029 A 
ATOM     48  N   UNL A   1      44.785  30.173  28.186  1.00  0.00    -0.354 N 
ATOM     49  N   UNL A   1      42.178  30.806  29.402  1.00  0.00    -0.248 NA
ATOM     50  C   UNL A   1      40.822  32.249  30.643  1.00  0.00     0.031 C 
ATOM     51  C   UNL A   1      46.333  31.763  28.142  1.00  0.00     0.029 A 
ATOM     52  C   UNL A   1      45.038  31.485  28.546  1.00  0.00     0.049 A 
ATOM     53  H   UNL A   1      43.938  29.696  28.347  1.00  0.00     0.167 HD
ATOM     54  C   UNL A   1      42.852  32.004  29.601  1.00  0.00     0.074 A 
ATOM     55  C   UNL A   1      41.954  32.871  30.338  1.00  0.00     0.031 C 
ATOM     56  C   UNL A   1      44.110  32.348  29.230  1.00  0.00     0.034 A 
BRANCH  43  57
ATOM     57  C   UNL A   1      47.268  27.840  26.422  1.00  0.00     0.023 A 
ATOM     58  C   UNL A   1      48.308  27.335  27.227  1.00  0.00     0.012 A 
ATOM     59  C   UNL A   1      47.427  27.872  25.022  1.00  0.00     0.148 A 
ATOM     60  C   UNL A   1      49.498  26.892  26.651  1.00  0.00     0.002 A 
ATOM     61  C   UNL A   1      48.604  27.396  24.453  1.00  0.00     0.091 A 
ATOM     62  F   UNL A   1      46.438  28.382  24.276  1.00  0.00    -0.205 F 
ATOM     63  C   UNL A   1      49.642  26.912  25.266  1.00  0.00     0.022 A 
BRANCH  61  64
ATOM     64  S   UNL A   1      48.850  27.325  22.675  1.00  0.00     0.127 S 
ATOM     65  O   UNL A   1      48.025  28.442  22.218  1.00  0.00    -0.237 OA
ATOM     66  O   UNL A   1      50.292  27.542  22.550  1.00  0.00    -0.237 OA
ATOM     67  O   UNL A   1      48.403  26.002  22.265  1.00  0.00    -0.744 OA
ENDBRANCH  61  64
ENDBRANCH  43  57
BRANCH  44  68
ATOM     68  C   UNL A   1      38.578  30.347  30.703  1.00  0.00     0.023 A 
ATOM     69  C   UNL A   1      38.380  30.048  32.064  1.00  0.00     0.012 A 
ATOM     70  C   UNL A   1      37.571  31.037  29.999  1.00  0.00     0.148 A 
ATOM     71  C   UNL A   1      37.198  30.413  32.708  1.00  0.00     0.002 A 
ATOM     72  C   UNL A   1      36.420  31.450  30.660  1.00  0.00     0.091 A 
ATOM     73  F   UNL A   1      37.764  31.292  28.696  1.00  0.00    -0.205 F 
ATOM     74  C   UNL A   1      36.224  31.127  32.011  1.00  0.00     0.022 A 
BRANCH  72  75
ATOM     75  S   UNL A   1      35.192  32.494  29.867  1.00  0.00     0.127 S 
ATOM     76  O   UNL A   1      34.260  32.747  30.962  1.00  0.00    -0.237 OA
ATOM     77  O   UNL A   1      35.989  33.651  29.455  1.00  0.00    -0.237 OA
ATOM     78  O   UNL A   1      34.677  31.704  28.756  1.00  0.00    -0.744 OA
ENDBRANCH  72  75
ENDBRANCH  44  68
BRANCH  56  79
ATOM     79  C   UNL A   1      44.587  33.726  29.600  1.00  0.00     0.023 A 
ATOM     80  C   UNL A   1      45.294  33.912  30.804  1.00  0.00     0.012 A 
ATOM     81  C   UNL A   1      44.403  34.815  28.727  1.00  0.00     0.148 A 
ATOM     82  C   UNL A   1      45.790  35.170  31.145  1.00  0.00     0.002 A 
ATOM     83  C   UNL A   1      44.936  36.056  29.055  1.00  0.00     0.091 A 
ATOM     84  F   UNL A   1      43.707  34.622  27.597  1.00  0.00    -0.205 F 
ATOM     85  C   UNL A   1      45.623  36.237  30.267  1.00  0.00     0.022 A 
BRANCH  83  86
ATOM     86  S   UNL A   1      44.839  37.460  27.939  1.00  0.00     0.127 S 
ATOM     87  O   UNL A   1      45.001  38.585  28.858  1.00  0.00    -0.237 OA
ATOM     88  O   UNL A   1      45.977  37.233  27.046  1.00  0.00    -0.237 OA
ATOM     89  O   UNL A   1      43.539  37.358  27.289  1.00  0.00    -0.744 OA
ENDBRANCH  83  86
ENDBRANCH  56  79
ENDBRANCH  30  31
ENDBRANCH  23  25
ENDBRANCH  22  23
ENDBRANCH  21  22
ENDBRANCH   1  21
TORSDOF 19
ENDMDL
