MODEL 1
REMARK VINA RESULT:     -11.5      0.000      0.000
REMARK SMILES Cc1nnc(SCC[C@H]2CCC[C@]2([NH3+])C(=O)OCCOC(=O)c2ccc(-c3c4nc(c(-c5cccc(S(=O)(=O)[O-])c5F)c5ccc([nH]5)c(-c5cccc(S(=O)(=O)[O-])c5F)c5nc(c(-c6cccc(S(=O)(=O)[O-])c6F)c6ccc3[nH]6)C=C5)C=C4)cc2)o1
REMARK SMILES IDX 18 1 17 2 15 3 16 4 13 5 9 6 10 7 11 8 12 9 8 10 7 11 6 12
REMARK SMILES IDX 5 13 1 14 2 15 3 16 86 17 4 18 14 19 19 23 20 24 21 25 22 26
REMARK SMILES IDX 23 27 24 28 85 29 25 30 84 31 26 32 27 33 28 34 78 35 29 36
REMARK SMILES IDX 83 37 77 38 79 39 30 40 82 41 76 42 75 43 31 45 63 46 43 47
REMARK SMILES IDX 62 48 44 49 47 50 61 51 80 52 45 53 46 54 60 56 81 57 48 58
REMARK SMILES IDX 32 59 33 60 41 61 34 62 36 63 42 64 35 65 37 66 38 67 39 68
REMARK SMILES IDX 40 69 64 70 65 71 73 72 66 73 68 74 74 75 67 76 69 77 70 78
REMARK SMILES IDX 71 79 72 80 49 81 50 82 58 83 51 84 53 85 59 86 52 87 54 88
REMARK SMILES IDX 55 89 56 90 57 91
REMARK H PARENT 14 20 14 21 14 22 79 44 47 55
REMARK Flexibility Score: inf
ROOT
ATOM      1  C   UNL A   1      31.685  28.184  27.702  1.00  0.00     0.274 C 
ENDROOT
BRANCH   1   2
ATOM      2  O   UNL A   1      30.991  27.139  26.987  1.00  0.00    -0.457 OA
BRANCH   2   3
ATOM      3  C   UNL A   1      31.670  26.533  25.975  1.00  0.00     0.368 C 
ATOM      4  O   UNL A   1      32.875  26.675  25.774  1.00  0.00    -0.245 OA
BRANCH   3   5
ATOM      5  C   UNL A   1      30.780  25.623  25.063  1.00  0.00     0.195 C 
ATOM      6  C   UNL A   1      31.621  24.600  24.246  1.00  0.00     0.063 C 
ATOM      7  C   UNL A   1      31.482  25.060  22.773  1.00  0.00     0.011 C 
ATOM      8  C   UNL A   1      30.967  26.492  22.826  1.00  0.00     0.008 C 
ATOM      9  C   UNL A   1      30.027  26.448  24.008  1.00  0.00     0.081 C 
BRANCH   6  10
ATOM     10  C   UNL A   1      31.287  23.106  24.430  1.00  0.00     0.022 C 
BRANCH  10  11
ATOM     11  C   UNL A   1      32.248  22.145  23.699  1.00  0.00     0.080 C 
BRANCH  11  12
ATOM     12  S   UNL A   1      33.647  21.487  24.663  1.00  0.00    -0.065 SA
BRANCH  12  13
ATOM     13  C   UNL A   1      33.280  19.786  24.699  1.00  0.00     0.276 A 
ATOM     14  C   UNL A   1      33.943  16.436  23.813  1.00  0.00     0.113 C 
ATOM     15  C   UNL A   1      33.407  17.680  24.399  1.00  0.00     0.214 A 
ATOM     16  N   UNL A   1      32.249  17.900  24.987  1.00  0.00    -0.112 NA
ATOM     17  O   UNL A   1      34.142  18.823  24.237  1.00  0.00    -0.416 OA
ATOM     18  N   UNL A   1      32.163  19.267  25.172  1.00  0.00    -0.101 NA
ENDBRANCH  12  13
ENDBRANCH  11  12
ENDBRANCH  10  11
ENDBRANCH   6  10
BRANCH   5  19
ATOM     19  N   UNL A   1      29.747  25.026  25.934  1.00  0.00    -0.343 N 
ATOM     20  H   UNL A   1      29.540  24.079  25.615  1.00  0.00     0.345 HD
ATOM     21  H   UNL A   1      28.899  25.591  25.892  1.00  0.00     0.345 HD
ATOM     22  H   UNL A   1      30.088  24.995  26.895  1.00  0.00     0.345 HD
ENDBRANCH   5  19
ENDBRANCH   3   5
ENDBRANCH   2   3
ENDBRANCH   1   2
BRANCH   1  23
ATOM     23  C   UNL A   1      31.493  29.540  27.038  1.00  0.00     0.275 C 
BRANCH  23  24
ATOM     24  O   UNL A   1      32.761  29.998  26.546  1.00  0.00    -0.458 OA
BRANCH  24  25
ATOM     25  C   UNL A   1      33.248  31.110  27.134  1.00  0.00     0.338 C 
ATOM     26  O   UNL A   1      32.633  32.133  27.415  1.00  0.00    -0.246 OA
BRANCH  25  27
ATOM     27  C   UNL A   1      34.654  30.897  27.511  1.00  0.00     0.060 A 
ATOM     28  C   UNL A   1      35.099  29.600  27.748  1.00  0.00     0.016 A 
ATOM     29  C   UNL A   1      35.477  31.977  27.809  1.00  0.00     0.016 A 
ATOM     30  C   UNL A   1      36.288  29.377  28.428  1.00  0.00     0.010 A 
ATOM     31  C   UNL A   1      36.736  31.743  28.372  1.00  0.00     0.010 A 
ATOM     32  C   UNL A   1      37.127  30.443  28.748  1.00  0.00    -0.014 A 
BRANCH  32  33
ATOM     33  C   UNL A   1      38.360  30.221  29.553  1.00  0.00     0.031 A 
ATOM     34  C   UNL A   1      39.466  29.378  28.978  1.00  0.00     0.074 A 
ATOM     35  C   UNL A   1      38.506  30.771  30.775  1.00  0.00     0.049 A 
ATOM     36  N   UNL A   1      40.465  28.799  29.586  1.00  0.00    -0.248 NA
ATOM     37  C   UNL A   1      39.424  29.130  27.526  1.00  0.00     0.031 C 
ATOM     38  C   UNL A   1      37.554  31.674  31.426  1.00  0.00     0.029 A 
ATOM     39  N   UNL A   1      39.516  30.640  31.699  1.00  0.00    -0.354 N 
ATOM     40  C   UNL A   1      41.096  28.024  28.620  1.00  0.00     0.074 A 
ATOM     41  C   UNL A   1      40.393  28.238  27.374  1.00  0.00     0.031 C 
ATOM     42  C   UNL A   1      38.034  32.038  32.624  1.00  0.00     0.029 A 
ATOM     43  C   UNL A   1      39.264  31.301  32.880  1.00  0.00     0.049 A 
ATOM     44  H   UNL A   1      40.338  30.124  31.531  1.00  0.00     0.167 HD
ATOM     45  C   UNL A   1      42.161  27.201  28.767  1.00  0.00     0.034 A 
ATOM     46  C   UNL A   1      39.907  31.261  34.062  1.00  0.00     0.034 A 
ATOM     47  C   UNL A   1      42.910  27.086  29.989  1.00  0.00     0.049 A 
ATOM     48  C   UNL A   1      41.101  30.360  34.200  1.00  0.00     0.074 A 
ATOM     49  C   UNL A   1      44.016  26.298  30.253  1.00  0.00     0.029 A 
ATOM     50  N   UNL A   1      42.645  27.806  31.144  1.00  0.00    -0.354 N 
ATOM     51  N   UNL A   1      41.665  29.595  33.294  1.00  0.00    -0.248 NA
ATOM     52  C   UNL A   1      41.744  30.308  35.519  1.00  0.00     0.031 C 
ATOM     53  C   UNL A   1      44.420  26.544  31.571  1.00  0.00     0.029 A 
ATOM     54  C   UNL A   1      43.572  27.494  32.121  1.00  0.00     0.049 A 
ATOM     55  H   UNL A   1      41.905  28.445  31.254  1.00  0.00     0.167 HD
ATOM     56  C   UNL A   1      42.736  28.980  33.929  1.00  0.00     0.074 A 
ATOM     57  C   UNL A   1      42.761  29.487  35.287  1.00  0.00     0.031 C 
ATOM     58  C   UNL A   1      43.605  28.059  33.445  1.00  0.00     0.034 A 
BRANCH  45  59
ATOM     59  C   UNL A   1      42.576  26.368  27.585  1.00  0.00     0.023 A 
ATOM     60  C   UNL A   1      43.442  26.900  26.610  1.00  0.00     0.012 A 
ATOM     61  C   UNL A   1      42.133  25.035  27.461  1.00  0.00     0.148 A 
ATOM     62  C   UNL A   1      43.837  26.130  25.516  1.00  0.00     0.002 A 
ATOM     63  C   UNL A   1      42.562  24.261  26.390  1.00  0.00     0.091 A 
ATOM     64  F   UNL A   1      41.286  24.555  28.383  1.00  0.00    -0.205 F 
ATOM     65  C   UNL A   1      43.406  24.809  25.411  1.00  0.00     0.022 A 
BRANCH  63  66
ATOM     66  S   UNL A   1      42.118  22.528  26.213  1.00  0.00     0.127 S 
ATOM     67  O   UNL A   1      42.778  22.181  24.955  1.00  0.00    -0.237 OA
ATOM     68  O   UNL A   1      42.724  21.930  27.403  1.00  0.00    -0.237 OA
ATOM     69  O   UNL A   1      40.663  22.490  26.193  1.00  0.00    -0.744 OA
ENDBRANCH  63  66
ENDBRANCH  45  59
BRANCH  46  70
ATOM     70  C   UNL A   1      39.417  32.087  35.204  1.00  0.00     0.023 A 
ATOM     71  C   UNL A   1      38.582  31.501  36.173  1.00  0.00     0.012 A 
ATOM     72  C   UNL A   1      39.823  33.426  35.371  1.00  0.00     0.148 A 
ATOM     73  C   UNL A   1      38.154  32.235  37.281  1.00  0.00     0.002 A 
ATOM     74  C   UNL A   1      39.450  34.129  36.511  1.00  0.00     0.091 A 
ATOM     75  F   UNL A   1      40.591  33.984  34.424  1.00  0.00    -0.205 F 
ATOM     76  C   UNL A   1      38.602  33.541  37.459  1.00  0.00     0.022 A 
BRANCH  74  77
ATOM     77  S   UNL A   1      40.129  35.750  36.889  1.00  0.00     0.127 S 
ATOM     78  O   UNL A   1      41.563  35.478  36.909  1.00  0.00    -0.237 OA
ATOM     79  O   UNL A   1      39.669  36.550  35.751  1.00  0.00    -0.237 OA
ATOM     80  O   UNL A   1      39.528  36.131  38.160  1.00  0.00    -0.744 OA
ENDBRANCH  74  77
ENDBRANCH  46  70
BRANCH  58  81
ATOM     81  C   UNL A   1      44.672  27.565  34.381  1.00  0.00     0.023 A 
ATOM     82  C   UNL A   1      45.895  28.259  34.469  1.00  0.00     0.012 A 
ATOM     83  C   UNL A   1      44.437  26.458  35.216  1.00  0.00     0.148 A 
ATOM     84  C   UNL A   1      46.879  27.841  35.362  1.00  0.00     0.002 A 
ATOM     85  C   UNL A   1      45.406  26.072  36.133  1.00  0.00     0.091 A 
ATOM     86  F   UNL A   1      43.275  25.799  35.097  1.00  0.00    -0.205 F 
ATOM     87  C   UNL A   1      46.632  26.756  36.200  1.00  0.00     0.022 A 
BRANCH  85  88
ATOM     88  S   UNL A   1      45.131  24.743  37.308  1.00  0.00     0.127 S 
ATOM     89  O   UNL A   1      44.814  23.623  36.425  1.00  0.00    -0.237 OA
ATOM     90  O   UNL A   1      46.428  24.643  37.979  1.00  0.00    -0.237 OA
ATOM     91  O   UNL A   1      44.045  25.193  38.169  1.00  0.00    -0.744 OA
ENDBRANCH  85  88
ENDBRANCH  58  81
ENDBRANCH  32  33
ENDBRANCH  25  27
ENDBRANCH  24  25
ENDBRANCH  23  24
ENDBRANCH   1  23
TORSDOF 19
ENDMDL
MODEL 2
REMARK VINA RESULT:     -11.5      5.111     10.221
REMARK SMILES Cc1nnc(SCC[C@H]2CCC[C@]2([NH3+])C(=O)OCCOC(=O)c2ccc(-c3c4nc(c(-c5cccc(S(=O)(=O)[O-])c5F)c5ccc([nH]5)c(-c5cccc(S(=O)(=O)[O-])c5F)c5nc(c(-c6cccc(S(=O)(=O)[O-])c6F)c6ccc3[nH]6)C=C5)C=C4)cc2)o1
REMARK SMILES IDX 18 1 17 2 15 3 16 4 13 5 9 6 10 7 11 8 12 9 8 10 7 11 6 12
REMARK SMILES IDX 5 13 1 14 2 15 3 16 86 17 4 18 14 19 19 23 20 24 21 25 22 26
REMARK SMILES IDX 23 27 24 28 85 29 25 30 84 31 26 32 27 33 28 34 78 35 29 36
REMARK SMILES IDX 83 37 77 38 79 39 30 40 82 41 76 42 75 43 31 45 63 46 43 47
REMARK SMILES IDX 62 48 44 49 47 50 61 51 80 52 45 53 46 54 60 56 81 57 48 58
REMARK SMILES IDX 32 59 33 60 41 61 34 62 36 63 42 64 35 65 37 66 38 67 39 68
REMARK SMILES IDX 40 69 64 70 65 71 73 72 66 73 68 74 74 75 67 76 69 77 70 78
REMARK SMILES IDX 71 79 72 80 49 81 50 82 58 83 51 84 53 85 59 86 52 87 54 88
REMARK SMILES IDX 55 89 56 90 57 91
REMARK H PARENT 14 20 14 21 14 22 79 44 47 55
REMARK Flexibility Score: inf
ROOT
ATOM      1  C   UNL A   1      34.900  21.421  26.525  1.00  0.00     0.274 C 
ENDROOT
BRANCH   1   2
ATOM      2  O   UNL A   1      34.787  22.860  26.569  1.00  0.00    -0.457 OA
BRANCH   2   3
ATOM      3  C   UNL A   1      33.544  23.383  26.387  1.00  0.00     0.368 C 
ATOM      4  O   UNL A   1      32.635  23.297  27.210  1.00  0.00    -0.245 OA
BRANCH   3   5
ATOM      5  C   UNL A   1      33.354  24.115  25.015  1.00  0.00     0.195 C 
ATOM      6  C   UNL A   1      32.112  25.053  25.012  1.00  0.00     0.063 C 
ATOM      7  C   UNL A   1      31.116  24.387  24.030  1.00  0.00     0.011 C 
ATOM      8  C   UNL A   1      31.597  22.954  23.849  1.00  0.00     0.008 C 
ATOM      9  C   UNL A   1      33.098  23.117  23.875  1.00  0.00     0.081 C 
BRANCH   6  10
ATOM     10  C   UNL A   1      32.354  26.541  24.686  1.00  0.00     0.022 C 
BRANCH  10  11
ATOM     11  C   UNL A   1      32.040  26.931  23.227  1.00  0.00     0.080 C 
BRANCH  11  12
ATOM     12  S   UNL A   1      32.103  28.704  22.815  1.00  0.00    -0.065 SA
BRANCH  12  13
ATOM     13  C   UNL A   1      30.423  29.059  22.528  1.00  0.00     0.276 A 
ATOM     14  C   UNL A   1      26.991  28.681  23.254  1.00  0.00     0.113 C 
ATOM     15  C   UNL A   1      28.302  29.102  22.720  1.00  0.00     0.214 A 
ATOM     16  N   UNL A   1      28.585  29.756  21.613  1.00  0.00    -0.112 NA
ATOM     17  O   UNL A   1      29.420  28.680  23.385  1.00  0.00    -0.416 OA
ATOM     18  N   UNL A   1      29.961  29.719  21.484  1.00  0.00    -0.101 NA
ENDBRANCH  12  13
ENDBRANCH  11  12
ENDBRANCH  10  11
ENDBRANCH   6  10
BRANCH   5  19
ATOM     19  N   UNL A   1      34.636  24.777  24.704  1.00  0.00    -0.343 N 
ATOM     20  H   UNL A   1      35.168  24.911  25.564  1.00  0.00     0.345 HD
ATOM     21  H   UNL A   1      34.454  25.684  24.273  1.00  0.00     0.345 HD
ATOM     22  H   UNL A   1      35.172  24.197  24.059  1.00  0.00     0.345 HD
ENDBRANCH   5  19
ENDBRANCH   3   5
ENDBRANCH   2   3
ENDBRANCH   1   2
BRANCH   1  23
ATOM     23  C   UNL A   1      35.770  20.964  25.361  1.00  0.00     0.275 C 
BRANCH  23  24
ATOM     24  O   UNL A   1      36.813  21.929  25.157  1.00  0.00    -0.458 OA
BRANCH  24  25
ATOM     25  C   UNL A   1      38.050  21.538  25.526  1.00  0.00     0.338 C 
ATOM     26  O   UNL A   1      38.639  20.517  25.187  1.00  0.00    -0.246 OA
BRANCH  25  27
ATOM     27  C   UNL A   1      38.678  22.586  26.345  1.00  0.00     0.060 A 
ATOM     28  C   UNL A   1      38.193  23.887  26.262  1.00  0.00     0.016 A 
ATOM     29  C   UNL A   1      39.852  22.328  27.045  1.00  0.00     0.016 A 
ATOM     30  C   UNL A   1      38.949  24.952  26.730  1.00  0.00     0.010 A 
ATOM     31  C   UNL A   1      40.544  23.390  27.635  1.00  0.00     0.010 A 
ATOM     32  C   UNL A   1      40.135  24.722  27.427  1.00  0.00    -0.014 A 
BRANCH  32  33
ATOM     33  C   UNL A   1      40.995  25.859  27.855  1.00  0.00     0.031 A 
ATOM     34  C   UNL A   1      40.407  26.927  28.737  1.00  0.00     0.074 A 
ATOM     35  C   UNL A   1      42.287  25.940  27.479  1.00  0.00     0.049 A 
ATOM     36  N   UNL A   1      40.842  28.134  28.976  1.00  0.00    -0.248 NA
ATOM     37  C   UNL A   1      39.142  26.601  29.420  1.00  0.00     0.031 C 
ATOM     38  C   UNL A   1      43.013  24.940  26.693  1.00  0.00     0.029 A 
ATOM     39  N   UNL A   1      43.222  26.923  27.701  1.00  0.00    -0.354 N 
ATOM     40  C   UNL A   1      39.851  28.750  29.732  1.00  0.00     0.074 A 
ATOM     41  C   UNL A   1      38.810  27.771  29.949  1.00  0.00     0.031 C 
ATOM     42  C   UNL A   1      44.281  25.342  26.524  1.00  0.00     0.029 A 
ATOM     43  C   UNL A   1      44.426  26.681  27.079  1.00  0.00     0.049 A 
ATOM     44  H   UNL A   1      43.047  27.721  28.251  1.00  0.00     0.167 HD
ATOM     45  C   UNL A   1      39.816  30.022  30.193  1.00  0.00     0.034 A 
ATOM     46  C   UNL A   1      45.502  27.473  26.910  1.00  0.00     0.034 A 
ATOM     47  C   UNL A   1      40.910  30.945  30.057  1.00  0.00     0.049 A 
ATOM     48  C   UNL A   1      45.452  28.875  27.449  1.00  0.00     0.074 A 
ATOM     49  C   UNL A   1      40.995  32.254  30.497  1.00  0.00     0.029 A 
ATOM     50  N   UNL A   1      42.124  30.642  29.459  1.00  0.00    -0.354 N 
ATOM     51  N   UNL A   1      44.493  29.465  28.124  1.00  0.00    -0.248 NA
ATOM     52  C   UNL A   1      46.624  29.723  27.200  1.00  0.00     0.031 C 
ATOM     53  C   UNL A   1      42.265  32.742  30.165  1.00  0.00     0.029 A 
ATOM     54  C   UNL A   1      42.972  31.732  29.529  1.00  0.00     0.049 A 
ATOM     55  H   UNL A   1      42.349  29.778  29.045  1.00  0.00     0.167 HD
ATOM     56  C   UNL A   1      44.950  30.748  28.391  1.00  0.00     0.074 A 
ATOM     57  C   UNL A   1      46.285  30.839  27.833  1.00  0.00     0.031 C 
ATOM     58  C   UNL A   1      44.317  31.771  29.015  1.00  0.00     0.034 A 
BRANCH  45  59
ATOM     59  C   UNL A   1      38.562  30.486  30.883  1.00  0.00     0.023 A 
ATOM     60  C   UNL A   1      38.400  30.293  32.268  1.00  0.00     0.012 A 
ATOM     61  C   UNL A   1      37.553  31.152  30.157  1.00  0.00     0.148 A 
ATOM     62  C   UNL A   1      37.243  30.728  32.915  1.00  0.00     0.002 A 
ATOM     63  C   UNL A   1      36.421  31.619  30.815  1.00  0.00     0.091 A 
ATOM     64  F   UNL A   1      37.710  31.302  28.834  1.00  0.00    -0.205 F 
ATOM     65  C   UNL A   1      36.259  31.399  32.192  1.00  0.00     0.022 A 
BRANCH  63  66
ATOM     66  S   UNL A   1      35.137  32.558  29.978  1.00  0.00     0.127 S 
ATOM     67  O   UNL A   1      34.215  32.842  31.076  1.00  0.00    -0.237 OA
ATOM     68  O   UNL A   1      35.876  33.723  29.487  1.00  0.00    -0.237 OA
ATOM     69  O   UNL A   1      34.623  31.686  28.932  1.00  0.00    -0.744 OA
ENDBRANCH  63  66
ENDBRANCH  45  59
BRANCH  46  70
ATOM     70  C   UNL A   1      46.698  26.959  26.182  1.00  0.00     0.023 A 
ATOM     71  C   UNL A   1      46.789  27.136  24.789  1.00  0.00     0.012 A 
ATOM     72  C   UNL A   1      47.772  26.356  26.867  1.00  0.00     0.148 A 
ATOM     73  C   UNL A   1      47.922  26.713  24.091  1.00  0.00     0.002 A 
ATOM     74  C   UNL A   1      48.925  26.001  26.176  1.00  0.00     0.091 A 
ATOM     75  F   UNL A   1      47.659  26.163  28.189  1.00  0.00    -0.205 F 
ATOM     76  C   UNL A   1      48.996  26.163  24.786  1.00  0.00     0.022 A 
BRANCH  74  77
ATOM     77  S   UNL A   1      50.408  25.450  27.029  1.00  0.00     0.127 S 
ATOM     78  O   UNL A   1      51.328  25.226  25.918  1.00  0.00    -0.237 OA
ATOM     79  O   UNL A   1      50.728  26.606  27.870  1.00  0.00    -0.237 OA
ATOM     80  O   UNL A   1      50.004  24.268  27.778  1.00  0.00    -0.744 OA
ENDBRANCH  74  77
ENDBRANCH  46  70
BRANCH  58  81
ATOM     81  C   UNL A   1      45.071  33.063  29.155  1.00  0.00     0.023 A 
ATOM     82  C   UNL A   1      45.900  33.267  30.275  1.00  0.00     0.012 A 
ATOM     83  C   UNL A   1      45.012  34.041  28.145  1.00  0.00     0.148 A 
ATOM     84  C   UNL A   1      46.641  34.441  30.400  1.00  0.00     0.002 A 
ATOM     85  C   UNL A   1      45.785  35.190  28.255  1.00  0.00     0.091 A 
ATOM     86  F   UNL A   1      44.197  33.835  27.099  1.00  0.00    -0.205 F 
ATOM     87  C   UNL A   1      46.592  35.395  29.387  1.00  0.00     0.022 A 
BRANCH  85  88
ATOM     88  S   UNL A   1      45.846  36.426  26.955  1.00  0.00     0.127 S 
ATOM     89  O   UNL A   1      44.457  36.878  26.906  1.00  0.00    -0.237 OA
ATOM     90  O   UNL A   1      46.788  37.406  27.498  1.00  0.00    -0.237 OA
ATOM     91  O   UNL A   1      46.324  35.729  25.768  1.00  0.00    -0.744 OA
ENDBRANCH  85  88
ENDBRANCH  58  81
ENDBRANCH  32  33
ENDBRANCH  25  27
ENDBRANCH  24  25
ENDBRANCH  23  24
ENDBRANCH   1  23
TORSDOF 19
ENDMDL
MODEL 3
REMARK VINA RESULT:     -11.3      3.123      4.516
REMARK SMILES Cc1nnc(SCC[C@H]2CCC[C@]2([NH3+])C(=O)OCCOC(=O)c2ccc(-c3c4nc(c(-c5cccc(S(=O)(=O)[O-])c5F)c5ccc([nH]5)c(-c5cccc(S(=O)(=O)[O-])c5F)c5nc(c(-c6cccc(S(=O)(=O)[O-])c6F)c6ccc3[nH]6)C=C5)C=C4)cc2)o1
REMARK SMILES IDX 18 1 17 2 15 3 16 4 13 5 9 6 10 7 11 8 12 9 8 10 7 11 6 12
REMARK SMILES IDX 5 13 1 14 2 15 3 16 86 17 4 18 14 19 19 23 20 24 21 25 22 26
REMARK SMILES IDX 23 27 24 28 85 29 25 30 84 31 26 32 27 33 28 34 78 35 29 36
REMARK SMILES IDX 83 37 77 38 79 39 30 40 82 41 76 42 75 43 31 45 63 46 43 47
REMARK SMILES IDX 62 48 44 49 47 50 61 51 80 52 45 53 46 54 60 56 81 57 48 58
REMARK SMILES IDX 32 59 33 60 41 61 34 62 36 63 42 64 35 65 37 66 38 67 39 68
REMARK SMILES IDX 40 69 64 70 65 71 73 72 66 73 68 74 74 75 67 76 69 77 70 78
REMARK SMILES IDX 71 79 72 80 49 81 50 82 58 83 51 84 53 85 59 86 52 87 54 88
REMARK SMILES IDX 55 89 56 90 57 91
REMARK H PARENT 14 20 14 21 14 22 79 44 47 55
REMARK Flexibility Score: inf
ROOT
ATOM      1  C   UNL A   1      31.807  29.785  25.531  1.00  0.00     0.274 C 
ENDROOT
BRANCH   1   2
ATOM      2  O   UNL A   1      33.082  29.628  24.870  1.00  0.00    -0.457 OA
BRANCH   2   3
ATOM      3  C   UNL A   1      33.365  28.394  24.371  1.00  0.00     0.368 C 
ATOM      4  O   UNL A   1      34.085  27.572  24.933  1.00  0.00    -0.245 OA
BRANCH   3   5
ATOM      5  C   UNL A   1      32.689  28.095  22.989  1.00  0.00     0.195 C 
ATOM      6  C   UNL A   1      31.498  27.101  23.116  1.00  0.00     0.063 C 
ATOM      7  C   UNL A   1      31.979  25.813  22.401  1.00  0.00     0.011 C 
ATOM      8  C   UNL A   1      33.492  25.939  22.280  1.00  0.00     0.008 C 
ATOM      9  C   UNL A   1      33.669  27.416  22.019  1.00  0.00     0.081 C 
BRANCH   6  10
ATOM     10  C   UNL A   1      30.124  27.580  22.605  1.00  0.00     0.022 C 
BRANCH  10  11
ATOM     11  C   UNL A   1      29.121  27.936  23.723  1.00  0.00     0.080 C 
BRANCH  11  12
ATOM     12  S   UNL A   1      27.414  28.312  23.209  1.00  0.00    -0.065 SA
BRANCH  12  13
ATOM     13  C   UNL A   1      27.547  29.982  22.739  1.00  0.00     0.276 A 
ATOM     14  C   UNL A   1      28.216  32.507  20.368  1.00  0.00     0.113 C 
ATOM     15  C   UNL A   1      27.829  31.739  21.568  1.00  0.00     0.214 A 
ATOM     16  N   UNL A   1      27.685  32.145  22.813  1.00  0.00    -0.112 NA
ATOM     17  O   UNL A   1      27.696  30.385  21.435  1.00  0.00    -0.416 OA
ATOM     18  N   UNL A   1      27.512  31.004  23.573  1.00  0.00    -0.101 NA
ENDBRANCH  12  13
ENDBRANCH  11  12
ENDBRANCH  10  11
ENDBRANCH   6  10
BRANCH   5  19
ATOM     19  N   UNL A   1      32.350  29.400  22.388  1.00  0.00    -0.343 N 
ATOM     20  H   UNL A   1      32.192  29.282  21.387  1.00  0.00     0.345 HD
ATOM     21  H   UNL A   1      33.121  30.052  22.535  1.00  0.00     0.345 HD
ATOM     22  H   UNL A   1      31.506  29.768  22.825  1.00  0.00     0.345 HD
ENDBRANCH   5  19
ENDBRANCH   3   5
ENDBRANCH   2   3
ENDBRANCH   1   2
BRANCH   1  23
ATOM     23  C   UNL A   1      31.871  30.844  26.623  1.00  0.00     0.275 C 
BRANCH  23  24
ATOM     24  O   UNL A   1      33.032  30.606  27.432  1.00  0.00    -0.458 OA
BRANCH  24  25
ATOM     25  C   UNL A   1      33.771  31.695  27.727  1.00  0.00     0.338 C 
ATOM     26  O   UNL A   1      33.378  32.851  27.845  1.00  0.00    -0.246 OA
BRANCH  25  27
ATOM     27  C   UNL A   1      35.158  31.292  28.007  1.00  0.00     0.060 A 
ATOM     28  C   UNL A   1      35.426  29.961  28.306  1.00  0.00     0.016 A 
ATOM     29  C   UNL A   1      36.155  32.251  28.157  1.00  0.00     0.016 A 
ATOM     30  C   UNL A   1      36.625  29.601  28.906  1.00  0.00     0.010 A 
ATOM     31  C   UNL A   1      37.411  31.862  28.635  1.00  0.00     0.010 A 
ATOM     32  C   UNL A   1      37.638  30.544  29.077  1.00  0.00    -0.014 A 
BRANCH  32  33
ATOM     33  C   UNL A   1      38.891  30.187  29.797  1.00  0.00     0.031 A 
ATOM     34  C   UNL A   1      39.860  29.236  29.148  1.00  0.00     0.074 A 
ATOM     35  C   UNL A   1      39.176  30.709  31.007  1.00  0.00     0.049 A 
ATOM     36  N   UNL A   1      40.831  28.549  29.687  1.00  0.00    -0.248 NA
ATOM     37  C   UNL A   1      39.695  29.005  27.702  1.00  0.00     0.031 C 
ATOM     38  C   UNL A   1      38.371  31.702  31.720  1.00  0.00     0.029 A 
ATOM     39  N   UNL A   1      40.225  30.464  31.860  1.00  0.00    -0.354 N 
ATOM     40  C   UNL A   1      41.310  27.720  28.680  1.00  0.00     0.074 A 
ATOM     41  C   UNL A   1      40.552  28.017  27.485  1.00  0.00     0.031 C 
ATOM     42  C   UNL A   1      38.966  32.004  32.883  1.00  0.00     0.029 A 
ATOM     43  C   UNL A   1      40.124  31.138  33.056  1.00  0.00     0.049 A 
ATOM     44  H   UNL A   1      40.975  29.866  31.637  1.00  0.00     0.167 HD
ATOM     45  C   UNL A   1      42.290  26.788  28.755  1.00  0.00     0.034 A 
ATOM     46  C   UNL A   1      40.838  31.022  34.192  1.00  0.00     0.034 A 
ATOM     47  C   UNL A   1      43.102  26.585  29.923  1.00  0.00     0.049 A 
ATOM     48  C   UNL A   1      41.936  29.998  34.248  1.00  0.00     0.074 A 
ATOM     49  C   UNL A   1      44.133  25.682  30.112  1.00  0.00     0.029 A 
ATOM     50  N   UNL A   1      42.993  27.320  31.095  1.00  0.00    -0.354 N 
ATOM     51  N   UNL A   1      42.354  29.186  33.306  1.00  0.00    -0.248 NA
ATOM     52  C   UNL A   1      42.657  29.869  35.521  1.00  0.00     0.031 C 
ATOM     53  C   UNL A   1      44.649  25.874  31.400  1.00  0.00     0.029 A 
ATOM     54  C   UNL A   1      43.945  26.904  32.007  1.00  0.00     0.049 A 
ATOM     55  H   UNL A   1      42.333  28.033  31.254  1.00  0.00     0.167 HD
ATOM     56  C   UNL A   1      43.394  28.456  33.867  1.00  0.00     0.074 A 
ATOM     57  C   UNL A   1      43.563  28.947  35.221  1.00  0.00     0.031 C 
ATOM     58  C   UNL A   1      44.125  27.452  33.326  1.00  0.00     0.034 A 
BRANCH  45  59
ATOM     59  C   UNL A   1      42.534  25.925  27.547  1.00  0.00     0.023 A 
ATOM     60  C   UNL A   1      43.278  26.421  26.459  1.00  0.00     0.012 A 
ATOM     61  C   UNL A   1      42.054  24.600  27.508  1.00  0.00     0.148 A 
ATOM     62  C   UNL A   1      43.515  25.623  25.339  1.00  0.00     0.002 A 
ATOM     63  C   UNL A   1      42.328  23.797  26.407  1.00  0.00     0.091 A 
ATOM     64  F   UNL A   1      41.323  24.155  28.540  1.00  0.00    -0.205 F 
ATOM     65  C   UNL A   1      43.050  24.310  25.317  1.00  0.00     0.022 A 
BRANCH  63  66
ATOM     66  S   UNL A   1      41.832  22.071  26.324  1.00  0.00     0.127 S 
ATOM     67  O   UNL A   1      40.392  22.188  26.103  1.00  0.00    -0.237 OA
ATOM     68  O   UNL A   1      42.588  21.587  25.168  1.00  0.00    -0.237 OA
ATOM     69  O   UNL A   1      42.230  21.481  27.594  1.00  0.00    -0.744 OA
ENDBRANCH  63  66
ENDBRANCH  45  59
BRANCH  46  70
ATOM     70  C   UNL A   1      40.515  31.886  35.365  1.00  0.00     0.023 A 
ATOM     71  C   UNL A   1      41.307  33.019  35.628  1.00  0.00     0.012 A 
ATOM     72  C   UNL A   1      39.394  31.631  36.180  1.00  0.00     0.148 A 
ATOM     73  C   UNL A   1      40.995  33.875  36.687  1.00  0.00     0.002 A 
ATOM     74  C   UNL A   1      39.049  32.525  37.188  1.00  0.00     0.091 A 
ATOM     75  F   UNL A   1      38.666  30.530  35.940  1.00  0.00    -0.205 F 
ATOM     76  C   UNL A   1      39.857  33.639  37.453  1.00  0.00     0.022 A 
BRANCH  74  77
ATOM     77  S   UNL A   1      37.506  32.376  38.098  1.00  0.00     0.127 S 
ATOM     78  O   UNL A   1      36.564  33.039  37.202  1.00  0.00    -0.237 OA
ATOM     79  O   UNL A   1      37.346  30.924  38.198  1.00  0.00    -0.237 OA
ATOM     80  O   UNL A   1      37.749  33.034  39.375  1.00  0.00    -0.744 OA
ENDBRANCH  74  77
ENDBRANCH  46  70
BRANCH  58  81
ATOM     81  C   UNL A   1      45.195  26.841  34.187  1.00  0.00     0.023 A 
ATOM     82  C   UNL A   1      46.509  27.343  34.125  1.00  0.00     0.012 A 
ATOM     83  C   UNL A   1      44.882  25.819  35.102  1.00  0.00     0.148 A 
ATOM     84  C   UNL A   1      47.504  26.818  34.947  1.00  0.00     0.002 A 
ATOM     85  C   UNL A   1      45.868  25.329  35.947  1.00  0.00     0.091 A 
ATOM     86  F   UNL A   1      43.629  25.341  35.125  1.00  0.00    -0.205 F 
ATOM     87  C   UNL A   1      47.182  25.820  35.864  1.00  0.00     0.022 A 
BRANCH  85  88
ATOM     88  S   UNL A   1      45.516  24.107  37.215  1.00  0.00     0.127 S 
ATOM     89  O   UNL A   1      44.315  24.659  37.837  1.00  0.00    -0.237 OA
ATOM     90  O   UNL A   1      45.294  22.893  36.428  1.00  0.00    -0.237 OA
ATOM     91  O   UNL A   1      46.701  24.063  38.062  1.00  0.00    -0.744 OA
ENDBRANCH  85  88
ENDBRANCH  58  81
ENDBRANCH  32  33
ENDBRANCH  25  27
ENDBRANCH  24  25
ENDBRANCH  23  24
ENDBRANCH   1  23
TORSDOF 19
ENDMDL
