MODEL 1
REMARK VINA RESULT:     -10.1      0.000      0.000
REMARK SMILES CN(C)c1oc(/C=N/c2ccc(O)c(C(=O)OCCOC(=O)c3ccc(-c4c5nc(c(-c6cccc(S(=O)(=O)[O-])c6F)c6ccc([nH]6)c(-c6cccc(S(=O)(=O)[O-])c6F)c6nc(c(-c7cccc(S(=O)(=O)[O-])c7F)c7ccc4[nH]7)C=C6)C=C5)cc3)c2)cc1Br
REMARK SMILES IDX 18 1 17 2 15 3 16 4 14 5 9 6 10 7 86 8 11 9 12 10 8 11 7 12
REMARK SMILES IDX 6 13 4 14 5 15 88 16 87 17 89 18 2 19 1 20 3 21 13 22 19 24
REMARK SMILES IDX 20 25 21 26 22 27 23 28 24 29 85 30 25 31 84 32 26 33 27 34
REMARK SMILES IDX 28 35 78 36 29 37 83 38 77 39 79 40 30 41 82 42 76 43 75 44
REMARK SMILES IDX 31 46 63 47 43 48 62 49 44 50 47 51 61 52 80 53 45 54 46 55
REMARK SMILES IDX 60 57 81 58 48 59 32 60 33 61 41 62 34 63 36 64 42 65 35 66
REMARK SMILES IDX 37 67 38 68 39 69 40 70 64 71 65 72 73 73 66 74 68 75 74 76
REMARK SMILES IDX 67 77 69 78 70 79 71 80 72 81 49 82 50 83 58 84 51 85 53 86
REMARK SMILES IDX 59 87 52 88 54 89 55 90 56 91 57 92
REMARK H PARENT 13 23 79 45 47 56
REMARK Flexibility Score: inf
ROOT
ATOM      1  C   UNL A   1      33.876  34.918  29.782  1.00  0.00     0.275 C 
ENDROOT
BRANCH   1   2
ATOM      2  O   UNL A   1      34.656  33.995  30.569  1.00  0.00    -0.458 OA
BRANCH   2   3
ATOM      3  C   UNL A   1      34.498  34.073  31.917  1.00  0.00     0.342 C 
ATOM      4  O   UNL A   1      33.454  33.971  32.533  1.00  0.00    -0.246 OA
BRANCH   3   5
ATOM      5  C   UNL A   1      35.812  34.159  32.595  1.00  0.00     0.103 A 
ATOM      6  C   UNL A   1      38.210  34.487  32.333  1.00  0.00     0.064 A 
ATOM      7  C   UNL A   1      38.353  34.459  33.721  1.00  0.00     0.032 A 
ATOM      8  C   UNL A   1      36.946  34.293  31.781  1.00  0.00     0.048 A 
ATOM      9  C   UNL A   1      37.239  34.254  34.545  1.00  0.00     0.049 A 
ATOM     10  C   UNL A   1      35.967  34.121  33.981  1.00  0.00     0.130 A 
BRANCH   6  11
ATOM     11  N   UNL A   1      39.256  34.871  31.491  1.00  0.00    -0.253 NA
ATOM     12  C   UNL A   1      39.674  34.047  30.586  1.00  0.00     0.158 C 
BRANCH  12  13
ATOM     13  C   UNL A   1      40.751  34.441  29.720  1.00  0.00     0.149 A 
ATOM     14  C   UNL A   1      42.834  34.413  28.974  1.00  0.00     0.210 A 
ATOM     15  O   UNL A   1      41.956  33.809  29.840  1.00  0.00    -0.438 OA
ATOM     16  C   UNL A   1      42.153  35.389  28.273  1.00  0.00     0.082 A 
ATOM     17  C   UNL A   1      40.824  35.407  28.739  1.00  0.00     0.070 A 
ATOM     18  Br  UNL A   1      42.733  36.518  26.891  1.00  0.00    -0.045 Br
BRANCH  14  19
ATOM     19  N   UNL A   1      44.116  33.964  29.012  1.00  0.00    -0.348 N 
ATOM     20  C   UNL A   1      44.439  32.605  28.610  1.00  0.00     0.146 C 
ATOM     21  C   UNL A   1      45.075  34.669  29.846  1.00  0.00     0.146 C 
ENDBRANCH  14  19
ENDBRANCH  12  13
ENDBRANCH   6  11
BRANCH  10  22
ATOM     22  O   UNL A   1      34.888  33.927  34.797  1.00  0.00    -0.507 OA
ATOM     23  H   UNL A   1      34.251  33.275  34.583  1.00  0.00     0.293 HD
ENDBRANCH  10  22
ENDBRANCH   3   5
ENDBRANCH   2   3
ENDBRANCH   1   2
BRANCH   1  24
ATOM     24  C   UNL A   1      33.201  34.197  28.618  1.00  0.00     0.275 C 
BRANCH  24  25
ATOM     25  O   UNL A   1      34.202  33.526  27.835  1.00  0.00    -0.458 OA
BRANCH  25  26
ATOM     26  C   UNL A   1      34.045  32.190  27.695  1.00  0.00     0.338 C 
ATOM     27  O   UNL A   1      33.076  31.595  27.252  1.00  0.00    -0.246 OA
BRANCH  26  28
ATOM     28  C   UNL A   1      35.279  31.517  28.125  1.00  0.00     0.060 A 
ATOM     29  C   UNL A   1      35.211  30.182  28.515  1.00  0.00     0.016 A 
ATOM     30  C   UNL A   1      36.469  32.227  28.258  1.00  0.00     0.016 A 
ATOM     31  C   UNL A   1      36.302  29.573  29.132  1.00  0.00     0.010 A 
ATOM     32  C   UNL A   1      37.593  31.584  28.787  1.00  0.00     0.010 A 
ATOM     33  C   UNL A   1      37.514  30.264  29.272  1.00  0.00    -0.014 A 
BRANCH  33  34
ATOM     34  C   UNL A   1      38.682  29.632  29.954  1.00  0.00     0.031 A 
ATOM     35  C   UNL A   1      39.062  30.058  31.353  1.00  0.00     0.074 A 
ATOM     36  C   UNL A   1      39.427  28.702  29.321  1.00  0.00     0.049 A 
ATOM     37  N   UNL A   1      40.137  29.772  32.041  1.00  0.00    -0.248 NA
ATOM     38  C   UNL A   1      38.119  30.937  32.063  1.00  0.00     0.031 C 
ATOM     39  C   UNL A   1      39.178  28.190  27.972  1.00  0.00     0.029 A 
ATOM     40  N   UNL A   1      40.560  28.034  29.722  1.00  0.00    -0.354 N 
ATOM     41  C   UNL A   1      40.044  30.503  33.220  1.00  0.00     0.074 A 
ATOM     42  C   UNL A   1      38.795  31.231  33.166  1.00  0.00     0.031 C 
ATOM     43  C   UNL A   1      40.121  27.287  27.661  1.00  0.00     0.029 A 
ATOM     44  C   UNL A   1      41.082  27.206  28.754  1.00  0.00     0.049 A 
ATOM     45  H   UNL A   1      40.960  28.139  30.616  1.00  0.00     0.167 HD
ATOM     46  C   UNL A   1      40.914  30.558  34.257  1.00  0.00     0.034 A 
ATOM     47  C   UNL A   1      42.228  26.495  28.724  1.00  0.00     0.034 A 
ATOM     48  C   UNL A   1      42.105  29.757  34.357  1.00  0.00     0.049 A 
ATOM     49  C   UNL A   1      43.153  26.545  29.909  1.00  0.00     0.074 A 
ATOM     50  C   UNL A   1      43.008  29.689  35.404  1.00  0.00     0.029 A 
ATOM     51  N   UNL A   1      42.552  28.876  33.387  1.00  0.00    -0.354 N 
ATOM     52  N   UNL A   1      43.007  27.183  31.045  1.00  0.00    -0.248 NA
ATOM     53  C   UNL A   1      44.396  25.765  29.816  1.00  0.00     0.031 C 
ATOM     54  C   UNL A   1      44.009  28.776  35.061  1.00  0.00     0.029 A 
ATOM     55  C   UNL A   1      43.720  28.264  33.807  1.00  0.00     0.049 A 
ATOM     56  H   UNL A   1      42.105  28.709  32.525  1.00  0.00     0.167 HD
ATOM     57  C   UNL A   1      44.123  26.861  31.808  1.00  0.00     0.074 A 
ATOM     58  C   UNL A   1      44.922  25.949  31.019  1.00  0.00     0.031 C 
ATOM     59  C   UNL A   1      44.469  27.303  33.042  1.00  0.00     0.034 A 
BRANCH  46  60
ATOM     60  C   UNL A   1      40.610  31.494  35.397  1.00  0.00     0.023 A 
ATOM     61  C   UNL A   1      41.423  32.623  35.614  1.00  0.00     0.012 A 
ATOM     62  C   UNL A   1      39.456  31.310  36.186  1.00  0.00     0.148 A 
ATOM     63  C   UNL A   1      41.104  33.545  36.611  1.00  0.00     0.002 A 
ATOM     64  C   UNL A   1      39.121  32.254  37.149  1.00  0.00     0.091 A 
ATOM     65  F   UNL A   1      38.704  30.220  35.972  1.00  0.00    -0.205 F 
ATOM     66  C   UNL A   1      39.948  33.367  37.368  1.00  0.00     0.022 A 
BRANCH  64  67
ATOM     67  S   UNL A   1      37.612  32.160  38.120  1.00  0.00     0.127 S 
ATOM     68  O   UNL A   1      37.372  30.719  38.158  1.00  0.00    -0.237 OA
ATOM     69  O   UNL A   1      38.031  32.741  39.396  1.00  0.00    -0.237 OA
ATOM     70  O   UNL A   1      36.616  32.938  37.396  1.00  0.00    -0.744 OA
ENDBRANCH  64  67
ENDBRANCH  46  60
BRANCH  47  71
ATOM     71  C   UNL A   1      42.562  25.661  27.534  1.00  0.00     0.023 A 
ATOM     72  C   UNL A   1      43.332  26.215  26.494  1.00  0.00     0.012 A 
ATOM     73  C   UNL A   1      42.134  24.323  27.429  1.00  0.00     0.148 A 
ATOM     74  C   UNL A   1      43.645  25.465  25.360  1.00  0.00     0.002 A 
ATOM     75  C   UNL A   1      42.502  23.561  26.326  1.00  0.00     0.091 A 
ATOM     76  F   UNL A   1      41.374  23.816  28.410  1.00  0.00    -0.205 F 
ATOM     77  C   UNL A   1      43.243  24.133  25.282  1.00  0.00     0.022 A 
BRANCH  75  78
ATOM     78  S   UNL A   1      42.143  21.803  26.231  1.00  0.00     0.127 S 
ATOM     79  O   UNL A   1      42.485  21.352  27.577  1.00  0.00    -0.237 OA
ATOM     80  O   UNL A   1      40.712  21.793  25.923  1.00  0.00    -0.237 OA
ATOM     81  O   UNL A   1      42.985  21.301  25.152  1.00  0.00    -0.744 OA
ENDBRANCH  75  78
ENDBRANCH  47  71
BRANCH  59  82
ATOM     82  C   UNL A   1      45.746  26.778  33.638  1.00  0.00     0.023 A 
ATOM     83  C   UNL A   1      45.729  25.577  34.374  1.00  0.00     0.012 A 
ATOM     84  C   UNL A   1      46.971  27.434  33.409  1.00  0.00     0.148 A 
ATOM     85  C   UNL A   1      46.910  25.052  34.900  1.00  0.00     0.002 A 
ATOM     86  C   UNL A   1      48.150  26.882  33.898  1.00  0.00     0.091 A 
ATOM     87  F   UNL A   1      46.963  28.587  32.724  1.00  0.00    -0.205 F 
ATOM     88  C   UNL A   1      48.120  25.697  34.651  1.00  0.00     0.022 A 
BRANCH  86  89
ATOM     89  S   UNL A   1      49.760  27.599  33.550  1.00  0.00     0.127 S 
ATOM     90  O   UNL A   1      49.904  28.557  34.644  1.00  0.00    -0.237 OA
ATOM     91  O   UNL A   1      50.646  26.437  33.636  1.00  0.00    -0.237 OA
ATOM     92  O   UNL A   1      49.658  28.179  32.217  1.00  0.00    -0.744 OA
ENDBRANCH  86  89
ENDBRANCH  59  82
ENDBRANCH  33  34
ENDBRANCH  26  28
ENDBRANCH  25  26
ENDBRANCH  24  25
ENDBRANCH   1  24
TORSDOF 18
ENDMDL
MODEL 2
REMARK VINA RESULT:     -10.0      1.941      2.341
REMARK SMILES CN(C)c1oc(/C=N/c2ccc(O)c(C(=O)OCCOC(=O)c3ccc(-c4c5nc(c(-c6cccc(S(=O)(=O)[O-])c6F)c6ccc([nH]6)c(-c6cccc(S(=O)(=O)[O-])c6F)c6nc(c(-c7cccc(S(=O)(=O)[O-])c7F)c7ccc4[nH]7)C=C6)C=C5)cc3)c2)cc1Br
REMARK SMILES IDX 18 1 17 2 15 3 16 4 14 5 9 6 10 7 86 8 11 9 12 10 8 11 7 12
REMARK SMILES IDX 6 13 4 14 5 15 88 16 87 17 89 18 2 19 1 20 3 21 13 22 19 24
REMARK SMILES IDX 20 25 21 26 22 27 23 28 24 29 85 30 25 31 84 32 26 33 27 34
REMARK SMILES IDX 28 35 78 36 29 37 83 38 77 39 79 40 30 41 82 42 76 43 75 44
REMARK SMILES IDX 31 46 63 47 43 48 62 49 44 50 47 51 61 52 80 53 45 54 46 55
REMARK SMILES IDX 60 57 81 58 48 59 32 60 33 61 41 62 34 63 36 64 42 65 35 66
REMARK SMILES IDX 37 67 38 68 39 69 40 70 64 71 65 72 73 73 66 74 68 75 74 76
REMARK SMILES IDX 67 77 69 78 70 79 71 80 72 81 49 82 50 83 58 84 51 85 53 86
REMARK SMILES IDX 59 87 52 88 54 89 55 90 56 91 57 92
REMARK H PARENT 13 23 79 45 47 56
REMARK Flexibility Score: inf
ROOT
ATOM      1  C   UNL A   1      33.568  34.695  29.568  1.00  0.00     0.275 C 
ENDROOT
BRANCH   1   2
ATOM      2  O   UNL A   1      34.096  33.792  30.560  1.00  0.00    -0.458 OA
BRANCH   2   3
ATOM      3  C   UNL A   1      34.129  34.257  31.837  1.00  0.00     0.342 C 
ATOM      4  O   UNL A   1      33.171  34.494  32.548  1.00  0.00    -0.246 OA
BRANCH   3   5
ATOM      5  C   UNL A   1      35.521  34.312  32.340  1.00  0.00     0.103 A 
ATOM      6  C   UNL A   1      37.883  34.419  31.760  1.00  0.00     0.064 A 
ATOM      7  C   UNL A   1      38.198  34.530  33.114  1.00  0.00     0.032 A 
ATOM      8  C   UNL A   1      36.549  34.267  31.388  1.00  0.00     0.048 A 
ATOM      9  C   UNL A   1      37.187  34.504  34.083  1.00  0.00     0.049 A 
ATOM     10  C   UNL A   1      35.847  34.412  33.693  1.00  0.00     0.130 A 
BRANCH   6  11
ATOM     11  N   UNL A   1      38.836  34.625  30.760  1.00  0.00    -0.253 NA
ATOM     12  C   UNL A   1      40.067  34.296  30.981  1.00  0.00     0.158 C 
BRANCH  12  13
ATOM     13  C   UNL A   1      41.047  34.509  29.953  1.00  0.00     0.149 A 
ATOM     14  C   UNL A   1      42.985  34.185  28.935  1.00  0.00     0.210 A 
ATOM     15  O   UNL A   1      42.175  33.739  29.950  1.00  0.00    -0.438 OA
ATOM     16  C   UNL A   1      42.328  35.202  28.268  1.00  0.00     0.082 A 
ATOM     17  C   UNL A   1      41.091  35.407  28.908  1.00  0.00     0.070 A 
ATOM     18  Br  UNL A   1      42.832  36.179  26.748  1.00  0.00    -0.045 Br
BRANCH  14  19
ATOM     19  N   UNL A   1      44.199  33.583  28.828  1.00  0.00    -0.348 N 
ATOM     20  C   UNL A   1      44.550  32.826  27.639  1.00  0.00     0.146 C 
ATOM     21  C   UNL A   1      44.957  33.328  30.042  1.00  0.00     0.146 C 
ENDBRANCH  14  19
ENDBRANCH  12  13
ENDBRANCH   6  11
BRANCH  10  22
ATOM     22  O   UNL A   1      34.870  34.394  34.648  1.00  0.00    -0.507 OA
ATOM     23  H   UNL A   1      33.976  34.260  34.400  1.00  0.00     0.293 HD
ENDBRANCH  10  22
ENDBRANCH   3   5
ENDBRANCH   2   3
ENDBRANCH   1   2
BRANCH   1  24
ATOM     24  C   UNL A   1      33.298  33.958  28.258  1.00  0.00     0.275 C 
BRANCH  24  25
ATOM     25  O   UNL A   1      34.465  33.205  27.891  1.00  0.00    -0.458 OA
BRANCH  25  26
ATOM     26  C   UNL A   1      34.310  31.863  27.835  1.00  0.00     0.338 C 
ATOM     27  O   UNL A   1      33.313  31.241  27.509  1.00  0.00    -0.246 OA
BRANCH  26  28
ATOM     28  C   UNL A   1      35.583  31.219  28.191  1.00  0.00     0.060 A 
ATOM     29  C   UNL A   1      35.590  29.853  28.455  1.00  0.00     0.016 A 
ATOM     30  C   UNL A   1      36.735  31.977  28.380  1.00  0.00     0.016 A 
ATOM     31  C   UNL A   1      36.719  29.248  29.005  1.00  0.00     0.010 A 
ATOM     32  C   UNL A   1      37.899  31.349  28.838  1.00  0.00     0.010 A 
ATOM     33  C   UNL A   1      37.895  29.986  29.200  1.00  0.00    -0.014 A 
BRANCH  33  34
ATOM     34  C   UNL A   1      39.102  29.358  29.810  1.00  0.00     0.031 A 
ATOM     35  C   UNL A   1      39.643  29.875  31.123  1.00  0.00     0.074 A 
ATOM     36  C   UNL A   1      39.741  28.346  29.186  1.00  0.00     0.049 A 
ATOM     37  N   UNL A   1      40.773  29.595  31.720  1.00  0.00    -0.248 NA
ATOM     38  C   UNL A   1      38.814  30.852  31.848  1.00  0.00     0.031 C 
ATOM     39  C   UNL A   1      39.333  27.740  27.917  1.00  0.00     0.029 A 
ATOM     40  N   UNL A   1      40.883  27.660  29.525  1.00  0.00    -0.354 N 
ATOM     41  C   UNL A   1      40.831  30.422  32.837  1.00  0.00     0.074 A 
ATOM     42  C   UNL A   1      39.612  31.202  32.848  1.00  0.00     0.031 C 
ATOM     43  C   UNL A   1      40.202  26.771  27.590  1.00  0.00     0.029 A 
ATOM     44  C   UNL A   1      41.269  26.734  28.583  1.00  0.00     0.049 A 
ATOM     45  H   UNL A   1      41.379  27.817  30.362  1.00  0.00     0.167 HD
ATOM     46  C   UNL A   1      41.806  30.519  33.772  1.00  0.00     0.034 A 
ATOM     47  C   UNL A   1      42.377  25.969  28.498  1.00  0.00     0.034 A 
ATOM     48  C   UNL A   1      42.969  29.674  33.818  1.00  0.00     0.049 A 
ATOM     49  C   UNL A   1      43.422  26.071  29.575  1.00  0.00     0.074 A 
ATOM     50  C   UNL A   1      43.974  29.648  34.771  1.00  0.00     0.029 A 
ATOM     51  N   UNL A   1      43.279  28.699  32.885  1.00  0.00    -0.354 N 
ATOM     52  N   UNL A   1      43.421  26.804  30.661  1.00  0.00    -0.248 NA
ATOM     53  C   UNL A   1      44.619  25.229  29.422  1.00  0.00     0.031 C 
ATOM     54  C   UNL A   1      44.898  28.665  34.407  1.00  0.00     0.029 A 
ATOM     55  C   UNL A   1      44.460  28.068  33.236  1.00  0.00     0.049 A 
ATOM     56  H   UNL A   1      42.738  28.484  32.091  1.00  0.00     0.167 HD
ATOM     57  C   UNL A   1      44.598  26.492  31.332  1.00  0.00     0.074 A 
ATOM     58  C   UNL A   1      45.274  25.483  30.546  1.00  0.00     0.031 C 
ATOM     59  C   UNL A   1      45.088  27.015  32.483  1.00  0.00     0.034 A 
BRANCH  46  60
ATOM     60  C   UNL A   1      41.659  31.557  34.853  1.00  0.00     0.023 A 
ATOM     61  C   UNL A   1      41.224  31.177  36.137  1.00  0.00     0.012 A 
ATOM     62  C   UNL A   1      42.054  32.891  34.622  1.00  0.00     0.148 A 
ATOM     63  C   UNL A   1      41.166  32.112  37.171  1.00  0.00     0.002 A 
ATOM     64  C   UNL A   1      42.033  33.807  35.667  1.00  0.00     0.091 A 
ATOM     65  F   UNL A   1      42.450  33.235  33.389  1.00  0.00    -0.205 F 
ATOM     66  C   UNL A   1      41.582  33.421  36.940  1.00  0.00     0.022 A 
BRANCH  64  67
ATOM     67  S   UNL A   1      42.625  35.495  35.494  1.00  0.00     0.127 S 
ATOM     68  O   UNL A   1      41.414  36.191  35.063  1.00  0.00    -0.237 OA
ATOM     69  O   UNL A   1      43.057  35.811  36.856  1.00  0.00    -0.237 OA
ATOM     70  O   UNL A   1      43.699  35.448  34.512  1.00  0.00    -0.744 OA
ENDBRANCH  64  67
ENDBRANCH  46  60
BRANCH  47  71
ATOM     71  C   UNL A   1      42.553  25.028  27.355  1.00  0.00     0.023 A 
ATOM     72  C   UNL A   1      43.248  25.454  26.206  1.00  0.00     0.012 A 
ATOM     73  C   UNL A   1      42.049  23.713  27.399  1.00  0.00     0.148 A 
ATOM     74  C   UNL A   1      43.412  24.602  25.114  1.00  0.00     0.002 A 
ATOM     75  C   UNL A   1      42.270  22.848  26.334  1.00  0.00     0.091 A 
ATOM     76  F   UNL A   1      41.362  23.328  28.484  1.00  0.00    -0.205 F 
ATOM     77  C   UNL A   1      42.936  23.294  25.183  1.00  0.00     0.022 A 
BRANCH  75  78
ATOM     78  S   UNL A   1      41.815  21.112  26.417  1.00  0.00     0.127 S 
ATOM     79  O   UNL A   1      42.650  20.531  25.369  1.00  0.00    -0.237 OA
ATOM     80  O   UNL A   1      42.201  20.753  27.782  1.00  0.00    -0.237 OA
ATOM     81  O   UNL A   1      40.377  21.085  26.181  1.00  0.00    -0.744 OA
ENDBRANCH  75  78
ENDBRANCH  47  71
BRANCH  59  82
ATOM     82  C   UNL A   1      46.399  26.480  32.989  1.00  0.00     0.023 A 
ATOM     83  C   UNL A   1      47.599  27.134  32.645  1.00  0.00     0.012 A 
ATOM     84  C   UNL A   1      46.438  25.375  33.862  1.00  0.00     0.148 A 
ATOM     85  C   UNL A   1      48.821  26.677  33.138  1.00  0.00     0.002 A 
ATOM     86  C   UNL A   1      47.654  24.953  34.385  1.00  0.00     0.091 A 
ATOM     87  F   UNL A   1      45.287  24.754  34.161  1.00  0.00    -0.205 F 
ATOM     88  C   UNL A   1      48.847  25.596  34.016  1.00  0.00     0.022 A 
BRANCH  86  89
ATOM     89  S   UNL A   1      47.770  23.626  35.590  1.00  0.00     0.127 S 
ATOM     90  O   UNL A   1      46.888  24.108  36.652  1.00  0.00    -0.237 OA
ATOM     91  O   UNL A   1      47.255  22.478  34.844  1.00  0.00    -0.237 OA
ATOM     92  O   UNL A   1      49.181  23.530  35.942  1.00  0.00    -0.744 OA
ENDBRANCH  86  89
ENDBRANCH  59  82
ENDBRANCH  33  34
ENDBRANCH  26  28
ENDBRANCH  25  26
ENDBRANCH  24  25
ENDBRANCH   1  24
TORSDOF 18
ENDMDL
MODEL 3
REMARK VINA RESULT:      -9.9      2.918      4.370
REMARK SMILES CN(C)c1oc(/C=N/c2ccc(O)c(C(=O)OCCOC(=O)c3ccc(-c4c5nc(c(-c6cccc(S(=O)(=O)[O-])c6F)c6ccc([nH]6)c(-c6cccc(S(=O)(=O)[O-])c6F)c6nc(c(-c7cccc(S(=O)(=O)[O-])c7F)c7ccc4[nH]7)C=C6)C=C5)cc3)c2)cc1Br
REMARK SMILES IDX 18 1 17 2 15 3 16 4 14 5 9 6 10 7 86 8 11 9 12 10 8 11 7 12
REMARK SMILES IDX 6 13 4 14 5 15 88 16 87 17 89 18 2 19 1 20 3 21 13 22 19 24
REMARK SMILES IDX 20 25 21 26 22 27 23 28 24 29 85 30 25 31 84 32 26 33 27 34
REMARK SMILES IDX 28 35 78 36 29 37 83 38 77 39 79 40 30 41 82 42 76 43 75 44
REMARK SMILES IDX 31 46 63 47 43 48 62 49 44 50 47 51 61 52 80 53 45 54 46 55
REMARK SMILES IDX 60 57 81 58 48 59 32 60 33 61 41 62 34 63 36 64 42 65 35 66
REMARK SMILES IDX 37 67 38 68 39 69 40 70 64 71 65 72 73 73 66 74 68 75 74 76
REMARK SMILES IDX 67 77 69 78 70 79 71 80 72 81 49 82 50 83 58 84 51 85 53 86
REMARK SMILES IDX 59 87 52 88 54 89 55 90 56 91 57 92
REMARK H PARENT 13 23 79 45 47 56
REMARK Flexibility Score: inf
ROOT
ATOM      1  C   UNL A   1      34.021  33.867  28.087  1.00  0.00     0.275 C 
ENDROOT
BRANCH   1   2
ATOM      2  O   UNL A   1      33.688  34.175  29.455  1.00  0.00    -0.458 OA
BRANCH   2   3
ATOM      3  C   UNL A   1      33.183  35.416  29.686  1.00  0.00     0.342 C 
ATOM      4  O   UNL A   1      32.461  36.054  28.944  1.00  0.00    -0.246 OA
BRANCH   3   5
ATOM      5  C   UNL A   1      33.507  35.868  31.058  1.00  0.00     0.103 A 
ATOM      6  C   UNL A   1      34.367  35.243  33.248  1.00  0.00     0.064 A 
ATOM      7  C   UNL A   1      34.275  36.575  33.651  1.00  0.00     0.032 A 
ATOM      8  C   UNL A   1      33.941  34.894  31.969  1.00  0.00     0.048 A 
ATOM      9  C   UNL A   1      33.775  37.548  32.777  1.00  0.00     0.049 A 
ATOM     10  C   UNL A   1      33.407  37.196  31.475  1.00  0.00     0.130 A 
BRANCH   6  11
ATOM     11  N   UNL A   1      35.027  34.282  34.018  1.00  0.00    -0.253 NA
ATOM     12  C   UNL A   1      36.320  34.255  34.024  1.00  0.00     0.158 C 
BRANCH  12  13
ATOM     13  C   UNL A   1      36.998  33.266  34.814  1.00  0.00     0.149 A 
ATOM     14  C   UNL A   1      37.668  32.323  36.702  1.00  0.00     0.210 A 
ATOM     15  O   UNL A   1      36.868  33.307  36.173  1.00  0.00    -0.438 OA
ATOM     16  C   UNL A   1      38.253  31.631  35.659  1.00  0.00     0.082 A 
ATOM     17  C   UNL A   1      37.824  32.222  34.455  1.00  0.00     0.070 A 
ATOM     18  Br  UNL A   1      39.379  30.130  35.681  1.00  0.00    -0.045 Br
BRANCH  14  19
ATOM     19  N   UNL A   1      37.728  32.265  38.058  1.00  0.00    -0.348 N 
ATOM     20  C   UNL A   1      37.007  31.237  38.789  1.00  0.00     0.146 C 
ATOM     21  C   UNL A   1      38.137  33.454  38.787  1.00  0.00     0.146 C 
ENDBRANCH  14  19
ENDBRANCH  12  13
ENDBRANCH   6  11
BRANCH  10  22
ATOM     22  O   UNL A   1      32.927  38.156  30.630  1.00  0.00    -0.507 OA
ATOM     23  H   UNL A   1      33.456  38.899  30.416  1.00  0.00     0.293 HD
ENDBRANCH  10  22
ENDBRANCH   3   5
ENDBRANCH   2   3
ENDBRANCH   1   2
BRANCH   1  24
ATOM     24  C   UNL A   1      33.596  32.443  27.736  1.00  0.00     0.275 C 
BRANCH  24  25
ATOM     25  O   UNL A   1      34.320  31.517  28.562  1.00  0.00    -0.458 OA
BRANCH  25  26
ATOM     26  C   UNL A   1      34.812  30.425  27.934  1.00  0.00     0.338 C 
ATOM     27  O   UNL A   1      34.300  29.794  27.023  1.00  0.00    -0.246 OA
BRANCH  26  28
ATOM     28  C   UNL A   1      36.136  30.110  28.490  1.00  0.00     0.060 A 
ATOM     29  C   UNL A   1      37.267  30.434  27.746  1.00  0.00     0.016 A 
ATOM     30  C   UNL A   1      36.257  29.392  29.676  1.00  0.00     0.016 A 
ATOM     31  C   UNL A   1      38.521  29.961  28.130  1.00  0.00     0.010 A 
ATOM     32  C   UNL A   1      37.529  29.003  30.112  1.00  0.00     0.010 A 
ATOM     33  C   UNL A   1      38.672  29.242  29.324  1.00  0.00    -0.014 A 
BRANCH  33  34
ATOM     34  C   UNL A   1      40.004  28.708  29.733  1.00  0.00     0.031 A 
ATOM     35  C   UNL A   1      40.773  29.369  30.853  1.00  0.00     0.074 A 
ATOM     36  C   UNL A   1      40.548  27.653  29.092  1.00  0.00     0.049 A 
ATOM     37  N   UNL A   1      42.011  29.179  31.232  1.00  0.00    -0.248 NA
ATOM     38  C   UNL A   1      40.063  30.395  31.636  1.00  0.00     0.031 C 
ATOM     39  C   UNL A   1      39.922  26.911  27.995  1.00  0.00     0.029 A 
ATOM     40  N   UNL A   1      41.765  27.033  29.254  1.00  0.00    -0.354 N 
ATOM     41  C   UNL A   1      42.255  30.116  32.230  1.00  0.00     0.074 A 
ATOM     42  C   UNL A   1      41.030  30.864  32.414  1.00  0.00     0.031 C 
ATOM     43  C   UNL A   1      40.750  25.935  27.592  1.00  0.00     0.029 A 
ATOM     44  C   UNL A   1      41.995  26.024  28.346  1.00  0.00     0.049 A 
ATOM     45  H   UNL A   1      42.410  27.286  29.954  1.00  0.00     0.167 HD
ATOM     46  C   UNL A   1      43.392  30.331  32.933  1.00  0.00     0.034 A 
ATOM     47  C   UNL A   1      43.096  25.282  28.110  1.00  0.00     0.034 A 
ATOM     48  C   UNL A   1      44.577  29.523  32.822  1.00  0.00     0.049 A 
ATOM     49  C   UNL A   1      44.330  25.518  28.937  1.00  0.00     0.074 A 
ATOM     50  C   UNL A   1      45.752  29.619  33.548  1.00  0.00     0.029 A 
ATOM     51  N   UNL A   1      44.736  28.465  31.943  1.00  0.00    -0.354 N 
ATOM     52  N   UNL A   1      44.513  26.358  29.926  1.00  0.00    -0.248 NA
ATOM     53  C   UNL A   1      45.507  24.693  28.625  1.00  0.00     0.031 C 
ATOM     54  C   UNL A   1      46.627  28.626  33.099  1.00  0.00     0.029 A 
ATOM     55  C   UNL A   1      45.990  27.902  32.104  1.00  0.00     0.049 A 
ATOM     56  H   UNL A   1      44.057  28.158  31.299  1.00  0.00     0.167 HD
ATOM     57  C   UNL A   1      45.813  26.144  30.371  1.00  0.00     0.074 A 
ATOM     58  C   UNL A   1      46.363  25.076  29.563  1.00  0.00     0.031 C 
ATOM     59  C   UNL A   1      46.500  26.793  31.343  1.00  0.00     0.034 A 
BRANCH  46  60
ATOM     60  C   UNL A   1      43.419  31.471  33.918  1.00  0.00     0.023 A 
ATOM     61  C   UNL A   1      43.604  32.790  33.461  1.00  0.00     0.012 A 
ATOM     62  C   UNL A   1      43.156  31.241  35.284  1.00  0.00     0.148 A 
ATOM     63  C   UNL A   1      43.545  33.862  34.351  1.00  0.00     0.002 A 
ATOM     64  C   UNL A   1      43.057  32.317  36.158  1.00  0.00     0.091 A 
ATOM     65  F   UNL A   1      42.999  29.976  35.700  1.00  0.00    -0.205 F 
ATOM     66  C   UNL A   1      43.260  33.628  35.694  1.00  0.00     0.022 A 
BRANCH  64  67
ATOM     67  S   UNL A   1      42.613  32.128  37.889  1.00  0.00     0.127 S 
ATOM     68  O   UNL A   1      43.489  31.033  38.302  1.00  0.00    -0.237 OA
ATOM     69  O   UNL A   1      42.969  33.436  38.442  1.00  0.00    -0.237 OA
ATOM     70  O   UNL A   1      41.188  31.828  37.910  1.00  0.00    -0.744 OA
ENDBRANCH  64  67
ENDBRANCH  46  60
BRANCH  47  71
ATOM     71  C   UNL A   1      43.081  24.233  27.050  1.00  0.00     0.023 A 
ATOM     72  C   UNL A   1      43.753  24.467  25.835  1.00  0.00     0.012 A 
ATOM     73  C   UNL A   1      42.417  23.005  27.238  1.00  0.00     0.148 A 
ATOM     74  C   UNL A   1      43.741  23.511  24.818  1.00  0.00     0.002 A 
ATOM     75  C   UNL A   1      42.461  22.032  26.246  1.00  0.00     0.091 A 
ATOM     76  F   UNL A   1      41.754  22.807  28.387  1.00  0.00    -0.205 F 
ATOM     77  C   UNL A   1      43.107  22.289  25.028  1.00  0.00     0.022 A 
BRANCH  75  78
ATOM     78  S   UNL A   1      41.794  20.385  26.509  1.00  0.00     0.127 S 
ATOM     79  O   UNL A   1      42.270  19.675  25.325  1.00  0.00    -0.237 OA
ATOM     80  O   UNL A   1      42.433  19.986  27.764  1.00  0.00    -0.237 OA
ATOM     81  O   UNL A   1      40.353  20.570  26.610  1.00  0.00    -0.744 OA
ENDBRANCH  75  78
ENDBRANCH  47  71
BRANCH  59  82
ATOM     82  C   UNL A   1      47.909  26.344  31.620  1.00  0.00     0.023 A 
ATOM     83  C   UNL A   1      48.147  25.366  32.606  1.00  0.00     0.012 A 
ATOM     84  C   UNL A   1      48.985  26.836  30.857  1.00  0.00     0.148 A 
ATOM     85  C   UNL A   1      49.441  24.907  32.849  1.00  0.00     0.002 A 
ATOM     86  C   UNL A   1      50.265  26.341  31.074  1.00  0.00     0.091 A 
ATOM     87  F   UNL A   1      48.740  27.781  29.937  1.00  0.00    -0.205 F 
ATOM     88  C   UNL A   1      50.497  25.385  32.076  1.00  0.00     0.022 A 
BRANCH  86  89
ATOM     89  S   UNL A   1      51.667  26.835  30.065  1.00  0.00     0.127 S 
ATOM     90  O   UNL A   1      51.170  26.578  28.715  1.00  0.00    -0.237 OA
ATOM     91  O   UNL A   1      51.813  28.252  30.402  1.00  0.00    -0.237 OA
ATOM     92  O   UNL A   1      52.781  25.999  30.494  1.00  0.00    -0.744 OA
ENDBRANCH  86  89
ENDBRANCH  59  82
ENDBRANCH  33  34
ENDBRANCH  26  28
ENDBRANCH  25  26
ENDBRANCH  24  25
ENDBRANCH   1  24
TORSDOF 18
ENDMDL
