MODEL 1
REMARK VINA RESULT:     -12.4      0.000      0.000
REMARK SMILES CN1C(=O)C[C@@H](C(=O)OCCOC(=O)c2ccc(-c3c4nc(c(-c5cccc(S(=O)(=O)[O-])c5F)c5ccc([nH]5)c(-c5cccc(S(=O)(=O)[O-])c5F)c5nc(c(-c6cccc(S(=O)(=O)[O-])c6F)c6ccc3[nH]6)C=C5)C=C4)cc2)C12CC[NH+](CCSc1ccccc1)CC2
REMARK SMILES IDX 10 1 9 2 7 3 8 4 6 5 1 6 2 7 3 8 78 9 4 10 5 11 79 12 92 13
REMARK SMILES IDX 80 14 91 15 81 16 82 18 83 19 84 20 85 21 86 22 90 23 87 24
REMARK SMILES IDX 89 25 88 26 11 27 12 28 13 29 14 30 15 31 16 32 77 33 17 34
REMARK SMILES IDX 76 35 18 36 19 37 20 38 70 39 21 40 75 41 69 42 71 43 22 44
REMARK SMILES IDX 74 45 68 46 67 47 23 49 55 50 35 51 54 52 36 53 39 54 53 55
REMARK SMILES IDX 72 56 37 57 38 58 52 60 73 61 40 62 24 63 25 64 33 65 26 66
REMARK SMILES IDX 28 67 34 68 27 69 29 70 30 71 31 72 32 73 56 74 57 75 65 76
REMARK SMILES IDX 58 77 60 78 66 79 59 80 61 81 62 82 63 83 64 84 41 85 42 86
REMARK SMILES IDX 50 87 43 88 45 89 51 90 44 91 46 92 47 93 48 94 49 95
REMARK H PARENT 81 17 71 48 39 59
REMARK Flexibility Score: inf
ROOT
ATOM      1  C   UNL A   1      34.985  20.748  25.434  1.00  0.00     0.274 C 
ENDROOT
BRANCH   1   2
ATOM      2  O   UNL A   1      34.282  21.465  24.397  1.00  0.00    -0.462 OA
BRANCH   2   3
ATOM      3  C   UNL A   1      33.024  21.814  24.718  1.00  0.00     0.311 C 
ATOM      4  O   UNL A   1      32.038  21.125  24.455  1.00  0.00    -0.252 OA
BRANCH   3   5
ATOM      5  C   UNL A   1      32.851  23.094  25.490  1.00  0.00     0.134 C 
ATOM      6  C   UNL A   1      29.789  25.318  25.581  1.00  0.00     0.147 C 
ATOM      7  N   UNL A   1      30.844  24.322  25.695  1.00  0.00    -0.339 N 
ATOM      8  C   UNL A   1      30.823  23.413  26.745  1.00  0.00     0.223 C 
ATOM      9  C   UNL A   1      32.173  24.430  25.045  1.00  0.00     0.067 C 
ATOM     10  O   UNL A   1      29.914  23.233  27.531  1.00  0.00    -0.275 OA
ATOM     11  C   UNL A   1      32.164  22.741  26.823  1.00  0.00     0.118 C 
ATOM     12  C   UNL A   1      32.064  24.818  23.536  1.00  0.00     0.091 C 
ATOM     13  C   UNL A   1      32.993  25.508  25.783  1.00  0.00     0.091 C 
ATOM     14  C   UNL A   1      32.896  26.027  22.988  1.00  0.00     0.264 C 
ATOM     15  C   UNL A   1      34.221  25.867  24.967  1.00  0.00     0.264 C 
ATOM     16  N   UNL A   1      33.803  26.718  23.898  1.00  0.00    -0.334 N 
ATOM     17  H   UNL A   1      34.620  26.898  23.315  1.00  0.00     0.348 HD
BRANCH  16  18
ATOM     18  C   UNL A   1      33.569  28.133  24.225  1.00  0.00     0.273 C 
BRANCH  18  19
ATOM     19  C   UNL A   1      32.410  28.998  23.602  1.00  0.00     0.136 C 
BRANCH  19  20
ATOM     20  S   UNL A   1      30.634  28.616  23.984  1.00  0.00    -0.120 SA
BRANCH  20  21
ATOM     21  C   UNL A   1      29.674  29.914  23.188  1.00  0.00     0.007 A 
ATOM     22  C   UNL A   1      29.165  29.822  21.889  1.00  0.00     0.015 A 
ATOM     23  C   UNL A   1      29.452  31.102  23.907  1.00  0.00     0.015 A 
ATOM     24  C   UNL A   1      28.388  30.867  21.355  1.00  0.00     0.001 A 
ATOM     25  C   UNL A   1      28.647  32.123  23.391  1.00  0.00     0.001 A 
ATOM     26  C   UNL A   1      28.108  32.002  22.115  1.00  0.00     0.000 A 
ENDBRANCH  20  21
ENDBRANCH  19  20
ENDBRANCH  18  19
ENDBRANCH  16  18
ENDBRANCH   3   5
ENDBRANCH   2   3
ENDBRANCH   1   2
BRANCH   1  27
ATOM     27  C   UNL A   1      36.376  20.299  24.965  1.00  0.00     0.275 C 
BRANCH  27  28
ATOM     28  O   UNL A   1      37.347  21.372  24.937  1.00  0.00    -0.458 OA
BRANCH  28  29
ATOM     29  C   UNL A   1      38.469  21.112  25.645  1.00  0.00     0.338 C 
ATOM     30  O   UNL A   1      39.028  20.030  25.715  1.00  0.00    -0.246 OA
BRANCH  29  31
ATOM     31  C   UNL A   1      39.025  22.275  26.346  1.00  0.00     0.060 A 
ATOM     32  C   UNL A   1      38.520  23.540  26.050  1.00  0.00     0.016 A 
ATOM     33  C   UNL A   1      40.222  22.145  27.056  1.00  0.00     0.016 A 
ATOM     34  C   UNL A   1      39.242  24.676  26.423  1.00  0.00     0.010 A 
ATOM     35  C   UNL A   1      40.906  23.293  27.486  1.00  0.00     0.010 A 
ATOM     36  C   UNL A   1      40.438  24.575  27.158  1.00  0.00    -0.014 A 
BRANCH  36  37
ATOM     37  C   UNL A   1      41.158  25.810  27.603  1.00  0.00     0.031 A 
ATOM     38  C   UNL A   1      40.484  26.863  28.450  1.00  0.00     0.074 A 
ATOM     39  C   UNL A   1      42.443  25.997  27.235  1.00  0.00     0.049 A 
ATOM     40  N   UNL A   1      40.921  28.051  28.793  1.00  0.00    -0.248 NA
ATOM     41  C   UNL A   1      39.147  26.548  28.979  1.00  0.00     0.031 C 
ATOM     42  C   UNL A   1      43.230  25.067  26.423  1.00  0.00     0.029 A 
ATOM     43  N   UNL A   1      43.315  27.028  27.491  1.00  0.00    -0.354 N 
ATOM     44  C   UNL A   1      39.896  28.650  29.517  1.00  0.00     0.074 A 
ATOM     45  C   UNL A   1      38.817  27.685  29.582  1.00  0.00     0.031 C 
ATOM     46  C   UNL A   1      44.473  25.544  26.281  1.00  0.00     0.029 A 
ATOM     47  C   UNL A   1      44.551  26.860  26.906  1.00  0.00     0.049 A 
ATOM     48  H   UNL A   1      43.080  27.811  28.039  1.00  0.00     0.167 HD
ATOM     49  C   UNL A   1      39.855  29.884  30.080  1.00  0.00     0.034 A 
ATOM     50  C   UNL A   1      45.618  27.680  26.834  1.00  0.00     0.034 A 
ATOM     51  C   UNL A   1      40.952  30.822  30.076  1.00  0.00     0.049 A 
ATOM     52  C   UNL A   1      45.548  29.038  27.469  1.00  0.00     0.074 A 
ATOM     53  C   UNL A   1      41.003  32.089  30.637  1.00  0.00     0.029 A 
ATOM     54  N   UNL A   1      42.193  30.596  29.501  1.00  0.00    -0.354 N 
ATOM     55  N   UNL A   1      44.574  29.575  28.162  1.00  0.00    -0.248 NA
ATOM     56  C   UNL A   1      46.726  29.904  27.315  1.00  0.00     0.031 C 
ATOM     57  C   UNL A   1      42.271  32.630  30.393  1.00  0.00     0.029 A 
ATOM     58  C   UNL A   1      43.016  31.694  29.695  1.00  0.00     0.049 A 
ATOM     59  H   UNL A   1      42.452  29.775  29.023  1.00  0.00     0.167 HD
ATOM     60  C   UNL A   1      45.028  30.832  28.542  1.00  0.00     0.074 A 
ATOM     61  C   UNL A   1      46.376  30.964  28.029  1.00  0.00     0.031 C 
ATOM     62  C   UNL A   1      44.374  31.801  29.229  1.00  0.00     0.034 A 
BRANCH  49  63
ATOM     63  C   UNL A   1      38.587  30.305  30.782  1.00  0.00     0.023 A 
ATOM     64  C   UNL A   1      38.444  30.077  32.165  1.00  0.00     0.012 A 
ATOM     65  C   UNL A   1      37.580  31.013  30.093  1.00  0.00     0.148 A 
ATOM     66  C   UNL A   1      37.309  30.522  32.845  1.00  0.00     0.002 A 
ATOM     67  C   UNL A   1      36.470  31.488  30.784  1.00  0.00     0.091 A 
ATOM     68  F   UNL A   1      37.725  31.210  28.774  1.00  0.00    -0.205 F 
ATOM     69  C   UNL A   1      36.329  31.236  32.159  1.00  0.00     0.022 A 
BRANCH  67  70
ATOM     70  S   UNL A   1      35.195  32.485  30.002  1.00  0.00     0.127 S 
ATOM     71  O   UNL A   1      34.288  32.734  31.120  1.00  0.00    -0.237 OA
ATOM     72  O   UNL A   1      35.948  33.659  29.557  1.00  0.00    -0.237 OA
ATOM     73  O   UNL A   1      34.655  31.668  28.924  1.00  0.00    -0.744 OA
ENDBRANCH  67  70
ENDBRANCH  49  63
BRANCH  50  74
ATOM     74  C   UNL A   1      46.852  27.227  26.129  1.00  0.00     0.023 A 
ATOM     75  C   UNL A   1      47.035  27.551  24.772  1.00  0.00     0.012 A 
ATOM     76  C   UNL A   1      47.865  26.523  26.809  1.00  0.00     0.148 A 
ATOM     77  C   UNL A   1      48.198  27.169  24.101  1.00  0.00     0.002 A 
ATOM     78  C   UNL A   1      49.051  26.211  26.156  1.00  0.00     0.091 A 
ATOM     79  F   UNL A   1      47.661  26.192  28.092  1.00  0.00    -0.205 F 
ATOM     80  C   UNL A   1      49.213  26.516  24.797  1.00  0.00     0.022 A 
BRANCH  78  81
ATOM     81  S   UNL A   1      50.461  25.528  27.034  1.00  0.00     0.127 S 
ATOM     82  O   UNL A   1      49.905  24.299  27.590  1.00  0.00    -0.237 OA
ATOM     83  O   UNL A   1      51.432  25.335  25.955  1.00  0.00    -0.237 OA
ATOM     84  O   UNL A   1      50.845  26.553  27.998  1.00  0.00    -0.744 OA
ENDBRANCH  78  81
ENDBRANCH  50  74
BRANCH  62  85
ATOM     85  C   UNL A   1      45.119  33.082  29.493  1.00  0.00     0.023 A 
ATOM     86  C   UNL A   1      45.889  33.212  30.667  1.00  0.00     0.012 A 
ATOM     87  C   UNL A   1      45.090  34.141  28.565  1.00  0.00     0.148 A 
ATOM     88  C   UNL A   1      46.589  34.389  30.930  1.00  0.00     0.002 A 
ATOM     89  C   UNL A   1      45.825  35.296  28.814  1.00  0.00     0.091 A 
ATOM     90  F   UNL A   1      44.334  34.010  27.466  1.00  0.00    -0.205 F 
ATOM     91  C   UNL A   1      46.565  35.426  30.000  1.00  0.00     0.022 A 
BRANCH  89  92
ATOM     92  S   UNL A   1      45.916  36.648  27.634  1.00  0.00     0.127 S 
ATOM     93  O   UNL A   1      44.647  37.335  27.869  1.00  0.00    -0.237 OA
ATOM     94  O   UNL A   1      47.099  37.380  28.089  1.00  0.00    -0.237 OA
ATOM     95  O   UNL A   1      46.061  36.026  26.326  1.00  0.00    -0.744 OA
ENDBRANCH  89  92
ENDBRANCH  62  85
ENDBRANCH  36  37
ENDBRANCH  29  31
ENDBRANCH  28  29
ENDBRANCH  27  28
ENDBRANCH   1  27
TORSDOF 18
ENDMDL
MODEL 2
REMARK VINA RESULT:     -12.1      5.215     10.432
REMARK SMILES CN1C(=O)C[C@@H](C(=O)OCCOC(=O)c2ccc(-c3c4nc(c(-c5cccc(S(=O)(=O)[O-])c5F)c5ccc([nH]5)c(-c5cccc(S(=O)(=O)[O-])c5F)c5nc(c(-c6cccc(S(=O)(=O)[O-])c6F)c6ccc3[nH]6)C=C5)C=C4)cc2)C12CC[NH+](CCSc1ccccc1)CC2
REMARK SMILES IDX 10 1 9 2 7 3 8 4 6 5 1 6 2 7 3 8 78 9 4 10 5 11 79 12 92 13
REMARK SMILES IDX 80 14 91 15 81 16 82 18 83 19 84 20 85 21 86 22 90 23 87 24
REMARK SMILES IDX 89 25 88 26 11 27 12 28 13 29 14 30 15 31 16 32 77 33 17 34
REMARK SMILES IDX 76 35 18 36 19 37 20 38 70 39 21 40 75 41 69 42 71 43 22 44
REMARK SMILES IDX 74 45 68 46 67 47 23 49 55 50 35 51 54 52 36 53 39 54 53 55
REMARK SMILES IDX 72 56 37 57 38 58 52 60 73 61 40 62 24 63 25 64 33 65 26 66
REMARK SMILES IDX 28 67 34 68 27 69 29 70 30 71 31 72 32 73 56 74 57 75 65 76
REMARK SMILES IDX 58 77 60 78 66 79 59 80 61 81 62 82 63 83 64 84 41 85 42 86
REMARK SMILES IDX 50 87 43 88 45 89 51 90 44 91 46 92 47 93 48 94 49 95
REMARK H PARENT 81 17 71 48 39 59
REMARK Flexibility Score: inf
ROOT
ATOM      1  C   UNL A   1      30.990  31.114  25.453  1.00  0.00     0.274 C 
ENDROOT
BRANCH   1   2
ATOM      2  O   UNL A   1      31.399  29.758  25.729  1.00  0.00    -0.462 OA
BRANCH   2   3
ATOM      3  C   UNL A   1      32.285  29.256  24.852  1.00  0.00     0.311 C 
ATOM      4  O   UNL A   1      33.457  29.626  24.779  1.00  0.00    -0.252 OA
BRANCH   3   5
ATOM      5  C   UNL A   1      31.803  28.142  23.962  1.00  0.00     0.134 C 
ATOM      6  C   UNL A   1      28.305  26.708  23.780  1.00  0.00     0.147 C 
ATOM      7  N   UNL A   1      29.561  27.440  23.722  1.00  0.00    -0.339 N 
ATOM      8  C   UNL A   1      29.734  28.438  22.771  1.00  0.00     0.223 C 
ATOM      9  C   UNL A   1      30.839  26.958  24.299  1.00  0.00     0.067 C 
ATOM     10  O   UNL A   1      28.878  28.906  22.047  1.00  0.00    -0.275 OA
ATOM     11  C   UNL A   1      31.193  28.786  22.703  1.00  0.00     0.118 C 
ATOM     12  C   UNL A   1      30.671  26.445  25.765  1.00  0.00     0.091 C 
ATOM     13  C   UNL A   1      31.371  25.806  23.421  1.00  0.00     0.091 C 
ATOM     14  C   UNL A   1      31.207  25.025  26.151  1.00  0.00     0.264 C 
ATOM     15  C   UNL A   1      32.495  25.087  24.143  1.00  0.00     0.264 C 
ATOM     16  N   UNL A   1      31.909  24.245  25.138  1.00  0.00    -0.334 N 
ATOM     17  H   UNL A   1      32.672  23.819  25.664  1.00  0.00     0.348 HD
BRANCH  16  18
ATOM     18  C   UNL A   1      31.345  22.966  24.680  1.00  0.00     0.273 C 
BRANCH  18  19
ATOM     19  C   UNL A   1      31.786  21.562  25.240  1.00  0.00     0.136 C 
BRANCH  19  20
ATOM     20  S   UNL A   1      33.575  21.064  25.245  1.00  0.00    -0.120 SA
BRANCH  20  21
ATOM     21  C   UNL A   1      33.638  19.465  24.421  1.00  0.00     0.007 A 
ATOM     22  C   UNL A   1      34.637  18.513  24.642  1.00  0.00     0.015 A 
ATOM     23  C   UNL A   1      32.639  19.173  23.475  1.00  0.00     0.015 A 
ATOM     24  C   UNL A   1      34.591  17.269  23.987  1.00  0.00     0.001 A 
ATOM     25  C   UNL A   1      32.571  17.921  22.854  1.00  0.00     0.001 A 
ATOM     26  C   UNL A   1      33.545  16.964  23.116  1.00  0.00     0.000 A 
ENDBRANCH  20  21
ENDBRANCH  19  20
ENDBRANCH  18  19
ENDBRANCH  16  18
ENDBRANCH   3   5
ENDBRANCH   2   3
ENDBRANCH   1   2
BRANCH   1  27
ATOM     27  C   UNL A   1      31.477  32.083  26.540  1.00  0.00     0.275 C 
BRANCH  27  28
ATOM     28  O   UNL A   1      32.604  31.578  27.295  1.00  0.00    -0.458 OA
BRANCH  28  29
ATOM     29  C   UNL A   1      33.511  32.526  27.620  1.00  0.00     0.338 C 
ATOM     30  O   UNL A   1      33.303  33.727  27.652  1.00  0.00    -0.246 OA
BRANCH  29  31
ATOM     31  C   UNL A   1      34.834  31.999  27.979  1.00  0.00     0.060 A 
ATOM     32  C   UNL A   1      34.930  30.683  28.430  1.00  0.00     0.016 A 
ATOM     33  C   UNL A   1      35.905  32.881  28.150  1.00  0.00     0.016 A 
ATOM     34  C   UNL A   1      36.085  30.267  29.098  1.00  0.00     0.010 A 
ATOM     35  C   UNL A   1      37.086  32.434  28.761  1.00  0.00     0.010 A 
ATOM     36  C   UNL A   1      37.187  31.126  29.263  1.00  0.00    -0.014 A 
BRANCH  36  37
ATOM     37  C   UNL A   1      38.437  30.634  29.924  1.00  0.00     0.031 A 
ATOM     38  C   UNL A   1      39.351  29.636  29.254  1.00  0.00     0.074 A 
ATOM     39  C   UNL A   1      38.757  31.086  31.154  1.00  0.00     0.049 A 
ATOM     40  N   UNL A   1      40.387  29.003  29.750  1.00  0.00    -0.248 NA
ATOM     41  C   UNL A   1      39.068  29.300  27.850  1.00  0.00     0.031 C 
ATOM     42  C   UNL A   1      37.977  32.054  31.926  1.00  0.00     0.029 A 
ATOM     43  N   UNL A   1      39.820  30.792  31.976  1.00  0.00    -0.354 N 
ATOM     44  C   UNL A   1      40.838  28.150  28.749  1.00  0.00     0.074 A 
ATOM     45  C   UNL A   1      39.973  28.359  27.606  1.00  0.00     0.031 C 
ATOM     46  C   UNL A   1      38.601  32.306  33.083  1.00  0.00     0.029 A 
ATOM     47  C   UNL A   1      39.776  31.447  33.186  1.00  0.00     0.049 A 
ATOM     48  H   UNL A   1      40.543  30.173  31.724  1.00  0.00     0.167 HD
ATOM     49  C   UNL A   1      41.878  27.277  28.775  1.00  0.00     0.034 A 
ATOM     50  C   UNL A   1      40.557  31.347  34.280  1.00  0.00     0.034 A 
ATOM     51  C   UNL A   1      42.782  27.115  29.887  1.00  0.00     0.049 A 
ATOM     52  C   UNL A   1      41.702  30.376  34.280  1.00  0.00     0.074 A 
ATOM     53  C   UNL A   1      43.873  26.265  29.992  1.00  0.00     0.029 A 
ATOM     54  N   UNL A   1      42.719  27.822  31.077  1.00  0.00    -0.354 N 
ATOM     55  N   UNL A   1      42.120  29.593  33.316  1.00  0.00    -0.248 NA
ATOM     56  C   UNL A   1      42.488  30.278  35.519  1.00  0.00     0.031 C 
ATOM     57  C   UNL A   1      44.461  26.453  31.249  1.00  0.00     0.029 A 
ATOM     58  C   UNL A   1      43.748  27.433  31.920  1.00  0.00     0.049 A 
ATOM     59  H   UNL A   1      42.040  28.502  31.294  1.00  0.00     0.167 HD
ATOM     60  C   UNL A   1      43.225  28.922  33.824  1.00  0.00     0.074 A 
ATOM     61  C   UNL A   1      43.433  29.416  35.170  1.00  0.00     0.031 C 
ATOM     62  C   UNL A   1      43.983  27.963  33.238  1.00  0.00     0.034 A 
BRANCH  49  63
ATOM     63  C   UNL A   1      42.127  26.430  27.551  1.00  0.00     0.023 A 
ATOM     64  C   UNL A   1      42.797  26.983  26.442  1.00  0.00     0.012 A 
ATOM     65  C   UNL A   1      41.783  25.062  27.536  1.00  0.00     0.148 A 
ATOM     66  C   UNL A   1      43.099  26.195  25.329  1.00  0.00     0.002 A 
ATOM     67  C   UNL A   1      42.121  24.274  26.441  1.00  0.00     0.091 A 
ATOM     68  F   UNL A   1      41.133  24.555  28.594  1.00  0.00    -0.205 F 
ATOM     69  C   UNL A   1      42.772  24.842  25.333  1.00  0.00     0.022 A 
BRANCH  67  70
ATOM     70  S   UNL A   1      41.812  22.504  26.388  1.00  0.00     0.127 S 
ATOM     71  O   UNL A   1      40.351  22.461  26.355  1.00  0.00    -0.237 OA
ATOM     72  O   UNL A   1      42.460  22.112  25.135  1.00  0.00    -0.237 OA
ATOM     73  O   UNL A   1      42.431  21.955  27.586  1.00  0.00    -0.744 OA
ENDBRANCH  67  70
ENDBRANCH  49  63
BRANCH  50  74
ATOM     74  C   UNL A   1      40.277  32.200  35.470  1.00  0.00     0.023 A 
ATOM     75  C   UNL A   1      41.004  33.390  35.658  1.00  0.00     0.012 A 
ATOM     76  C   UNL A   1      39.261  31.865  36.387  1.00  0.00     0.148 A 
ATOM     77  C   UNL A   1      40.734  34.223  36.745  1.00  0.00     0.002 A 
ATOM     78  C   UNL A   1      38.948  32.735  37.424  1.00  0.00     0.091 A 
ATOM     79  F   UNL A   1      38.600  30.711  36.213  1.00  0.00    -0.205 F 
ATOM     80  C   UNL A   1      39.694  33.906  37.616  1.00  0.00     0.022 A 
BRANCH  78  81
ATOM     81  S   UNL A   1      37.515  32.474  38.474  1.00  0.00     0.127 S 
ATOM     82  O   UNL A   1      37.563  31.034  38.699  1.00  0.00    -0.237 OA
ATOM     83  O   UNL A   1      37.837  33.293  39.644  1.00  0.00    -0.237 OA
ATOM     84  O   UNL A   1      36.379  32.966  37.702  1.00  0.00    -0.744 OA
ENDBRANCH  78  81
ENDBRANCH  50  74
BRANCH  62  85
ATOM     85  C   UNL A   1      45.128  27.402  34.038  1.00  0.00     0.023 A 
ATOM     86  C   UNL A   1      46.365  28.078  34.056  1.00  0.00     0.012 A 
ATOM     87  C   UNL A   1      44.970  26.230  34.802  1.00  0.00     0.148 A 
ATOM     88  C   UNL A   1      47.437  27.577  34.793  1.00  0.00     0.002 A 
ATOM     89  C   UNL A   1      46.032  25.759  35.569  1.00  0.00     0.091 A 
ATOM     90  F   UNL A   1      43.795  25.587  34.755  1.00  0.00    -0.205 F 
ATOM     91  C   UNL A   1      47.268  26.425  35.556  1.00  0.00     0.022 A 
BRANCH  89  92
ATOM     92  S   UNL A   1      45.878  24.328  36.644  1.00  0.00     0.127 S 
ATOM     93  O   UNL A   1      46.112  23.227  35.712  1.00  0.00    -0.237 OA
ATOM     94  O   UNL A   1      46.955  24.547  37.612  1.00  0.00    -0.237 OA
ATOM     95  O   UNL A   1      44.538  24.398  37.211  1.00  0.00    -0.744 OA
ENDBRANCH  89  92
ENDBRANCH  62  85
ENDBRANCH  36  37
ENDBRANCH  29  31
ENDBRANCH  28  29
ENDBRANCH  27  28
ENDBRANCH   1  27
TORSDOF 18
ENDMDL
MODEL 3
REMARK VINA RESULT:     -11.9      1.332      1.569
REMARK SMILES CN1C(=O)C[C@@H](C(=O)OCCOC(=O)c2ccc(-c3c4nc(c(-c5cccc(S(=O)(=O)[O-])c5F)c5ccc([nH]5)c(-c5cccc(S(=O)(=O)[O-])c5F)c5nc(c(-c6cccc(S(=O)(=O)[O-])c6F)c6ccc3[nH]6)C=C5)C=C4)cc2)C12CC[NH+](CCSc1ccccc1)CC2
REMARK SMILES IDX 10 1 9 2 7 3 8 4 6 5 1 6 2 7 3 8 78 9 4 10 5 11 79 12 92 13
REMARK SMILES IDX 80 14 91 15 81 16 82 18 83 19 84 20 85 21 86 22 90 23 87 24
REMARK SMILES IDX 89 25 88 26 11 27 12 28 13 29 14 30 15 31 16 32 77 33 17 34
REMARK SMILES IDX 76 35 18 36 19 37 20 38 70 39 21 40 75 41 69 42 71 43 22 44
REMARK SMILES IDX 74 45 68 46 67 47 23 49 55 50 35 51 54 52 36 53 39 54 53 55
REMARK SMILES IDX 72 56 37 57 38 58 52 60 73 61 40 62 24 63 25 64 33 65 26 66
REMARK SMILES IDX 28 67 34 68 27 69 29 70 30 71 31 72 32 73 56 74 57 75 65 76
REMARK SMILES IDX 58 77 60 78 66 79 59 80 61 81 62 82 63 83 64 84 41 85 42 86
REMARK SMILES IDX 50 87 43 88 45 89 51 90 44 91 46 92 47 93 48 94 49 95
REMARK H PARENT 81 17 71 48 39 59
REMARK Flexibility Score: inf
ROOT
ATOM      1  C   UNL A   1      35.566  21.965  24.342  1.00  0.00     0.274 C 
ENDROOT
BRANCH   1   2
ATOM      2  O   UNL A   1      34.512  21.050  24.708  1.00  0.00    -0.462 OA
BRANCH   2   3
ATOM      3  C   UNL A   1      33.280  21.589  24.696  1.00  0.00     0.311 C 
ATOM      4  O   UNL A   1      32.304  21.049  24.174  1.00  0.00    -0.252 OA
BRANCH   3   5
ATOM      5  C   UNL A   1      33.105  22.899  25.417  1.00  0.00     0.134 C 
ATOM      6  C   UNL A   1      29.966  25.004  25.614  1.00  0.00     0.147 C 
ATOM      7  N   UNL A   1      31.067  24.057  25.702  1.00  0.00    -0.339 N 
ATOM      8  C   UNL A   1      31.156  23.201  26.793  1.00  0.00     0.223 C 
ATOM      9  C   UNL A   1      32.344  24.184  24.957  1.00  0.00     0.067 C 
ATOM     10  O   UNL A   1      30.310  23.026  27.647  1.00  0.00    -0.275 OA
ATOM     11  C   UNL A   1      32.525  22.587  26.809  1.00  0.00     0.118 C 
ATOM     12  C   UNL A   1      32.118  24.491  23.442  1.00  0.00     0.091 C 
ATOM     13  C   UNL A   1      33.166  25.328  25.585  1.00  0.00     0.091 C 
ATOM     14  C   UNL A   1      32.859  25.702  22.781  1.00  0.00     0.264 C 
ATOM     15  C   UNL A   1      34.320  25.693  24.669  1.00  0.00     0.264 C 
ATOM     16  N   UNL A   1      33.795  26.473  23.593  1.00  0.00    -0.334 N 
ATOM     17  H   UNL A   1      34.563  26.655  22.946  1.00  0.00     0.348 HD
BRANCH  16  18
ATOM     18  C   UNL A   1      33.525  27.892  23.868  1.00  0.00     0.273 C 
BRANCH  18  19
ATOM     19  C   UNL A   1      32.326  28.695  23.238  1.00  0.00     0.136 C 
BRANCH  19  20
ATOM     20  S   UNL A   1      30.575  28.327  23.735  1.00  0.00    -0.120 SA
BRANCH  20  21
ATOM     21  C   UNL A   1      29.594  29.705  23.122  1.00  0.00     0.007 A 
ATOM     22  C   UNL A   1      28.915  29.696  21.899  1.00  0.00     0.015 A 
ATOM     23  C   UNL A   1      29.534  30.871  23.906  1.00  0.00     0.015 A 
ATOM     24  C   UNL A   1      28.135  30.801  21.511  1.00  0.00     0.001 A 
ATOM     25  C   UNL A   1      28.727  31.953  23.539  1.00  0.00     0.001 A 
ATOM     26  C   UNL A   1      28.020  31.915  22.343  1.00  0.00     0.000 A 
ENDBRANCH  20  21
ENDBRANCH  19  20
ENDBRANCH  18  19
ENDBRANCH  16  18
ENDBRANCH   3   5
ENDBRANCH   2   3
ENDBRANCH   1   2
BRANCH   1  27
ATOM     27  C   UNL A   1      36.952  21.336  24.542  1.00  0.00     0.275 C 
BRANCH  27  28
ATOM     28  O   UNL A   1      37.431  21.423  25.905  1.00  0.00    -0.458 OA
BRANCH  28  29
ATOM     29  C   UNL A   1      38.778  21.481  26.008  1.00  0.00     0.338 C 
ATOM     30  O   UNL A   1      39.560  20.655  25.568  1.00  0.00    -0.246 OA
BRANCH  29  31
ATOM     31  C   UNL A   1      39.281  22.676  26.698  1.00  0.00     0.060 A 
ATOM     32  C   UNL A   1      38.824  23.927  26.286  1.00  0.00     0.016 A 
ATOM     33  C   UNL A   1      40.401  22.573  27.526  1.00  0.00     0.016 A 
ATOM     34  C   UNL A   1      39.523  25.075  26.667  1.00  0.00     0.010 A 
ATOM     35  C   UNL A   1      41.057  23.736  27.959  1.00  0.00     0.010 A 
ATOM     36  C   UNL A   1      40.641  25.004  27.519  1.00  0.00    -0.014 A 
BRANCH  36  37
ATOM     37  C   UNL A   1      41.332  26.254  27.966  1.00  0.00     0.031 A 
ATOM     38  C   UNL A   1      40.626  27.304  28.790  1.00  0.00     0.074 A 
ATOM     39  C   UNL A   1      42.621  26.458  27.620  1.00  0.00     0.049 A 
ATOM     40  N   UNL A   1      41.036  28.502  29.128  1.00  0.00    -0.248 NA
ATOM     41  C   UNL A   1      39.284  26.972  29.296  1.00  0.00     0.031 C 
ATOM     42  C   UNL A   1      43.438  25.534  26.833  1.00  0.00     0.029 A 
ATOM     43  N   UNL A   1      43.472  27.506  27.882  1.00  0.00    -0.354 N 
ATOM     44  C   UNL A   1      39.988  29.091  29.827  1.00  0.00     0.074 A 
ATOM     45  C   UNL A   1      38.923  28.109  29.881  1.00  0.00     0.031 C 
ATOM     46  C   UNL A   1      44.676  26.030  26.710  1.00  0.00     0.029 A 
ATOM     47  C   UNL A   1      44.721  27.353  27.323  1.00  0.00     0.049 A 
ATOM     48  H   UNL A   1      43.213  28.290  28.418  1.00  0.00     0.167 HD
ATOM     49  C   UNL A   1      39.917  30.329  30.377  1.00  0.00     0.034 A 
ATOM     50  C   UNL A   1      45.776  28.189  27.263  1.00  0.00     0.034 A 
ATOM     51  C   UNL A   1      40.998  31.284  30.385  1.00  0.00     0.049 A 
ATOM     52  C   UNL A   1      45.671  29.552  27.883  1.00  0.00     0.074 A 
ATOM     53  C   UNL A   1      41.018  32.558  30.935  1.00  0.00     0.029 A 
ATOM     54  N   UNL A   1      42.253  31.074  29.836  1.00  0.00    -0.354 N 
ATOM     55  N   UNL A   1      44.676  30.079  28.553  1.00  0.00    -0.248 NA
ATOM     56  C   UNL A   1      46.838  30.435  27.743  1.00  0.00     0.031 C 
ATOM     57  C   UNL A   1      42.282  33.117  30.710  1.00  0.00     0.029 A 
ATOM     58  C   UNL A   1      43.055  32.187  30.035  1.00  0.00     0.049 A 
ATOM     59  H   UNL A   1      42.534  30.253  29.371  1.00  0.00     0.167 HD
ATOM     60  C   UNL A   1      45.101  31.347  28.928  1.00  0.00     0.074 A 
ATOM     61  C   UNL A   1      46.457  31.497  28.440  1.00  0.00     0.031 C 
ATOM     62  C   UNL A   1      44.419  32.311  29.593  1.00  0.00     0.034 A 
BRANCH  49  63
ATOM     63  C   UNL A   1      38.629  30.736  31.051  1.00  0.00     0.023 A 
ATOM     64  C   UNL A   1      38.472  30.541  32.438  1.00  0.00     0.012 A 
ATOM     65  C   UNL A   1      37.614  31.399  30.330  1.00  0.00     0.148 A 
ATOM     66  C   UNL A   1      37.317  30.975  33.091  1.00  0.00     0.002 A 
ATOM     67  C   UNL A   1      36.483  31.864  30.994  1.00  0.00     0.091 A 
ATOM     68  F   UNL A   1      37.772  31.565  29.009  1.00  0.00    -0.205 F 
ATOM     69  C   UNL A   1      36.329  31.645  32.373  1.00  0.00     0.022 A 
BRANCH  67  70
ATOM     70  S   UNL A   1      35.194  32.807  30.168  1.00  0.00     0.127 S 
ATOM     71  O   UNL A   1      34.728  31.853  29.163  1.00  0.00    -0.237 OA
ATOM     72  O   UNL A   1      34.246  33.056  31.255  1.00  0.00    -0.237 OA
ATOM     73  O   UNL A   1      35.845  34.001  29.647  1.00  0.00    -0.744 OA
ENDBRANCH  67  70
ENDBRANCH  49  63
BRANCH  50  74
ATOM     74  C   UNL A   1      47.030  27.750  26.586  1.00  0.00     0.023 A 
ATOM     75  C   UNL A   1      48.012  27.063  27.323  1.00  0.00     0.012 A 
ATOM     76  C   UNL A   1      47.230  27.964  25.208  1.00  0.00     0.148 A 
ATOM     77  C   UNL A   1      49.178  26.610  26.703  1.00  0.00     0.002 A 
ATOM     78  C   UNL A   1      48.358  27.446  24.583  1.00  0.00     0.091 A 
ATOM     79  F   UNL A   1      46.300  28.649  24.527  1.00  0.00    -0.205 F 
ATOM     80  C   UNL A   1      49.342  26.785  25.331  1.00  0.00     0.022 A 
BRANCH  78  81
ATOM     81  S   UNL A   1      48.547  27.483  22.797  1.00  0.00     0.127 S 
ATOM     82  O   UNL A   1      47.388  28.267  22.386  1.00  0.00    -0.237 OA
ATOM     83  O   UNL A   1      49.837  28.157  22.638  1.00  0.00    -0.237 OA
ATOM     84  O   UNL A   1      48.556  26.084  22.384  1.00  0.00    -0.744 OA
ENDBRANCH  78  81
ENDBRANCH  50  74
BRANCH  62  85
ATOM     85  C   UNL A   1      45.138  33.607  29.860  1.00  0.00     0.023 A 
ATOM     86  C   UNL A   1      45.762  33.816  31.107  1.00  0.00     0.012 A 
ATOM     87  C   UNL A   1      45.231  34.601  28.866  1.00  0.00     0.148 A 
ATOM     88  C   UNL A   1      46.435  35.008  31.373  1.00  0.00     0.002 A 
ATOM     89  C   UNL A   1      45.941  35.769  29.123  1.00  0.00     0.091 A 
ATOM     90  F   UNL A   1      44.613  34.395  27.694  1.00  0.00    -0.205 F 
ATOM     91  C   UNL A   1      46.533  35.979  30.379  1.00  0.00     0.022 A 
BRANCH  89  92
ATOM     92  S   UNL A   1      46.186  37.037  27.875  1.00  0.00     0.127 S 
ATOM     93  O   UNL A   1      45.402  38.146  28.417  1.00  0.00    -0.237 OA
ATOM     94  O   UNL A   1      47.636  37.240  27.916  1.00  0.00    -0.237 OA
ATOM     95  O   UNL A   1      45.694  36.470  26.628  1.00  0.00    -0.744 OA
ENDBRANCH  89  92
ENDBRANCH  62  85
ENDBRANCH  36  37
ENDBRANCH  29  31
ENDBRANCH  28  29
ENDBRANCH  27  28
ENDBRANCH   1  27
TORSDOF 18
ENDMDL
