MODEL 1
REMARK VINA RESULT:     -11.9      0.000      0.000
REMARK SMILES Cc1ccc(C(F)(F)F)cc1/C=C/C(=O)OCCOC(=O)c1ccc(-c2c3nc(c(-c4cccc(S(=O)(=O)[O-])c4F)c4ccc([nH]4)c(-c4cccc(S(=O)(=O)[O-])c4F)c4nc(c(-c5cccc(S(=O)(=O)[O-])c5F)c5ccc2[nH]5)C=C4)C=C3)cc1
REMARK SMILES IDX 18 1 17 2 16 3 14 4 15 5 13 6 12 7 11 8 1 9 2 10 3 11 4 12
REMARK SMILES IDX 10 13 5 14 6 15 7 16 8 17 9 18 19 19 20 20 21 21 22 22 23 23
REMARK SMILES IDX 84 24 24 25 83 26 25 27 26 28 27 29 77 30 28 31 82 32 76 33
REMARK SMILES IDX 78 34 29 35 81 36 75 37 74 38 30 40 62 41 42 42 61 43 43 44
REMARK SMILES IDX 46 45 60 46 79 47 44 48 45 49 59 51 80 52 47 53 31 54 32 55
REMARK SMILES IDX 40 56 33 57 35 58 41 59 34 60 36 61 37 62 38 63 39 64 63 65
REMARK SMILES IDX 64 66 72 67 65 68 67 69 73 70 66 71 68 72 69 73 70 74 71 75
REMARK SMILES IDX 48 76 49 77 57 78 50 79 52 80 58 81 51 82 53 83 54 84 55 85
REMARK SMILES IDX 56 86
REMARK H PARENT 78 39 46 50
REMARK Flexibility Score: inf
ROOT
ATOM      1  C   UNL A   1      37.919  21.793  25.607  1.00  0.00     0.275 C 
ENDROOT
BRANCH   1   2
ATOM      2  C   UNL A   1      36.408  21.636  25.334  1.00  0.00     0.275 C 
BRANCH   2   3
ATOM      3  O   UNL A   1      35.669  22.846  25.189  1.00  0.00    -0.459 OA
BRANCH   3   4
ATOM      4  C   UNL A   1      34.695  23.041  26.102  1.00  0.00     0.330 C 
ATOM      5  O   UNL A   1      34.411  22.280  27.014  1.00  0.00    -0.247 OA
BRANCH   4   6
ATOM      6  C   UNL A   1      33.958  24.293  25.850  1.00  0.00     0.094 C 
ATOM      7  C   UNL A   1      34.257  25.167  24.876  1.00  0.00     0.016 C 
BRANCH   7   8
ATOM      8  C   UNL A   1      33.536  26.441  24.755  1.00  0.00    -0.022 A 
ATOM      9  C   UNL A   1      33.518  26.272  22.198  1.00  0.00     0.045 C 
ATOM     10  C   UNL A   1      33.211  26.976  23.494  1.00  0.00    -0.044 A 
ATOM     11  C   UNL A   1      32.621  28.249  23.424  1.00  0.00     0.004 A 
ATOM     12  C   UNL A   1      32.317  28.961  24.584  1.00  0.00     0.013 A 
ATOM     13  C   UNL A   1      33.196  27.153  25.920  1.00  0.00     0.021 A 
ATOM     14  C   UNL A   1      32.584  28.414  25.845  1.00  0.00     0.056 A 
BRANCH  14  15
ATOM     15  C   UNL A   1      32.252  29.207  27.085  1.00  0.00     0.416 C 
ATOM     16  F   UNL A   1      33.387  29.593  27.745  1.00  0.00    -0.166 F 
ATOM     17  F   UNL A   1      31.590  30.365  26.811  1.00  0.00    -0.166 F 
ATOM     18  F   UNL A   1      31.508  28.539  28.001  1.00  0.00    -0.166 F 
ENDBRANCH  14  15
ENDBRANCH   7   8
ENDBRANCH   4   6
ENDBRANCH   3   4
ENDBRANCH   2   3
ENDBRANCH   1   2
BRANCH   1  19
ATOM     19  O   UNL A   1      38.430  22.969  26.304  1.00  0.00    -0.458 OA
BRANCH  19  20
ATOM     20  C   UNL A   1      39.680  23.316  26.741  1.00  0.00     0.338 C 
ATOM     21  O   UNL A   1      40.621  22.565  26.631  1.00  0.00    -0.246 OA
BRANCH  20  22
ATOM     22  C   UNL A   1      39.854  24.681  27.268  1.00  0.00     0.060 A 
ATOM     23  C   UNL A   1      40.445  25.698  26.496  1.00  0.00     0.016 A 
ATOM     24  C   UNL A   1      39.323  24.965  28.508  1.00  0.00     0.016 A 
ATOM     25  C   UNL A   1      40.392  27.027  26.935  1.00  0.00     0.010 A 
ATOM     26  C   UNL A   1      39.055  26.270  28.815  1.00  0.00     0.010 A 
ATOM     27  C   UNL A   1      39.662  27.312  28.086  1.00  0.00    -0.014 A 
BRANCH  27  28
ATOM     28  C   UNL A   1      39.732  28.542  28.874  1.00  0.00     0.031 A 
ATOM     29  C   UNL A   1      38.838  29.698  28.768  1.00  0.00     0.074 A 
ATOM     30  C   UNL A   1      40.527  28.381  29.957  1.00  0.00     0.049 A 
ATOM     31  N   UNL A   1      39.065  30.802  29.397  1.00  0.00    -0.248 NA
ATOM     32  C   UNL A   1      37.638  29.740  27.949  1.00  0.00     0.031 C 
ATOM     33  C   UNL A   1      40.495  29.024  31.252  1.00  0.00     0.029 A 
ATOM     34  N   UNL A   1      41.605  27.494  30.040  1.00  0.00    -0.354 N 
ATOM     35  C   UNL A   1      37.933  31.582  29.309  1.00  0.00     0.074 A 
ATOM     36  C   UNL A   1      37.144  30.941  28.283  1.00  0.00     0.031 C 
ATOM     37  C   UNL A   1      41.621  28.694  31.913  1.00  0.00     0.029 A 
ATOM     38  C   UNL A   1      42.495  28.002  30.972  1.00  0.00     0.049 A 
ATOM     39  H   UNL A   1      41.712  26.660  29.528  1.00  0.00     0.167 HD
ATOM     40  C   UNL A   1      37.762  32.582  30.225  1.00  0.00     0.034 A 
ATOM     41  C   UNL A   1      43.762  28.349  30.600  1.00  0.00     0.034 A 
ATOM     42  C   UNL A   1      38.960  32.704  31.085  1.00  0.00     0.049 A 
ATOM     43  C   UNL A   1      43.972  29.841  30.769  1.00  0.00     0.074 A 
ATOM     44  C   UNL A   1      39.236  32.279  32.374  1.00  0.00     0.029 A 
ATOM     45  N   UNL A   1      40.181  33.096  30.537  1.00  0.00    -0.354 N 
ATOM     46  N   UNL A   1      43.037  30.676  31.128  1.00  0.00    -0.248 NA
ATOM     47  C   UNL A   1      45.240  30.512  30.509  1.00  0.00     0.031 C 
ATOM     48  C   UNL A   1      40.650  32.291  32.546  1.00  0.00     0.029 A 
ATOM     49  C   UNL A   1      41.235  32.775  31.386  1.00  0.00     0.049 A 
ATOM     50  H   UNL A   1      40.284  33.540  29.664  1.00  0.00     0.167 HD
ATOM     51  C   UNL A   1      43.474  31.956  30.966  1.00  0.00     0.074 A 
ATOM     52  C   UNL A   1      44.894  31.799  30.688  1.00  0.00     0.031 C 
ATOM     53  C   UNL A   1      42.620  33.026  30.979  1.00  0.00     0.034 A 
BRANCH  40  54
ATOM     54  C   UNL A   1      36.462  33.322  30.561  1.00  0.00     0.023 A 
ATOM     55  C   UNL A   1      36.013  33.253  31.903  1.00  0.00     0.012 A 
ATOM     56  C   UNL A   1      35.597  34.005  29.670  1.00  0.00     0.148 A 
ATOM     57  C   UNL A   1      34.779  33.773  32.323  1.00  0.00     0.002 A 
ATOM     58  C   UNL A   1      34.372  34.544  30.090  1.00  0.00     0.091 A 
ATOM     59  F   UNL A   1      35.915  34.126  28.384  1.00  0.00    -0.205 F 
ATOM     60  C   UNL A   1      33.953  34.416  31.415  1.00  0.00     0.022 A 
BRANCH  58  61
ATOM     61  S   UNL A   1      33.252  35.410  28.967  1.00  0.00     0.127 S 
ATOM     62  O   UNL A   1      32.394  36.143  29.898  1.00  0.00    -0.237 OA
ATOM     63  O   UNL A   1      34.168  36.249  28.195  1.00  0.00    -0.237 OA
ATOM     64  O   UNL A   1      32.570  34.383  28.190  1.00  0.00    -0.744 OA
ENDBRANCH  58  61
ENDBRANCH  40  54
BRANCH  41  65
ATOM     65  C   UNL A   1      44.297  27.510  29.465  1.00  0.00     0.023 A 
ATOM     66  C   UNL A   1      44.462  26.121  29.713  1.00  0.00     0.012 A 
ATOM     67  C   UNL A   1      44.226  27.938  28.126  1.00  0.00     0.148 A 
ATOM     68  C   UNL A   1      44.429  25.185  28.672  1.00  0.00     0.002 A 
ATOM     69  C   UNL A   1      44.185  26.995  27.093  1.00  0.00     0.091 A 
ATOM     70  F   UNL A   1      44.109  29.247  27.869  1.00  0.00    -0.205 F 
ATOM     71  C   UNL A   1      44.259  25.621  27.364  1.00  0.00     0.022 A 
BRANCH  69  72
ATOM     72  S   UNL A   1      43.860  27.517  25.401  1.00  0.00     0.127 S 
ATOM     73  O   UNL A   1      45.193  27.845  24.895  1.00  0.00    -0.237 OA
ATOM     74  O   UNL A   1      43.272  26.338  24.779  1.00  0.00    -0.237 OA
ATOM     75  O   UNL A   1      42.980  28.662  25.609  1.00  0.00    -0.744 OA
ENDBRANCH  69  72
ENDBRANCH  41  65
BRANCH  53  76
ATOM     76  C   UNL A   1      43.034  34.420  30.571  1.00  0.00     0.023 A 
ATOM     77  C   UNL A   1      43.453  35.382  31.511  1.00  0.00     0.012 A 
ATOM     78  C   UNL A   1      43.151  34.766  29.204  1.00  0.00     0.148 A 
ATOM     79  C   UNL A   1      43.880  36.656  31.126  1.00  0.00     0.002 A 
ATOM     80  C   UNL A   1      43.690  35.990  28.823  1.00  0.00     0.091 A 
ATOM     81  F   UNL A   1      42.728  33.911  28.260  1.00  0.00    -0.205 F 
ATOM     82  C   UNL A   1      44.018  36.955  29.778  1.00  0.00     0.022 A 
BRANCH  80  83
ATOM     83  S   UNL A   1      44.132  36.288  27.107  1.00  0.00     0.127 S 
ATOM     84  O   UNL A   1      42.849  36.132  26.425  1.00  0.00    -0.237 OA
ATOM     85  O   UNL A   1      44.643  37.659  27.137  1.00  0.00    -0.237 OA
ATOM     86  O   UNL A   1      45.148  35.283  26.814  1.00  0.00    -0.744 OA
ENDBRANCH  80  83
ENDBRANCH  53  76
ENDBRANCH  27  28
ENDBRANCH  20  22
ENDBRANCH  19  20
ENDBRANCH   1  19
TORSDOF 16
ENDMDL
MODEL 2
REMARK VINA RESULT:     -11.8      4.435      9.681
REMARK SMILES Cc1ccc(C(F)(F)F)cc1/C=C/C(=O)OCCOC(=O)c1ccc(-c2c3nc(c(-c4cccc(S(=O)(=O)[O-])c4F)c4ccc([nH]4)c(-c4cccc(S(=O)(=O)[O-])c4F)c4nc(c(-c5cccc(S(=O)(=O)[O-])c5F)c5ccc2[nH]5)C=C4)C=C3)cc1
REMARK SMILES IDX 18 1 17 2 16 3 14 4 15 5 13 6 12 7 11 8 1 9 2 10 3 11 4 12
REMARK SMILES IDX 10 13 5 14 6 15 7 16 8 17 9 18 19 19 20 20 21 21 22 22 23 23
REMARK SMILES IDX 84 24 24 25 83 26 25 27 26 28 27 29 77 30 28 31 82 32 76 33
REMARK SMILES IDX 78 34 29 35 81 36 75 37 74 38 30 40 62 41 42 42 61 43 43 44
REMARK SMILES IDX 46 45 60 46 79 47 44 48 45 49 59 51 80 52 47 53 31 54 32 55
REMARK SMILES IDX 40 56 33 57 35 58 41 59 34 60 36 61 37 62 38 63 39 64 63 65
REMARK SMILES IDX 64 66 72 67 65 68 67 69 73 70 66 71 68 72 69 73 70 74 71 75
REMARK SMILES IDX 48 76 49 77 57 78 50 79 52 80 58 81 51 82 53 83 54 84 55 85
REMARK SMILES IDX 56 86
REMARK H PARENT 78 39 46 50
REMARK Flexibility Score: inf
ROOT
ATOM      1  C   UNL A   1      33.103  30.655  27.167  1.00  0.00     0.275 C 
ENDROOT
BRANCH   1   2
ATOM      2  C   UNL A   1      32.141  29.637  26.516  1.00  0.00     0.275 C 
BRANCH   2   3
ATOM      3  O   UNL A   1      32.449  29.254  25.178  1.00  0.00    -0.459 OA
BRANCH   3   4
ATOM      4  C   UNL A   1      31.586  28.383  24.615  1.00  0.00     0.330 C 
ATOM      5  O   UNL A   1      30.450  28.640  24.249  1.00  0.00    -0.247 OA
BRANCH   4   6
ATOM      6  C   UNL A   1      32.167  27.030  24.521  1.00  0.00     0.094 C 
ATOM      7  C   UNL A   1      33.437  26.770  24.175  1.00  0.00     0.016 C 
BRANCH   7   8
ATOM      8  C   UNL A   1      33.909  25.390  24.008  1.00  0.00    -0.022 A 
ATOM      9  C   UNL A   1      32.940  25.266  21.639  1.00  0.00     0.045 C 
ATOM     10  C   UNL A   1      33.653  24.670  22.825  1.00  0.00    -0.044 A 
ATOM     11  C   UNL A   1      34.026  23.318  22.755  1.00  0.00     0.004 A 
ATOM     12  C   UNL A   1      34.681  22.701  23.819  1.00  0.00     0.013 A 
ATOM     13  C   UNL A   1      34.599  24.767  25.064  1.00  0.00     0.021 A 
ATOM     14  C   UNL A   1      34.992  23.422  24.978  1.00  0.00     0.056 A 
BRANCH  14  15
ATOM     15  C   UNL A   1      35.695  22.729  26.119  1.00  0.00     0.416 C 
ATOM     16  F   UNL A   1      36.996  23.140  26.223  1.00  0.00    -0.166 F 
ATOM     17  F   UNL A   1      35.137  23.006  27.331  1.00  0.00    -0.166 F 
ATOM     18  F   UNL A   1      35.748  21.378  26.013  1.00  0.00    -0.166 F 
ENDBRANCH  14  15
ENDBRANCH   7   8
ENDBRANCH   4   6
ENDBRANCH   3   4
ENDBRANCH   2   3
ENDBRANCH   1   2
BRANCH   1  19
ATOM     19  O   UNL A   1      34.476  30.280  27.489  1.00  0.00    -0.458 OA
BRANCH  19  20
ATOM     20  C   UNL A   1      35.564  31.007  27.890  1.00  0.00     0.338 C 
ATOM     21  O   UNL A   1      35.511  32.208  28.021  1.00  0.00    -0.246 OA
BRANCH  20  22
ATOM     22  C   UNL A   1      36.781  30.255  28.246  1.00  0.00     0.060 A 
ATOM     23  C   UNL A   1      36.873  29.531  29.448  1.00  0.00     0.016 A 
ATOM     24  C   UNL A   1      37.795  30.195  27.314  1.00  0.00     0.016 A 
ATOM     25  C   UNL A   1      37.944  28.651  29.652  1.00  0.00     0.010 A 
ATOM     26  C   UNL A   1      38.695  29.169  27.402  1.00  0.00     0.010 A 
ATOM     27  C   UNL A   1      38.840  28.449  28.604  1.00  0.00    -0.014 A 
BRANCH  27  28
ATOM     28  C   UNL A   1      40.163  27.838  28.703  1.00  0.00     0.031 A 
ATOM     29  C   UNL A   1      40.491  26.425  28.488  1.00  0.00     0.074 A 
ATOM     30  C   UNL A   1      41.135  28.779  28.701  1.00  0.00     0.049 A 
ATOM     31  N   UNL A   1      41.661  25.944  28.744  1.00  0.00    -0.248 NA
ATOM     32  C   UNL A   1      39.554  25.428  27.997  1.00  0.00     0.031 C 
ATOM     33  C   UNL A   1      42.507  28.716  28.244  1.00  0.00     0.029 A 
ATOM     34  N   UNL A   1      40.989  30.088  29.169  1.00  0.00    -0.354 N 
ATOM     35  C   UNL A   1      41.730  24.681  28.198  1.00  0.00     0.074 A 
ATOM     36  C   UNL A   1      40.358  24.360  27.881  1.00  0.00     0.031 C 
ATOM     37  C   UNL A   1      43.138  29.832  28.654  1.00  0.00     0.029 A 
ATOM     38  C   UNL A   1      42.239  30.536  29.564  1.00  0.00     0.049 A 
ATOM     39  H   UNL A   1      40.149  30.600  29.210  1.00  0.00     0.167 HD
ATOM     40  C   UNL A   1      42.964  24.145  27.959  1.00  0.00     0.034 A 
ATOM     41  C   UNL A   1      42.471  30.882  30.864  1.00  0.00     0.034 A 
ATOM     42  C   UNL A   1      44.023  25.033  28.489  1.00  0.00     0.049 A 
ATOM     43  C   UNL A   1      43.490  29.947  31.485  1.00  0.00     0.074 A 
ATOM     44  C   UNL A   1      44.875  25.941  27.882  1.00  0.00     0.029 A 
ATOM     45  N   UNL A   1      44.128  25.260  29.860  1.00  0.00    -0.354 N 
ATOM     46  N   UNL A   1      43.994  28.907  30.882  1.00  0.00    -0.248 NA
ATOM     47  C   UNL A   1      43.990  30.090  32.848  1.00  0.00     0.031 C 
ATOM     48  C   UNL A   1      45.387  26.804  28.893  1.00  0.00     0.029 A 
ATOM     49  C   UNL A   1      44.895  26.391  30.121  1.00  0.00     0.049 A 
ATOM     50  H   UNL A   1      43.714  24.695  30.553  1.00  0.00     0.167 HD
ATOM     51  C   UNL A   1      44.693  28.150  31.773  1.00  0.00     0.074 A 
ATOM     52  C   UNL A   1      44.758  28.991  32.958  1.00  0.00     0.031 C 
ATOM     53  C   UNL A   1      45.076  26.864  31.496  1.00  0.00     0.034 A 
BRANCH  40  54
ATOM     54  C   UNL A   1      43.301  22.957  27.050  1.00  0.00     0.023 A 
ATOM     55  C   UNL A   1      44.203  23.201  25.985  1.00  0.00     0.012 A 
ATOM     56  C   UNL A   1      42.753  21.652  27.089  1.00  0.00     0.148 A 
ATOM     57  C   UNL A   1      44.501  22.244  25.002  1.00  0.00     0.002 A 
ATOM     58  C   UNL A   1      43.064  20.685  26.121  1.00  0.00     0.091 A 
ATOM     59  F   UNL A   1      41.890  21.312  28.044  1.00  0.00    -0.205 F 
ATOM     60  C   UNL A   1      43.928  20.984  25.067  1.00  0.00     0.022 A 
BRANCH  58  61
ATOM     61  S   UNL A   1      42.369  19.018  26.150  1.00  0.00     0.127 S 
ATOM     62  O   UNL A   1      43.210  18.320  25.178  1.00  0.00    -0.237 OA
ATOM     63  O   UNL A   1      42.581  18.612  27.539  1.00  0.00    -0.237 OA
ATOM     64  O   UNL A   1      40.969  19.146  25.764  1.00  0.00    -0.744 OA
ENDBRANCH  58  61
ENDBRANCH  40  54
BRANCH  41  65
ATOM     65  C   UNL A   1      41.249  31.434  31.557  1.00  0.00     0.023 A 
ATOM     66  C   UNL A   1      40.701  32.636  31.034  1.00  0.00     0.012 A 
ATOM     67  C   UNL A   1      40.424  30.629  32.365  1.00  0.00     0.148 A 
ATOM     68  C   UNL A   1      39.349  32.957  31.207  1.00  0.00     0.002 A 
ATOM     69  C   UNL A   1      39.072  30.953  32.525  1.00  0.00     0.091 A 
ATOM     70  F   UNL A   1      40.933  29.512  32.899  1.00  0.00    -0.205 F 
ATOM     71  C   UNL A   1      38.527  32.098  31.926  1.00  0.00     0.022 A 
BRANCH  69  72
ATOM     72  S   UNL A   1      37.958  29.812  33.360  1.00  0.00     0.127 S 
ATOM     73  O   UNL A   1      38.438  28.502  32.920  1.00  0.00    -0.237 OA
ATOM     74  O   UNL A   1      38.186  30.075  34.774  1.00  0.00    -0.237 OA
ATOM     75  O   UNL A   1      36.664  30.210  32.814  1.00  0.00    -0.744 OA
ENDBRANCH  69  72
ENDBRANCH  41  65
BRANCH  53  76
ATOM     76  C   UNL A   1      45.639  25.927  32.538  1.00  0.00     0.023 A 
ATOM     77  C   UNL A   1      47.026  25.775  32.737  1.00  0.00     0.012 A 
ATOM     78  C   UNL A   1      44.784  25.269  33.454  1.00  0.00     0.148 A 
ATOM     79  C   UNL A   1      47.543  24.941  33.732  1.00  0.00     0.002 A 
ATOM     80  C   UNL A   1      45.305  24.539  34.516  1.00  0.00     0.091 A 
ATOM     81  F   UNL A   1      43.453  25.338  33.293  1.00  0.00    -0.205 F 
ATOM     82  C   UNL A   1      46.682  24.338  34.637  1.00  0.00     0.022 A 
BRANCH  80  83
ATOM     83  S   UNL A   1      44.230  23.985  35.845  1.00  0.00     0.127 S 
ATOM     84  O   UNL A   1      43.366  23.023  35.164  1.00  0.00    -0.237 OA
ATOM     85  O   UNL A   1      45.171  23.391  36.796  1.00  0.00    -0.237 OA
ATOM     86  O   UNL A   1      43.590  25.204  36.326  1.00  0.00    -0.744 OA
ENDBRANCH  80  83
ENDBRANCH  53  76
ENDBRANCH  27  28
ENDBRANCH  20  22
ENDBRANCH  19  20
ENDBRANCH   1  19
TORSDOF 16
ENDMDL
MODEL 3
REMARK VINA RESULT:     -11.7      2.697      6.667
REMARK SMILES Cc1ccc(C(F)(F)F)cc1/C=C/C(=O)OCCOC(=O)c1ccc(-c2c3nc(c(-c4cccc(S(=O)(=O)[O-])c4F)c4ccc([nH]4)c(-c4cccc(S(=O)(=O)[O-])c4F)c4nc(c(-c5cccc(S(=O)(=O)[O-])c5F)c5ccc2[nH]5)C=C4)C=C3)cc1
REMARK SMILES IDX 18 1 17 2 16 3 14 4 15 5 13 6 12 7 11 8 1 9 2 10 3 11 4 12
REMARK SMILES IDX 10 13 5 14 6 15 7 16 8 17 9 18 19 19 20 20 21 21 22 22 23 23
REMARK SMILES IDX 84 24 24 25 83 26 25 27 26 28 27 29 77 30 28 31 82 32 76 33
REMARK SMILES IDX 78 34 29 35 81 36 75 37 74 38 30 40 62 41 42 42 61 43 43 44
REMARK SMILES IDX 46 45 60 46 79 47 44 48 45 49 59 51 80 52 47 53 31 54 32 55
REMARK SMILES IDX 40 56 33 57 35 58 41 59 34 60 36 61 37 62 38 63 39 64 63 65
REMARK SMILES IDX 64 66 72 67 65 68 67 69 73 70 66 71 68 72 69 73 70 74 71 75
REMARK SMILES IDX 48 76 49 77 57 78 50 79 52 80 58 81 51 82 53 83 54 84 55 85
REMARK SMILES IDX 56 86
REMARK H PARENT 78 39 46 50
REMARK Flexibility Score: inf
ROOT
ATOM      1  C   UNL A   1      41.909  22.124  25.799  1.00  0.00     0.275 C 
ENDROOT
BRANCH   1   2
ATOM      2  C   UNL A   1      43.051  23.064  25.354  1.00  0.00     0.275 C 
BRANCH   2   3
ATOM      3  O   UNL A   1      43.731  22.698  24.156  1.00  0.00    -0.459 OA
BRANCH   3   4
ATOM      4  C   UNL A   1      44.942  22.130  24.330  1.00  0.00     0.330 C 
ATOM      5  O   UNL A   1      45.150  20.945  24.538  1.00  0.00    -0.247 OA
BRANCH   4   6
ATOM      6  C   UNL A   1      46.022  23.133  24.283  1.00  0.00     0.094 C 
ATOM      7  C   UNL A   1      46.483  23.804  25.350  1.00  0.00     0.016 C 
BRANCH   7   8
ATOM      8  C   UNL A   1      47.493  24.860  25.202  1.00  0.00    -0.022 A 
ATOM      9  C   UNL A   1      47.978  24.852  27.718  1.00  0.00     0.045 C 
ATOM     10  C   UNL A   1      48.179  25.374  26.319  1.00  0.00    -0.044 A 
ATOM     11  C   UNL A   1      49.053  26.459  26.144  1.00  0.00     0.004 A 
ATOM     12  C   UNL A   1      49.280  26.997  24.878  1.00  0.00     0.013 A 
ATOM     13  C   UNL A   1      47.752  25.389  23.925  1.00  0.00     0.021 A 
ATOM     14  C   UNL A   1      48.647  26.457  23.751  1.00  0.00     0.056 A 
BRANCH  14  15
ATOM     15  C   UNL A   1      48.903  27.062  22.393  1.00  0.00     0.416 C 
ATOM     16  F   UNL A   1      47.900  27.922  22.036  1.00  0.00    -0.166 F 
ATOM     17  F   UNL A   1      50.042  27.809  22.353  1.00  0.00    -0.166 F 
ATOM     18  F   UNL A   1      48.990  26.163  21.381  1.00  0.00    -0.166 F 
ENDBRANCH  14  15
ENDBRANCH   7   8
ENDBRANCH   4   6
ENDBRANCH   3   4
ENDBRANCH   2   3
ENDBRANCH   1   2
BRANCH   1  19
ATOM     19  O   UNL A   1      40.967  22.536  26.834  1.00  0.00    -0.458 OA
BRANCH  19  20
ATOM     20  C   UNL A   1      39.861  23.341  26.812  1.00  0.00     0.338 C 
ATOM     21  O   UNL A   1      38.784  22.929  26.447  1.00  0.00    -0.246 OA
BRANCH  20  22
ATOM     22  C   UNL A   1      40.013  24.709  27.338  1.00  0.00     0.060 A 
ATOM     23  C   UNL A   1      40.595  25.733  26.568  1.00  0.00     0.016 A 
ATOM     24  C   UNL A   1      39.471  24.987  28.575  1.00  0.00     0.016 A 
ATOM     25  C   UNL A   1      40.521  27.062  27.006  1.00  0.00     0.010 A 
ATOM     26  C   UNL A   1      39.183  26.289  28.878  1.00  0.00     0.010 A 
ATOM     27  C   UNL A   1      39.780  27.338  28.152  1.00  0.00    -0.014 A 
BRANCH  27  28
ATOM     28  C   UNL A   1      39.828  28.569  28.938  1.00  0.00     0.031 A 
ATOM     29  C   UNL A   1      38.922  29.715  28.824  1.00  0.00     0.074 A 
ATOM     30  C   UNL A   1      40.616  28.419  30.029  1.00  0.00     0.049 A 
ATOM     31  N   UNL A   1      39.131  30.823  29.453  1.00  0.00    -0.248 NA
ATOM     32  C   UNL A   1      37.729  29.742  27.993  1.00  0.00     0.031 C 
ATOM     33  C   UNL A   1      40.565  29.064  31.323  1.00  0.00     0.029 A 
ATOM     34  N   UNL A   1      41.703  27.546  30.123  1.00  0.00    -0.354 N 
ATOM     35  C   UNL A   1      37.991  31.589  29.354  1.00  0.00     0.074 A 
ATOM     36  C   UNL A   1      37.218  30.938  28.322  1.00  0.00     0.031 C 
ATOM     37  C   UNL A   1      41.689  28.747  31.994  1.00  0.00     0.029 A 
ATOM     38  C   UNL A   1      42.579  28.065  31.062  1.00  0.00     0.049 A 
ATOM     39  H   UNL A   1      41.825  26.712  29.613  1.00  0.00     0.167 HD
ATOM     40  C   UNL A   1      37.800  32.588  30.267  1.00  0.00     0.034 A 
ATOM     41  C   UNL A   1      43.845  28.426  30.701  1.00  0.00     0.034 A 
ATOM     42  C   UNL A   1      38.989  32.726  31.137  1.00  0.00     0.049 A 
ATOM     43  C   UNL A   1      44.036  29.921  30.870  1.00  0.00     0.074 A 
ATOM     44  C   UNL A   1      39.258  32.305  32.429  1.00  0.00     0.029 A 
ATOM     45  N   UNL A   1      40.209  33.131  30.599  1.00  0.00    -0.354 N 
ATOM     46  N   UNL A   1      43.088  30.745  31.220  1.00  0.00    -0.248 NA
ATOM     47  C   UNL A   1      45.298  30.606  30.620  1.00  0.00     0.031 C 
ATOM     48  C   UNL A   1      40.670  32.334  32.614  1.00  0.00     0.029 A 
ATOM     49  C   UNL A   1      41.259  32.823  31.459  1.00  0.00     0.049 A 
ATOM     50  H   UNL A   1      40.315  33.575  29.727  1.00  0.00     0.167 HD
ATOM     51  C   UNL A   1      43.512  32.030  31.059  1.00  0.00     0.074 A 
ATOM     52  C   UNL A   1      44.936  31.890  30.794  1.00  0.00     0.031 C 
ATOM     53  C   UNL A   1      42.645  33.090  31.063  1.00  0.00     0.034 A 
BRANCH  40  54
ATOM     54  C   UNL A   1      36.488  33.313  30.590  1.00  0.00     0.023 A 
ATOM     55  C   UNL A   1      36.010  33.213  31.920  1.00  0.00     0.012 A 
ATOM     56  C   UNL A   1      35.638  34.010  29.696  1.00  0.00     0.148 A 
ATOM     57  C   UNL A   1      34.764  33.716  32.325  1.00  0.00     0.002 A 
ATOM     58  C   UNL A   1      34.401  34.532  30.101  1.00  0.00     0.091 A 
ATOM     59  F   UNL A   1      35.983  34.161  28.420  1.00  0.00    -0.205 F 
ATOM     60  C   UNL A   1      33.955  34.374  31.413  1.00  0.00     0.022 A 
BRANCH  58  61
ATOM     61  S   UNL A   1      33.300  35.416  28.972  1.00  0.00     0.127 S 
ATOM     62  O   UNL A   1      32.705  34.321  28.207  1.00  0.00    -0.237 OA
ATOM     63  O   UNL A   1      32.381  36.087  29.891  1.00  0.00    -0.237 OA
ATOM     64  O   UNL A   1      34.142  36.317  28.194  1.00  0.00    -0.744 OA
ENDBRANCH  58  61
ENDBRANCH  40  54
BRANCH  41  65
ATOM     65  C   UNL A   1      44.401  27.592  29.571  1.00  0.00     0.023 A 
ATOM     66  C   UNL A   1      44.558  26.202  29.816  1.00  0.00     0.012 A 
ATOM     67  C   UNL A   1      44.355  28.027  28.234  1.00  0.00     0.148 A 
ATOM     68  C   UNL A   1      44.543  25.272  28.770  1.00  0.00     0.002 A 
ATOM     69  C   UNL A   1      44.332  27.090  27.195  1.00  0.00     0.091 A 
ATOM     70  F   UNL A   1      44.246  29.337  27.982  1.00  0.00    -0.205 F 
ATOM     71  C   UNL A   1      44.398  25.714  27.460  1.00  0.00     0.022 A 
BRANCH  69  72
ATOM     72  S   UNL A   1      44.040  27.621  25.500  1.00  0.00     0.127 S 
ATOM     73  O   UNL A   1      43.045  28.682  25.653  1.00  0.00    -0.237 OA
ATOM     74  O   UNL A   1      45.342  28.098  25.055  1.00  0.00    -0.237 OA
ATOM     75  O   UNL A   1      43.543  26.393  24.887  1.00  0.00    -0.744 OA
ENDBRANCH  69  72
ENDBRANCH  41  65
BRANCH  53  76
ATOM     76  C   UNL A   1      43.046  34.488  30.657  1.00  0.00     0.023 A 
ATOM     77  C   UNL A   1      43.509  35.435  31.592  1.00  0.00     0.012 A 
ATOM     78  C   UNL A   1      43.106  34.853  29.291  1.00  0.00     0.148 A 
ATOM     79  C   UNL A   1      43.924  36.713  31.206  1.00  0.00     0.002 A 
ATOM     80  C   UNL A   1      43.632  36.081  28.904  1.00  0.00     0.091 A 
ATOM     81  F   UNL A   1      42.639  34.013  28.355  1.00  0.00    -0.205 F 
ATOM     82  C   UNL A   1      44.005  37.031  29.858  1.00  0.00     0.022 A 
BRANCH  80  83
ATOM     83  S   UNL A   1      44.001  36.401  27.175  1.00  0.00     0.127 S 
ATOM     84  O   UNL A   1      44.664  37.701  27.236  1.00  0.00    -0.237 OA
ATOM     85  O   UNL A   1      44.879  35.286  26.819  1.00  0.00    -0.237 OA
ATOM     86  O   UNL A   1      42.701  36.366  26.514  1.00  0.00    -0.744 OA
ENDBRANCH  80  83
ENDBRANCH  53  76
ENDBRANCH  27  28
ENDBRANCH  20  22
ENDBRANCH  19  20
ENDBRANCH   1  19
TORSDOF 16
ENDMDL
