MODEL 1
REMARK VINA RESULT:     -11.4      0.000      0.000
REMARK SMILES O=C(C[C@@H]1COCCN1C(=O)c1csc(Cc2ccccc2)n1)OCCOC(=O)c1ccc(-c2c3nc(c(-c4cccc(S(=O)(=O)[O-])c4F)c4ccc([nH]4)c(-c4cccc(S(=O)(=O)[O-])c4F)c4nc(c(-c5cccc(S(=O)(=O)[O-])c5F)c5ccc2[nH]5)C=C4)C=C3)cc1
REMARK SMILES IDX 25 1 24 2 2 3 1 4 3 5 4 6 5 7 9 8 6 9 8 10 7 11 10 12 11 13
REMARK SMILES IDX 12 14 13 15 23 16 14 17 15 18 16 19 17 20 18 21 22 22 19 23
REMARK SMILES IDX 21 24 20 25 26 26 27 27 28 28 29 29 30 30 31 31 92 32 32 33
REMARK SMILES IDX 91 34 33 35 34 36 35 37 85 38 36 39 90 40 84 41 86 42 37 43
REMARK SMILES IDX 89 44 83 45 82 46 38 48 70 49 50 50 69 51 51 52 54 53 68 54
REMARK SMILES IDX 87 55 52 56 53 57 67 59 88 60 55 61 39 62 40 63 48 64 41 65
REMARK SMILES IDX 43 66 49 67 42 68 44 69 45 70 46 71 47 72 71 73 72 74 80 75
REMARK SMILES IDX 73 76 75 77 81 78 74 79 76 80 77 81 78 82 79 83 56 84 57 85
REMARK SMILES IDX 65 86 58 87 60 88 66 89 59 90 61 91 62 92 63 93 64 94
REMARK H PARENT 86 47 54 58
REMARK Flexibility Score: inf
ROOT
ATOM      1  C   UNL A   1      33.562  31.676  27.302  1.00  0.00     0.274 C 
ENDROOT
BRANCH   1   2
ATOM      2  O   UNL A   1      33.128  30.299  27.348  1.00  0.00    -0.462 OA
BRANCH   2   3
ATOM      3  C   UNL A   1      33.955  29.252  27.091  1.00  0.00     0.308 C 
ATOM      4  O   UNL A   1      35.174  29.362  27.184  1.00  0.00    -0.252 OA
BRANCH   3   5
ATOM      5  C   UNL A   1      33.337  28.027  26.517  1.00  0.00     0.150 C 
BRANCH   5   6
ATOM      6  C   UNL A   1      33.215  27.636  25.083  1.00  0.00     0.122 C 
ATOM      7  C   UNL A   1      32.420  28.706  24.330  1.00  0.00     0.185 C 
ATOM      8  N   UNL A   1      32.538  26.320  24.949  1.00  0.00    -0.329 N 
ATOM      9  O   UNL A   1      32.153  28.322  22.975  1.00  0.00    -0.377 OA
ATOM     10  C   UNL A   1      32.182  25.970  23.561  1.00  0.00     0.148 C 
ATOM     11  C   UNL A   1      31.383  27.106  22.941  1.00  0.00     0.181 C 
BRANCH   8  12
ATOM     12  C   UNL A   1      32.266  25.356  25.915  1.00  0.00     0.273 C 
ATOM     13  O   UNL A   1      31.591  25.690  26.893  1.00  0.00    -0.267 OA
BRANCH  12  14
ATOM     14  C   UNL A   1      32.661  23.927  25.862  1.00  0.00     0.139 A 
ATOM     15  C   UNL A   1      34.321  23.666  26.281  1.00  0.00     0.101 A 
ATOM     16  N   UNL A   1      31.948  22.379  25.096  1.00  0.00    -0.236 NA
ATOM     17  S   UNL A   1      34.993  21.334  25.657  1.00  0.00    -0.126 S 
ATOM     18  C   UNL A   1      32.867  21.049  24.859  1.00  0.00     0.098 A 
BRANCH  18  19
ATOM     19  C   UNL A   1      32.769  19.957  23.796  1.00  0.00     0.103 C 
BRANCH  19  20
ATOM     20  C   UNL A   1      33.027  18.512  24.247  1.00  0.00    -0.041 A 
ATOM     21  C   UNL A   1      33.985  17.708  23.605  1.00  0.00     0.004 A 
ATOM     22  C   UNL A   1      32.289  17.919  25.289  1.00  0.00     0.004 A 
ATOM     23  C   UNL A   1      34.201  16.377  24.001  1.00  0.00     0.000 A 
ATOM     24  C   UNL A   1      32.551  16.616  25.729  1.00  0.00     0.000 A 
ATOM     25  C   UNL A   1      33.497  15.837  25.074  1.00  0.00     0.000 A 
ENDBRANCH  19  20
ENDBRANCH  18  19
ENDBRANCH  12  14
ENDBRANCH   8  12
ENDBRANCH   5   6
ENDBRANCH   3   5
ENDBRANCH   2   3
ENDBRANCH   1   2
BRANCH   1  26
ATOM     26  C   UNL A   1      32.501  32.707  27.722  1.00  0.00     0.275 C 
BRANCH  26  27
ATOM     27  O   UNL A   1      32.969  34.075  27.670  1.00  0.00    -0.458 OA
BRANCH  27  28
ATOM     28  C   UNL A   1      33.161  34.682  28.878  1.00  0.00     0.338 C 
ATOM     29  O   UNL A   1      32.608  35.710  29.239  1.00  0.00    -0.246 OA
BRANCH  28  30
ATOM     30  C   UNL A   1      34.263  33.920  29.704  1.00  0.00     0.060 A 
ATOM     31  C   UNL A   1      34.347  32.673  31.333  1.00  0.00     0.016 A 
ATOM     32  C   UNL A   1      35.842  34.408  29.029  1.00  0.00     0.016 A 
ATOM     33  C   UNL A   1      35.800  32.163  31.981  1.00  0.00     0.010 A 
ATOM     34  C   UNL A   1      37.248  33.802  29.832  1.00  0.00     0.010 A 
ATOM     35  C   UNL A   1      37.176  32.711  31.204  1.00  0.00    -0.014 A 
BRANCH  35  36
ATOM     36  C   UNL A   1      38.319  32.106  31.840  1.00  0.00     0.031 A 
ATOM     37  C   UNL A   1      39.001  31.097  31.025  1.00  0.00     0.074 A 
ATOM     38  C   UNL A   1      38.828  32.716  32.927  1.00  0.00     0.049 A 
ATOM     39  N   UNL A   1      40.063  30.420  31.305  1.00  0.00    -0.248 NA
ATOM     40  C   UNL A   1      38.430  30.829  29.694  1.00  0.00     0.031 C 
ATOM     41  C   UNL A   1      38.282  33.921  33.579  1.00  0.00     0.029 A 
ATOM     42  N   UNL A   1      39.942  32.446  33.659  1.00  0.00    -0.354 N 
ATOM     43  C   UNL A   1      40.228  29.576  30.226  1.00  0.00     0.074 A 
ATOM     44  C   UNL A   1      39.203  29.858  29.260  1.00  0.00     0.031 C 
ATOM     45  C   UNL A   1      39.040  34.257  34.630  1.00  0.00     0.029 A 
ATOM     46  C   UNL A   1      40.042  33.227  34.788  1.00  0.00     0.049 A 
ATOM     47  H   UNL A   1      40.606  31.764  33.409  1.00  0.00     0.167 HD
ATOM     48  C   UNL A   1      41.139  28.595  30.123  1.00  0.00     0.034 A 
ATOM     49  C   UNL A   1      40.799  33.036  35.878  1.00  0.00     0.034 A 
ATOM     50  C   UNL A   1      42.042  28.329  31.198  1.00  0.00     0.049 A 
ATOM     51  C   UNL A   1      41.704  31.847  35.814  1.00  0.00     0.074 A 
ATOM     52  C   UNL A   1      42.965  27.320  31.320  1.00  0.00     0.029 A 
ATOM     53  N   UNL A   1      42.074  29.072  32.378  1.00  0.00    -0.354 N 
ATOM     54  N   UNL A   1      41.834  30.984  34.831  1.00  0.00    -0.248 NA
ATOM     55  C   UNL A   1      42.572  31.602  36.962  1.00  0.00     0.031 C 
ATOM     56  C   UNL A   1      43.492  27.400  32.612  1.00  0.00     0.029 A 
ATOM     57  C   UNL A   1      42.981  28.526  33.253  1.00  0.00     0.049 A 
ATOM     58  H   UNL A   1      41.527  29.869  32.558  1.00  0.00     0.167 HD
ATOM     59  C   UNL A   1      42.829  30.111  35.214  1.00  0.00     0.074 A 
ATOM     60  C   UNL A   1      43.264  30.554  36.531  1.00  0.00     0.031 C 
ATOM     61  C   UNL A   1      43.351  29.053  34.546  1.00  0.00     0.034 A 
BRANCH  48  62
ATOM     62  C   UNL A   1      40.980  27.686  28.948  1.00  0.00     0.023 A 
ATOM     63  C   UNL A   1      40.107  26.576  28.989  1.00  0.00     0.012 A 
ATOM     64  C   UNL A   1      41.850  27.845  27.856  1.00  0.00     0.148 A 
ATOM     65  C   UNL A   1      40.157  25.606  27.989  1.00  0.00     0.002 A 
ATOM     66  C   UNL A   1      41.836  26.919  26.828  1.00  0.00     0.091 A 
ATOM     67  F   UNL A   1      42.726  28.859  27.880  1.00  0.00    -0.205 F 
ATOM     68  C   UNL A   1      41.011  25.784  26.903  1.00  0.00     0.022 A 
BRANCH  66  69
ATOM     69  S   UNL A   1      42.847  27.111  25.363  1.00  0.00     0.127 S 
ATOM     70  O   UNL A   1      42.570  25.867  24.644  1.00  0.00    -0.237 OA
ATOM     71  O   UNL A   1      42.265  28.309  24.759  1.00  0.00    -0.237 OA
ATOM     72  O   UNL A   1      44.218  27.261  25.828  1.00  0.00    -0.744 OA
ENDBRANCH  66  69
ENDBRANCH  48  62
BRANCH  49  73
ATOM     73  C   UNL A   1      40.636  33.903  37.076  1.00  0.00     0.023 A 
ATOM     74  C   UNL A   1      41.156  35.209  37.088  1.00  0.00     0.012 A 
ATOM     75  C   UNL A   1      39.903  33.448  38.195  1.00  0.00     0.148 A 
ATOM     76  C   UNL A   1      40.971  36.037  38.198  1.00  0.00     0.002 A 
ATOM     77  C   UNL A   1      39.684  34.291  39.278  1.00  0.00     0.091 A 
ATOM     78  F   UNL A   1      39.409  32.202  38.166  1.00  0.00    -0.205 F 
ATOM     79  C   UNL A   1      40.230  35.582  39.288  1.00  0.00     0.022 A 
BRANCH  77  80
ATOM     80  S   UNL A   1      38.666  33.823  40.685  1.00  0.00     0.127 S 
ATOM     81  O   UNL A   1      38.631  35.066  41.453  1.00  0.00    -0.237 OA
ATOM     82  O   UNL A   1      37.404  33.466  40.038  1.00  0.00    -0.237 OA
ATOM     83  O   UNL A   1      39.354  32.713  41.330  1.00  0.00    -0.744 OA
ENDBRANCH  77  80
ENDBRANCH  49  73
BRANCH  61  84
ATOM     84  C   UNL A   1      44.505  28.369  35.196  1.00  0.00     0.023 A 
ATOM     85  C   UNL A   1      45.824  28.754  34.903  1.00  0.00     0.012 A 
ATOM     86  C   UNL A   1      44.239  27.438  36.216  1.00  0.00     0.148 A 
ATOM     87  C   UNL A   1      46.876  28.197  35.618  1.00  0.00     0.002 A 
ATOM     88  C   UNL A   1      45.284  26.947  36.970  1.00  0.00     0.091 A 
ATOM     89  F   UNL A   1      42.964  27.094  36.452  1.00  0.00    -0.205 F 
ATOM     90  C   UNL A   1      46.606  27.313  36.664  1.00  0.00     0.022 A 
BRANCH  88  91
ATOM     91  S   UNL A   1      45.012  25.912  38.406  1.00  0.00     0.127 S 
ATOM     92  O   UNL A   1      43.995  26.674  39.127  1.00  0.00    -0.237 OA
ATOM     93  O   UNL A   1      44.535  24.670  37.799  1.00  0.00    -0.237 OA
ATOM     94  O   UNL A   1      46.298  25.805  39.084  1.00  0.00    -0.744 OA
ENDBRANCH  88  91
ENDBRANCH  61  84
ENDBRANCH  35  36
ENDBRANCH  28  30
ENDBRANCH  27  28
ENDBRANCH  26  27
ENDBRANCH   1  26
TORSDOF 19
ENDMDL
MODEL 2
REMARK VINA RESULT:     -11.3      1.641      2.115
REMARK SMILES O=C(C[C@@H]1COCCN1C(=O)c1csc(Cc2ccccc2)n1)OCCOC(=O)c1ccc(-c2c3nc(c(-c4cccc(S(=O)(=O)[O-])c4F)c4ccc([nH]4)c(-c4cccc(S(=O)(=O)[O-])c4F)c4nc(c(-c5cccc(S(=O)(=O)[O-])c5F)c5ccc2[nH]5)C=C4)C=C3)cc1
REMARK SMILES IDX 25 1 24 2 2 3 1 4 3 5 4 6 5 7 9 8 6 9 8 10 7 11 10 12 11 13
REMARK SMILES IDX 12 14 13 15 23 16 14 17 15 18 16 19 17 20 18 21 22 22 19 23
REMARK SMILES IDX 21 24 20 25 26 26 27 27 28 28 29 29 30 30 31 31 92 32 32 33
REMARK SMILES IDX 91 34 33 35 34 36 35 37 85 38 36 39 90 40 84 41 86 42 37 43
REMARK SMILES IDX 89 44 83 45 82 46 38 48 70 49 50 50 69 51 51 52 54 53 68 54
REMARK SMILES IDX 87 55 52 56 53 57 67 59 88 60 55 61 39 62 40 63 48 64 41 65
REMARK SMILES IDX 43 66 49 67 42 68 44 69 45 70 46 71 47 72 71 73 72 74 80 75
REMARK SMILES IDX 73 76 75 77 81 78 74 79 76 80 77 81 78 82 79 83 56 84 57 85
REMARK SMILES IDX 65 86 58 87 60 88 66 89 59 90 61 91 62 92 63 93 64 94
REMARK H PARENT 86 47 54 58
REMARK Flexibility Score: inf
ROOT
ATOM      1  C   UNL A   1      32.534  31.506  27.074  1.00  0.00     0.274 C 
ENDROOT
BRANCH   1   2
ATOM      2  O   UNL A   1      32.952  30.207  27.545  1.00  0.00    -0.462 OA
BRANCH   2   3
ATOM      3  C   UNL A   1      33.284  29.188  26.711  1.00  0.00     0.308 C 
ATOM      4  O   UNL A   1      34.428  29.058  26.282  1.00  0.00    -0.252 OA
BRANCH   3   5
ATOM      5  C   UNL A   1      32.172  28.347  26.193  1.00  0.00     0.150 C 
BRANCH   5   6
ATOM      6  C   UNL A   1      31.627  28.283  24.806  1.00  0.00     0.122 C 
ATOM      7  C   UNL A   1      30.716  29.489  24.563  1.00  0.00     0.185 C 
ATOM      8  N   UNL A   1      30.865  27.026  24.595  1.00  0.00    -0.329 N 
ATOM      9  O   UNL A   1      30.055  29.413  23.293  1.00  0.00    -0.377 OA
ATOM     10  C   UNL A   1      30.111  26.990  23.326  1.00  0.00     0.148 C 
ATOM     11  C   UNL A   1      29.237  28.231  23.222  1.00  0.00     0.181 C 
BRANCH   8  12
ATOM     12  C   UNL A   1      30.822  25.869  25.368  1.00  0.00     0.273 C 
ATOM     13  O   UNL A   1      30.143  25.887  26.398  1.00  0.00    -0.267 OA
BRANCH  12  14
ATOM     14  C   UNL A   1      31.470  24.575  25.045  1.00  0.00     0.139 A 
ATOM     15  C   UNL A   1      31.329  23.409  26.318  1.00  0.00     0.101 A 
ATOM     16  N   UNL A   1      32.726  23.994  23.789  1.00  0.00    -0.236 NA
ATOM     17  S   UNL A   1      32.880  21.490  25.882  1.00  0.00    -0.126 S 
ATOM     18  C   UNL A   1      33.547  22.597  23.993  1.00  0.00     0.098 A 
BRANCH  18  19
ATOM     19  C   UNL A   1      34.944  22.194  23.526  1.00  0.00     0.103 C 
BRANCH  19  20
ATOM     20  C   UNL A   1      36.116  22.499  24.470  1.00  0.00    -0.041 A 
ATOM     21  C   UNL A   1      36.204  23.727  25.150  1.00  0.00     0.004 A 
ATOM     22  C   UNL A   1      37.170  21.585  24.661  1.00  0.00     0.004 A 
ATOM     23  C   UNL A   1      37.291  24.015  25.992  1.00  0.00     0.000 A 
ATOM     24  C   UNL A   1      38.218  21.844  25.553  1.00  0.00     0.000 A 
ATOM     25  C   UNL A   1      38.288  23.067  26.208  1.00  0.00     0.000 A 
ENDBRANCH  19  20
ENDBRANCH  18  19
ENDBRANCH  12  14
ENDBRANCH   8  12
ENDBRANCH   5   6
ENDBRANCH   3   5
ENDBRANCH   2   3
ENDBRANCH   1   2
BRANCH   1  26
ATOM     26  C   UNL A   1      33.353  32.690  27.617  1.00  0.00     0.275 C 
BRANCH  26  27
ATOM     27  O   UNL A   1      32.563  33.875  27.869  1.00  0.00    -0.458 OA
BRANCH  27  28
ATOM     28  C   UNL A   1      33.022  34.693  28.861  1.00  0.00     0.338 C 
ATOM     29  O   UNL A   1      32.657  35.845  29.042  1.00  0.00    -0.246 OA
BRANCH  28  30
ATOM     30  C   UNL A   1      34.156  33.974  29.683  1.00  0.00     0.060 A 
ATOM     31  C   UNL A   1      34.293  32.740  31.318  1.00  0.00     0.016 A 
ATOM     32  C   UNL A   1      35.712  34.511  28.993  1.00  0.00     0.016 A 
ATOM     33  C   UNL A   1      35.767  32.282  31.959  1.00  0.00     0.010 A 
ATOM     34  C   UNL A   1      37.143  33.957  29.790  1.00  0.00     0.010 A 
ATOM     35  C   UNL A   1      37.118  32.872  31.168  1.00  0.00    -0.014 A 
BRANCH  35  36
ATOM     36  C   UNL A   1      38.286  32.309  31.799  1.00  0.00     0.031 A 
ATOM     37  C   UNL A   1      38.972  31.289  31.001  1.00  0.00     0.074 A 
ATOM     38  C   UNL A   1      38.803  32.962  32.857  1.00  0.00     0.049 A 
ATOM     39  N   UNL A   1      40.053  30.642  31.280  1.00  0.00    -0.248 NA
ATOM     40  C   UNL A   1      38.381  30.970  29.691  1.00  0.00     0.031 C 
ATOM     41  C   UNL A   1      38.246  34.175  33.483  1.00  0.00     0.029 A 
ATOM     42  N   UNL A   1      39.937  32.737  33.574  1.00  0.00    -0.354 N 
ATOM     43  C   UNL A   1      40.214  29.769  30.224  1.00  0.00     0.074 A 
ATOM     44  C   UNL A   1      39.164  30.001  29.270  1.00  0.00     0.031 C 
ATOM     45  C   UNL A   1      39.017  34.558  34.508  1.00  0.00     0.029 A 
ATOM     46  C   UNL A   1      40.043  33.553  34.676  1.00  0.00     0.049 A 
ATOM     47  H   UNL A   1      40.609  32.061  33.331  1.00  0.00     0.167 HD
ATOM     48  C   UNL A   1      41.142  28.804  30.132  1.00  0.00     0.034 A 
ATOM     49  C   UNL A   1      40.824  33.410  35.756  1.00  0.00     0.034 A 
ATOM     50  C   UNL A   1      42.071  28.589  31.196  1.00  0.00     0.049 A 
ATOM     51  C   UNL A   1      41.752  32.238  35.710  1.00  0.00     0.074 A 
ATOM     52  C   UNL A   1      43.017  27.602  31.330  1.00  0.00     0.029 A 
ATOM     53  N   UNL A   1      42.111  29.367  32.352  1.00  0.00    -0.354 N 
ATOM     54  N   UNL A   1      41.880  31.348  34.751  1.00  0.00    -0.248 NA
ATOM     55  C   UNL A   1      42.647  32.045  36.847  1.00  0.00     0.031 C 
ATOM     56  C   UNL A   1      43.567  27.732  32.608  1.00  0.00     0.029 A 
ATOM     57  C   UNL A   1      43.046  28.866  33.225  1.00  0.00     0.049 A 
ATOM     58  H   UNL A   1      41.551  30.159  32.519  1.00  0.00     0.167 HD
ATOM     59  C   UNL A   1      42.900  30.507  35.140  1.00  0.00     0.074 A 
ATOM     60  C   UNL A   1      43.352  30.998  36.434  1.00  0.00     0.031 C 
ATOM     61  C   UNL A   1      43.430  29.439  34.494  1.00  0.00     0.034 A 
BRANCH  48  62
ATOM     62  C   UNL A   1      40.978  27.856  28.988  1.00  0.00     0.023 A 
ATOM     63  C   UNL A   1      40.112  26.744  29.072  1.00  0.00     0.012 A 
ATOM     64  C   UNL A   1      41.840  27.984  27.885  1.00  0.00     0.148 A 
ATOM     65  C   UNL A   1      40.159  25.742  28.104  1.00  0.00     0.002 A 
ATOM     66  C   UNL A   1      41.822  27.025  26.888  1.00  0.00     0.091 A 
ATOM     67  F   UNL A   1      42.710  29.003  27.869  1.00  0.00    -0.205 F 
ATOM     68  C   UNL A   1      41.004  25.889  27.006  1.00  0.00     0.022 A 
BRANCH  66  69
ATOM     69  S   UNL A   1      42.820  27.174  25.409  1.00  0.00     0.127 S 
ATOM     70  O   UNL A   1      42.569  25.893  24.748  1.00  0.00    -0.237 OA
ATOM     71  O   UNL A   1      42.208  28.331  24.756  1.00  0.00    -0.237 OA
ATOM     72  O   UNL A   1      44.190  27.377  25.858  1.00  0.00    -0.744 OA
ENDBRANCH  66  69
ENDBRANCH  48  62
BRANCH  49  73
ATOM     73  C   UNL A   1      40.667  34.310  36.931  1.00  0.00     0.023 A 
ATOM     74  C   UNL A   1      41.136  35.634  36.883  1.00  0.00     0.012 A 
ATOM     75  C   UNL A   1      39.990  33.865  38.088  1.00  0.00     0.148 A 
ATOM     76  C   UNL A   1      40.955  36.491  37.971  1.00  0.00     0.002 A 
ATOM     77  C   UNL A   1      39.774  34.735  39.151  1.00  0.00     0.091 A 
ATOM     78  F   UNL A   1      39.544  32.601  38.116  1.00  0.00    -0.205 F 
ATOM     79  C   UNL A   1      40.269  36.046  39.100  1.00  0.00     0.022 A 
BRANCH  77  80
ATOM     80  S   UNL A   1      38.822  34.276  40.606  1.00  0.00     0.127 S 
ATOM     81  O   UNL A   1      39.707  33.305  41.246  1.00  0.00    -0.237 OA
ATOM     82  O   UNL A   1      38.706  35.556  41.305  1.00  0.00    -0.237 OA
ATOM     83  O   UNL A   1      37.562  33.739  40.112  1.00  0.00    -0.744 OA
ENDBRANCH  77  80
ENDBRANCH  49  73
BRANCH  61  84
ATOM     84  C   UNL A   1      44.611  28.799  35.141  1.00  0.00     0.023 A 
ATOM     85  C   UNL A   1      45.909  29.272  34.891  1.00  0.00     0.012 A 
ATOM     86  C   UNL A   1      44.381  27.812  36.116  1.00  0.00     0.148 A 
ATOM     87  C   UNL A   1      46.979  28.750  35.606  1.00  0.00     0.002 A 
ATOM     88  C   UNL A   1      45.439  27.354  36.873  1.00  0.00     0.091 A 
ATOM     89  F   UNL A   1      43.124  27.385  36.311  1.00  0.00    -0.205 F 
ATOM     90  C   UNL A   1      46.743  27.809  36.610  1.00  0.00     0.022 A 
BRANCH  88  91
ATOM     91  S   UNL A   1      45.202  26.247  38.260  1.00  0.00     0.127 S 
ATOM     92  O   UNL A   1      44.437  27.088  39.179  1.00  0.00    -0.237 OA
ATOM     93  O   UNL A   1      44.444  25.154  37.651  1.00  0.00    -0.237 OA
ATOM     94  O   UNL A   1      46.533  25.879  38.725  1.00  0.00    -0.744 OA
ENDBRANCH  88  91
ENDBRANCH  61  84
ENDBRANCH  35  36
ENDBRANCH  28  30
ENDBRANCH  27  28
ENDBRANCH  26  27
ENDBRANCH   1  26
TORSDOF 19
ENDMDL
MODEL 3
REMARK VINA RESULT:     -11.2      5.774     10.539
REMARK SMILES O=C(C[C@@H]1COCCN1C(=O)c1csc(Cc2ccccc2)n1)OCCOC(=O)c1ccc(-c2c3nc(c(-c4cccc(S(=O)(=O)[O-])c4F)c4ccc([nH]4)c(-c4cccc(S(=O)(=O)[O-])c4F)c4nc(c(-c5cccc(S(=O)(=O)[O-])c5F)c5ccc2[nH]5)C=C4)C=C3)cc1
REMARK SMILES IDX 25 1 24 2 2 3 1 4 3 5 4 6 5 7 9 8 6 9 8 10 7 11 10 12 11 13
REMARK SMILES IDX 12 14 13 15 23 16 14 17 15 18 16 19 17 20 18 21 22 22 19 23
REMARK SMILES IDX 21 24 20 25 26 26 27 27 28 28 29 29 30 30 31 31 92 32 32 33
REMARK SMILES IDX 91 34 33 35 34 36 35 37 85 38 36 39 90 40 84 41 86 42 37 43
REMARK SMILES IDX 89 44 83 45 82 46 38 48 70 49 50 50 69 51 51 52 54 53 68 54
REMARK SMILES IDX 87 55 52 56 53 57 67 59 88 60 55 61 39 62 40 63 48 64 41 65
REMARK SMILES IDX 43 66 49 67 42 68 44 69 45 70 46 71 47 72 71 73 72 74 80 75
REMARK SMILES IDX 73 76 75 77 81 78 74 79 76 80 77 81 78 82 79 83 56 84 57 85
REMARK SMILES IDX 65 86 58 87 60 88 66 89 59 90 61 91 62 92 63 93 64 94
REMARK H PARENT 86 47 54 58
REMARK Flexibility Score: inf
ROOT
ATOM      1  C   UNL A   1      38.496  19.885  25.488  1.00  0.00     0.274 C 
ENDROOT
BRANCH   1   2
ATOM      2  O   UNL A   1      37.890  20.955  24.732  1.00  0.00    -0.462 OA
BRANCH   2   3
ATOM      3  C   UNL A   1      36.803  21.645  25.164  1.00  0.00     0.308 C 
ATOM      4  O   UNL A   1      36.873  22.421  26.113  1.00  0.00    -0.252 OA
BRANCH   3   5
ATOM      5  C   UNL A   1      35.491  21.286  24.562  1.00  0.00     0.150 C 
BRANCH   5   6
ATOM      6  C   UNL A   1      34.542  20.216  24.983  1.00  0.00     0.122 C 
ATOM      7  C   UNL A   1      35.060  18.859  24.501  1.00  0.00     0.185 C 
ATOM      8  N   UNL A   1      33.187  20.463  24.425  1.00  0.00    -0.329 N 
ATOM      9  O   UNL A   1      34.123  17.805  24.757  1.00  0.00    -0.377 OA
ATOM     10  C   UNL A   1      32.250  19.337  24.611  1.00  0.00     0.148 C 
ATOM     11  C   UNL A   1      32.882  18.060  24.075  1.00  0.00     0.181 C 
BRANCH   8  12
ATOM     12  C   UNL A   1      32.661  21.608  23.835  1.00  0.00     0.273 C 
ATOM     13  O   UNL A   1      32.245  21.523  22.676  1.00  0.00    -0.267 OA
BRANCH  12  14
ATOM     14  C   UNL A   1      32.490  22.930  24.486  1.00  0.00     0.139 A 
ATOM     15  C   UNL A   1      30.959  23.104  25.277  1.00  0.00     0.101 A 
ATOM     16  N   UNL A   1      33.330  24.594  24.357  1.00  0.00    -0.236 NA
ATOM     17  S   UNL A   1      30.584  25.508  25.873  1.00  0.00    -0.126 S 
ATOM     18  C   UNL A   1      32.608  25.954  24.900  1.00  0.00     0.098 A 
BRANCH  18  19
ATOM     19  C   UNL A   1      32.737  27.400  24.424  1.00  0.00     0.103 C 
BRANCH  19  20
ATOM     20  C   UNL A   1      33.037  28.466  25.488  1.00  0.00    -0.041 A 
ATOM     21  C   UNL A   1      32.242  29.619  25.608  1.00  0.00     0.004 A 
ATOM     22  C   UNL A   1      34.141  28.356  26.355  1.00  0.00     0.004 A 
ATOM     23  C   UNL A   1      32.535  30.607  26.564  1.00  0.00     0.000 A 
ATOM     24  C   UNL A   1      34.392  29.306  27.352  1.00  0.00     0.000 A 
ATOM     25  C   UNL A   1      33.598  30.442  27.448  1.00  0.00     0.000 A 
ENDBRANCH  19  20
ENDBRANCH  18  19
ENDBRANCH  12  14
ENDBRANCH   8  12
ENDBRANCH   5   6
ENDBRANCH   3   5
ENDBRANCH   2   3
ENDBRANCH   1   2
BRANCH   1  26
ATOM     26  C   UNL A   1      40.002  20.051  25.760  1.00  0.00     0.275 C 
BRANCH  26  27
ATOM     27  O   UNL A   1      40.735  18.804  25.745  1.00  0.00    -0.458 OA
BRANCH  27  28
ATOM     28  C   UNL A   1      42.089  18.911  25.886  1.00  0.00     0.338 C 
ATOM     29  O   UNL A   1      42.855  17.968  26.012  1.00  0.00    -0.246 OA
BRANCH  28  30
ATOM     30  C   UNL A   1      42.514  20.425  25.956  1.00  0.00     0.060 A 
ATOM     31  C   UNL A   1      43.065  21.908  24.647  1.00  0.00     0.016 A 
ATOM     32  C   UNL A   1      42.606  20.855  27.686  1.00  0.00     0.016 A 
ATOM     33  C   UNL A   1      43.573  23.410  25.176  1.00  0.00     0.010 A 
ATOM     34  C   UNL A   1      43.169  22.447  28.059  1.00  0.00     0.010 A 
ATOM     35  C   UNL A   1      43.579  23.633  26.833  1.00  0.00    -0.014 A 
BRANCH  35  36
ATOM     36  C   UNL A   1      43.956  24.999  27.099  1.00  0.00     0.031 A 
ATOM     37  C   UNL A   1      45.323  25.339  26.697  1.00  0.00     0.074 A 
ATOM     38  C   UNL A   1      42.974  25.879  27.373  1.00  0.00     0.049 A 
ATOM     39  N   UNL A   1      45.925  26.477  26.771  1.00  0.00    -0.248 NA
ATOM     40  C   UNL A   1      46.122  24.256  26.098  1.00  0.00     0.031 C 
ATOM     41  C   UNL A   1      41.538  25.564  27.495  1.00  0.00     0.029 A 
ATOM     42  N   UNL A   1      43.011  27.227  27.554  1.00  0.00    -0.354 N 
ATOM     43  C   UNL A   1      47.204  26.222  26.320  1.00  0.00     0.074 A 
ATOM     44  C   UNL A   1      47.284  24.844  25.919  1.00  0.00     0.031 C 
ATOM     45  C   UNL A   1      40.846  26.677  27.769  1.00  0.00     0.029 A 
ATOM     46  C   UNL A   1      41.801  27.746  27.955  1.00  0.00     0.049 A 
ATOM     47  H   UNL A   1      43.818  27.772  27.415  1.00  0.00     0.167 HD
ATOM     48  C   UNL A   1      48.231  27.085  26.330  1.00  0.00     0.034 A 
ATOM     49  C   UNL A   1      41.543  28.933  28.522  1.00  0.00     0.034 A 
ATOM     50  C   UNL A   1      48.066  28.402  26.857  1.00  0.00     0.049 A 
ATOM     51  C   UNL A   1      42.729  29.831  28.668  1.00  0.00     0.074 A 
ATOM     52  C   UNL A   1      49.010  29.383  27.043  1.00  0.00     0.029 A 
ATOM     53  N   UNL A   1      46.854  28.889  27.346  1.00  0.00    -0.354 N 
ATOM     54  N   UNL A   1      43.972  29.590  28.313  1.00  0.00    -0.248 NA
ATOM     55  C   UNL A   1      42.504  31.149  29.255  1.00  0.00     0.031 C 
ATOM     56  C   UNL A   1      48.384  30.430  27.726  1.00  0.00     0.029 A 
ATOM     57  C   UNL A   1      47.027  30.149  27.864  1.00  0.00     0.049 A 
ATOM     58  H   UNL A   1      46.000  28.402  27.324  1.00  0.00     0.167 HD
ATOM     59  C   UNL A   1      44.681  30.739  28.592  1.00  0.00     0.074 A 
ATOM     60  C   UNL A   1      43.719  31.677  29.152  1.00  0.00     0.031 C 
ATOM     61  C   UNL A   1      45.995  31.010  28.395  1.00  0.00     0.034 A 
BRANCH  48  62
ATOM     62  C   UNL A   1      49.565  26.506  25.985  1.00  0.00     0.023 A 
ATOM     63  C   UNL A   1      50.271  25.691  26.896  1.00  0.00     0.012 A 
ATOM     64  C   UNL A   1      50.195  26.934  24.804  1.00  0.00     0.148 A 
ATOM     65  C   UNL A   1      51.607  25.369  26.662  1.00  0.00     0.002 A 
ATOM     66  C   UNL A   1      51.496  26.543  24.540  1.00  0.00     0.091 A 
ATOM     67  F   UNL A   1      49.534  27.774  23.995  1.00  0.00    -0.205 F 
ATOM     68  C   UNL A   1      52.215  25.784  25.479  1.00  0.00     0.022 A 
BRANCH  66  69
ATOM     69  S   UNL A   1      52.326  26.969  23.012  1.00  0.00     0.127 S 
ATOM     70  O   UNL A   1      51.230  26.889  22.045  1.00  0.00    -0.237 OA
ATOM     71  O   UNL A   1      52.792  28.324  23.300  1.00  0.00    -0.237 OA
ATOM     72  O   UNL A   1      53.380  25.981  22.830  1.00  0.00    -0.744 OA
ENDBRANCH  66  69
ENDBRANCH  48  62
BRANCH  49  73
ATOM     73  C   UNL A   1      40.186  29.242  29.048  1.00  0.00     0.023 A 
ATOM     74  C   UNL A   1      39.172  29.693  28.186  1.00  0.00     0.012 A 
ATOM     75  C   UNL A   1      39.880  29.027  30.411  1.00  0.00     0.148 A 
ATOM     76  C   UNL A   1      37.888  29.948  28.673  1.00  0.00     0.002 A 
ATOM     77  C   UNL A   1      38.590  29.240  30.881  1.00  0.00     0.091 A 
ATOM     78  F   UNL A   1      40.857  28.591  31.220  1.00  0.00    -0.205 F 
ATOM     79  C   UNL A   1      37.594  29.715  30.016  1.00  0.00     0.022 A 
BRANCH  77  80
ATOM     80  S   UNL A   1      38.098  28.880  32.573  1.00  0.00     0.127 S 
ATOM     81  O   UNL A   1      38.269  27.429  32.630  1.00  0.00    -0.237 OA
ATOM     82  O   UNL A   1      39.081  29.644  33.341  1.00  0.00    -0.237 OA
ATOM     83  O   UNL A   1      36.726  29.350  32.704  1.00  0.00    -0.744 OA
ENDBRANCH  77  80
ENDBRANCH  49  73
BRANCH  61  84
ATOM     84  C   UNL A   1      46.433  32.400  28.705  1.00  0.00     0.023 A 
ATOM     85  C   UNL A   1      46.969  32.719  29.963  1.00  0.00     0.012 A 
ATOM     86  C   UNL A   1      46.435  33.345  27.663  1.00  0.00     0.148 A 
ATOM     87  C   UNL A   1      47.494  33.986  30.185  1.00  0.00     0.002 A 
ATOM     88  C   UNL A   1      47.026  34.574  27.870  1.00  0.00     0.091 A 
ATOM     89  F   UNL A   1      45.903  32.997  26.482  1.00  0.00    -0.205 F 
ATOM     90  C   UNL A   1      47.543  34.904  29.135  1.00  0.00     0.022 A 
BRANCH  88  91
ATOM     91  S   UNL A   1      47.244  35.755  26.541  1.00  0.00     0.127 S 
ATOM     92  O   UNL A   1      45.859  36.103  26.228  1.00  0.00    -0.237 OA
ATOM     93  O   UNL A   1      48.010  36.814  27.198  1.00  0.00    -0.237 OA
ATOM     94  O   UNL A   1      47.958  35.054  25.482  1.00  0.00    -0.744 OA
ENDBRANCH  88  91
ENDBRANCH  61  84
ENDBRANCH  35  36
ENDBRANCH  28  30
ENDBRANCH  27  28
ENDBRANCH  26  27
ENDBRANCH   1  26
TORSDOF 19
ENDMDL
