MODEL 1
REMARK VINA RESULT:     -11.4      0.000      0.000
REMARK SMILES C[C@H](O)C[C@@]1(C(=O)OCCOC(=O)c2ccc(-c3c4nc(c(-c5cccc(S(=O)(=O)[O-])c5F)c5ccc([nH]5)c(-c5cccc(S(=O)(=O)[O-])c5F)c5nc(c(-c6cccc(S(=O)(=O)[O-])c6F)c6ccc3[nH]6)C=C5)C=C4)cc2)CCN(C(=O)OC(C)(C)C)C1
REMARK SMILES IDX 9 1 8 2 6 3 7 4 5 5 77 6 87 7 78 8 79 9 4 10 2 11 1 12 3 13
REMARK SMILES IDX 80 15 81 16 82 17 83 18 84 19 85 20 86 21 10 22 11 23 12 24
REMARK SMILES IDX 13 25 14 26 15 27 76 28 16 29 75 30 17 31 18 32 19 33 69 34
REMARK SMILES IDX 20 35 74 36 68 37 70 38 21 39 73 40 67 41 66 42 22 44 54 45
REMARK SMILES IDX 34 46 53 47 35 48 38 49 52 50 71 51 36 52 37 53 51 55 72 56
REMARK SMILES IDX 39 57 23 58 24 59 32 60 25 61 27 62 33 63 26 64 28 65 29 66
REMARK SMILES IDX 30 67 31 68 55 69 56 70 64 71 57 72 59 73 65 74 58 75 60 76
REMARK SMILES IDX 61 77 62 78 63 79 40 80 41 81 49 82 42 83 44 84 50 85 43 86
REMARK SMILES IDX 45 87 46 88 47 89 48 90
REMARK H PARENT 3 14 70 43 38 54
REMARK Flexibility Score: inf
ROOT
ATOM      1  C   UNL A   1      34.908  20.938  25.047  1.00  0.00     0.274 C 
ENDROOT
BRANCH   1   2
ATOM      2  O   UNL A   1      34.404  21.928  24.120  1.00  0.00    -0.462 OA
BRANCH   2   3
ATOM      3  C   UNL A   1      33.096  21.796  23.770  1.00  0.00     0.314 C 
ATOM      4  O   UNL A   1      32.689  20.898  23.042  1.00  0.00    -0.252 OA
BRANCH   3   5
ATOM      5  C   UNL A   1      32.189  22.909  24.326  1.00  0.00     0.090 C 
ATOM      6  C   UNL A   1      31.211  23.414  23.225  1.00  0.00     0.042 C 
ATOM      7  C   UNL A   1      32.966  24.178  24.700  1.00  0.00     0.142 C 
ATOM      8  C   UNL A   1      31.878  24.655  22.632  1.00  0.00     0.124 C 
ATOM      9  N   UNL A   1      32.603  25.201  23.748  1.00  0.00    -0.307 N 
BRANCH   5  10
ATOM     10  C   UNL A   1      31.378  22.319  25.532  1.00  0.00     0.052 C 
BRANCH  10  11
ATOM     11  C   UNL A   1      31.553  23.009  26.907  1.00  0.00     0.112 C 
ATOM     12  C   UNL A   1      32.748  22.462  27.680  1.00  0.00     0.038 C 
BRANCH  11  13
ATOM     13  O   UNL A   1      30.393  22.833  27.709  1.00  0.00    -0.393 OA
ATOM     14  H   UNL A   1      30.302  23.585  28.316  1.00  0.00     0.210 HD
ENDBRANCH  11  13
ENDBRANCH  10  11
ENDBRANCH   5  10
BRANCH   9  15
ATOM     15  C   UNL A   1      32.986  26.503  23.974  1.00  0.00     0.410 C 
ATOM     16  O   UNL A   1      33.989  26.793  24.606  1.00  0.00    -0.224 OA
BRANCH  15  17
ATOM     17  O   UNL A   1      32.105  27.409  23.471  1.00  0.00    -0.444 OA
BRANCH  17  18
ATOM     18  C   UNL A   1      31.034  27.891  24.329  1.00  0.00     0.106 C 
ATOM     19  C   UNL A   1      30.980  27.107  25.650  1.00  0.00     0.056 C 
ATOM     20  C   UNL A   1      31.126  29.405  24.570  1.00  0.00     0.056 C 
ATOM     21  C   UNL A   1      29.743  27.605  23.550  1.00  0.00     0.056 C 
ENDBRANCH  17  18
ENDBRANCH  15  17
ENDBRANCH   9  15
ENDBRANCH   3   5
ENDBRANCH   2   3
ENDBRANCH   1   2
BRANCH   1  22
ATOM     22  C   UNL A   1      36.412  20.717  24.889  1.00  0.00     0.275 C 
BRANCH  22  23
ATOM     23  O   UNL A   1      37.156  21.723  25.594  1.00  0.00    -0.458 OA
BRANCH  23  24
ATOM     24  C   UNL A   1      38.455  21.416  25.809  1.00  0.00     0.338 C 
ATOM     25  O   UNL A   1      39.045  20.412  25.447  1.00  0.00    -0.246 OA
BRANCH  24  26
ATOM     26  C   UNL A   1      39.113  22.543  26.480  1.00  0.00     0.060 A 
ATOM     27  C   UNL A   1      38.710  23.840  26.158  1.00  0.00     0.016 A 
ATOM     28  C   UNL A   1      40.195  22.329  27.326  1.00  0.00     0.016 A 
ATOM     29  C   UNL A   1      39.422  24.938  26.618  1.00  0.00     0.010 A 
ATOM     30  C   UNL A   1      40.877  23.434  27.838  1.00  0.00     0.010 A 
ATOM     31  C   UNL A   1      40.510  24.743  27.465  1.00  0.00    -0.014 A 
BRANCH  31  32
ATOM     32  C   UNL A   1      41.313  25.892  27.934  1.00  0.00     0.031 A 
ATOM     33  C   UNL A   1      40.640  26.967  28.732  1.00  0.00     0.074 A 
ATOM     34  C   UNL A   1      42.609  25.994  27.591  1.00  0.00     0.049 A 
ATOM     35  N   UNL A   1      41.053  28.175  29.001  1.00  0.00    -0.248 NA
ATOM     36  C   UNL A   1      39.317  26.638  29.289  1.00  0.00     0.031 C 
ATOM     37  C   UNL A   1      43.381  24.975  26.879  1.00  0.00     0.029 A 
ATOM     38  N   UNL A   1      43.492  27.031  27.755  1.00  0.00    -0.354 N 
ATOM     39  C   UNL A   1      40.013  28.778  29.697  1.00  0.00     0.074 A 
ATOM     40  C   UNL A   1      38.959  27.796  29.826  1.00  0.00     0.031 C 
ATOM     41  C   UNL A   1      44.609  25.455  26.625  1.00  0.00     0.029 A 
ATOM     42  C   UNL A   1      44.681  26.835  27.094  1.00  0.00     0.049 A 
ATOM     43  H   UNL A   1      43.295  27.833  28.291  1.00  0.00     0.167 HD
ATOM     44  C   UNL A   1      39.950  30.042  30.176  1.00  0.00     0.034 A 
ATOM     45  C   UNL A   1      45.686  27.694  26.837  1.00  0.00     0.034 A 
ATOM     46  C   UNL A   1      41.029  30.987  30.066  1.00  0.00     0.049 A 
ATOM     47  C   UNL A   1      45.575  29.108  27.340  1.00  0.00     0.074 A 
ATOM     48  C   UNL A   1      41.083  32.287  30.534  1.00  0.00     0.029 A 
ATOM     49  N   UNL A   1      42.240  30.732  29.442  1.00  0.00    -0.354 N 
ATOM     50  N   UNL A   1      44.607  29.666  28.026  1.00  0.00    -0.248 NA
ATOM     51  C   UNL A   1      46.701  30.008  27.052  1.00  0.00     0.031 C 
ATOM     52  C   UNL A   1      42.319  32.828  30.167  1.00  0.00     0.029 A 
ATOM     53  C   UNL A   1      43.049  31.851  29.507  1.00  0.00     0.049 A 
ATOM     54  H   UNL A   1      42.487  29.880  29.015  1.00  0.00     0.167 HD
ATOM     55  C   UNL A   1      45.026  30.963  28.296  1.00  0.00     0.074 A 
ATOM     56  C   UNL A   1      46.339  31.109  27.699  1.00  0.00     0.031 C 
ATOM     57  C   UNL A   1      44.383  31.946  28.971  1.00  0.00     0.034 A 
BRANCH  44  58
ATOM     58  C   UNL A   1      38.678  30.477  30.849  1.00  0.00     0.023 A 
ATOM     59  C   UNL A   1      38.493  30.252  32.227  1.00  0.00     0.012 A 
ATOM     60  C   UNL A   1      37.680  31.155  30.119  1.00  0.00     0.148 A 
ATOM     61  C   UNL A   1      37.323  30.666  32.863  1.00  0.00     0.002 A 
ATOM     62  C   UNL A   1      36.538  31.606  30.768  1.00  0.00     0.091 A 
ATOM     63  F   UNL A   1      37.865  31.338  28.804  1.00  0.00    -0.205 F 
ATOM     64  C   UNL A   1      36.352  31.351  32.136  1.00  0.00     0.022 A 
BRANCH  62  65
ATOM     65  S   UNL A   1      35.270  32.568  29.937  1.00  0.00     0.127 S 
ATOM     66  O   UNL A   1      34.816  31.634  28.907  1.00  0.00    -0.237 OA
ATOM     67  O   UNL A   1      34.306  32.801  31.014  1.00  0.00    -0.237 OA
ATOM     68  O   UNL A   1      35.930  33.769  29.444  1.00  0.00    -0.744 OA
ENDBRANCH  62  65
ENDBRANCH  44  58
BRANCH  45  69
ATOM     69  C   UNL A   1      46.878  27.241  26.065  1.00  0.00     0.023 A 
ATOM     70  C   UNL A   1      47.806  26.378  26.676  1.00  0.00     0.012 A 
ATOM     71  C   UNL A   1      47.086  27.640  24.729  1.00  0.00     0.148 A 
ATOM     72  C   UNL A   1      48.938  25.945  25.983  1.00  0.00     0.002 A 
ATOM     73  C   UNL A   1      48.185  27.162  24.026  1.00  0.00     0.091 A 
ATOM     74  F   UNL A   1      46.196  28.472  24.168  1.00  0.00    -0.205 F 
ATOM     75  C   UNL A   1      49.122  26.329  24.657  1.00  0.00     0.022 A 
BRANCH  73  76
ATOM     76  S   UNL A   1      48.441  27.501  22.281  1.00  0.00     0.127 S 
ATOM     77  O   UNL A   1      47.201  28.186  21.924  1.00  0.00    -0.237 OA
ATOM     78  O   UNL A   1      49.629  28.356  22.311  1.00  0.00    -0.237 OA
ATOM     79  O   UNL A   1      48.649  26.204  21.652  1.00  0.00    -0.744 OA
ENDBRANCH  73  76
ENDBRANCH  45  69
BRANCH  57  80
ATOM     80  C   UNL A   1      45.109  33.247  29.185  1.00  0.00     0.023 A 
ATOM     81  C   UNL A   1      46.004  33.390  30.262  1.00  0.00     0.012 A 
ATOM     82  C   UNL A   1      44.990  34.283  28.237  1.00  0.00     0.148 A 
ATOM     83  C   UNL A   1      46.757  34.556  30.403  1.00  0.00     0.002 A 
ATOM     84  C   UNL A   1      45.780  35.418  28.354  1.00  0.00     0.091 A 
ATOM     85  F   UNL A   1      44.119  34.129  27.230  1.00  0.00    -0.205 F 
ATOM     86  C   UNL A   1      46.656  35.561  29.443  1.00  0.00     0.022 A 
BRANCH  84  87
ATOM     87  S   UNL A   1      45.798  36.714  27.111  1.00  0.00     0.127 S 
ATOM     88  O   UNL A   1      46.476  36.051  25.998  1.00  0.00    -0.237 OA
ATOM     89  O   UNL A   1      44.371  36.957  26.900  1.00  0.00    -0.237 OA
ATOM     90  O   UNL A   1      46.523  37.832  27.702  1.00  0.00    -0.744 OA
ENDBRANCH  84  87
ENDBRANCH  57  80
ENDBRANCH  31  32
ENDBRANCH  24  26
ENDBRANCH  23  24
ENDBRANCH  22  23
ENDBRANCH   1  22
TORSDOF 20
ENDMDL
MODEL 2
REMARK VINA RESULT:     -11.2      5.185     10.083
REMARK SMILES C[C@H](O)C[C@@]1(C(=O)OCCOC(=O)c2ccc(-c3c4nc(c(-c5cccc(S(=O)(=O)[O-])c5F)c5ccc([nH]5)c(-c5cccc(S(=O)(=O)[O-])c5F)c5nc(c(-c6cccc(S(=O)(=O)[O-])c6F)c6ccc3[nH]6)C=C5)C=C4)cc2)CCN(C(=O)OC(C)(C)C)C1
REMARK SMILES IDX 9 1 8 2 6 3 7 4 5 5 77 6 87 7 78 8 79 9 4 10 2 11 1 12 3 13
REMARK SMILES IDX 80 15 81 16 82 17 83 18 84 19 85 20 86 21 10 22 11 23 12 24
REMARK SMILES IDX 13 25 14 26 15 27 76 28 16 29 75 30 17 31 18 32 19 33 69 34
REMARK SMILES IDX 20 35 74 36 68 37 70 38 21 39 73 40 67 41 66 42 22 44 54 45
REMARK SMILES IDX 34 46 53 47 35 48 38 49 52 50 71 51 36 52 37 53 51 55 72 56
REMARK SMILES IDX 39 57 23 58 24 59 32 60 25 61 27 62 33 63 26 64 28 65 29 66
REMARK SMILES IDX 30 67 31 68 55 69 56 70 64 71 57 72 59 73 65 74 58 75 60 76
REMARK SMILES IDX 61 77 62 78 63 79 40 80 41 81 49 82 42 83 44 84 50 85 43 86
REMARK SMILES IDX 45 87 46 88 47 89 48 90
REMARK H PARENT 3 14 70 43 38 54
REMARK Flexibility Score: inf
ROOT
ATOM      1  C   UNL A   1      31.163  29.794  24.901  1.00  0.00     0.274 C 
ENDROOT
BRANCH   1   2
ATOM      2  O   UNL A   1      30.935  28.738  23.940  1.00  0.00    -0.462 OA
BRANCH   2   3
ATOM      3  C   UNL A   1      32.041  28.282  23.291  1.00  0.00     0.314 C 
ATOM      4  O   UNL A   1      32.825  29.025  22.712  1.00  0.00    -0.252 OA
BRANCH   3   5
ATOM      5  C   UNL A   1      32.182  26.750  23.303  1.00  0.00     0.090 C 
ATOM      6  C   UNL A   1      30.780  26.074  23.260  1.00  0.00     0.042 C 
ATOM      7  C   UNL A   1      32.778  26.217  24.612  1.00  0.00     0.142 C 
ATOM      8  C   UNL A   1      30.439  25.762  24.717  1.00  0.00     0.124 C 
ATOM      9  N   UNL A   1      31.727  25.513  25.308  1.00  0.00    -0.307 N 
BRANCH   5  10
ATOM     10  C   UNL A   1      33.017  26.329  22.042  1.00  0.00     0.052 C 
BRANCH  10  11
ATOM     11  C   UNL A   1      32.607  25.017  21.329  1.00  0.00     0.112 C 
ATOM     12  C   UNL A   1      33.294  23.794  21.927  1.00  0.00     0.038 C 
BRANCH  11  13
ATOM     13  O   UNL A   1      32.935  25.073  19.947  1.00  0.00    -0.393 OA
ATOM     14  H   UNL A   1      32.128  24.968  19.419  1.00  0.00     0.210 HD
ENDBRANCH  11  13
ENDBRANCH  10  11
ENDBRANCH   5  10
BRANCH   9  15
ATOM     15  C   UNL A   1      32.037  24.749  26.409  1.00  0.00     0.410 C 
ATOM     16  O   UNL A   1      31.209  24.443  27.252  1.00  0.00    -0.224 OA
BRANCH  15  17
ATOM     17  O   UNL A   1      33.358  24.431  26.477  1.00  0.00    -0.444 OA
BRANCH  17  18
ATOM     18  C   UNL A   1      33.760  23.059  26.212  1.00  0.00     0.106 C 
ATOM     19  C   UNL A   1      34.017  22.290  27.518  1.00  0.00     0.056 C 
ATOM     20  C   UNL A   1      32.755  22.327  25.310  1.00  0.00     0.056 C 
ATOM     21  C   UNL A   1      35.091  23.174  25.455  1.00  0.00     0.056 C 
ENDBRANCH  17  18
ENDBRANCH  15  17
ENDBRANCH   9  15
ENDBRANCH   3   5
ENDBRANCH   2   3
ENDBRANCH   1   2
BRANCH   1  22
ATOM     22  C   UNL A   1      32.558  29.717  25.519  1.00  0.00     0.275 C 
BRANCH  22  23
ATOM     23  O   UNL A   1      32.531  30.113  26.899  1.00  0.00    -0.458 OA
BRANCH  23  24
ATOM     24  C   UNL A   1      33.136  31.294  27.159  1.00  0.00     0.338 C 
ATOM     25  O   UNL A   1      32.641  32.406  27.090  1.00  0.00    -0.246 OA
BRANCH  24  26
ATOM     26  C   UNL A   1      34.496  31.043  27.649  1.00  0.00     0.060 A 
ATOM     27  C   UNL A   1      34.822  29.759  28.086  1.00  0.00     0.016 A 
ATOM     28  C   UNL A   1      35.402  32.088  27.788  1.00  0.00     0.016 A 
ATOM     29  C   UNL A   1      36.026  29.514  28.731  1.00  0.00     0.010 A 
ATOM     30  C   UNL A   1      36.639  31.831  28.381  1.00  0.00     0.010 A 
ATOM     31  C   UNL A   1      36.946  30.549  28.880  1.00  0.00    -0.014 A 
BRANCH  31  32
ATOM     32  C   UNL A   1      38.217  30.326  29.601  1.00  0.00     0.031 A 
ATOM     33  C   UNL A   1      39.228  29.390  29.013  1.00  0.00     0.074 A 
ATOM     34  C   UNL A   1      38.426  30.910  30.795  1.00  0.00     0.049 A 
ATOM     35  N   UNL A   1      40.260  28.829  29.581  1.00  0.00    -0.248 NA
ATOM     36  C   UNL A   1      39.039  29.027  27.598  1.00  0.00     0.031 C 
ATOM     37  C   UNL A   1      37.544  31.892  31.426  1.00  0.00     0.029 A 
ATOM     38  N   UNL A   1      39.428  30.720  31.712  1.00  0.00    -0.354 N 
ATOM     39  C   UNL A   1      40.805  27.990  28.617  1.00  0.00     0.074 A 
ATOM     40  C   UNL A   1      40.001  28.131  27.423  1.00  0.00     0.031 C 
ATOM     41  C   UNL A   1      38.018  32.184  32.647  1.00  0.00     0.029 A 
ATOM     42  C   UNL A   1      39.192  31.358  32.907  1.00  0.00     0.049 A 
ATOM     43  H   UNL A   1      40.234  30.182  31.533  1.00  0.00     0.167 HD
ATOM     44  C   UNL A   1      41.877  27.172  28.731  1.00  0.00     0.034 A 
ATOM     45  C   UNL A   1      39.813  31.236  34.095  1.00  0.00     0.034 A 
ATOM     46  C   UNL A   1      42.682  27.078  29.919  1.00  0.00     0.049 A 
ATOM     47  C   UNL A   1      40.975  30.287  34.211  1.00  0.00     0.074 A 
ATOM     48  C   UNL A   1      43.804  26.300  30.138  1.00  0.00     0.029 A 
ATOM     49  N   UNL A   1      42.446  27.784  31.089  1.00  0.00    -0.354 N 
ATOM     50  N   UNL A   1      41.510  29.521  33.290  1.00  0.00    -0.248 NA
ATOM     51  C   UNL A   1      41.635  30.197  35.521  1.00  0.00     0.031 C 
ATOM     52  C   UNL A   1      44.230  26.516  31.452  1.00  0.00     0.029 A 
ATOM     53  C   UNL A   1      43.398  27.459  32.037  1.00  0.00     0.049 A 
ATOM     54  H   UNL A   1      41.710  28.424  31.224  1.00  0.00     0.167 HD
ATOM     55  C   UNL A   1      42.596  28.898  33.893  1.00  0.00     0.074 A 
ATOM     56  C   UNL A   1      42.645  29.378  35.260  1.00  0.00     0.031 C 
ATOM     57  C   UNL A   1      43.470  28.007  33.367  1.00  0.00     0.034 A 
BRANCH  44  58
ATOM     58  C   UNL A   1      42.234  26.313  27.550  1.00  0.00     0.023 A 
ATOM     59  C   UNL A   1      42.968  26.854  26.475  1.00  0.00     0.012 A 
ATOM     60  C   UNL A   1      41.882  24.948  27.528  1.00  0.00     0.148 A 
ATOM     61  C   UNL A   1      43.317  26.060  25.383  1.00  0.00     0.002 A 
ATOM     62  C   UNL A   1      42.273  24.152  26.459  1.00  0.00     0.091 A 
ATOM     63  F   UNL A   1      41.163  24.457  28.549  1.00  0.00    -0.205 F 
ATOM     64  C   UNL A   1      42.979  24.709  25.381  1.00  0.00     0.022 A 
BRANCH  62  65
ATOM     65  S   UNL A   1      41.956  22.385  26.402  1.00  0.00     0.127 S 
ATOM     66  O   UNL A   1      40.497  22.347  26.328  1.00  0.00    -0.237 OA
ATOM     67  O   UNL A   1      42.639  21.990  25.169  1.00  0.00    -0.237 OA
ATOM     68  O   UNL A   1      42.534  21.831  27.619  1.00  0.00    -0.744 OA
ENDBRANCH  62  65
ENDBRANCH  44  58
BRANCH  45  69
ATOM     69  C   UNL A   1      39.346  32.030  35.267  1.00  0.00     0.023 A 
ATOM     70  C   UNL A   1      38.443  31.449  36.178  1.00  0.00     0.012 A 
ATOM     71  C   UNL A   1      39.804  33.344  35.497  1.00  0.00     0.148 A 
ATOM     72  C   UNL A   1      37.979  32.171  37.278  1.00  0.00     0.002 A 
ATOM     73  C   UNL A   1      39.382  34.037  36.624  1.00  0.00     0.091 A 
ATOM     74  F   UNL A   1      40.655  33.883  34.612  1.00  0.00    -0.205 F 
ATOM     75  C   UNL A   1      38.455  33.460  37.506  1.00  0.00     0.022 A 
BRANCH  73  76
ATOM     76  S   UNL A   1      40.033  35.652  37.068  1.00  0.00     0.127 S 
ATOM     77  O   UNL A   1      39.657  36.455  35.907  1.00  0.00    -0.237 OA
ATOM     78  O   UNL A   1      39.287  35.952  38.291  1.00  0.00    -0.237 OA
ATOM     79  O   UNL A   1      41.463  35.461  37.267  1.00  0.00    -0.744 OA
ENDBRANCH  73  76
ENDBRANCH  45  69
BRANCH  57  80
ATOM     80  C   UNL A   1      44.613  27.546  34.230  1.00  0.00     0.023 A 
ATOM     81  C   UNL A   1      45.785  28.320  34.328  1.00  0.00     0.012 A 
ATOM     82  C   UNL A   1      44.466  26.401  35.039  1.00  0.00     0.148 A 
ATOM     83  C   UNL A   1      46.802  27.950  35.207  1.00  0.00     0.002 A 
ATOM     84  C   UNL A   1      45.459  26.068  35.949  1.00  0.00     0.091 A 
ATOM     85  F   UNL A   1      43.348  25.672  34.914  1.00  0.00    -0.205 F 
ATOM     86  C   UNL A   1      46.634  26.835  36.026  1.00  0.00     0.022 A 
BRANCH  84  87
ATOM     87  S   UNL A   1      45.284  24.716  37.117  1.00  0.00     0.127 S 
ATOM     88  O   UNL A   1      44.818  23.633  36.252  1.00  0.00    -0.237 OA
ATOM     89  O   UNL A   1      46.651  24.557  37.612  1.00  0.00    -0.237 OA
ATOM     90  O   UNL A   1      44.325  25.166  38.118  1.00  0.00    -0.744 OA
ENDBRANCH  84  87
ENDBRANCH  57  80
ENDBRANCH  31  32
ENDBRANCH  24  26
ENDBRANCH  23  24
ENDBRANCH  22  23
ENDBRANCH   1  22
TORSDOF 20
ENDMDL
MODEL 3
REMARK VINA RESULT:     -11.2      5.284     10.275
REMARK SMILES C[C@H](O)C[C@@]1(C(=O)OCCOC(=O)c2ccc(-c3c4nc(c(-c5cccc(S(=O)(=O)[O-])c5F)c5ccc([nH]5)c(-c5cccc(S(=O)(=O)[O-])c5F)c5nc(c(-c6cccc(S(=O)(=O)[O-])c6F)c6ccc3[nH]6)C=C5)C=C4)cc2)CCN(C(=O)OC(C)(C)C)C1
REMARK SMILES IDX 9 1 8 2 6 3 7 4 5 5 77 6 87 7 78 8 79 9 4 10 2 11 1 12 3 13
REMARK SMILES IDX 80 15 81 16 82 17 83 18 84 19 85 20 86 21 10 22 11 23 12 24
REMARK SMILES IDX 13 25 14 26 15 27 76 28 16 29 75 30 17 31 18 32 19 33 69 34
REMARK SMILES IDX 20 35 74 36 68 37 70 38 21 39 73 40 67 41 66 42 22 44 54 45
REMARK SMILES IDX 34 46 53 47 35 48 38 49 52 50 71 51 36 52 37 53 51 55 72 56
REMARK SMILES IDX 39 57 23 58 24 59 32 60 25 61 27 62 33 63 26 64 28 65 29 66
REMARK SMILES IDX 30 67 31 68 55 69 56 70 64 71 57 72 59 73 65 74 58 75 60 76
REMARK SMILES IDX 61 77 62 78 63 79 40 80 41 81 49 82 42 83 44 84 50 85 43 86
REMARK SMILES IDX 45 87 46 88 47 89 48 90
REMARK H PARENT 3 14 70 43 38 54
REMARK Flexibility Score: inf
ROOT
ATOM      1  C   UNL A   1      31.631  30.074  25.531  1.00  0.00     0.274 C 
ENDROOT
BRANCH   1   2
ATOM      2  O   UNL A   1      31.448  28.650  25.705  1.00  0.00    -0.462 OA
BRANCH   2   3
ATOM      3  C   UNL A   1      32.032  27.860  24.763  1.00  0.00     0.314 C 
ATOM      4  O   UNL A   1      32.765  28.303  23.886  1.00  0.00    -0.252 OA
BRANCH   3   5
ATOM      5  C   UNL A   1      31.641  26.375  24.868  1.00  0.00     0.090 C 
ATOM      6  C   UNL A   1      32.325  25.718  26.102  1.00  0.00     0.042 C 
ATOM      7  C   UNL A   1      32.171  25.536  23.696  1.00  0.00     0.142 C 
ATOM      8  C   UNL A   1      33.585  25.047  25.554  1.00  0.00     0.124 C 
ATOM      9  N   UNL A   1      33.201  24.670  24.220  1.00  0.00    -0.307 N 
BRANCH   5  10
ATOM     10  C   UNL A   1      30.081  26.292  25.013  1.00  0.00     0.052 C 
BRANCH  10  11
ATOM     11  C   UNL A   1      29.242  26.418  23.718  1.00  0.00     0.112 C 
ATOM     12  C   UNL A   1      29.141  27.860  23.232  1.00  0.00     0.038 C 
BRANCH  11  13
ATOM     13  O   UNL A   1      27.923  25.931  23.924  1.00  0.00    -0.393 OA
ATOM     14  H   UNL A   1      27.461  25.879  23.073  1.00  0.00     0.210 HD
ENDBRANCH  11  13
ENDBRANCH  10  11
ENDBRANCH   5  10
BRANCH   9  15
ATOM     15  C   UNL A   1      33.698  23.657  23.433  1.00  0.00     0.410 C 
ATOM     16  O   UNL A   1      33.952  23.810  22.249  1.00  0.00    -0.224 OA
BRANCH  15  17
ATOM     17  O   UNL A   1      33.815  22.478  24.099  1.00  0.00    -0.444 OA
BRANCH  17  18
ATOM     18  C   UNL A   1      32.694  21.551  24.080  1.00  0.00     0.106 C 
ATOM     19  C   UNL A   1      31.672  21.887  25.178  1.00  0.00     0.056 C 
ATOM     20  C   UNL A   1      32.036  21.472  22.696  1.00  0.00     0.056 C 
ATOM     21  C   UNL A   1      33.308  20.181  24.401  1.00  0.00     0.056 C 
ENDBRANCH  17  18
ENDBRANCH  15  17
ENDBRANCH   9  15
ENDBRANCH   3   5
ENDBRANCH   2   3
ENDBRANCH   1   2
BRANCH   1  22
ATOM     22  C   UNL A   1      32.143  30.746  26.804  1.00  0.00     0.275 C 
BRANCH  22  23
ATOM     23  O   UNL A   1      33.533  31.089  26.681  1.00  0.00    -0.458 OA
BRANCH  23  24
ATOM     24  C   UNL A   1      33.978  31.974  27.601  1.00  0.00     0.338 C 
ATOM     25  O   UNL A   1      33.367  32.919  28.070  1.00  0.00    -0.246 OA
BRANCH  24  26
ATOM     26  C   UNL A   1      35.316  31.573  28.050  1.00  0.00     0.060 A 
ATOM     27  C   UNL A   1      35.514  30.256  28.465  1.00  0.00     0.016 A 
ATOM     28  C   UNL A   1      36.333  32.512  28.172  1.00  0.00     0.016 A 
ATOM     29  C   UNL A   1      36.701  29.874  29.072  1.00  0.00     0.010 A 
ATOM     30  C   UNL A   1      37.550  32.117  28.728  1.00  0.00     0.010 A 
ATOM     31  C   UNL A   1      37.731  30.803  29.206  1.00  0.00    -0.014 A 
BRANCH  31  32
ATOM     32  C   UNL A   1      38.990  30.436  29.888  1.00  0.00     0.031 A 
ATOM     33  C   UNL A   1      39.879  29.407  29.261  1.00  0.00     0.074 A 
ATOM     34  C   UNL A   1      39.292  30.976  31.082  1.00  0.00     0.049 A 
ATOM     35  N   UNL A   1      40.861  28.731  29.792  1.00  0.00    -0.248 NA
ATOM     36  C   UNL A   1      39.616  29.087  27.847  1.00  0.00     0.031 C 
ATOM     37  C   UNL A   1      38.535  32.036  31.750  1.00  0.00     0.029 A 
ATOM     38  N   UNL A   1      40.292  30.667  31.969  1.00  0.00    -0.354 N 
ATOM     39  C   UNL A   1      41.288  27.854  28.804  1.00  0.00     0.074 A 
ATOM     40  C   UNL A   1      40.472  28.098  27.634  1.00  0.00     0.031 C 
ATOM     41  C   UNL A   1      39.070  32.258  32.961  1.00  0.00     0.029 A 
ATOM     42  C   UNL A   1      40.157  31.309  33.177  1.00  0.00     0.049 A 
ATOM     43  H   UNL A   1      41.031  30.050  31.761  1.00  0.00     0.167 HD
ATOM     44  C   UNL A   1      42.269  26.926  28.877  1.00  0.00     0.034 A 
ATOM     45  C   UNL A   1      40.792  31.104  34.347  1.00  0.00     0.034 A 
ATOM     46  C   UNL A   1      43.091  26.729  30.041  1.00  0.00     0.049 A 
ATOM     47  C   UNL A   1      41.850  30.036  34.418  1.00  0.00     0.074 A 
ATOM     48  C   UNL A   1      44.129  25.834  30.219  1.00  0.00     0.029 A 
ATOM     49  N   UNL A   1      42.963  27.439  31.226  1.00  0.00    -0.354 N 
ATOM     50  N   UNL A   1      42.275  29.231  33.474  1.00  0.00    -0.248 NA
ATOM     51  C   UNL A   1      42.530  29.857  35.708  1.00  0.00     0.031 C 
ATOM     52  C   UNL A   1      44.611  25.983  31.523  1.00  0.00     0.029 A 
ATOM     53  C   UNL A   1      43.900  27.000  32.143  1.00  0.00     0.049 A 
ATOM     54  H   UNL A   1      42.302  28.150  31.389  1.00  0.00     0.167 HD
ATOM     55  C   UNL A   1      43.304  28.488  34.038  1.00  0.00     0.074 A 
ATOM     56  C   UNL A   1      43.440  28.939  35.409  1.00  0.00     0.031 C 
ATOM     57  C   UNL A   1      44.065  27.517  33.477  1.00  0.00     0.034 A 
BRANCH  44  58
ATOM     58  C   UNL A   1      42.502  26.051  27.676  1.00  0.00     0.023 A 
ATOM     59  C   UNL A   1      43.291  26.514  26.605  1.00  0.00     0.012 A 
ATOM     60  C   UNL A   1      41.974  24.744  27.633  1.00  0.00     0.148 A 
ATOM     61  C   UNL A   1      43.525  25.703  25.494  1.00  0.00     0.002 A 
ATOM     62  C   UNL A   1      42.250  23.926  26.545  1.00  0.00     0.091 A 
ATOM     63  F   UNL A   1      41.206  24.331  28.651  1.00  0.00    -0.205 F 
ATOM     64  C   UNL A   1      43.014  24.408  25.469  1.00  0.00     0.022 A 
BRANCH  62  65
ATOM     65  S   UNL A   1      41.705  22.217  26.458  1.00  0.00     0.127 S 
ATOM     66  O   UNL A   1      42.429  21.733  25.283  1.00  0.00    -0.237 OA
ATOM     67  O   UNL A   1      42.182  21.677  27.732  1.00  0.00    -0.237 OA
ATOM     68  O   UNL A   1      40.255  22.261  26.323  1.00  0.00    -0.744 OA
ENDBRANCH  62  65
ENDBRANCH  44  58
BRANCH  45  69
ATOM     69  C   UNL A   1      40.443  31.925  35.541  1.00  0.00     0.023 A 
ATOM     70  C   UNL A   1      41.286  32.988  35.916  1.00  0.00     0.012 A 
ATOM     71  C   UNL A   1      39.276  31.676  36.291  1.00  0.00     0.148 A 
ATOM     72  C   UNL A   1      40.992  33.768  37.035  1.00  0.00     0.002 A 
ATOM     73  C   UNL A   1      38.959  32.490  37.371  1.00  0.00     0.091 A 
ATOM     74  F   UNL A   1      38.491  30.652  35.924  1.00  0.00    -0.205 F 
ATOM     75  C   UNL A   1      39.825  33.525  37.756  1.00  0.00     0.022 A 
BRANCH  73  76
ATOM     76  S   UNL A   1      37.420  32.334  38.283  1.00  0.00     0.127 S 
ATOM     77  O   UNL A   1      37.729  33.051  39.517  1.00  0.00    -0.237 OA
ATOM     78  O   UNL A   1      36.474  33.014  37.397  1.00  0.00    -0.237 OA
ATOM     79  O   UNL A   1      37.188  30.903  38.426  1.00  0.00    -0.744 OA
ENDBRANCH  73  76
ENDBRANCH  45  69
BRANCH  57  80
ATOM     80  C   UNL A   1      45.175  26.925  34.302  1.00  0.00     0.023 A 
ATOM     81  C   UNL A   1      46.437  27.548  34.345  1.00  0.00     0.012 A 
ATOM     82  C   UNL A   1      44.918  25.814  35.131  1.00  0.00     0.148 A 
ATOM     83  C   UNL A   1      47.434  27.061  35.190  1.00  0.00     0.002 A 
ATOM     84  C   UNL A   1      45.898  25.368  36.007  1.00  0.00     0.091 A 
ATOM     85  F   UNL A   1      43.714  25.229  35.058  1.00  0.00    -0.205 F 
ATOM     86  C   UNL A   1      47.161  25.983  36.030  1.00  0.00     0.022 A 
BRANCH  84  87
ATOM     87  S   UNL A   1      45.603  24.057  37.199  1.00  0.00     0.127 S 
ATOM     88  O   UNL A   1      46.910  23.939  37.842  1.00  0.00    -0.237 OA
ATOM     89  O   UNL A   1      44.558  24.637  38.042  1.00  0.00    -0.237 OA
ATOM     90  O   UNL A   1      45.183  22.894  36.427  1.00  0.00    -0.744 OA
ENDBRANCH  84  87
ENDBRANCH  57  80
ENDBRANCH  31  32
ENDBRANCH  24  26
ENDBRANCH  23  24
ENDBRANCH  22  23
ENDBRANCH   1  22
TORSDOF 20
ENDMDL
