MODEL 1
REMARK VINA RESULT:     -12.9      0.000      0.000
REMARK SMILES COC(=O)c1ccc([C@H]2CC(=O)Nc3c(C(=O)OCCOC(=O)c4ccc(-c5c6nc(c(-c7cccc(S(=O)(=O)[O-])c7F)c7ccc([nH]7)c(-c7cccc(S(=O)(=O)[O-])c7F)c7nc(c(-c8cccc(S(=O)(=O)[O-])c8F)c8ccc5[nH]8)C=C7)C=C6)cc4)cn(-c4ccccc4)c32)cc1
REMARK SMILES IDX 19 1 18 2 16 3 17 4 15 5 9 6 10 7 95 8 11 9 14 10 88 11
REMARK SMILES IDX 12 12 13 13 87 14 8 16 5 17 6 18 97 19 7 20 96 21 3 22 4 23
REMARK SMILES IDX 2 24 1 25 89 26 90 27 94 28 91 29 93 30 92 31 20 32 21 33
REMARK SMILES IDX 22 34 23 35 24 36 25 37 86 38 26 39 85 40 27 41 28 42 29 43
REMARK SMILES IDX 79 44 30 45 84 46 78 47 80 48 31 49 83 50 77 51 76 52 32 54
REMARK SMILES IDX 64 55 44 56 63 57 45 58 48 59 62 60 81 61 46 62 47 63 61 65
REMARK SMILES IDX 82 66 49 67 33 68 34 69 42 70 35 71 37 72 43 73 36 74 38 75
REMARK SMILES IDX 39 76 40 77 41 78 65 79 66 80 74 81 67 82 69 83 75 84 68 85
REMARK SMILES IDX 70 86 71 87 72 88 73 89 50 90 51 91 59 92 52 93 54 94 60 95
REMARK SMILES IDX 53 96 55 97 56 98 57 99 58 100
REMARK H PARENT 13 15 80 53 48 64
REMARK Flexibility Score: inf
ROOT
ATOM      1  C   UNL A   1      36.390  20.819  25.237  1.00  0.00     0.275 C 
ENDROOT
BRANCH   1   2
ATOM      2  O   UNL A   1      36.187  21.885  24.293  1.00  0.00    -0.458 OA
BRANCH   2   3
ATOM      3  C   UNL A   1      36.345  23.157  24.776  1.00  0.00     0.341 C 
ATOM      4  O   UNL A   1      37.421  23.641  25.116  1.00  0.00    -0.246 OA
BRANCH   3   5
ATOM      5  C   UNL A   1      35.094  23.902  24.796  1.00  0.00     0.102 A 
ATOM      6  C   UNL A   1      31.485  24.498  24.101  1.00  0.00     0.078 C 
ATOM      7  C   UNL A   1      31.282  23.361  23.080  1.00  0.00     0.115 C 
ATOM      8  C   UNL A   1      32.930  24.552  24.527  1.00  0.00     0.055 A 
ATOM      9  C   UNL A   1      32.155  22.136  23.284  1.00  0.00     0.225 C 
ATOM     10  C   UNL A   1      33.823  23.527  24.311  1.00  0.00     0.078 A 
ATOM     11  N   UNL A   1      33.603  25.546  25.221  1.00  0.00    -0.317 N 
ATOM     12  O   UNL A   1      31.779  21.012  22.949  1.00  0.00    -0.275 OA
ATOM     13  N   UNL A   1      33.424  22.341  23.746  1.00  0.00    -0.324 N 
ATOM     14  C   UNL A   1      34.938  25.194  25.278  1.00  0.00     0.109 A 
ATOM     15  H   UNL A   1      34.078  21.610  23.671  1.00  0.00     0.170 HD
BRANCH   6  16
ATOM     16  C   UNL A   1      30.860  25.770  23.526  1.00  0.00    -0.038 A 
ATOM     17  C   UNL A   1      29.713  28.212  22.674  1.00  0.00     0.060 A 
ATOM     18  C   UNL A   1      29.079  27.437  23.651  1.00  0.00     0.016 A 
ATOM     19  C   UNL A   1      30.881  27.732  22.075  1.00  0.00     0.016 A 
ATOM     20  C   UNL A   1      29.651  26.234  24.075  1.00  0.00     0.005 A 
ATOM     21  C   UNL A   1      31.423  26.502  22.469  1.00  0.00     0.005 A 
BRANCH  17  22
ATOM     22  C   UNL A   1      29.123  29.533  22.329  1.00  0.00     0.337 C 
ATOM     23  O   UNL A   1      29.344  30.115  21.278  1.00  0.00    -0.246 OA
BRANCH  22  24
ATOM     24  O   UNL A   1      28.340  29.980  23.341  1.00  0.00    -0.465 OA
ATOM     25  C   UNL A   1      27.749  31.259  23.113  1.00  0.00     0.282 C 
ENDBRANCH  22  24
ENDBRANCH  17  22
ENDBRANCH   6  16
BRANCH  11  26
ATOM     26  C   UNL A   1      33.062  26.728  25.779  1.00  0.00     0.045 A 
ATOM     27  C   UNL A   1      32.138  26.638  26.825  1.00  0.00     0.026 A 
ATOM     28  C   UNL A   1      33.386  27.968  25.217  1.00  0.00     0.026 A 
ATOM     29  C   UNL A   1      31.500  27.790  27.281  1.00  0.00     0.002 A 
ATOM     30  C   UNL A   1      32.709  29.110  25.653  1.00  0.00     0.002 A 
ATOM     31  C   UNL A   1      31.767  29.020  26.679  1.00  0.00     0.000 A 
ENDBRANCH  11  26
ENDBRANCH   3   5
ENDBRANCH   2   3
ENDBRANCH   1   2
BRANCH   1  32
ATOM     32  C   UNL A   1      37.671  20.046  24.949  1.00  0.00     0.275 C 
BRANCH  32  33
ATOM     33  O   UNL A   1      38.824  20.834  25.228  1.00  0.00    -0.458 OA
BRANCH  33  34
ATOM     34  C   UNL A   1      39.900  20.136  25.656  1.00  0.00     0.338 C 
ATOM     35  O   UNL A   1      40.050  18.926  25.630  1.00  0.00    -0.246 OA
BRANCH  34  36
ATOM     36  C   UNL A   1      40.802  21.039  26.370  1.00  0.00     0.060 A 
ATOM     37  C   UNL A   1      40.771  21.013  27.767  1.00  0.00     0.016 A 
ATOM     38  C   UNL A   1      41.429  22.069  25.655  1.00  0.00     0.016 A 
ATOM     39  C   UNL A   1      41.238  22.114  28.451  1.00  0.00     0.010 A 
ATOM     40  C   UNL A   1      41.874  23.173  26.336  1.00  0.00     0.010 A 
ATOM     41  C   UNL A   1      41.710  23.208  27.718  1.00  0.00    -0.014 A 
BRANCH  41  42
ATOM     42  C   UNL A   1      42.171  24.374  28.441  1.00  0.00     0.031 A 
ATOM     43  C   UNL A   1      41.283  25.542  28.244  1.00  0.00     0.074 A 
ATOM     44  C   UNL A   1      43.205  24.312  29.302  1.00  0.00     0.049 A 
ATOM     45  N   UNL A   1      41.563  26.650  27.642  1.00  0.00    -0.248 NA
ATOM     46  C   UNL A   1      39.854  25.384  28.573  1.00  0.00     0.031 C 
ATOM     47  C   UNL A   1      43.918  23.114  29.758  1.00  0.00     0.029 A 
ATOM     48  N   UNL A   1      43.731  25.296  30.079  1.00  0.00    -0.354 N 
ATOM     49  C   UNL A   1      40.412  27.425  27.757  1.00  0.00     0.074 A 
ATOM     50  C   UNL A   1      39.348  26.525  28.108  1.00  0.00     0.031 C 
ATOM     51  C   UNL A   1      44.573  23.403  30.905  1.00  0.00     0.029 A 
ATOM     52  C   UNL A   1      44.420  24.818  31.192  1.00  0.00     0.049 A 
ATOM     53  H   UNL A   1      43.636  26.253  29.875  1.00  0.00     0.167 HD
ATOM     54  C   UNL A   1      40.489  28.778  27.852  1.00  0.00     0.034 A 
ATOM     55  C   UNL A   1      44.728  25.524  32.310  1.00  0.00     0.034 A 
ATOM     56  C   UNL A   1      41.780  29.259  27.433  1.00  0.00     0.049 A 
ATOM     57  C   UNL A   1      44.621  26.963  31.968  1.00  0.00     0.074 A 
ATOM     58  C   UNL A   1      42.524  29.173  26.272  1.00  0.00     0.029 A 
ATOM     59  N   UNL A   1      42.662  29.603  28.429  1.00  0.00    -0.354 N 
ATOM     60  N   UNL A   1      45.423  27.565  31.136  1.00  0.00    -0.248 NA
ATOM     61  C   UNL A   1      43.346  27.623  32.201  1.00  0.00     0.031 C 
ATOM     62  C   UNL A   1      43.870  29.014  26.711  1.00  0.00     0.029 A 
ATOM     63  C   UNL A   1      43.884  29.083  28.105  1.00  0.00     0.049 A 
ATOM     64  H   UNL A   1      42.450  30.130  29.233  1.00  0.00     0.167 HD
ATOM     65  C   UNL A   1      44.584  28.387  30.393  1.00  0.00     0.074 A 
ATOM     66  C   UNL A   1      43.344  28.464  31.163  1.00  0.00     0.031 C 
ATOM     67  C   UNL A   1      44.862  28.670  29.087  1.00  0.00     0.034 A 
BRANCH  54  68
ATOM     68  C   UNL A   1      39.573  29.629  28.703  1.00  0.00     0.023 A 
ATOM     69  C   UNL A   1      39.896  29.740  30.073  1.00  0.00     0.012 A 
ATOM     70  C   UNL A   1      38.288  30.073  28.310  1.00  0.00     0.148 A 
ATOM     71  C   UNL A   1      38.969  30.205  31.010  1.00  0.00     0.002 A 
ATOM     72  C   UNL A   1      37.400  30.611  29.231  1.00  0.00     0.091 A 
ATOM     73  F   UNL A   1      37.850  29.857  27.068  1.00  0.00    -0.205 F 
ATOM     74  C   UNL A   1      37.720  30.647  30.588  1.00  0.00     0.022 A 
BRANCH  72  75
ATOM     75  S   UNL A   1      35.790  31.239  28.733  1.00  0.00     0.127 S 
ATOM     76  O   UNL A   1      35.234  31.663  30.014  1.00  0.00    -0.237 OA
ATOM     77  O   UNL A   1      36.165  32.326  27.828  1.00  0.00    -0.237 OA
ATOM     78  O   UNL A   1      35.116  30.124  28.081  1.00  0.00    -0.744 OA
ENDBRANCH  72  75
ENDBRANCH  54  68
BRANCH  55  79
ATOM     79  C   UNL A   1      44.792  25.073  33.723  1.00  0.00     0.023 A 
ATOM     80  C   UNL A   1      43.600  24.929  34.463  1.00  0.00     0.012 A 
ATOM     81  C   UNL A   1      45.972  24.506  34.253  1.00  0.00     0.148 A 
ATOM     82  C   UNL A   1      43.576  24.215  35.667  1.00  0.00     0.002 A 
ATOM     83  C   UNL A   1      45.946  23.805  35.455  1.00  0.00     0.091 A 
ATOM     84  F   UNL A   1      47.099  24.567  33.534  1.00  0.00    -0.205 F 
ATOM     85  C   UNL A   1      44.747  23.645  36.160  1.00  0.00     0.022 A 
BRANCH  83  86
ATOM     86  S   UNL A   1      47.416  23.017  36.131  1.00  0.00     0.127 S 
ATOM     87  O   UNL A   1      48.288  24.166  36.381  1.00  0.00    -0.237 OA
ATOM     88  O   UNL A   1      46.889  22.373  37.330  1.00  0.00    -0.237 OA
ATOM     89  O   UNL A   1      47.898  22.118  35.090  1.00  0.00    -0.744 OA
ENDBRANCH  83  86
ENDBRANCH  55  79
BRANCH  67  90
ATOM     90  C   UNL A   1      46.226  28.311  28.557  1.00  0.00     0.023 A 
ATOM     91  C   UNL A   1      47.370  29.105  28.780  1.00  0.00     0.012 A 
ATOM     92  C   UNL A   1      46.379  27.050  27.958  1.00  0.00     0.148 A 
ATOM     93  C   UNL A   1      48.637  28.658  28.391  1.00  0.00     0.002 A 
ATOM     94  C   UNL A   1      47.643  26.589  27.619  1.00  0.00     0.091 A 
ATOM     95  F   UNL A   1      45.280  26.309  27.753  1.00  0.00    -0.205 F 
ATOM     96  C   UNL A   1      48.775  27.394  27.822  1.00  0.00     0.022 A 
BRANCH  94  97
ATOM     97  S   UNL A   1      47.886  24.922  27.006  1.00  0.00     0.127 S 
ATOM     98  O   UNL A   1      47.657  25.087  25.572  1.00  0.00    -0.237 OA
ATOM     99  O   UNL A   1      49.275  24.648  27.377  1.00  0.00    -0.237 OA
ATOM    100  O   UNL A   1      46.913  24.094  27.708  1.00  0.00    -0.744 OA
ENDBRANCH  94  97
ENDBRANCH  67  90
ENDBRANCH  41  42
ENDBRANCH  34  36
ENDBRANCH  33  34
ENDBRANCH  32  33
ENDBRANCH   1  32
TORSDOF 18
ENDMDL
MODEL 2
REMARK VINA RESULT:     -12.6      4.494      9.862
REMARK SMILES COC(=O)c1ccc([C@H]2CC(=O)Nc3c(C(=O)OCCOC(=O)c4ccc(-c5c6nc(c(-c7cccc(S(=O)(=O)[O-])c7F)c7ccc([nH]7)c(-c7cccc(S(=O)(=O)[O-])c7F)c7nc(c(-c8cccc(S(=O)(=O)[O-])c8F)c8ccc5[nH]8)C=C7)C=C6)cc4)cn(-c4ccccc4)c32)cc1
REMARK SMILES IDX 19 1 18 2 16 3 17 4 15 5 9 6 10 7 95 8 11 9 14 10 88 11
REMARK SMILES IDX 12 12 13 13 87 14 8 16 5 17 6 18 97 19 7 20 96 21 3 22 4 23
REMARK SMILES IDX 2 24 1 25 89 26 90 27 94 28 91 29 93 30 92 31 20 32 21 33
REMARK SMILES IDX 22 34 23 35 24 36 25 37 86 38 26 39 85 40 27 41 28 42 29 43
REMARK SMILES IDX 79 44 30 45 84 46 78 47 80 48 31 49 83 50 77 51 76 52 32 54
REMARK SMILES IDX 64 55 44 56 63 57 45 58 48 59 62 60 81 61 46 62 47 63 61 65
REMARK SMILES IDX 82 66 49 67 33 68 34 69 42 70 35 71 37 72 43 73 36 74 38 75
REMARK SMILES IDX 39 76 40 77 41 78 65 79 66 80 74 81 67 82 69 83 75 84 68 85
REMARK SMILES IDX 70 86 71 87 72 88 73 89 50 90 51 91 59 92 52 93 54 94 60 95
REMARK SMILES IDX 53 96 55 97 56 98 57 99 58 100
REMARK H PARENT 13 15 80 53 48 64
REMARK Flexibility Score: inf
ROOT
ATOM      1  C   UNL A   1      31.939  30.191  25.618  1.00  0.00     0.275 C 
ENDROOT
BRANCH   1   2
ATOM      2  O   UNL A   1      31.679  28.983  26.353  1.00  0.00    -0.458 OA
BRANCH   2   3
ATOM      3  C   UNL A   1      32.778  28.261  26.736  1.00  0.00     0.341 C 
ATOM      4  O   UNL A   1      33.548  28.593  27.632  1.00  0.00    -0.246 OA
BRANCH   3   5
ATOM      5  C   UNL A   1      32.911  27.016  25.992  1.00  0.00     0.102 A 
ATOM      6  C   UNL A   1      31.785  24.258  23.760  1.00  0.00     0.078 C 
ATOM      7  C   UNL A   1      30.275  24.569  23.794  1.00  0.00     0.115 C 
ATOM      8  C   UNL A   1      32.525  25.208  24.666  1.00  0.00     0.055 A 
ATOM      9  C   UNL A   1      29.914  26.032  23.969  1.00  0.00     0.225 C 
ATOM     10  C   UNL A   1      31.978  26.375  25.150  1.00  0.00     0.078 A 
ATOM     11  N   UNL A   1      33.830  25.141  25.129  1.00  0.00    -0.317 N 
ATOM     12  O   UNL A   1      28.876  26.502  23.501  1.00  0.00    -0.275 OA
ATOM     13  N   UNL A   1      30.726  26.787  24.769  1.00  0.00    -0.324 N 
ATOM     14  C   UNL A   1      34.018  26.179  26.021  1.00  0.00     0.109 A 
ATOM     15  H   UNL A   1      30.399  27.660  25.084  1.00  0.00     0.170 HD
BRANCH   6  16
ATOM     16  C   UNL A   1      31.966  22.756  23.993  1.00  0.00    -0.038 A 
ATOM     17  C   UNL A   1      32.505  19.998  24.320  1.00  0.00     0.060 A 
ATOM     18  C   UNL A   1      32.439  20.558  23.040  1.00  0.00     0.016 A 
ATOM     19  C   UNL A   1      32.233  20.802  25.430  1.00  0.00     0.016 A 
ATOM     20  C   UNL A   1      32.179  21.922  22.880  1.00  0.00     0.005 A 
ATOM     21  C   UNL A   1      31.925  22.158  25.262  1.00  0.00     0.005 A 
BRANCH  17  22
ATOM     22  C   UNL A   1      32.886  18.567  24.445  1.00  0.00     0.337 C 
ATOM     23  O   UNL A   1      33.805  18.057  23.821  1.00  0.00    -0.246 OA
BRANCH  22  24
ATOM     24  O   UNL A   1      32.068  17.934  25.322  1.00  0.00    -0.465 OA
ATOM     25  C   UNL A   1      32.445  16.591  25.623  1.00  0.00     0.282 C 
ENDBRANCH  22  24
ENDBRANCH  17  22
ENDBRANCH   6  16
BRANCH  11  26
ATOM     26  C   UNL A   1      34.822  24.193  24.782  1.00  0.00     0.045 A 
ATOM     27  C   UNL A   1      35.191  24.037  23.442  1.00  0.00     0.026 A 
ATOM     28  C   UNL A   1      35.356  23.359  25.771  1.00  0.00     0.026 A 
ATOM     29  C   UNL A   1      36.062  23.011  23.083  1.00  0.00     0.002 A 
ATOM     30  C   UNL A   1      36.194  22.308  25.395  1.00  0.00     0.002 A 
ATOM     31  C   UNL A   1      36.544  22.133  24.054  1.00  0.00     0.000 A 
ENDBRANCH  11  26
ENDBRANCH   3   5
ENDBRANCH   2   3
ENDBRANCH   1   2
BRANCH   1  32
ATOM     32  C   UNL A   1      31.492  31.427  26.387  1.00  0.00     0.275 C 
BRANCH  32  33
ATOM     33  O   UNL A   1      32.318  31.656  27.525  1.00  0.00    -0.458 OA
BRANCH  33  34
ATOM     34  C   UNL A   1      32.631  32.952  27.749  1.00  0.00     0.338 C 
ATOM     35  O   UNL A   1      32.033  33.935  27.342  1.00  0.00    -0.246 OA
BRANCH  34  36
ATOM     36  C   UNL A   1      33.944  33.023  28.388  1.00  0.00     0.060 A 
ATOM     37  C   UNL A   1      34.968  33.671  27.692  1.00  0.00     0.016 A 
ATOM     38  C   UNL A   1      34.195  32.210  29.502  1.00  0.00     0.016 A 
ATOM     39  C   UNL A   1      36.273  33.374  28.024  1.00  0.00     0.010 A 
ATOM     40  C   UNL A   1      35.493  31.899  29.817  1.00  0.00     0.010 A 
ATOM     41  C   UNL A   1      36.510  32.433  29.031  1.00  0.00    -0.014 A 
BRANCH  41  42
ATOM     42  C   UNL A   1      37.882  32.103  29.354  1.00  0.00     0.031 A 
ATOM     43  C   UNL A   1      38.208  30.693  29.036  1.00  0.00     0.074 A 
ATOM     44  C   UNL A   1      38.762  33.041  29.751  1.00  0.00     0.049 A 
ATOM     45  N   UNL A   1      38.503  29.749  29.866  1.00  0.00    -0.248 NA
ATOM     46  C   UNL A   1      37.980  30.228  27.656  1.00  0.00     0.031 C 
ATOM     47  C   UNL A   1      38.567  34.493  29.786  1.00  0.00     0.029 A 
ATOM     48  N   UNL A   1      40.082  32.903  30.052  1.00  0.00    -0.354 N 
ATOM     49  C   UNL A   1      38.754  28.635  29.070  1.00  0.00     0.074 A 
ATOM     50  C   UNL A   1      38.190  28.919  27.780  1.00  0.00     0.031 C 
ATOM     51  C   UNL A   1      39.774  35.100  29.820  1.00  0.00     0.029 A 
ATOM     52  C   UNL A   1      40.808  34.085  29.927  1.00  0.00     0.049 A 
ATOM     53  H   UNL A   1      40.484  32.050  30.332  1.00  0.00     0.167 HD
ATOM     54  C   UNL A   1      39.668  27.701  29.446  1.00  0.00     0.034 A 
ATOM     55  C   UNL A   1      42.156  34.190  29.803  1.00  0.00     0.034 A 
ATOM     56  C   UNL A   1      39.987  27.816  30.846  1.00  0.00     0.049 A 
ATOM     57  C   UNL A   1      42.745  32.913  30.272  1.00  0.00     0.074 A 
ATOM     58  C   UNL A   1      39.262  27.761  32.020  1.00  0.00     0.029 A 
ATOM     59  N   UNL A   1      41.175  28.430  31.157  1.00  0.00    -0.354 N 
ATOM     60  N   UNL A   1      42.699  32.512  31.510  1.00  0.00    -0.248 NA
ATOM     61  C   UNL A   1      42.982  31.872  29.284  1.00  0.00     0.031 C 
ATOM     62  C   UNL A   1      39.850  28.750  32.860  1.00  0.00     0.029 A 
ATOM     63  C   UNL A   1      40.941  29.301  32.185  1.00  0.00     0.049 A 
ATOM     64  H   UNL A   1      42.042  28.273  30.717  1.00  0.00     0.167 HD
ATOM     65  C   UNL A   1      42.418  31.154  31.417  1.00  0.00     0.074 A 
ATOM     66  C   UNL A   1      42.713  30.798  30.031  1.00  0.00     0.031 C 
ATOM     67  C   UNL A   1      41.685  30.525  32.381  1.00  0.00     0.034 A 
BRANCH  54  68
ATOM     68  C   UNL A   1      40.579  26.964  28.491  1.00  0.00     0.023 A 
ATOM     69  C   UNL A   1      40.836  25.605  28.775  1.00  0.00     0.012 A 
ATOM     70  C   UNL A   1      41.408  27.584  27.525  1.00  0.00     0.148 A 
ATOM     71  C   UNL A   1      41.899  24.919  28.181  1.00  0.00     0.002 A 
ATOM     72  C   UNL A   1      42.411  26.875  26.877  1.00  0.00     0.091 A 
ATOM     73  F   UNL A   1      41.333  28.900  27.317  1.00  0.00    -0.205 F 
ATOM     74  C   UNL A   1      42.685  25.553  27.226  1.00  0.00     0.022 A 
BRANCH  72  75
ATOM     75  S   UNL A   1      43.427  27.634  25.601  1.00  0.00     0.127 S 
ATOM     76  O   UNL A   1      44.033  28.742  26.332  1.00  0.00    -0.237 OA
ATOM     77  O   UNL A   1      44.338  26.540  25.261  1.00  0.00    -0.237 OA
ATOM     78  O   UNL A   1      42.508  28.000  24.531  1.00  0.00    -0.744 OA
ENDBRANCH  72  75
ENDBRANCH  54  68
BRANCH  55  79
ATOM     79  C   UNL A   1      42.958  35.165  29.020  1.00  0.00     0.023 A 
ATOM     80  C   UNL A   1      42.883  35.156  27.612  1.00  0.00     0.012 A 
ATOM     81  C   UNL A   1      43.559  36.280  29.644  1.00  0.00     0.148 A 
ATOM     82  C   UNL A   1      43.355  36.235  26.855  1.00  0.00     0.002 A 
ATOM     83  C   UNL A   1      44.036  37.347  28.888  1.00  0.00     0.091 A 
ATOM     84  F   UNL A   1      43.576  36.343  30.981  1.00  0.00    -0.205 F 
ATOM     85  C   UNL A   1      43.924  37.335  27.493  1.00  0.00     0.022 A 
BRANCH  83  86
ATOM     86  S   UNL A   1      44.751  38.811  29.651  1.00  0.00     0.127 S 
ATOM     87  O   UNL A   1      45.170  39.587  28.482  1.00  0.00    -0.237 OA
ATOM     88  O   UNL A   1      43.611  39.361  30.377  1.00  0.00    -0.237 OA
ATOM     89  O   UNL A   1      45.854  38.331  30.474  1.00  0.00    -0.744 OA
ENDBRANCH  83  86
ENDBRANCH  55  79
BRANCH  67  90
ATOM     90  C   UNL A   1      41.431  31.258  33.672  1.00  0.00     0.023 A 
ATOM     91  C   UNL A   1      42.360  31.291  34.733  1.00  0.00     0.012 A 
ATOM     92  C   UNL A   1      40.289  32.072  33.744  1.00  0.00     0.148 A 
ATOM     93  C   UNL A   1      42.140  32.101  35.852  1.00  0.00     0.002 A 
ATOM     94  C   UNL A   1      40.099  32.912  34.832  1.00  0.00     0.091 A 
ATOM     95  F   UNL A   1      39.416  32.029  32.726  1.00  0.00    -0.205 F 
ATOM     96  C   UNL A   1      41.015  32.922  35.895  1.00  0.00     0.022 A 
BRANCH  94  97
ATOM     97  S   UNL A   1      38.739  34.079  34.873  1.00  0.00     0.127 S 
ATOM     98  O   UNL A   1      37.581  33.196  34.994  1.00  0.00    -0.237 OA
ATOM     99  O   UNL A   1      39.035  34.868  36.070  1.00  0.00    -0.237 OA
ATOM    100  O   UNL A   1      38.826  34.837  33.630  1.00  0.00    -0.744 OA
ENDBRANCH  94  97
ENDBRANCH  67  90
ENDBRANCH  41  42
ENDBRANCH  34  36
ENDBRANCH  33  34
ENDBRANCH  32  33
ENDBRANCH   1  32
TORSDOF 18
ENDMDL
MODEL 3
REMARK VINA RESULT:     -12.4      2.915      7.950
REMARK SMILES COC(=O)c1ccc([C@H]2CC(=O)Nc3c(C(=O)OCCOC(=O)c4ccc(-c5c6nc(c(-c7cccc(S(=O)(=O)[O-])c7F)c7ccc([nH]7)c(-c7cccc(S(=O)(=O)[O-])c7F)c7nc(c(-c8cccc(S(=O)(=O)[O-])c8F)c8ccc5[nH]8)C=C7)C=C6)cc4)cn(-c4ccccc4)c32)cc1
REMARK SMILES IDX 19 1 18 2 16 3 17 4 15 5 9 6 10 7 95 8 11 9 14 10 88 11
REMARK SMILES IDX 12 12 13 13 87 14 8 16 5 17 6 18 97 19 7 20 96 21 3 22 4 23
REMARK SMILES IDX 2 24 1 25 89 26 90 27 94 28 91 29 93 30 92 31 20 32 21 33
REMARK SMILES IDX 22 34 23 35 24 36 25 37 86 38 26 39 85 40 27 41 28 42 29 43
REMARK SMILES IDX 79 44 30 45 84 46 78 47 80 48 31 49 83 50 77 51 76 52 32 54
REMARK SMILES IDX 64 55 44 56 63 57 45 58 48 59 62 60 81 61 46 62 47 63 61 65
REMARK SMILES IDX 82 66 49 67 33 68 34 69 42 70 35 71 37 72 43 73 36 74 38 75
REMARK SMILES IDX 39 76 40 77 41 78 65 79 66 80 74 81 67 82 69 83 75 84 68 85
REMARK SMILES IDX 70 86 71 87 72 88 73 89 50 90 51 91 59 92 52 93 54 94 60 95
REMARK SMILES IDX 53 96 55 97 56 98 57 99 58 100
REMARK H PARENT 13 15 80 53 48 64
REMARK Flexibility Score: inf
ROOT
ATOM      1  C   UNL A   1      33.738  29.714  26.718  1.00  0.00     0.275 C 
ENDROOT
BRANCH   1   2
ATOM      2  O   UNL A   1      33.483  28.560  27.536  1.00  0.00    -0.458 OA
BRANCH   2   3
ATOM      3  C   UNL A   1      32.341  27.859  27.249  1.00  0.00     0.341 C 
ATOM      4  O   UNL A   1      31.222  28.161  27.653  1.00  0.00    -0.246 OA
BRANCH   3   5
ATOM      5  C   UNL A   1      32.590  26.731  26.363  1.00  0.00     0.102 A 
ATOM      6  C   UNL A   1      31.753  24.226  23.739  1.00  0.00     0.078 C 
ATOM      7  C   UNL A   1      30.227  24.443  23.726  1.00  0.00     0.115 C 
ATOM      8  C   UNL A   1      32.386  25.091  24.799  1.00  0.00     0.055 A 
ATOM      9  C   UNL A   1      29.765  25.848  24.064  1.00  0.00     0.225 C 
ATOM     10  C   UNL A   1      31.742  26.152  25.394  1.00  0.00     0.078 A 
ATOM     11  N   UNL A   1      33.668  25.039  25.323  1.00  0.00    -0.317 N 
ATOM     12  O   UNL A   1      28.723  26.315  23.601  1.00  0.00    -0.275 OA
ATOM     13  N   UNL A   1      30.486  26.538  24.998  1.00  0.00    -0.324 N 
ATOM     14  C   UNL A   1      33.745  25.961  26.349  1.00  0.00     0.109 A 
ATOM     15  H   UNL A   1      30.089  27.343  25.402  1.00  0.00     0.170 HD
BRANCH   6  16
ATOM     16  C   UNL A   1      32.018  22.720  23.790  1.00  0.00    -0.038 A 
ATOM     17  C   UNL A   1      32.305  19.912  23.988  1.00  0.00     0.060 A 
ATOM     18  C   UNL A   1      32.156  20.690  25.141  1.00  0.00     0.016 A 
ATOM     19  C   UNL A   1      32.380  20.545  22.744  1.00  0.00     0.016 A 
ATOM     20  C   UNL A   1      32.008  22.076  25.041  1.00  0.00     0.005 A 
ATOM     21  C   UNL A   1      32.280  21.939  22.654  1.00  0.00     0.005 A 
BRANCH  17  22
ATOM     22  C   UNL A   1      32.354  18.434  24.136  1.00  0.00     0.337 C 
ATOM     23  O   UNL A   1      32.319  17.660  23.191  1.00  0.00    -0.246 OA
BRANCH  22  24
ATOM     24  O   UNL A   1      32.426  18.091  25.446  1.00  0.00    -0.465 OA
ATOM     25  C   UNL A   1      32.586  16.693  25.686  1.00  0.00     0.282 C 
ENDBRANCH  22  24
ENDBRANCH  17  22
ENDBRANCH   6  16
BRANCH  11  26
ATOM     26  C   UNL A   1      34.734  24.202  24.916  1.00  0.00     0.045 A 
ATOM     27  C   UNL A   1      35.530  23.577  25.881  1.00  0.00     0.026 A 
ATOM     28  C   UNL A   1      35.038  24.083  23.554  1.00  0.00     0.026 A 
ATOM     29  C   UNL A   1      36.662  22.868  25.486  1.00  0.00     0.002 A 
ATOM     30  C   UNL A   1      36.198  23.406  23.173  1.00  0.00     0.002 A 
ATOM     31  C   UNL A   1      37.009  22.803  24.136  1.00  0.00     0.000 A 
ENDBRANCH  11  26
ENDBRANCH   3   5
ENDBRANCH   2   3
ENDBRANCH   1   2
BRANCH   1  32
ATOM     32  C   UNL A   1      33.556  31.010  27.497  1.00  0.00     0.275 C 
BRANCH  32  33
ATOM     33  O   UNL A   1      34.783  31.725  27.605  1.00  0.00    -0.458 OA
BRANCH  33  34
ATOM     34  C   UNL A   1      35.402  31.614  28.802  1.00  0.00     0.338 C 
ATOM     35  O   UNL A   1      34.988  31.999  29.883  1.00  0.00    -0.246 OA
BRANCH  34  36
ATOM     36  C   UNL A   1      36.771  31.146  28.591  1.00  0.00     0.060 A 
ATOM     37  C   UNL A   1      36.941  29.866  28.056  1.00  0.00     0.016 A 
ATOM     38  C   UNL A   1      37.824  31.854  29.186  1.00  0.00     0.016 A 
ATOM     39  C   UNL A   1      38.145  29.227  28.260  1.00  0.00     0.010 A 
ATOM     40  C   UNL A   1      39.014  31.209  29.408  1.00  0.00     0.010 A 
ATOM     41  C   UNL A   1      39.134  29.883  29.002  1.00  0.00    -0.014 A 
BRANCH  41  42
ATOM     42  C   UNL A   1      40.385  29.195  29.240  1.00  0.00     0.031 A 
ATOM     43  C   UNL A   1      40.590  28.887  30.674  1.00  0.00     0.074 A 
ATOM     44  C   UNL A   1      41.164  28.771  28.228  1.00  0.00     0.049 A 
ATOM     45  N   UNL A   1      41.493  29.370  31.460  1.00  0.00    -0.248 NA
ATOM     46  C   UNL A   1      39.547  28.109  31.367  1.00  0.00     0.031 C 
ATOM     47  C   UNL A   1      40.855  28.783  26.794  1.00  0.00     0.029 A 
ATOM     48  N   UNL A   1      42.337  28.084  28.281  1.00  0.00    -0.354 N 
ATOM     49  C   UNL A   1      41.279  28.742  32.684  1.00  0.00     0.074 A 
ATOM     50  C   UNL A   1      39.956  28.186  32.632  1.00  0.00     0.031 C 
ATOM     51  C   UNL A   1      41.667  27.907  26.161  1.00  0.00     0.029 A 
ATOM     52  C   UNL A   1      42.618  27.370  27.118  1.00  0.00     0.049 A 
ATOM     53  H   UNL A   1      42.931  28.091  29.065  1.00  0.00     0.167 HD
ATOM     54  C   UNL A   1      42.317  28.472  33.520  1.00  0.00     0.034 A 
ATOM     55  C   UNL A   1      43.489  26.334  27.002  1.00  0.00     0.034 A 
ATOM     56  C   UNL A   1      43.485  29.236  33.166  1.00  0.00     0.049 A 
ATOM     57  C   UNL A   1      44.402  26.391  28.169  1.00  0.00     0.074 A 
ATOM     58  C   UNL A   1      43.771  30.582  33.044  1.00  0.00     0.029 A 
ATOM     59  N   UNL A   1      44.471  28.570  32.480  1.00  0.00    -0.354 N 
ATOM     60  N   UNL A   1      45.266  27.347  28.360  1.00  0.00    -0.248 NA
ATOM     61  C   UNL A   1      44.037  25.629  29.353  1.00  0.00     0.031 C 
ATOM     62  C   UNL A   1      44.636  30.671  31.915  1.00  0.00     0.029 A 
ATOM     63  C   UNL A   1      44.888  29.377  31.457  1.00  0.00     0.049 A 
ATOM     64  H   UNL A   1      44.816  27.672  32.687  1.00  0.00     0.167 HD
ATOM     65  C   UNL A   1      45.181  27.614  29.720  1.00  0.00     0.074 A 
ATOM     66  C   UNL A   1      44.496  26.458  30.295  1.00  0.00     0.031 C 
ATOM     67  C   UNL A   1      45.394  28.875  30.199  1.00  0.00     0.034 A 
BRANCH  54  68
ATOM     68  C   UNL A   1      42.420  27.235  34.382  1.00  0.00     0.023 A 
ATOM     69  C   UNL A   1      42.009  27.359  35.727  1.00  0.00     0.012 A 
ATOM     70  C   UNL A   1      43.149  26.070  34.040  1.00  0.00     0.148 A 
ATOM     71  C   UNL A   1      42.360  26.411  36.692  1.00  0.00     0.002 A 
ATOM     72  C   UNL A   1      43.424  25.091  34.985  1.00  0.00     0.091 A 
ATOM     73  F   UNL A   1      43.707  25.953  32.834  1.00  0.00    -0.205 F 
ATOM     74  C   UNL A   1      43.064  25.272  36.321  1.00  0.00     0.022 A 
BRANCH  72  75
ATOM     75  S   UNL A   1      44.292  23.577  34.548  1.00  0.00     0.127 S 
ATOM     76  O   UNL A   1      45.569  24.101  34.073  1.00  0.00    -0.237 OA
ATOM     77  O   UNL A   1      44.344  22.885  35.836  1.00  0.00    -0.237 OA
ATOM     78  O   UNL A   1      43.460  22.919  33.550  1.00  0.00    -0.744 OA
ENDBRANCH  72  75
ENDBRANCH  54  68
BRANCH  55  79
ATOM     79  C   UNL A   1      43.404  25.121  26.151  1.00  0.00     0.023 A 
ATOM     80  C   UNL A   1      44.383  24.894  25.161  1.00  0.00     0.012 A 
ATOM     81  C   UNL A   1      42.551  24.049  26.495  1.00  0.00     0.148 A 
ATOM     82  C   UNL A   1      44.530  23.637  24.563  1.00  0.00     0.002 A 
ATOM     83  C   UNL A   1      42.695  22.803  25.892  1.00  0.00     0.091 A 
ATOM     84  F   UNL A   1      41.663  24.220  27.483  1.00  0.00    -0.205 F 
ATOM     85  C   UNL A   1      43.692  22.588  24.934  1.00  0.00     0.022 A 
BRANCH  83  86
ATOM     86  S   UNL A   1      41.667  21.399  26.348  1.00  0.00     0.127 S 
ATOM     87  O   UNL A   1      42.243  20.325  25.537  1.00  0.00    -0.237 OA
ATOM     88  O   UNL A   1      41.924  21.290  27.782  1.00  0.00    -0.237 OA
ATOM     89  O   UNL A   1      40.307  21.765  25.975  1.00  0.00    -0.744 OA
ENDBRANCH  83  86
ENDBRANCH  55  79
BRANCH  67  90
ATOM     90  C   UNL A   1      45.994  29.896  29.268  1.00  0.00     0.023 A 
ATOM     91  C   UNL A   1      47.382  30.006  29.040  1.00  0.00     0.012 A 
ATOM     92  C   UNL A   1      45.113  30.654  28.480  1.00  0.00     0.148 A 
ATOM     93  C   UNL A   1      47.878  30.873  28.061  1.00  0.00     0.002 A 
ATOM     94  C   UNL A   1      45.607  31.475  27.477  1.00  0.00     0.091 A 
ATOM     95  F   UNL A   1      43.797  30.537  28.711  1.00  0.00    -0.205 F 
ATOM     96  C   UNL A   1      46.990  31.597  27.270  1.00  0.00     0.022 A 
BRANCH  94  97
ATOM     97  S   UNL A   1      44.502  32.326  26.350  1.00  0.00     0.127 S 
ATOM     98  O   UNL A   1      43.578  31.260  25.966  1.00  0.00    -0.237 OA
ATOM     99  O   UNL A   1      43.920  33.364  27.201  1.00  0.00    -0.237 OA
ATOM    100  O   UNL A   1      45.346  32.843  25.279  1.00  0.00    -0.744 OA
ENDBRANCH  94  97
ENDBRANCH  67  90
ENDBRANCH  41  42
ENDBRANCH  34  36
ENDBRANCH  33  34
ENDBRANCH  32  33
ENDBRANCH   1  32
TORSDOF 18
ENDMDL
