MODEL 1
REMARK VINA RESULT:     -11.3      0.000      0.000
REMARK SMILES Cc1ncc(C(=O)OCCOC(=O)c2ccc(-c3c4nc(c(-c5cccc(S(=O)(=O)[O-])c5F)c5ccc([nH]5)c(-c5cccc(S(=O)(=O)[O-])c5F)c5nc(c(-c6cccc(S(=O)(=O)[O-])c6F)c6ccc3[nH]6)C=C5)C=C4)cc2)cc1C#N
REMARK SMILES IDX 10 1 9 2 8 3 6 4 7 5 5 6 1 7 2 8 3 9 78 10 4 11 77 12 79 13
REMARK SMILES IDX 80 14 11 15 12 16 13 17 14 18 15 19 76 20 16 21 75 22 17 23
REMARK SMILES IDX 18 24 19 25 69 26 20 27 74 28 68 29 70 30 21 31 73 32 67 33
REMARK SMILES IDX 66 34 22 36 54 37 34 38 53 39 35 40 38 41 52 42 71 43 36 44
REMARK SMILES IDX 37 45 51 47 72 48 39 49 23 50 24 51 32 52 25 53 27 54 33 55
REMARK SMILES IDX 26 56 28 57 29 58 30 59 31 60 55 61 56 62 64 63 57 64 59 65
REMARK SMILES IDX 65 66 58 67 60 68 61 69 62 70 63 71 40 72 41 73 49 74 42 75
REMARK SMILES IDX 44 76 50 77 43 78 45 79 46 80 47 81 48 82
REMARK H PARENT 70 35 38 46
REMARK Flexibility Score: inf
ROOT
ATOM      1  C   UNL A   1      36.683  20.413  24.955  1.00  0.00     0.275 C 
ENDROOT
BRANCH   1   2
ATOM      2  C   UNL A   1      35.308  21.061  25.137  1.00  0.00     0.275 C 
BRANCH   2   3
ATOM      3  O   UNL A   1      35.329  22.057  26.185  1.00  0.00    -0.458 OA
BRANCH   3   4
ATOM      4  C   UNL A   1      34.242  22.078  26.993  1.00  0.00     0.339 C 
ATOM      5  O   UNL A   1      33.945  21.247  27.834  1.00  0.00    -0.246 OA
BRANCH   4   6
ATOM      6  C   UNL A   1      33.441  23.295  26.775  1.00  0.00     0.079 A 
ATOM      7  C   UNL A   1      30.719  26.481  26.004  1.00  0.00     0.068 C 
ATOM      8  C   UNL A   1      31.729  25.398  26.258  1.00  0.00     0.055 A 
ATOM      9  N   UNL A   1      31.263  24.334  26.951  1.00  0.00    -0.259 NA
ATOM     10  C   UNL A   1      33.052  25.471  25.812  1.00  0.00     0.074 A 
ATOM     11  C   UNL A   1      32.115  23.307  27.176  1.00  0.00     0.127 A 
ATOM     12  C   UNL A   1      33.922  24.405  26.087  1.00  0.00     0.038 A 
BRANCH  10  13
ATOM     13  C   UNL A   1      33.519  26.574  25.034  1.00  0.00     0.101 C 
ATOM     14  N   UNL A   1      33.884  27.492  24.421  1.00  0.00    -0.192 NA
ENDBRANCH  10  13
ENDBRANCH   4   6
ENDBRANCH   3   4
ENDBRANCH   2   3
ENDBRANCH   1   2
BRANCH   1  15
ATOM     15  O   UNL A   1      37.729  21.400  24.995  1.00  0.00    -0.458 OA
BRANCH  15  16
ATOM     16  C   UNL A   1      38.791  21.068  25.762  1.00  0.00     0.338 C 
ATOM     17  O   UNL A   1      39.336  19.979  25.838  1.00  0.00    -0.246 OA
BRANCH  16  18
ATOM     18  C   UNL A   1      39.303  22.253  26.458  1.00  0.00     0.060 A 
ATOM     19  C   UNL A   1      38.752  23.491  26.140  1.00  0.00     0.016 A 
ATOM     20  C   UNL A   1      40.442  22.169  27.255  1.00  0.00     0.016 A 
ATOM     21  C   UNL A   1      39.423  24.657  26.484  1.00  0.00     0.010 A 
ATOM     22  C   UNL A   1      41.041  23.347  27.711  1.00  0.00     0.010 A 
ATOM     23  C   UNL A   1      40.572  24.603  27.284  1.00  0.00    -0.014 A 
BRANCH  23  24
ATOM     24  C   UNL A   1      41.277  25.858  27.653  1.00  0.00     0.031 A 
ATOM     25  C   UNL A   1      40.585  26.907  28.483  1.00  0.00     0.074 A 
ATOM     26  C   UNL A   1      42.550  26.050  27.250  1.00  0.00     0.049 A 
ATOM     27  N   UNL A   1      41.007  28.100  28.814  1.00  0.00    -0.248 NA
ATOM     28  C   UNL A   1      39.246  26.584  29.004  1.00  0.00     0.031 C 
ATOM     29  C   UNL A   1      43.340  25.100  26.462  1.00  0.00     0.029 A 
ATOM     30  N   UNL A   1      43.403  27.108  27.441  1.00  0.00    -0.354 N 
ATOM     31  C   UNL A   1      39.973  28.685  29.533  1.00  0.00     0.074 A 
ATOM     32  C   UNL A   1      38.897  27.721  29.591  1.00  0.00     0.031 C 
ATOM     33  C   UNL A   1      44.564  25.607  26.256  1.00  0.00     0.029 A 
ATOM     34  C   UNL A   1      44.623  26.946  26.829  1.00  0.00     0.049 A 
ATOM     35  H   UNL A   1      43.164  27.905  27.967  1.00  0.00     0.167 HD
ATOM     36  C   UNL A   1      39.931  29.911  30.104  1.00  0.00     0.034 A 
ATOM     37  C   UNL A   1      45.665  27.789  26.703  1.00  0.00     0.034 A 
ATOM     38  C   UNL A   1      41.021  30.847  30.089  1.00  0.00     0.049 A 
ATOM     39  C   UNL A   1      45.579  29.154  27.317  1.00  0.00     0.074 A 
ATOM     40  C   UNL A   1      41.081  32.097  30.678  1.00  0.00     0.029 A 
ATOM     41  N   UNL A   1      42.237  30.638  29.459  1.00  0.00    -0.354 N 
ATOM     42  N   UNL A   1      44.608  29.673  28.026  1.00  0.00    -0.248 NA
ATOM     43  C   UNL A   1      46.732  30.046  27.127  1.00  0.00     0.031 C 
ATOM     44  C   UNL A   1      42.324  32.660  30.378  1.00  0.00     0.029 A 
ATOM     45  C   UNL A   1      43.049  31.745  29.631  1.00  0.00     0.049 A 
ATOM     46  H   UNL A   1      42.484  29.826  28.962  1.00  0.00     0.167 HD
ATOM     47  C   UNL A   1      45.035  30.944  28.385  1.00  0.00     0.074 A 
ATOM     48  C   UNL A   1      46.361  31.114  27.824  1.00  0.00     0.031 C 
ATOM     49  C   UNL A   1      44.381  31.886  29.104  1.00  0.00     0.034 A 
BRANCH  36  50
ATOM     50  C   UNL A   1      38.676  30.323  30.825  1.00  0.00     0.023 A 
ATOM     51  C   UNL A   1      38.559  30.092  32.208  1.00  0.00     0.012 A 
ATOM     52  C   UNL A   1      37.671  31.048  30.153  1.00  0.00     0.148 A 
ATOM     53  C   UNL A   1      37.458  30.575  32.915  1.00  0.00     0.002 A 
ATOM     54  C   UNL A   1      36.592  31.549  30.868  1.00  0.00     0.091 A 
ATOM     55  F   UNL A   1      37.805  31.248  28.833  1.00  0.00    -0.205 F 
ATOM     56  C   UNL A   1      36.483  31.314  32.248  1.00  0.00     0.022 A 
BRANCH  54  57
ATOM     57  S   UNL A   1      35.301  32.546  30.112  1.00  0.00     0.127 S 
ATOM     58  O   UNL A   1      34.836  31.662  29.043  1.00  0.00    -0.237 OA
ATOM     59  O   UNL A   1      34.358  32.715  31.217  1.00  0.00    -0.237 OA
ATOM     60  O   UNL A   1      35.946  33.771  29.661  1.00  0.00    -0.744 OA
ENDBRANCH  54  57
ENDBRANCH  36  50
BRANCH  37  61
ATOM     61  C   UNL A   1      46.879  27.338  25.972  1.00  0.00     0.023 A 
ATOM     62  C   UNL A   1      47.773  26.450  26.601  1.00  0.00     0.012 A 
ATOM     63  C   UNL A   1      47.103  27.713  24.632  1.00  0.00     0.148 A 
ATOM     64  C   UNL A   1      48.870  25.944  25.906  1.00  0.00     0.002 A 
ATOM     65  C   UNL A   1      48.178  27.178  23.936  1.00  0.00     0.091 A 
ATOM     66  F   UNL A   1      46.232  28.554  24.058  1.00  0.00    -0.205 F 
ATOM     67  C   UNL A   1      49.068  26.297  24.573  1.00  0.00     0.022 A 
BRANCH  65  68
ATOM     68  S   UNL A   1      48.470  27.508  22.195  1.00  0.00     0.127 S 
ATOM     69  O   UNL A   1      48.709  26.164  21.672  1.00  0.00    -0.237 OA
ATOM     70  O   UNL A   1      47.199  28.110  21.789  1.00  0.00    -0.237 OA
ATOM     71  O   UNL A   1      49.612  28.409  22.146  1.00  0.00    -0.744 OA
ENDBRANCH  65  68
ENDBRANCH  37  61
BRANCH  49  72
ATOM     72  C   UNL A   1      45.075  33.193  29.361  1.00  0.00     0.023 A 
ATOM     73  C   UNL A   1      45.886  33.334  30.502  1.00  0.00     0.012 A 
ATOM     74  C   UNL A   1      45.035  34.222  28.399  1.00  0.00     0.148 A 
ATOM     75  C   UNL A   1      46.651  34.485  30.683  1.00  0.00     0.002 A 
ATOM     76  C   UNL A   1      45.824  35.351  28.571  1.00  0.00     0.091 A 
ATOM     77  F   UNL A   1      44.252  34.058  27.322  1.00  0.00    -0.205 F 
ATOM     78  C   UNL A   1      46.631  35.485  29.712  1.00  0.00     0.022 A 
BRANCH  76  79
ATOM     79  S   UNL A   1      45.912  36.667  27.351  1.00  0.00     0.127 S 
ATOM     80  O   UNL A   1      44.536  37.165  27.355  1.00  0.00    -0.237 OA
ATOM     81  O   UNL A   1      46.892  37.574  27.945  1.00  0.00    -0.237 OA
ATOM     82  O   UNL A   1      46.334  36.040  26.105  1.00  0.00    -0.744 OA
ENDBRANCH  76  79
ENDBRANCH  49  72
ENDBRANCH  23  24
ENDBRANCH  16  18
ENDBRANCH  15  16
ENDBRANCH   1  15
TORSDOF 15
ENDMDL
MODEL 2
REMARK VINA RESULT:     -11.2      1.652      1.963
REMARK SMILES Cc1ncc(C(=O)OCCOC(=O)c2ccc(-c3c4nc(c(-c5cccc(S(=O)(=O)[O-])c5F)c5ccc([nH]5)c(-c5cccc(S(=O)(=O)[O-])c5F)c5nc(c(-c6cccc(S(=O)(=O)[O-])c6F)c6ccc3[nH]6)C=C5)C=C4)cc2)cc1C#N
REMARK SMILES IDX 10 1 9 2 8 3 6 4 7 5 5 6 1 7 2 8 3 9 78 10 4 11 77 12 79 13
REMARK SMILES IDX 80 14 11 15 12 16 13 17 14 18 15 19 76 20 16 21 75 22 17 23
REMARK SMILES IDX 18 24 19 25 69 26 20 27 74 28 68 29 70 30 21 31 73 32 67 33
REMARK SMILES IDX 66 34 22 36 54 37 34 38 53 39 35 40 38 41 52 42 71 43 36 44
REMARK SMILES IDX 37 45 51 47 72 48 39 49 23 50 24 51 32 52 25 53 27 54 33 55
REMARK SMILES IDX 26 56 28 57 29 58 30 59 31 60 55 61 56 62 64 63 57 64 59 65
REMARK SMILES IDX 65 66 58 67 60 68 61 69 62 70 63 71 40 72 41 73 49 74 42 75
REMARK SMILES IDX 44 76 50 77 43 78 45 79 46 80 47 81 48 82
REMARK H PARENT 70 35 38 46
REMARK Flexibility Score: inf
ROOT
ATOM      1  C   UNL A   1      36.666  20.211  25.002  1.00  0.00     0.275 C 
ENDROOT
BRANCH   1   2
ATOM      2  C   UNL A   1      35.231  20.743  25.032  1.00  0.00     0.275 C 
BRANCH   2   3
ATOM      3  O   UNL A   1      35.159  22.095  24.528  1.00  0.00    -0.458 OA
BRANCH   3   4
ATOM      4  C   UNL A   1      34.697  23.021  25.401  1.00  0.00     0.339 C 
ATOM      5  O   UNL A   1      34.657  22.920  26.615  1.00  0.00    -0.246 OA
BRANCH   4   6
ATOM      6  C   UNL A   1      34.270  24.246  24.703  1.00  0.00     0.079 A 
ATOM      7  C   UNL A   1      33.403  27.659  22.304  1.00  0.00     0.068 C 
ATOM      8  C   UNL A   1      33.691  26.491  23.204  1.00  0.00     0.055 A 
ATOM      9  N   UNL A   1      33.837  25.305  22.571  1.00  0.00    -0.259 NA
ATOM     10  C   UNL A   1      33.810  26.610  24.592  1.00  0.00     0.074 A 
ATOM     11  C   UNL A   1      34.138  24.222  23.323  1.00  0.00     0.127 A 
ATOM     12  C   UNL A   1      34.092  25.464  25.352  1.00  0.00     0.038 A 
BRANCH  10  13
ATOM     13  C   UNL A   1      33.709  27.877  25.245  1.00  0.00     0.101 C 
ATOM     14  N   UNL A   1      33.643  28.896  25.801  1.00  0.00    -0.192 NA
ENDBRANCH  10  13
ENDBRANCH   4   6
ENDBRANCH   3   4
ENDBRANCH   2   3
ENDBRANCH   1   2
BRANCH   1  15
ATOM     15  O   UNL A   1      37.618  21.285  25.089  1.00  0.00    -0.458 OA
BRANCH  15  16
ATOM     16  C   UNL A   1      38.745  20.989  25.772  1.00  0.00     0.338 C 
ATOM     17  O   UNL A   1      39.346  19.927  25.782  1.00  0.00    -0.246 OA
BRANCH  16  18
ATOM     18  C   UNL A   1      39.247  22.181  26.464  1.00  0.00     0.060 A 
ATOM     19  C   UNL A   1      38.685  23.412  26.143  1.00  0.00     0.016 A 
ATOM     20  C   UNL A   1      40.388  22.110  27.259  1.00  0.00     0.016 A 
ATOM     21  C   UNL A   1      39.346  24.585  26.482  1.00  0.00     0.010 A 
ATOM     22  C   UNL A   1      40.977  23.295  27.710  1.00  0.00     0.010 A 
ATOM     23  C   UNL A   1      40.496  24.545  27.279  1.00  0.00    -0.014 A 
BRANCH  23  24
ATOM     24  C   UNL A   1      41.191  25.808  27.643  1.00  0.00     0.031 A 
ATOM     25  C   UNL A   1      40.483  26.863  28.453  1.00  0.00     0.074 A 
ATOM     26  C   UNL A   1      42.467  26.002  27.253  1.00  0.00     0.049 A 
ATOM     27  N   UNL A   1      40.895  28.061  28.776  1.00  0.00    -0.248 NA
ATOM     28  C   UNL A   1      39.140  26.538  28.962  1.00  0.00     0.031 C 
ATOM     29  C   UNL A   1      43.272  25.047  26.486  1.00  0.00     0.029 A 
ATOM     30  N   UNL A   1      43.312  27.066  27.443  1.00  0.00    -0.354 N 
ATOM     31  C   UNL A   1      39.849  28.649  29.476  1.00  0.00     0.074 A 
ATOM     32  C   UNL A   1      38.778  27.680  29.532  1.00  0.00     0.031 C 
ATOM     33  C   UNL A   1      44.495  25.559  26.289  1.00  0.00     0.029 A 
ATOM     34  C   UNL A   1      44.541  26.904  26.847  1.00  0.00     0.049 A 
ATOM     35  H   UNL A   1      43.063  27.868  27.957  1.00  0.00     0.167 HD
ATOM     36  C   UNL A   1      39.794  29.881  30.032  1.00  0.00     0.034 A 
ATOM     37  C   UNL A   1      45.580  27.752  26.725  1.00  0.00     0.034 A 
ATOM     38  C   UNL A   1      40.879  30.822  30.020  1.00  0.00     0.049 A 
ATOM     39  C   UNL A   1      45.479  29.123  27.323  1.00  0.00     0.074 A 
ATOM     40  C   UNL A   1      40.926  32.079  30.596  1.00  0.00     0.029 A 
ATOM     41  N   UNL A   1      42.104  30.613  29.407  1.00  0.00    -0.354 N 
ATOM     42  N   UNL A   1      44.497  29.644  28.014  1.00  0.00    -0.248 NA
ATOM     43  C   UNL A   1      46.629  30.019  27.136  1.00  0.00     0.031 C 
ATOM     44  C   UNL A   1      42.169  32.645  30.304  1.00  0.00     0.029 A 
ATOM     45  C   UNL A   1      42.908  31.725  29.577  1.00  0.00     0.049 A 
ATOM     46  H   UNL A   1      42.361  29.796  28.922  1.00  0.00     0.167 HD
ATOM     47  C   UNL A   1      44.913  30.921  28.363  1.00  0.00     0.074 A 
ATOM     48  C   UNL A   1      46.244  31.092  27.817  1.00  0.00     0.031 C 
ATOM     49  C   UNL A   1      44.245  31.868  29.064  1.00  0.00     0.034 A 
BRANCH  36  50
ATOM     50  C   UNL A   1      38.529  30.294  30.733  1.00  0.00     0.023 A 
ATOM     51  C   UNL A   1      38.368  30.017  32.104  1.00  0.00     0.012 A 
ATOM     52  C   UNL A   1      37.558  31.063  30.061  1.00  0.00     0.148 A 
ATOM     53  C   UNL A   1      37.258  30.499  32.797  1.00  0.00     0.002 A 
ATOM     54  C   UNL A   1      36.469  31.563  30.764  1.00  0.00     0.091 A 
ATOM     55  F   UNL A   1      37.732  31.307  28.753  1.00  0.00    -0.205 F 
ATOM     56  C   UNL A   1      36.318  31.281  32.132  1.00  0.00     0.022 A 
BRANCH  54  57
ATOM     57  S   UNL A   1      35.221  32.613  30.010  1.00  0.00     0.127 S 
ATOM     58  O   UNL A   1      34.676  31.728  28.981  1.00  0.00    -0.237 OA
ATOM     59  O   UNL A   1      34.320  32.871  31.132  1.00  0.00    -0.237 OA
ATOM     60  O   UNL A   1      35.925  33.782  29.505  1.00  0.00    -0.744 OA
ENDBRANCH  54  57
ENDBRANCH  36  50
BRANCH  37  61
ATOM     61  C   UNL A   1      46.805  27.298  26.013  1.00  0.00     0.023 A 
ATOM     62  C   UNL A   1      46.960  27.600  24.647  1.00  0.00     0.012 A 
ATOM     63  C   UNL A   1      47.850  26.652  26.703  1.00  0.00     0.148 A 
ATOM     64  C   UNL A   1      48.137  27.263  23.979  1.00  0.00     0.002 A 
ATOM     65  C   UNL A   1      49.032  26.352  26.041  1.00  0.00     0.091 A 
ATOM     66  F   UNL A   1      47.677  26.384  28.004  1.00  0.00    -0.205 F 
ATOM     67  C   UNL A   1      49.176  26.651  24.676  1.00  0.00     0.022 A 
BRANCH  65  68
ATOM     68  S   UNL A   1      50.456  25.637  26.870  1.00  0.00     0.127 S 
ATOM     69  O   UNL A   1      51.389  25.459  25.759  1.00  0.00    -0.237 OA
ATOM     70  O   UNL A   1      50.815  26.697  27.812  1.00  0.00    -0.237 OA
ATOM     71  O   UNL A   1      49.982  24.408  27.489  1.00  0.00    -0.744 OA
ENDBRANCH  65  68
ENDBRANCH  37  61
BRANCH  49  72
ATOM     72  C   UNL A   1      44.930  33.181  29.315  1.00  0.00     0.023 A 
ATOM     73  C   UNL A   1      45.742  33.333  30.454  1.00  0.00     0.012 A 
ATOM     74  C   UNL A   1      44.880  34.206  28.349  1.00  0.00     0.148 A 
ATOM     75  C   UNL A   1      46.498  34.491  30.629  1.00  0.00     0.002 A 
ATOM     76  C   UNL A   1      45.660  35.342  28.515  1.00  0.00     0.091 A 
ATOM     77  F   UNL A   1      44.097  34.031  27.274  1.00  0.00    -0.205 F 
ATOM     78  C   UNL A   1      46.468  35.487  29.655  1.00  0.00     0.022 A 
BRANCH  76  79
ATOM     79  S   UNL A   1      45.735  36.653  27.290  1.00  0.00     0.127 S 
ATOM     80  O   UNL A   1      44.340  37.092  27.241  1.00  0.00    -0.237 OA
ATOM     81  O   UNL A   1      46.653  37.606  27.913  1.00  0.00    -0.237 OA
ATOM     82  O   UNL A   1      46.230  36.039  26.065  1.00  0.00    -0.744 OA
ENDBRANCH  76  79
ENDBRANCH  49  72
ENDBRANCH  23  24
ENDBRANCH  16  18
ENDBRANCH  15  16
ENDBRANCH   1  15
TORSDOF 15
ENDMDL
MODEL 3
REMARK VINA RESULT:     -11.1      2.048      3.123
REMARK SMILES Cc1ncc(C(=O)OCCOC(=O)c2ccc(-c3c4nc(c(-c5cccc(S(=O)(=O)[O-])c5F)c5ccc([nH]5)c(-c5cccc(S(=O)(=O)[O-])c5F)c5nc(c(-c6cccc(S(=O)(=O)[O-])c6F)c6ccc3[nH]6)C=C5)C=C4)cc2)cc1C#N
REMARK SMILES IDX 10 1 9 2 8 3 6 4 7 5 5 6 1 7 2 8 3 9 78 10 4 11 77 12 79 13
REMARK SMILES IDX 80 14 11 15 12 16 13 17 14 18 15 19 76 20 16 21 75 22 17 23
REMARK SMILES IDX 18 24 19 25 69 26 20 27 74 28 68 29 70 30 21 31 73 32 67 33
REMARK SMILES IDX 66 34 22 36 54 37 34 38 53 39 35 40 38 41 52 42 71 43 36 44
REMARK SMILES IDX 37 45 51 47 72 48 39 49 23 50 24 51 32 52 25 53 27 54 33 55
REMARK SMILES IDX 26 56 28 57 29 58 30 59 31 60 55 61 56 62 64 63 57 64 59 65
REMARK SMILES IDX 65 66 58 67 60 68 61 69 62 70 63 71 40 72 41 73 49 74 42 75
REMARK SMILES IDX 44 76 50 77 43 78 45 79 46 80 47 81 48 82
REMARK H PARENT 70 35 38 46
REMARK Flexibility Score: inf
ROOT
ATOM      1  C   UNL A   1      37.218  20.634  25.054  1.00  0.00     0.275 C 
ENDROOT
BRANCH   1   2
ATOM      2  C   UNL A   1      36.009  21.488  24.665  1.00  0.00     0.275 C 
BRANCH   2   3
ATOM      3  O   UNL A   1      34.804  21.025  25.315  1.00  0.00    -0.458 OA
BRANCH   3   4
ATOM      4  C   UNL A   1      33.811  20.621  24.489  1.00  0.00     0.339 C 
ATOM      5  O   UNL A   1      33.222  21.306  23.670  1.00  0.00    -0.246 OA
BRANCH   4   6
ATOM      6  C   UNL A   1      33.533  19.184  24.653  1.00  0.00     0.079 A 
ATOM      7  C   UNL A   1      32.374  15.174  25.511  1.00  0.00     0.068 C 
ATOM      8  C   UNL A   1      32.844  16.565  25.192  1.00  0.00     0.055 A 
ATOM      9  N   UNL A   1      31.862  17.489  25.084  1.00  0.00    -0.259 NA
ATOM     10  C   UNL A   1      34.192  16.894  25.024  1.00  0.00     0.074 A 
ATOM     11  C   UNL A   1      32.224  18.769  24.838  1.00  0.00     0.127 A 
ATOM     12  C   UNL A   1      34.538  18.224  24.738  1.00  0.00     0.038 A 
BRANCH  10  13
ATOM     13  C   UNL A   1      35.226  15.922  25.194  1.00  0.00     0.101 C 
ATOM     14  N   UNL A   1      36.047  15.110  25.324  1.00  0.00    -0.192 NA
ENDBRANCH  10  13
ENDBRANCH   4   6
ENDBRANCH   3   4
ENDBRANCH   2   3
ENDBRANCH   1   2
BRANCH   1  15
ATOM     15  O   UNL A   1      38.427  21.413  25.042  1.00  0.00    -0.458 OA
BRANCH  15  16
ATOM     16  C   UNL A   1      39.295  21.124  26.036  1.00  0.00     0.338 C 
ATOM     17  O   UNL A   1      39.757  20.031  26.320  1.00  0.00    -0.246 OA
BRANCH  16  18
ATOM     18  C   UNL A   1      39.719  22.355  26.711  1.00  0.00     0.060 A 
ATOM     19  C   UNL A   1      39.178  23.562  26.278  1.00  0.00     0.016 A 
ATOM     20  C   UNL A   1      40.780  22.339  27.612  1.00  0.00     0.016 A 
ATOM     21  C   UNL A   1      39.793  24.759  26.619  1.00  0.00     0.010 A 
ATOM     22  C   UNL A   1      41.313  23.553  28.058  1.00  0.00     0.010 A 
ATOM     23  C   UNL A   1      40.863  24.773  27.522  1.00  0.00    -0.014 A 
BRANCH  23  24
ATOM     24  C   UNL A   1      41.509  26.062  27.887  1.00  0.00     0.031 A 
ATOM     25  C   UNL A   1      40.755  27.096  28.681  1.00  0.00     0.074 A 
ATOM     26  C   UNL A   1      42.783  26.298  27.511  1.00  0.00     0.049 A 
ATOM     27  N   UNL A   1      41.121  28.310  29.001  1.00  0.00    -0.248 NA
ATOM     28  C   UNL A   1      39.417  26.728  29.175  1.00  0.00     0.031 C 
ATOM     29  C   UNL A   1      43.630  25.367  26.760  1.00  0.00     0.029 A 
ATOM     30  N   UNL A   1      43.588  27.392  27.705  1.00  0.00    -0.354 N 
ATOM     31  C   UNL A   1      40.046  28.865  29.684  1.00  0.00     0.074 A 
ATOM     32  C   UNL A   1      39.009  27.860  29.733  1.00  0.00     0.031 C 
ATOM     33  C   UNL A   1      44.837  25.920  26.575  1.00  0.00     0.029 A 
ATOM     34  C   UNL A   1      44.828  27.269  27.125  1.00  0.00     0.049 A 
ATOM     35  H   UNL A   1      43.305  28.188  28.210  1.00  0.00     0.167 HD
ATOM     36  C   UNL A   1      39.941  30.098  30.232  1.00  0.00     0.034 A 
ATOM     37  C   UNL A   1      45.839  28.152  27.010  1.00  0.00     0.034 A 
ATOM     38  C   UNL A   1      40.993  31.076  30.227  1.00  0.00     0.049 A 
ATOM     39  C   UNL A   1      45.683  29.522  27.598  1.00  0.00     0.074 A 
ATOM     40  C   UNL A   1      40.989  32.337  30.795  1.00  0.00     0.029 A 
ATOM     41  N   UNL A   1      42.232  30.906  29.631  1.00  0.00    -0.354 N 
ATOM     42  N   UNL A   1      44.675  30.013  28.273  1.00  0.00    -0.248 NA
ATOM     43  C   UNL A   1      46.804  30.457  27.420  1.00  0.00     0.031 C 
ATOM     44  C   UNL A   1      42.215  32.944  30.516  1.00  0.00     0.029 A 
ATOM     45  C   UNL A   1      42.995  32.047  29.803  1.00  0.00     0.049 A 
ATOM     46  H   UNL A   1      42.524  30.096  29.154  1.00  0.00     0.167 HD
ATOM     47  C   UNL A   1      45.042  31.306  28.620  1.00  0.00     0.074 A 
ATOM     48  C   UNL A   1      46.373  31.520  28.089  1.00  0.00     0.031 C 
ATOM     49  C   UNL A   1      44.333  32.233  29.306  1.00  0.00     0.034 A 
BRANCH  36  50
ATOM     50  C   UNL A   1      38.654  30.471  30.914  1.00  0.00     0.023 A 
ATOM     51  C   UNL A   1      38.510  30.257  32.298  1.00  0.00     0.012 A 
ATOM     52  C   UNL A   1      37.638  31.145  30.206  1.00  0.00     0.148 A 
ATOM     53  C   UNL A   1      37.374  30.707  32.969  1.00  0.00     0.002 A 
ATOM     54  C   UNL A   1      36.522  31.614  30.886  1.00  0.00     0.091 A 
ATOM     55  F   UNL A   1      37.797  31.330  28.887  1.00  0.00    -0.205 F 
ATOM     56  C   UNL A   1      36.388  31.396  32.267  1.00  0.00     0.022 A 
BRANCH  54  57
ATOM     57  S   UNL A   1      35.214  32.547  30.082  1.00  0.00     0.127 S 
ATOM     58  O   UNL A   1      34.247  32.693  31.170  1.00  0.00    -0.237 OA
ATOM     59  O   UNL A   1      35.902  33.782  29.709  1.00  0.00    -0.237 OA
ATOM     60  O   UNL A   1      34.762  31.732  28.964  1.00  0.00    -0.744 OA
ENDBRANCH  54  57
ENDBRANCH  36  50
BRANCH  37  61
ATOM     61  C   UNL A   1      47.088  27.738  26.317  1.00  0.00     0.023 A 
ATOM     62  C   UNL A   1      48.078  27.042  27.037  1.00  0.00     0.012 A 
ATOM     63  C   UNL A   1      47.258  27.951  24.934  1.00  0.00     0.148 A 
ATOM     64  C   UNL A   1      49.217  26.566  26.389  1.00  0.00     0.002 A 
ATOM     65  C   UNL A   1      48.378  27.445  24.290  1.00  0.00     0.091 A 
ATOM     66  F   UNL A   1      46.296  28.611  24.274  1.00  0.00    -0.205 F 
ATOM     67  C   UNL A   1      49.363  26.757  25.017  1.00  0.00     0.022 A 
BRANCH  65  68
ATOM     68  S   UNL A   1      48.617  27.568  22.514  1.00  0.00     0.127 S 
ATOM     69  O   UNL A   1      48.650  26.161  22.119  1.00  0.00    -0.237 OA
ATOM     70  O   UNL A   1      47.417  28.296  22.102  1.00  0.00    -0.237 OA
ATOM     71  O   UNL A   1      49.863  28.297  22.329  1.00  0.00    -0.744 OA
ENDBRANCH  65  68
ENDBRANCH  37  61
BRANCH  49  72
ATOM     72  C   UNL A   1      44.968  33.571  29.557  1.00  0.00     0.023 A 
ATOM     73  C   UNL A   1      45.783  33.750  30.690  1.00  0.00     0.012 A 
ATOM     74  C   UNL A   1      44.871  34.597  28.596  1.00  0.00     0.148 A 
ATOM     75  C   UNL A   1      46.495  34.935  30.864  1.00  0.00     0.002 A 
ATOM     76  C   UNL A   1      45.607  35.762  28.761  1.00  0.00     0.091 A 
ATOM     77  F   UNL A   1      44.085  34.397  27.528  1.00  0.00    -0.205 F 
ATOM     78  C   UNL A   1      46.418  35.933  29.894  1.00  0.00     0.022 A 
BRANCH  76  79
ATOM     79  S   UNL A   1      45.621  37.080  27.541  1.00  0.00     0.127 S 
ATOM     80  O   UNL A   1      46.252  36.419  26.398  1.00  0.00    -0.237 OA
ATOM     81  O   UNL A   1      44.195  37.361  27.374  1.00  0.00    -0.237 OA
ATOM     82  O   UNL A   1      46.394  38.168  28.125  1.00  0.00    -0.744 OA
ENDBRANCH  76  79
ENDBRANCH  49  72
ENDBRANCH  23  24
ENDBRANCH  16  18
ENDBRANCH  15  16
ENDBRANCH   1  15
TORSDOF 15
ENDMDL
