MODEL 1
REMARK VINA RESULT:     -11.1      0.000      0.000
REMARK SMILES Cc1c([C@H]2[C@H](C(=O)OCCOC(=O)c3ccc(-c4c5nc(c(-c6cccc(S(=O)(=O)[O-])c6F)c6ccc([nH]6)c(-c6cccc(S(=O)(=O)[O-])c6F)c6nc(c(-c7cccc(S(=O)(=O)[O-])c7F)c7ccc4[nH]7)C=C6)C=C5)cc3)OCC(=O)N2CC(C)C)cnn1C
REMARK SMILES IDX 10 1 9 2 8 3 6 4 7 5 5 6 4 7 81 8 77 9 79 10 78 11 80 12
REMARK SMILES IDX 3 13 1 14 2 15 88 16 86 17 87 18 89 19 82 20 83 21 84 22
REMARK SMILES IDX 85 23 11 24 12 25 13 26 14 27 15 28 76 29 16 30 75 31 17 32
REMARK SMILES IDX 18 33 19 34 69 35 20 36 74 37 68 38 70 39 21 40 73 41 67 42
REMARK SMILES IDX 66 43 22 45 54 46 34 47 53 48 35 49 38 50 52 51 71 52 36 53
REMARK SMILES IDX 37 54 51 56 72 57 39 58 23 59 24 60 32 61 25 62 27 63 33 64
REMARK SMILES IDX 26 65 28 66 29 67 30 68 31 69 55 70 56 71 64 72 57 73 59 74
REMARK SMILES IDX 65 75 58 76 60 77 61 78 62 79 63 80 40 81 41 82 49 83 42 84
REMARK SMILES IDX 44 85 50 86 43 87 45 88 46 89 47 90 48 91
REMARK H PARENT 70 44 38 55
REMARK Flexibility Score: inf
ROOT
ATOM      1  C   UNL A   1      31.430  30.649  25.754  1.00  0.00     0.275 C 
ENDROOT
BRANCH   1   2
ATOM      2  C   UNL A   1      31.604  29.460  24.810  1.00  0.00     0.274 C 
BRANCH   2   3
ATOM      3  O   UNL A   1      32.783  28.698  25.142  1.00  0.00    -0.460 OA
BRANCH   3   4
ATOM      4  C   UNL A   1      32.566  27.418  25.543  1.00  0.00     0.337 C 
ATOM      5  O   UNL A   1      31.964  27.113  26.567  1.00  0.00    -0.249 OA
BRANCH   4   6
ATOM      6  C   UNL A   1      33.169  26.365  24.605  1.00  0.00     0.255 C 
ATOM      7  C   UNL A   1      32.952  24.881  25.003  1.00  0.00     0.159 C 
ATOM      8  N   UNL A   1      31.666  24.331  24.534  1.00  0.00    -0.330 N 
ATOM      9  O   UNL A   1      32.843  26.580  23.228  1.00  0.00    -0.354 OA
ATOM     10  C   UNL A   1      30.962  24.908  23.482  1.00  0.00     0.249 C 
ATOM     11  C   UNL A   1      31.495  26.249  22.958  1.00  0.00     0.261 C 
ATOM     12  O   UNL A   1      29.914  24.437  23.039  1.00  0.00    -0.272 OA
BRANCH   7  13
ATOM     13  C   UNL A   1      34.106  24.064  24.470  1.00  0.00     0.019 A 
ATOM     14  C   UNL A   1      35.294  23.151  26.630  1.00  0.00     0.067 C 
ATOM     15  C   UNL A   1      35.112  23.415  25.180  1.00  0.00     0.040 A 
ATOM     16  N   UNL A   1      36.047  23.041  24.244  1.00  0.00    -0.273 N 
ATOM     17  C   UNL A   1      34.482  23.885  23.116  1.00  0.00     0.141 A 
ATOM     18  N   UNL A   1      35.643  23.247  22.980  1.00  0.00    -0.181 NA
ATOM     19  C   UNL A   1      37.400  22.591  24.492  1.00  0.00     0.174 C 
ENDBRANCH   7  13
BRANCH   8  20
ATOM     20  C   UNL A   1      31.096  23.159  25.202  1.00  0.00     0.123 C 
BRANCH  20  21
ATOM     21  C   UNL A   1      30.927  23.327  26.727  1.00  0.00     0.002 C 
ATOM     22  C   UNL A   1      29.562  22.818  27.193  1.00  0.00     0.009 C 
ATOM     23  C   UNL A   1      32.022  22.564  27.480  1.00  0.00     0.009 C 
ENDBRANCH  20  21
ENDBRANCH   8  20
ENDBRANCH   4   6
ENDBRANCH   3   4
ENDBRANCH   2   3
ENDBRANCH   1   2
BRANCH   1  24
ATOM     24  O   UNL A   1      32.309  30.552  26.890  1.00  0.00    -0.458 OA
BRANCH  24  25
ATOM     25  C   UNL A   1      33.008  31.676  27.157  1.00  0.00     0.338 C 
ATOM     26  O   UNL A   1      32.596  32.828  27.124  1.00  0.00    -0.246 OA
BRANCH  25  27
ATOM     27  C   UNL A   1      34.362  31.346  27.620  1.00  0.00     0.060 A 
ATOM     28  C   UNL A   1      34.639  30.019  27.946  1.00  0.00     0.016 A 
ATOM     29  C   UNL A   1      35.284  32.352  27.904  1.00  0.00     0.016 A 
ATOM     30  C   UNL A   1      35.811  29.699  28.626  1.00  0.00     0.010 A 
ATOM     31  C   UNL A   1      36.490  32.017  28.533  1.00  0.00     0.010 A 
ATOM     32  C   UNL A   1      36.750  30.694  28.933  1.00  0.00    -0.014 A 
BRANCH  32  33
ATOM     33  C   UNL A   1      37.986  30.349  29.689  1.00  0.00     0.031 A 
ATOM     34  C   UNL A   1      39.030  29.448  29.083  1.00  0.00     0.074 A 
ATOM     35  C   UNL A   1      38.176  30.844  30.928  1.00  0.00     0.049 A 
ATOM     36  N   UNL A   1      40.103  28.943  29.635  1.00  0.00    -0.248 NA
ATOM     37  C   UNL A   1      38.844  29.059  27.676  1.00  0.00     0.031 C 
ATOM     38  C   UNL A   1      37.251  31.734  31.631  1.00  0.00     0.029 A 
ATOM     39  N   UNL A   1      39.204  30.661  31.820  1.00  0.00    -0.354 N 
ATOM     40  C   UNL A   1      40.681  28.123  28.673  1.00  0.00     0.074 A 
ATOM     41  C   UNL A   1      39.850  28.214  27.490  1.00  0.00     0.031 C 
ATOM     42  C   UNL A   1      37.758  32.032  32.836  1.00  0.00     0.029 A 
ATOM     43  C   UNL A   1      39.011  31.306  33.020  1.00  0.00     0.049 A 
ATOM     44  H   UNL A   1      40.003  30.122  31.620  1.00  0.00     0.167 HD
ATOM     45  C   UNL A   1      41.803  27.371  28.760  1.00  0.00     0.034 A 
ATOM     46  C   UNL A   1      39.738  31.292  34.154  1.00  0.00     0.034 A 
ATOM     47  C   UNL A   1      42.673  27.335  29.906  1.00  0.00     0.049 A 
ATOM     48  C   UNL A   1      40.995  30.474  34.214  1.00  0.00     0.074 A 
ATOM     49  C   UNL A   1      43.854  26.631  30.067  1.00  0.00     0.029 A 
ATOM     50  N   UNL A   1      42.466  28.041  31.080  1.00  0.00    -0.354 N 
ATOM     51  N   UNL A   1      41.550  29.748  33.273  1.00  0.00    -0.248 NA
ATOM     52  C   UNL A   1      41.733  30.477  35.486  1.00  0.00     0.031 C 
ATOM     53  C   UNL A   1      44.365  26.916  31.339  1.00  0.00     0.029 A 
ATOM     54  C   UNL A   1      43.499  27.795  31.969  1.00  0.00     0.049 A 
ATOM     55  H   UNL A   1      41.698  28.630  31.257  1.00  0.00     0.167 HD
ATOM     56  C   UNL A   1      42.704  29.215  33.837  1.00  0.00     0.074 A 
ATOM     57  C   UNL A   1      42.787  29.729  35.189  1.00  0.00     0.031 C 
ATOM     58  C   UNL A   1      43.597  28.352  33.292  1.00  0.00     0.034 A 
BRANCH  45  59
ATOM     59  C   UNL A   1      42.188  26.544  27.563  1.00  0.00     0.023 A 
ATOM     60  C   UNL A   1      42.937  27.132  26.525  1.00  0.00     0.012 A 
ATOM     61  C   UNL A   1      41.870  25.173  27.499  1.00  0.00     0.148 A 
ATOM     62  C   UNL A   1      43.349  26.371  25.431  1.00  0.00     0.002 A 
ATOM     63  C   UNL A   1      42.312  24.414  26.420  1.00  0.00     0.091 A 
ATOM     64  F   UNL A   1      41.130  24.639  28.480  1.00  0.00    -0.205 F 
ATOM     65  C   UNL A   1      43.046  25.012  25.384  1.00  0.00     0.022 A 
BRANCH  63  66
ATOM     66  S   UNL A   1      42.017  22.645  26.318  1.00  0.00     0.127 S 
ATOM     67  O   UNL A   1      42.652  22.167  27.544  1.00  0.00    -0.237 OA
ATOM     68  O   UNL A   1      40.555  22.565  26.318  1.00  0.00    -0.237 OA
ATOM     69  O   UNL A   1      42.641  22.218  25.072  1.00  0.00    -0.744 OA
ENDBRANCH  63  66
ENDBRANCH  45  59
BRANCH  46  70
ATOM     70  C   UNL A   1      39.294  32.112  35.316  1.00  0.00     0.023 A 
ATOM     71  C   UNL A   1      38.492  31.524  36.311  1.00  0.00     0.012 A 
ATOM     72  C   UNL A   1      39.721  33.444  35.477  1.00  0.00     0.148 A 
ATOM     73  C   UNL A   1      38.118  32.250  37.442  1.00  0.00     0.002 A 
ATOM     74  C   UNL A   1      39.395  34.142  36.635  1.00  0.00     0.091 A 
ATOM     75  F   UNL A   1      40.458  34.003  34.504  1.00  0.00    -0.205 F 
ATOM     76  C   UNL A   1      38.584  33.551  37.613  1.00  0.00     0.022 A 
BRANCH  74  77
ATOM     77  S   UNL A   1      40.104  35.757  36.979  1.00  0.00     0.127 S 
ATOM     78  O   UNL A   1      39.664  36.532  35.823  1.00  0.00    -0.237 OA
ATOM     79  O   UNL A   1      39.463  36.119  38.244  1.00  0.00    -0.237 OA
ATOM     80  O   UNL A   1      41.537  35.519  37.090  1.00  0.00    -0.744 OA
ENDBRANCH  74  77
ENDBRANCH  46  70
BRANCH  58  81
ATOM     81  C   UNL A   1      44.743  27.905  34.157  1.00  0.00     0.023 A 
ATOM     82  C   UNL A   1      45.917  28.682  34.196  1.00  0.00     0.012 A 
ATOM     83  C   UNL A   1      44.639  26.765  34.976  1.00  0.00     0.148 A 
ATOM     84  C   UNL A   1      46.980  28.320  35.024  1.00  0.00     0.002 A 
ATOM     85  C   UNL A   1      45.689  26.428  35.823  1.00  0.00     0.091 A 
ATOM     86  F   UNL A   1      43.524  26.023  34.905  1.00  0.00    -0.205 F 
ATOM     87  C   UNL A   1      46.862  27.201  35.844  1.00  0.00     0.022 A 
BRANCH  85  88
ATOM     88  S   UNL A   1      45.578  25.044  36.963  1.00  0.00     0.127 S 
ATOM     89  O   UNL A   1      45.295  23.932  36.058  1.00  0.00    -0.237 OA
ATOM     90  O   UNL A   1      46.912  25.016  37.563  1.00  0.00    -0.237 OA
ATOM     91  O   UNL A   1      44.513  25.392  37.894  1.00  0.00    -0.744 OA
ENDBRANCH  85  88
ENDBRANCH  58  81
ENDBRANCH  32  33
ENDBRANCH  25  27
ENDBRANCH  24  25
ENDBRANCH   1  24
TORSDOF 17
ENDMDL
MODEL 2
REMARK VINA RESULT:     -11.1      5.067      9.946
REMARK SMILES Cc1c([C@H]2[C@H](C(=O)OCCOC(=O)c3ccc(-c4c5nc(c(-c6cccc(S(=O)(=O)[O-])c6F)c6ccc([nH]6)c(-c6cccc(S(=O)(=O)[O-])c6F)c6nc(c(-c7cccc(S(=O)(=O)[O-])c7F)c7ccc4[nH]7)C=C6)C=C5)cc3)OCC(=O)N2CC(C)C)cnn1C
REMARK SMILES IDX 10 1 9 2 8 3 6 4 7 5 5 6 4 7 81 8 77 9 79 10 78 11 80 12
REMARK SMILES IDX 3 13 1 14 2 15 88 16 86 17 87 18 89 19 82 20 83 21 84 22
REMARK SMILES IDX 85 23 11 24 12 25 13 26 14 27 15 28 76 29 16 30 75 31 17 32
REMARK SMILES IDX 18 33 19 34 69 35 20 36 74 37 68 38 70 39 21 40 73 41 67 42
REMARK SMILES IDX 66 43 22 45 54 46 34 47 53 48 35 49 38 50 52 51 71 52 36 53
REMARK SMILES IDX 37 54 51 56 72 57 39 58 23 59 24 60 32 61 25 62 27 63 33 64
REMARK SMILES IDX 26 65 28 66 29 67 30 68 31 69 55 70 56 71 64 72 57 73 59 74
REMARK SMILES IDX 65 75 58 76 60 77 61 78 62 79 63 80 40 81 41 82 49 83 42 84
REMARK SMILES IDX 44 85 50 86 43 87 45 88 46 89 47 90 48 91
REMARK H PARENT 70 44 38 55
REMARK Flexibility Score: inf
ROOT
ATOM      1  C   UNL A   1      36.829  20.773  25.261  1.00  0.00     0.275 C 
ENDROOT
BRANCH   1   2
ATOM      2  C   UNL A   1      35.686  21.582  24.648  1.00  0.00     0.274 C 
BRANCH   2   3
ATOM      3  O   UNL A   1      35.969  22.996  24.685  1.00  0.00    -0.460 OA
BRANCH   3   4
ATOM      4  C   UNL A   1      35.068  23.796  24.057  1.00  0.00     0.337 C 
ATOM      5  O   UNL A   1      34.922  23.840  22.839  1.00  0.00    -0.249 OA
BRANCH   4   6
ATOM      6  C   UNL A   1      34.249  24.675  25.010  1.00  0.00     0.255 C 
ATOM      7  C   UNL A   1      33.215  25.627  24.353  1.00  0.00     0.159 C 
ATOM      8  N   UNL A   1      31.915  24.984  24.085  1.00  0.00    -0.330 N 
ATOM      9  O   UNL A   1      33.660  23.943  26.090  1.00  0.00    -0.354 OA
ATOM     10  C   UNL A   1      31.514  23.833  24.755  1.00  0.00     0.249 C 
ATOM     11  C   UNL A   1      32.567  23.162  25.649  1.00  0.00     0.261 C 
ATOM     12  O   UNL A   1      30.413  23.308  24.586  1.00  0.00    -0.272 OA
BRANCH   7  13
ATOM     13  C   UNL A   1      33.037  26.835  25.244  1.00  0.00     0.019 A 
ATOM     14  C   UNL A   1      33.665  28.867  23.698  1.00  0.00     0.067 C 
ATOM     15  C   UNL A   1      33.308  28.171  24.960  1.00  0.00     0.040 A 
ATOM     16  N   UNL A   1      33.225  28.831  26.163  1.00  0.00    -0.273 N 
ATOM     17  C   UNL A   1      32.669  26.850  26.611  1.00  0.00     0.141 A 
ATOM     18  N   UNL A   1      32.761  28.060  27.160  1.00  0.00    -0.181 NA
ATOM     19  C   UNL A   1      33.690  30.170  26.458  1.00  0.00     0.174 C 
ENDBRANCH   7  13
BRANCH   8  20
ATOM     20  C   UNL A   1      31.024  25.554  23.072  1.00  0.00     0.123 C 
BRANCH  20  21
ATOM     21  C   UNL A   1      30.237  26.792  23.553  1.00  0.00     0.002 C 
ATOM     22  C   UNL A   1      30.237  27.896  22.495  1.00  0.00     0.009 C 
ATOM     23  C   UNL A   1      28.786  26.418  23.878  1.00  0.00     0.009 C 
ENDBRANCH  20  21
ENDBRANCH   8  20
ENDBRANCH   4   6
ENDBRANCH   3   4
ENDBRANCH   2   3
ENDBRANCH   1   2
BRANCH   1  24
ATOM     24  O   UNL A   1      38.104  21.393  25.015  1.00  0.00    -0.458 OA
BRANCH  24  25
ATOM     25  C   UNL A   1      39.061  21.091  25.918  1.00  0.00     0.338 C 
ATOM     26  O   UNL A   1      39.534  19.987  26.152  1.00  0.00    -0.246 OA
BRANCH  25  27
ATOM     27  C   UNL A   1      39.577  22.310  26.553  1.00  0.00     0.060 A 
ATOM     28  C   UNL A   1      39.063  23.537  26.134  1.00  0.00     0.016 A 
ATOM     29  C   UNL A   1      40.676  22.258  27.408  1.00  0.00     0.016 A 
ATOM     30  C   UNL A   1      39.692  24.721  26.511  1.00  0.00     0.010 A 
ATOM     31  C   UNL A   1      41.269  23.454  27.835  1.00  0.00     0.010 A 
ATOM     32  C   UNL A   1      40.806  24.695  27.362  1.00  0.00    -0.014 A 
BRANCH  32  33
ATOM     33  C   UNL A   1      41.492  25.964  27.733  1.00  0.00     0.031 A 
ATOM     34  C   UNL A   1      40.781  27.010  28.552  1.00  0.00     0.074 A 
ATOM     35  C   UNL A   1      42.761  26.183  27.336  1.00  0.00     0.049 A 
ATOM     36  N   UNL A   1      41.173  28.218  28.864  1.00  0.00    -0.248 NA
ATOM     37  C   UNL A   1      39.456  26.657  29.085  1.00  0.00     0.031 C 
ATOM     38  C   UNL A   1      43.569  25.252  26.547  1.00  0.00     0.029 A 
ATOM     39  N   UNL A   1      43.590  27.261  27.530  1.00  0.00    -0.354 N 
ATOM     40  C   UNL A   1      40.122  28.795  29.566  1.00  0.00     0.074 A 
ATOM     41  C   UNL A   1      39.078  27.794  29.653  1.00  0.00     0.031 C 
ATOM     42  C   UNL A   1      44.781  25.790  26.338  1.00  0.00     0.029 A 
ATOM     43  C   UNL A   1      44.815  27.128  26.919  1.00  0.00     0.049 A 
ATOM     44  H   UNL A   1      43.332  28.052  28.057  1.00  0.00     0.167 HD
ATOM     45  C   UNL A   1      40.033  30.037  30.097  1.00  0.00     0.034 A 
ATOM     46  C   UNL A   1      45.843  27.993  26.809  1.00  0.00     0.034 A 
ATOM     47  C   UNL A   1      41.095  31.008  30.078  1.00  0.00     0.049 A 
ATOM     48  C   UNL A   1      45.731  29.354  27.433  1.00  0.00     0.074 A 
ATOM     49  C   UNL A   1      41.107  32.279  30.627  1.00  0.00     0.029 A 
ATOM     50  N   UNL A   1      42.336  30.814  29.493  1.00  0.00    -0.354 N 
ATOM     51  N   UNL A   1      44.746  29.857  28.137  1.00  0.00    -0.248 NA
ATOM     52  C   UNL A   1      46.873  30.263  27.257  1.00  0.00     0.031 C 
ATOM     53  C   UNL A   1      42.360  32.853  30.378  1.00  0.00     0.029 A 
ATOM     54  C   UNL A   1      43.125  31.939  29.671  1.00  0.00     0.049 A 
ATOM     55  H   UNL A   1      42.616  29.998  29.020  1.00  0.00     0.167 HD
ATOM     56  C   UNL A   1      45.152  31.139  28.494  1.00  0.00     0.074 A 
ATOM     57  C   UNL A   1      46.486  31.321  27.958  1.00  0.00     0.031 C 
ATOM     58  C   UNL A   1      44.468  32.089  29.177  1.00  0.00     0.034 A 
BRANCH  45  59
ATOM     59  C   UNL A   1      38.751  30.415  30.786  1.00  0.00     0.023 A 
ATOM     60  C   UNL A   1      38.551  30.048  32.131  1.00  0.00     0.012 A 
ATOM     61  C   UNL A   1      37.777  31.192  30.128  1.00  0.00     0.148 A 
ATOM     62  C   UNL A   1      37.392  30.433  32.805  1.00  0.00     0.002 A 
ATOM     63  C   UNL A   1      36.639  31.599  30.817  1.00  0.00     0.091 A 
ATOM     64  F   UNL A   1      37.970  31.506  28.839  1.00  0.00    -0.205 F 
ATOM     65  C   UNL A   1      36.443  31.216  32.152  1.00  0.00     0.022 A 
BRANCH  63  66
ATOM     66  S   UNL A   1      35.402  32.663  30.065  1.00  0.00     0.127 S 
ATOM     67  O   UNL A   1      36.202  33.824  29.682  1.00  0.00    -0.237 OA
ATOM     68  O   UNL A   1      34.926  31.853  28.942  1.00  0.00    -0.237 OA
ATOM     69  O   UNL A   1      34.405  32.893  31.102  1.00  0.00    -0.744 OA
ENDBRANCH  63  66
ENDBRANCH  45  59
BRANCH  46  70
ATOM     70  C   UNL A   1      47.079  27.570  26.093  1.00  0.00     0.023 A 
ATOM     71  C   UNL A   1      48.036  26.791  26.768  1.00  0.00     0.012 A 
ATOM     72  C   UNL A   1      47.277  27.873  24.732  1.00  0.00     0.148 A 
ATOM     73  C   UNL A   1      49.171  26.326  26.102  1.00  0.00     0.002 A 
ATOM     74  C   UNL A   1      48.377  27.356  24.059  1.00  0.00     0.091 A 
ATOM     75  F   UNL A   1      46.372  28.645  24.110  1.00  0.00    -0.205 F 
ATOM     76  C   UNL A   1      49.333  26.592  24.745  1.00  0.00     0.022 A 
BRANCH  74  77
ATOM     77  S   UNL A   1      48.547  27.531  22.279  1.00  0.00     0.127 S 
ATOM     78  O   UNL A   1      49.781  28.301  22.167  1.00  0.00    -0.237 OA
ATOM     79  O   UNL A   1      48.646  26.140  21.833  1.00  0.00    -0.237 OA
ATOM     80  O   UNL A   1      47.326  28.201  21.852  1.00  0.00    -0.744 OA
ENDBRANCH  74  77
ENDBRANCH  46  70
BRANCH  58  81
ATOM     81  C   UNL A   1      45.146  33.415  29.385  1.00  0.00     0.023 A 
ATOM     82  C   UNL A   1      45.939  33.608  30.533  1.00  0.00     0.012 A 
ATOM     83  C   UNL A   1      45.057  34.440  28.425  1.00  0.00     0.148 A 
ATOM     84  C   UNL A   1      46.618  34.810  30.732  1.00  0.00     0.002 A 
ATOM     85  C   UNL A   1      45.764  35.622  28.612  1.00  0.00     0.091 A 
ATOM     86  F   UNL A   1      44.277  34.247  27.350  1.00  0.00    -0.205 F 
ATOM     87  C   UNL A   1      46.540  35.811  29.768  1.00  0.00     0.022 A 
BRANCH  85  88
ATOM     88  S   UNL A   1      45.770  36.927  27.376  1.00  0.00     0.127 S 
ATOM     89  O   UNL A   1      46.648  37.919  27.993  1.00  0.00    -0.237 OA
ATOM     90  O   UNL A   1      46.337  36.255  26.206  1.00  0.00    -0.237 OA
ATOM     91  O   UNL A   1      44.377  37.321  27.221  1.00  0.00    -0.744 OA
ENDBRANCH  85  88
ENDBRANCH  58  81
ENDBRANCH  32  33
ENDBRANCH  25  27
ENDBRANCH  24  25
ENDBRANCH   1  24
TORSDOF 17
ENDMDL
MODEL 3
REMARK VINA RESULT:     -10.9      1.634      2.345
REMARK SMILES Cc1c([C@H]2[C@H](C(=O)OCCOC(=O)c3ccc(-c4c5nc(c(-c6cccc(S(=O)(=O)[O-])c6F)c6ccc([nH]6)c(-c6cccc(S(=O)(=O)[O-])c6F)c6nc(c(-c7cccc(S(=O)(=O)[O-])c7F)c7ccc4[nH]7)C=C6)C=C5)cc3)OCC(=O)N2CC(C)C)cnn1C
REMARK SMILES IDX 10 1 9 2 8 3 6 4 7 5 5 6 4 7 81 8 77 9 79 10 78 11 80 12
REMARK SMILES IDX 3 13 1 14 2 15 88 16 86 17 87 18 89 19 82 20 83 21 84 22
REMARK SMILES IDX 85 23 11 24 12 25 13 26 14 27 15 28 76 29 16 30 75 31 17 32
REMARK SMILES IDX 18 33 19 34 69 35 20 36 74 37 68 38 70 39 21 40 73 41 67 42
REMARK SMILES IDX 66 43 22 45 54 46 34 47 53 48 35 49 38 50 52 51 71 52 36 53
REMARK SMILES IDX 37 54 51 56 72 57 39 58 23 59 24 60 32 61 25 62 27 63 33 64
REMARK SMILES IDX 26 65 28 66 29 67 30 68 31 69 55 70 56 71 64 72 57 73 59 74
REMARK SMILES IDX 65 75 58 76 60 77 61 78 62 79 63 80 40 81 41 82 49 83 42 84
REMARK SMILES IDX 44 85 50 86 43 87 45 88 46 89 47 90 48 91
REMARK H PARENT 70 44 38 55
REMARK Flexibility Score: inf
ROOT
ATOM      1  C   UNL A   1      31.775  31.625  26.502  1.00  0.00     0.275 C 
ENDROOT
BRANCH   1   2
ATOM      2  C   UNL A   1      31.273  30.517  25.578  1.00  0.00     0.274 C 
BRANCH   2   3
ATOM      3  O   UNL A   1      31.534  29.213  26.136  1.00  0.00    -0.460 OA
BRANCH   3   4
ATOM      4  C   UNL A   1      31.404  28.166  25.279  1.00  0.00     0.337 C 
ATOM      5  O   UNL A   1      30.474  28.037  24.490  1.00  0.00    -0.249 OA
BRANCH   4   6
ATOM      6  C   UNL A   1      32.526  27.127  25.398  1.00  0.00     0.255 C 
ATOM      7  C   UNL A   1      32.290  25.773  24.677  1.00  0.00     0.159 C 
ATOM      8  N   UNL A   1      32.678  25.793  23.254  1.00  0.00    -0.330 N 
ATOM      9  O   UNL A   1      33.821  27.653  25.093  1.00  0.00    -0.354 OA
ATOM     10  C   UNL A   1      33.566  26.737  22.749  1.00  0.00     0.249 C 
ATOM     11  C   UNL A   1      33.978  27.867  23.704  1.00  0.00     0.261 C 
ATOM     12  O   UNL A   1      33.945  26.742  21.577  1.00  0.00    -0.272 OA
BRANCH   7  13
ATOM     13  C   UNL A   1      33.045  24.693  25.418  1.00  0.00     0.019 A 
ATOM     14  C   UNL A   1      31.153  23.192  26.457  1.00  0.00     0.067 C 
ATOM     15  C   UNL A   1      32.538  23.672  26.217  1.00  0.00     0.040 A 
ATOM     16  N   UNL A   1      33.625  23.127  26.858  1.00  0.00    -0.273 N 
ATOM     17  C   UNL A   1      34.448  24.564  25.558  1.00  0.00     0.141 A 
ATOM     18  N   UNL A   1      34.798  23.603  26.410  1.00  0.00    -0.181 NA
ATOM     19  C   UNL A   1      33.609  22.233  27.997  1.00  0.00     0.174 C 
ENDBRANCH   7  13
BRANCH   8  20
ATOM     20  C   UNL A   1      32.100  24.810  22.335  1.00  0.00     0.123 C 
BRANCH  20  21
ATOM     21  C   UNL A   1      32.982  23.562  22.116  1.00  0.00     0.002 C 
ATOM     22  C   UNL A   1      32.348  22.318  22.741  1.00  0.00     0.009 C 
ATOM     23  C   UNL A   1      33.198  23.308  20.620  1.00  0.00     0.009 C 
ENDBRANCH  20  21
ENDBRANCH   8  20
ENDBRANCH   4   6
ENDBRANCH   3   4
ENDBRANCH   2   3
ENDBRANCH   1   2
BRANCH   1  24
ATOM     24  O   UNL A   1      32.956  31.219  27.218  1.00  0.00    -0.458 OA
BRANCH  24  25
ATOM     25  C   UNL A   1      33.757  32.235  27.606  1.00  0.00     0.338 C 
ATOM     26  O   UNL A   1      33.451  33.414  27.718  1.00  0.00    -0.246 OA
BRANCH  25  27
ATOM     27  C   UNL A   1      35.077  31.730  28.003  1.00  0.00     0.060 A 
ATOM     28  C   UNL A   1      35.175  30.405  28.425  1.00  0.00     0.016 A 
ATOM     29  C   UNL A   1      36.161  32.597  28.134  1.00  0.00     0.016 A 
ATOM     30  C   UNL A   1      36.336  29.957  29.050  1.00  0.00     0.010 A 
ATOM     31  C   UNL A   1      37.350  32.124  28.707  1.00  0.00     0.010 A 
ATOM     32  C   UNL A   1      37.437  30.811  29.203  1.00  0.00    -0.014 A 
BRANCH  32  33
ATOM     33  C   UNL A   1      38.663  30.334  29.901  1.00  0.00     0.031 A 
ATOM     34  C   UNL A   1      39.581  29.336  29.244  1.00  0.00     0.074 A 
ATOM     35  C   UNL A   1      38.958  30.794  31.133  1.00  0.00     0.049 A 
ATOM     36  N   UNL A   1      40.620  28.718  29.745  1.00  0.00    -0.248 NA
ATOM     37  C   UNL A   1      39.294  28.982  27.845  1.00  0.00     0.031 C 
ATOM     38  C   UNL A   1      38.161  31.767  31.881  1.00  0.00     0.029 A 
ATOM     39  N   UNL A   1      40.000  30.498  31.977  1.00  0.00    -0.354 N 
ATOM     40  C   UNL A   1      41.067  27.853  28.753  1.00  0.00     0.074 A 
ATOM     41  C   UNL A   1      40.198  28.040  27.610  1.00  0.00     0.031 C 
ATOM     42  C   UNL A   1      38.749  32.000  33.065  1.00  0.00     0.029 A 
ATOM     43  C   UNL A   1      39.927  31.147  33.188  1.00  0.00     0.049 A 
ATOM     44  H   UNL A   1      40.729  29.882  31.738  1.00  0.00     0.167 HD
ATOM     45  C   UNL A   1      42.109  26.989  28.786  1.00  0.00     0.034 A 
ATOM     46  C   UNL A   1      40.699  31.048  34.288  1.00  0.00     0.034 A 
ATOM     47  C   UNL A   1      43.020  26.853  29.892  1.00  0.00     0.049 A 
ATOM     48  C   UNL A   1      41.866  30.104  34.287  1.00  0.00     0.074 A 
ATOM     49  C   UNL A   1      44.128  26.030  29.996  1.00  0.00     0.029 A 
ATOM     50  N   UNL A   1      42.939  27.565  31.078  1.00  0.00    -0.354 N 
ATOM     51  N   UNL A   1      42.301  29.335  33.319  1.00  0.00    -0.248 NA
ATOM     52  C   UNL A   1      42.655  30.020  35.525  1.00  0.00     0.031 C 
ATOM     53  C   UNL A   1      44.722  26.248  31.245  1.00  0.00     0.029 A 
ATOM     54  C   UNL A   1      43.980  27.205  31.918  1.00  0.00     0.049 A 
ATOM     55  H   UNL A   1      42.244  28.228  31.291  1.00  0.00     0.167 HD
ATOM     56  C   UNL A   1      43.418  28.681  33.827  1.00  0.00     0.074 A 
ATOM     57  C   UNL A   1      43.613  29.170  35.177  1.00  0.00     0.031 C 
ATOM     58  C   UNL A   1      44.192  27.736  33.238  1.00  0.00     0.034 A 
BRANCH  45  59
ATOM     59  C   UNL A   1      42.353  26.139  27.569  1.00  0.00     0.023 A 
ATOM     60  C   UNL A   1      43.065  26.676  26.479  1.00  0.00     0.012 A 
ATOM     61  C   UNL A   1      41.941  24.792  27.532  1.00  0.00     0.148 A 
ATOM     62  C   UNL A   1      43.349  25.889  25.362  1.00  0.00     0.002 A 
ATOM     63  C   UNL A   1      42.254  24.006  26.429  1.00  0.00     0.091 A 
ATOM     64  F   UNL A   1      41.237  24.308  28.565  1.00  0.00    -0.205 F 
ATOM     65  C   UNL A   1      42.953  24.554  25.341  1.00  0.00     0.022 A 
BRANCH  63  66
ATOM     66  S   UNL A   1      41.836  22.260  26.355  1.00  0.00     0.127 S 
ATOM     67  O   UNL A   1      42.371  21.773  27.624  1.00  0.00    -0.237 OA
ATOM     68  O   UNL A   1      40.374  22.286  26.279  1.00  0.00    -0.237 OA
ATOM     69  O   UNL A   1      42.489  21.754  25.154  1.00  0.00    -0.744 OA
ENDBRANCH  63  66
ENDBRANCH  45  59
BRANCH  46  70
ATOM     70  C   UNL A   1      40.393  31.898  35.473  1.00  0.00     0.023 A 
ATOM     71  C   UNL A   1      41.152  33.060  35.703  1.00  0.00     0.012 A 
ATOM     72  C   UNL A   1      39.314  31.602  36.327  1.00  0.00     0.148 A 
ATOM     73  C   UNL A   1      40.844  33.909  36.767  1.00  0.00     0.002 A 
ATOM     74  C   UNL A   1      38.974  32.483  37.348  1.00  0.00     0.091 A 
ATOM     75  F   UNL A   1      38.620  30.473  36.115  1.00  0.00    -0.205 F 
ATOM     76  C   UNL A   1      39.746  33.631  37.577  1.00  0.00     0.022 A 
BRANCH  74  77
ATOM     77  S   UNL A   1      37.476  32.258  38.313  1.00  0.00     0.127 S 
ATOM     78  O   UNL A   1      37.864  32.811  39.607  1.00  0.00    -0.237 OA
ATOM     79  O   UNL A   1      36.499  33.057  37.570  1.00  0.00    -0.237 OA
ATOM     80  O   UNL A   1      37.219  30.825  38.273  1.00  0.00    -0.744 OA
ENDBRANCH  74  77
ENDBRANCH  46  70
BRANCH  58  81
ATOM     81  C   UNL A   1      45.323  27.166  34.048  1.00  0.00     0.023 A 
ATOM     82  C   UNL A   1      46.581  27.799  34.013  1.00  0.00     0.012 A 
ATOM     83  C   UNL A   1      45.131  26.053  34.889  1.00  0.00     0.148 A 
ATOM     84  C   UNL A   1      47.637  27.322  34.789  1.00  0.00     0.002 A 
ATOM     85  C   UNL A   1      46.178  25.603  35.685  1.00  0.00     0.091 A 
ATOM     86  F   UNL A   1      43.934  25.448  34.890  1.00  0.00    -0.205 F 
ATOM     87  C   UNL A   1      47.433  26.233  35.632  1.00  0.00     0.022 A 
BRANCH  85  88
ATOM     88  S   UNL A   1      45.968  24.252  36.851  1.00  0.00     0.127 S 
ATOM     89  O   UNL A   1      44.987  24.809  37.781  1.00  0.00    -0.237 OA
ATOM     90  O   UNL A   1      45.459  23.174  36.002  1.00  0.00    -0.237 OA
ATOM     91  O   UNL A   1      47.294  24.003  37.401  1.00  0.00    -0.744 OA
ENDBRANCH  85  88
ENDBRANCH  58  81
ENDBRANCH  32  33
ENDBRANCH  25  27
ENDBRANCH  24  25
ENDBRANCH   1  24
TORSDOF 17
ENDMDL
