MODEL 1
REMARK VINA RESULT:     -11.6      0.000      0.000
REMARK SMILES Cc1cc(Br)c(C)c([C@@H]2[NH2+][C@H](C(=O)OCCOC(=O)c3ccc(-c4c5nc(c(-c6cccc(S(=O)(=O)[O-])c6F)c6ccc([nH]6)c(-c6cccc(S(=O)(=O)[O-])c6F)c6nc(c(-c7cccc(S(=O)(=O)[O-])c7F)c7ccc4[nH]7)C=C6)C=C5)cc3)CS2)c1O
REMARK SMILES IDX 16 1 15 2 14 3 12 4 13 5 11 6 9 7 10 8 84 9 83 12 8 13 1 14
REMARK SMILES IDX 2 15 3 16 85 17 4 18 5 19 6 20 7 21 86 22 17 24 18 25 19 26
REMARK SMILES IDX 20 27 21 28 82 29 22 30 81 31 23 32 24 33 25 34 75 35 26 36
REMARK SMILES IDX 80 37 74 38 76 39 27 40 79 41 73 42 72 43 28 45 60 46 40 47
REMARK SMILES IDX 59 48 41 49 44 50 58 51 77 52 42 53 43 54 57 56 78 57 45 58
REMARK SMILES IDX 29 59 30 60 38 61 31 62 33 63 39 64 32 65 34 66 35 67 36 68
REMARK SMILES IDX 37 69 61 70 62 71 70 72 63 73 65 74 71 75 64 76 66 77 67 78
REMARK SMILES IDX 68 79 69 80 46 81 47 82 55 83 48 84 50 85 56 86 49 87 51 88
REMARK SMILES IDX 52 89 53 90 54 91
REMARK H PARENT 10 10 10 11 86 23 76 44 44 55
REMARK Flexibility Score: inf
ROOT
ATOM      1  C   UNL A   1      31.924  30.057  26.439  1.00  0.00     0.275 C 
ENDROOT
BRANCH   1   2
ATOM      2  C   UNL A   1      31.723  28.881  27.393  1.00  0.00     0.274 C 
BRANCH   2   3
ATOM      3  O   UNL A   1      32.351  27.704  26.853  1.00  0.00    -0.458 OA
BRANCH   3   4
ATOM      4  C   UNL A   1      31.566  26.774  26.249  1.00  0.00     0.365 C 
ATOM      5  O   UNL A   1      30.476  26.420  26.689  1.00  0.00    -0.245 OA
BRANCH   4   6
ATOM      6  C   UNL A   1      32.157  26.205  24.949  1.00  0.00     0.304 C 
ATOM      7  C   UNL A   1      31.116  26.867  22.875  1.00  0.00     0.278 C 
ATOM      8  N   UNL A   1      31.152  25.841  23.918  1.00  0.00    -0.319 N 
ATOM      9  S   UNL A   1      32.737  27.629  22.742  1.00  0.00    -0.087 SA
ATOM     10  H   UNL A   1      31.403  24.945  23.502  1.00  0.00     0.348 HD
ATOM     11  H   UNL A   1      30.232  25.773  24.355  1.00  0.00     0.348 HD
ATOM     12  C   UNL A   1      33.252  27.117  24.397  1.00  0.00     0.153 C 
BRANCH   7  13
ATOM     13  C   UNL A   1      29.889  27.772  22.995  1.00  0.00     0.066 A 
ATOM     14  C   UNL A   1      26.153  27.562  23.991  1.00  0.00     0.048 C 
ATOM     15  C   UNL A   1      27.482  28.060  23.498  1.00  0.00    -0.008 A 
ATOM     16  C   UNL A   1      27.556  29.375  23.039  1.00  0.00     0.023 A 
ATOM     17  C   UNL A   1      28.656  27.291  23.503  1.00  0.00     0.128 A 
ATOM     18  C   UNL A   1      28.756  29.899  22.558  1.00  0.00     0.021 A 
ATOM     19  Br  UNL A   1      28.710  31.733  22.032  1.00  0.00    -0.051 Br
ATOM     20  C   UNL A   1      29.923  29.108  22.480  1.00  0.00    -0.023 A 
ATOM     21  C   UNL A   1      31.181  29.716  21.898  1.00  0.00     0.046 C 
BRANCH  17  22
ATOM     22  O   UNL A   1      28.594  26.023  24.012  1.00  0.00    -0.507 OA
ATOM     23  H   UNL A   1      28.534  25.892  24.937  1.00  0.00     0.293 HD
ENDBRANCH  17  22
ENDBRANCH   7  13
ENDBRANCH   4   6
ENDBRANCH   3   4
ENDBRANCH   2   3
ENDBRANCH   1   2
BRANCH   1  24
ATOM     24  O   UNL A   1      33.313  30.420  26.402  1.00  0.00    -0.458 OA
BRANCH  24  25
ATOM     25  C   UNL A   1      33.668  31.421  27.247  1.00  0.00     0.338 C 
ATOM     26  O   UNL A   1      33.009  32.383  27.579  1.00  0.00    -0.246 OA
BRANCH  25  27
ATOM     27  C   UNL A   1      34.951  31.046  27.869  1.00  0.00     0.060 A 
ATOM     28  C   UNL A   1      35.994  31.966  27.986  1.00  0.00     0.016 A 
ATOM     29  C   UNL A   1      35.096  29.735  28.327  1.00  0.00     0.016 A 
ATOM     30  C   UNL A   1      37.199  31.557  28.557  1.00  0.00     0.010 A 
ATOM     31  C   UNL A   1      36.301  29.324  28.886  1.00  0.00     0.010 A 
ATOM     32  C   UNL A   1      37.360  30.233  29.003  1.00  0.00    -0.014 A 
BRANCH  32  33
ATOM     33  C   UNL A   1      38.606  29.822  29.682  1.00  0.00     0.031 A 
ATOM     34  C   UNL A   1      38.979  30.388  31.019  1.00  0.00     0.074 A 
ATOM     35  C   UNL A   1      39.425  28.965  29.044  1.00  0.00     0.049 A 
ATOM     36  N   UNL A   1      39.991  30.075  31.785  1.00  0.00    -0.248 NA
ATOM     37  C   UNL A   1      38.115  31.447  31.565  1.00  0.00     0.031 C 
ATOM     38  C   UNL A   1      39.193  28.433  27.699  1.00  0.00     0.029 A 
ATOM     39  N   UNL A   1      40.615  28.407  29.425  1.00  0.00    -0.354 N 
ATOM     40  C   UNL A   1      39.891  30.895  32.901  1.00  0.00     0.074 A 
ATOM     41  C   UNL A   1      38.736  31.744  32.701  1.00  0.00     0.031 C 
ATOM     42  C   UNL A   1      40.208  27.619  27.370  1.00  0.00     0.029 A 
ATOM     43  C   UNL A   1      41.159  27.574  28.476  1.00  0.00     0.049 A 
ATOM     44  H   UNL A   1      41.040  28.584  30.296  1.00  0.00     0.167 HD
ATOM     45  C   UNL A   1      40.677  30.909  34.004  1.00  0.00     0.034 A 
ATOM     46  C   UNL A   1      42.288  26.842  28.506  1.00  0.00     0.034 A 
ATOM     47  C   UNL A   1      41.809  30.040  34.191  1.00  0.00     0.049 A 
ATOM     48  C   UNL A   1      43.114  26.842  29.762  1.00  0.00     0.074 A 
ATOM     49  C   UNL A   1      42.621  29.914  35.305  1.00  0.00     0.029 A 
ATOM     50  N   UNL A   1      42.295  29.155  33.240  1.00  0.00    -0.354 N 
ATOM     51  N   UNL A   1      42.901  27.483  30.886  1.00  0.00    -0.248 NA
ATOM     52  C   UNL A   1      44.312  25.990  29.774  1.00  0.00     0.031 C 
ATOM     53  C   UNL A   1      43.607  28.964  35.020  1.00  0.00     0.029 A 
ATOM     54  C   UNL A   1      43.400  28.487  33.735  1.00  0.00     0.049 A 
ATOM     55  H   UNL A   1      41.909  29.022  32.344  1.00  0.00     0.167 HD
ATOM     56  C   UNL A   1      43.920  27.095  31.747  1.00  0.00     0.074 A 
ATOM     57  C   UNL A   1      44.736  26.140  31.022  1.00  0.00     0.031 C 
ATOM     58  C   UNL A   1      44.172  27.506  33.014  1.00  0.00     0.034 A 
BRANCH  45  59
ATOM     59  C   UNL A   1      40.301  31.827  35.137  1.00  0.00     0.023 A 
ATOM     60  C   UNL A   1      40.860  33.120  35.179  1.00  0.00     0.012 A 
ATOM     61  C   UNL A   1      39.318  31.469  36.081  1.00  0.00     0.148 A 
ATOM     62  C   UNL A   1      40.459  34.039  36.148  1.00  0.00     0.002 A 
ATOM     63  C   UNL A   1      38.895  32.403  37.021  1.00  0.00     0.091 A 
ATOM     64  F   UNL A   1      38.807  30.230  36.032  1.00  0.00    -0.205 F 
ATOM     65  C   UNL A   1      39.470  33.685  37.059  1.00  0.00     0.022 A 
BRANCH  63  66
ATOM     66  S   UNL A   1      37.574  32.078  38.195  1.00  0.00     0.127 S 
ATOM     67  O   UNL A   1      38.199  32.470  39.458  1.00  0.00    -0.237 OA
ATOM     68  O   UNL A   1      36.522  32.984  37.730  1.00  0.00    -0.237 OA
ATOM     69  O   UNL A   1      37.261  30.662  38.070  1.00  0.00    -0.744 OA
ENDBRANCH  63  66
ENDBRANCH  45  59
BRANCH  46  70
ATOM     70  C   UNL A   1      42.627  25.968  27.348  1.00  0.00     0.023 A 
ATOM     71  C   UNL A   1      43.492  26.454  26.350  1.00  0.00     0.012 A 
ATOM     72  C   UNL A   1      42.162  24.640  27.267  1.00  0.00     0.148 A 
ATOM     73  C   UNL A   1      43.874  25.642  25.281  1.00  0.00     0.002 A 
ATOM     74  C   UNL A   1      42.589  23.819  26.229  1.00  0.00     0.091 A 
ATOM     75  F   UNL A   1      41.327  24.199  28.219  1.00  0.00    -0.205 F 
ATOM     76  C   UNL A   1      43.434  24.322  25.228  1.00  0.00     0.022 A 
BRANCH  74  77
ATOM     77  S   UNL A   1      42.187  22.069  26.169  1.00  0.00     0.127 S 
ATOM     78  O   UNL A   1      42.603  21.620  27.494  1.00  0.00    -0.237 OA
ATOM     79  O   UNL A   1      40.739  22.093  25.953  1.00  0.00    -0.237 OA
ATOM     80  O   UNL A   1      42.946  21.536  25.046  1.00  0.00    -0.744 OA
ENDBRANCH  74  77
ENDBRANCH  46  70
BRANCH  58  81
ATOM     81  C   UNL A   1      45.381  26.938  33.707  1.00  0.00     0.023 A 
ATOM     82  C   UNL A   1      46.606  27.630  33.632  1.00  0.00     0.012 A 
ATOM     83  C   UNL A   1      45.282  25.788  34.515  1.00  0.00     0.148 A 
ATOM     84  C   UNL A   1      47.720  27.175  34.335  1.00  0.00     0.002 A 
ATOM     85  C   UNL A   1      46.384  25.368  35.250  1.00  0.00     0.091 A 
ATOM     86  F   UNL A   1      44.112  25.134  34.557  1.00  0.00    -0.205 F 
ATOM     87  C   UNL A   1      47.606  26.055  35.154  1.00  0.00     0.022 A 
BRANCH  85  88
ATOM     88  S   UNL A   1      46.302  23.995  36.406  1.00  0.00     0.127 S 
ATOM     89  O   UNL A   1      45.245  24.435  37.315  1.00  0.00    -0.237 OA
ATOM     90  O   UNL A   1      45.932  22.876  35.537  1.00  0.00    -0.237 OA
ATOM     91  O   UNL A   1      47.630  23.888  36.995  1.00  0.00    -0.744 OA
ENDBRANCH  85  88
ENDBRANCH  58  81
ENDBRANCH  32  33
ENDBRANCH  25  27
ENDBRANCH  24  25
ENDBRANCH   1  24
TORSDOF 16
ENDMDL
MODEL 2
REMARK VINA RESULT:     -11.5      1.285      1.602
REMARK SMILES Cc1cc(Br)c(C)c([C@@H]2[NH2+][C@H](C(=O)OCCOC(=O)c3ccc(-c4c5nc(c(-c6cccc(S(=O)(=O)[O-])c6F)c6ccc([nH]6)c(-c6cccc(S(=O)(=O)[O-])c6F)c6nc(c(-c7cccc(S(=O)(=O)[O-])c7F)c7ccc4[nH]7)C=C6)C=C5)cc3)CS2)c1O
REMARK SMILES IDX 16 1 15 2 14 3 12 4 13 5 11 6 9 7 10 8 84 9 83 12 8 13 1 14
REMARK SMILES IDX 2 15 3 16 85 17 4 18 5 19 6 20 7 21 86 22 17 24 18 25 19 26
REMARK SMILES IDX 20 27 21 28 82 29 22 30 81 31 23 32 24 33 25 34 75 35 26 36
REMARK SMILES IDX 80 37 74 38 76 39 27 40 79 41 73 42 72 43 28 45 60 46 40 47
REMARK SMILES IDX 59 48 41 49 44 50 58 51 77 52 42 53 43 54 57 56 78 57 45 58
REMARK SMILES IDX 29 59 30 60 38 61 31 62 33 63 39 64 32 65 34 66 35 67 36 68
REMARK SMILES IDX 37 69 61 70 62 71 70 72 63 73 65 74 71 75 64 76 66 77 67 78
REMARK SMILES IDX 68 79 69 80 46 81 47 82 55 83 48 84 50 85 56 86 49 87 51 88
REMARK SMILES IDX 52 89 53 90 54 91
REMARK H PARENT 10 10 10 11 86 23 76 44 44 55
REMARK Flexibility Score: inf
ROOT
ATOM      1  C   UNL A   1      31.715  29.929  25.925  1.00  0.00     0.275 C 
ENDROOT
BRANCH   1   2
ATOM      2  C   UNL A   1      31.464  28.862  26.990  1.00  0.00     0.274 C 
BRANCH   2   3
ATOM      3  O   UNL A   1      32.187  27.663  26.655  1.00  0.00    -0.458 OA
BRANCH   3   4
ATOM      4  C   UNL A   1      31.485  26.596  26.192  1.00  0.00     0.365 C 
ATOM      5  O   UNL A   1      30.500  26.135  26.761  1.00  0.00    -0.245 OA
BRANCH   4   6
ATOM      6  C   UNL A   1      32.026  26.014  24.876  1.00  0.00     0.304 C 
ATOM      7  C   UNL A   1      30.976  26.741  22.828  1.00  0.00     0.278 C 
ATOM      8  N   UNL A   1      30.987  25.704  23.861  1.00  0.00    -0.319 N 
ATOM      9  S   UNL A   1      32.626  27.434  22.671  1.00  0.00    -0.087 SA
ATOM     10  H   UNL A   1      31.191  24.802  23.432  1.00  0.00     0.348 HD
ATOM     11  H   UNL A   1      30.074  25.672  24.314  1.00  0.00     0.348 HD
ATOM     12  C   UNL A   1      33.149  26.883  24.311  1.00  0.00     0.153 C 
BRANCH   7  13
ATOM     13  C   UNL A   1      29.793  27.698  22.980  1.00  0.00     0.066 A 
ATOM     14  C   UNL A   1      26.053  27.629  23.979  1.00  0.00     0.048 C 
ATOM     15  C   UNL A   1      27.403  28.080  23.498  1.00  0.00    -0.008 A 
ATOM     16  C   UNL A   1      27.536  29.404  23.080  1.00  0.00     0.023 A 
ATOM     17  C   UNL A   1      28.539  27.259  23.475  1.00  0.00     0.128 A 
ATOM     18  C   UNL A   1      28.759  29.888  22.612  1.00  0.00     0.021 A 
ATOM     19  Br  UNL A   1      28.797  31.737  22.143  1.00  0.00    -0.051 Br
ATOM     20  C   UNL A   1      29.887  29.046  22.506  1.00  0.00    -0.023 A 
ATOM     21  C   UNL A   1      31.172  29.613  21.940  1.00  0.00     0.046 C 
BRANCH  17  22
ATOM     22  O   UNL A   1      28.420  25.979  23.945  1.00  0.00    -0.507 OA
ATOM     23  H   UNL A   1      27.585  25.552  23.935  1.00  0.00     0.293 HD
ENDBRANCH  17  22
ENDBRANCH   7  13
ENDBRANCH   4   6
ENDBRANCH   3   4
ENDBRANCH   2   3
ENDBRANCH   1   2
BRANCH   1  24
ATOM     24  O   UNL A   1      33.077  30.379  26.001  1.00  0.00    -0.458 OA
BRANCH  24  25
ATOM     25  C   UNL A   1      33.305  31.378  26.890  1.00  0.00     0.338 C 
ATOM     26  O   UNL A   1      32.566  32.292  27.186  1.00  0.00    -0.246 OA
BRANCH  25  27
ATOM     27  C   UNL A   1      34.555  31.064  27.604  1.00  0.00     0.060 A 
ATOM     28  C   UNL A   1      35.495  32.055  27.890  1.00  0.00     0.016 A 
ATOM     29  C   UNL A   1      34.777  29.736  27.978  1.00  0.00     0.016 A 
ATOM     30  C   UNL A   1      36.675  31.704  28.543  1.00  0.00     0.010 A 
ATOM     31  C   UNL A   1      35.959  29.385  28.621  1.00  0.00     0.010 A 
ATOM     32  C   UNL A   1      36.916  30.367  28.906  1.00  0.00    -0.014 A 
BRANCH  32  33
ATOM     33  C   UNL A   1      38.127  30.009  29.672  1.00  0.00     0.031 A 
ATOM     34  C   UNL A   1      38.370  30.571  31.040  1.00  0.00     0.074 A 
ATOM     35  C   UNL A   1      39.034  29.205  29.086  1.00  0.00     0.049 A 
ATOM     36  N   UNL A   1      39.337  30.297  31.875  1.00  0.00    -0.248 NA
ATOM     37  C   UNL A   1      37.414  31.576  31.532  1.00  0.00     0.031 C 
ATOM     38  C   UNL A   1      38.931  28.683  27.721  1.00  0.00     0.029 A 
ATOM     39  N   UNL A   1      40.220  28.701  29.548  1.00  0.00    -0.354 N 
ATOM     40  C   UNL A   1      39.112  31.093  32.991  1.00  0.00     0.074 A 
ATOM     41  C   UNL A   1      37.933  31.885  32.715  1.00  0.00     0.031 C 
ATOM     42  C   UNL A   1      40.008  27.927  27.459  1.00  0.00     0.029 A 
ATOM     43  C   UNL A   1      40.876  27.913  28.633  1.00  0.00     0.049 A 
ATOM     44  H   UNL A   1      40.570  28.886  30.451  1.00  0.00     0.167 HD
ATOM     45  C   UNL A   1      39.812  31.129  34.150  1.00  0.00     0.034 A 
ATOM     46  C   UNL A   1      42.036  27.238  28.739  1.00  0.00     0.034 A 
ATOM     47  C   UNL A   1      40.971  30.316  34.410  1.00  0.00     0.049 A 
ATOM     48  C   UNL A   1      42.765  27.260  30.053  1.00  0.00     0.074 A 
ATOM     49  C   UNL A   1      41.703  30.213  35.581  1.00  0.00     0.029 A 
ATOM     50  N   UNL A   1      41.571  29.472  33.488  1.00  0.00    -0.354 N 
ATOM     51  N   UNL A   1      42.436  27.871  31.166  1.00  0.00    -0.248 NA
ATOM     52  C   UNL A   1      44.001  26.470  30.144  1.00  0.00     0.031 C 
ATOM     53  C   UNL A   1      42.755  29.319  35.359  1.00  0.00     0.029 A 
ATOM     54  C   UNL A   1      42.670  28.852  34.057  1.00  0.00     0.049 A 
ATOM     55  H   UNL A   1      41.260  29.335  32.564  1.00  0.00     0.167 HD
ATOM     56  C   UNL A   1      43.407  27.521  32.096  1.00  0.00     0.074 A 
ATOM     57  C   UNL A   1      44.323  26.621  31.423  1.00  0.00     0.031 C 
ATOM     58  C   UNL A   1      43.543  27.924  33.383  1.00  0.00     0.034 A 
BRANCH  45  59
ATOM     59  C   UNL A   1      39.306  32.008  35.263  1.00  0.00     0.023 A 
ATOM     60  C   UNL A   1      38.424  31.460  36.216  1.00  0.00     0.012 A 
ATOM     61  C   UNL A   1      39.786  33.321  35.441  1.00  0.00     0.148 A 
ATOM     62  C   UNL A   1      38.016  32.205  37.322  1.00  0.00     0.002 A 
ATOM     63  C   UNL A   1      39.404  34.045  36.565  1.00  0.00     0.091 A 
ATOM     64  F   UNL A   1      40.614  33.829  34.517  1.00  0.00    -0.205 F 
ATOM     65  C   UNL A   1      38.515  33.491  37.501  1.00  0.00     0.022 A 
BRANCH  63  66
ATOM     66  S   UNL A   1      40.044  35.683  36.936  1.00  0.00     0.127 S 
ATOM     67  O   UNL A   1      41.482  35.427  37.013  1.00  0.00    -0.237 OA
ATOM     68  O   UNL A   1      39.625  36.448  35.761  1.00  0.00    -0.237 OA
ATOM     69  O   UNL A   1      39.418  36.090  38.186  1.00  0.00    -0.744 OA
ENDBRANCH  63  66
ENDBRANCH  45  59
BRANCH  46  70
ATOM     70  C   UNL A   1      42.504  26.401  27.599  1.00  0.00     0.023 A 
ATOM     71  C   UNL A   1      43.442  26.934  26.695  1.00  0.00     0.012 A 
ATOM     72  C   UNL A   1      42.088  25.063  27.447  1.00  0.00     0.148 A 
ATOM     73  C   UNL A   1      43.944  26.158  25.649  1.00  0.00     0.002 A 
ATOM     74  C   UNL A   1      42.632  24.280  26.436  1.00  0.00     0.091 A 
ATOM     75  F   UNL A   1      41.183  24.577  28.309  1.00  0.00    -0.205 F 
ATOM     76  C   UNL A   1      43.550  24.829  25.528  1.00  0.00     0.022 A 
BRANCH  74  77
ATOM     77  S   UNL A   1      42.289  22.521  26.303  1.00  0.00     0.127 S 
ATOM     78  O   UNL A   1      43.038  22.159  25.103  1.00  0.00    -0.237 OA
ATOM     79  O   UNL A   1      42.843  22.003  27.555  1.00  0.00    -0.237 OA
ATOM     80  O   UNL A   1      40.839  22.417  26.207  1.00  0.00    -0.744 OA
ENDBRANCH  74  77
ENDBRANCH  46  70
BRANCH  58  81
ATOM     81  C   UNL A   1      44.725  27.407  34.158  1.00  0.00     0.023 A 
ATOM     82  C   UNL A   1      45.919  28.154  34.171  1.00  0.00     0.012 A 
ATOM     83  C   UNL A   1      44.621  26.249  34.953  1.00  0.00     0.148 A 
ATOM     84  C   UNL A   1      47.001  27.746  34.950  1.00  0.00     0.002 A 
ATOM     85  C   UNL A   1      45.687  25.874  35.763  1.00  0.00     0.091 A 
ATOM     86  F   UNL A   1      43.483  25.542  34.911  1.00  0.00    -0.205 F 
ATOM     87  C   UNL A   1      46.880  26.616  35.756  1.00  0.00     0.022 A 
BRANCH  85  88
ATOM     88  S   UNL A   1      45.586  24.491  36.906  1.00  0.00     0.127 S 
ATOM     89  O   UNL A   1      46.917  24.509  37.512  1.00  0.00    -0.237 OA
ATOM     90  O   UNL A   1      44.503  24.904  37.801  1.00  0.00    -0.237 OA
ATOM     91  O   UNL A   1      45.283  23.321  36.092  1.00  0.00    -0.744 OA
ENDBRANCH  85  88
ENDBRANCH  58  81
ENDBRANCH  32  33
ENDBRANCH  25  27
ENDBRANCH  24  25
ENDBRANCH   1  24
TORSDOF 16
ENDMDL
MODEL 3
REMARK VINA RESULT:     -11.5      5.319      9.917
REMARK SMILES Cc1cc(Br)c(C)c([C@@H]2[NH2+][C@H](C(=O)OCCOC(=O)c3ccc(-c4c5nc(c(-c6cccc(S(=O)(=O)[O-])c6F)c6ccc([nH]6)c(-c6cccc(S(=O)(=O)[O-])c6F)c6nc(c(-c7cccc(S(=O)(=O)[O-])c7F)c7ccc4[nH]7)C=C6)C=C5)cc3)CS2)c1O
REMARK SMILES IDX 16 1 15 2 14 3 12 4 13 5 11 6 9 7 10 8 84 9 83 12 8 13 1 14
REMARK SMILES IDX 2 15 3 16 85 17 4 18 5 19 6 20 7 21 86 22 17 24 18 25 19 26
REMARK SMILES IDX 20 27 21 28 82 29 22 30 81 31 23 32 24 33 25 34 75 35 26 36
REMARK SMILES IDX 80 37 74 38 76 39 27 40 79 41 73 42 72 43 28 45 60 46 40 47
REMARK SMILES IDX 59 48 41 49 44 50 58 51 77 52 42 53 43 54 57 56 78 57 45 58
REMARK SMILES IDX 29 59 30 60 38 61 31 62 33 63 39 64 32 65 34 66 35 67 36 68
REMARK SMILES IDX 37 69 61 70 62 71 70 72 63 73 65 74 71 75 64 76 66 77 67 78
REMARK SMILES IDX 68 79 69 80 46 81 47 82 55 83 48 84 50 85 56 86 49 87 51 88
REMARK SMILES IDX 52 89 53 90 54 91
REMARK H PARENT 10 10 10 11 86 23 76 44 44 55
REMARK Flexibility Score: inf
ROOT
ATOM      1  C   UNL A   1      36.498  20.819  24.933  1.00  0.00     0.275 C 
ENDROOT
BRANCH   1   2
ATOM      2  C   UNL A   1      35.044  21.286  24.906  1.00  0.00     0.274 C 
BRANCH   2   3
ATOM      3  O   UNL A   1      34.947  22.531  24.190  1.00  0.00    -0.458 OA
BRANCH   3   4
ATOM      4  C   UNL A   1      34.326  23.576  24.796  1.00  0.00     0.365 C 
ATOM      5  O   UNL A   1      34.883  24.641  25.049  1.00  0.00    -0.245 OA
BRANCH   4   6
ATOM      6  C   UNL A   1      32.848  23.317  25.133  1.00  0.00     0.304 C 
ATOM      7  C   UNL A   1      31.358  25.216  25.115  1.00  0.00     0.278 C 
ATOM      8  N   UNL A   1      32.206  24.372  25.958  1.00  0.00    -0.319 N 
ATOM      9  S   UNL A   1      30.743  24.242  23.737  1.00  0.00    -0.087 SA
ATOM     10  H   UNL A   1      31.636  23.935  26.682  1.00  0.00     0.348 HD
ATOM     11  H   UNL A   1      32.930  24.947  26.390  1.00  0.00     0.348 HD
ATOM     12  C   UNL A   1      32.045  22.996  23.873  1.00  0.00     0.153 C 
BRANCH   7  13
ATOM     13  C   UNL A   1      31.999  26.573  24.824  1.00  0.00     0.066 A 
ATOM     14  C   UNL A   1      34.229  28.270  22.151  1.00  0.00     0.048 C 
ATOM     15  C   UNL A   1      33.427  28.003  23.393  1.00  0.00    -0.008 A 
ATOM     16  C   UNL A   1      33.362  29.011  24.356  1.00  0.00     0.023 A 
ATOM     17  C   UNL A   1      32.717  26.816  23.625  1.00  0.00     0.128 A 
ATOM     18  C   UNL A   1      32.643  28.826  25.537  1.00  0.00     0.021 A 
ATOM     19  Br  UNL A   1      32.592  30.322  26.720  1.00  0.00    -0.051 Br
ATOM     20  C   UNL A   1      31.994  27.604  25.817  1.00  0.00    -0.023 A 
ATOM     21  C   UNL A   1      31.275  27.444  27.140  1.00  0.00     0.046 C 
BRANCH  17  22
ATOM     22  O   UNL A   1      32.732  25.854  22.651  1.00  0.00    -0.507 OA
ATOM     23  H   UNL A   1      32.236  25.067  22.762  1.00  0.00     0.293 HD
ENDBRANCH  17  22
ENDBRANCH   7  13
ENDBRANCH   4   6
ENDBRANCH   3   4
ENDBRANCH   2   3
ENDBRANCH   1   2
BRANCH   1  24
ATOM     24  O   UNL A   1      37.224  21.551  25.934  1.00  0.00    -0.458 OA
BRANCH  24  25
ATOM     25  C   UNL A   1      38.547  21.258  26.015  1.00  0.00     0.338 C 
ATOM     26  O   UNL A   1      39.109  20.253  25.638  1.00  0.00    -0.246 OA
BRANCH  25  27
ATOM     27  C   UNL A   1      39.245  22.472  26.474  1.00  0.00     0.060 A 
ATOM     28  C   UNL A   1      40.354  22.393  27.318  1.00  0.00     0.016 A 
ATOM     29  C   UNL A   1      38.755  23.708  26.047  1.00  0.00     0.016 A 
ATOM     30  C   UNL A   1      40.965  23.570  27.748  1.00  0.00     0.010 A 
ATOM     31  C   UNL A   1      39.358  24.882  26.485  1.00  0.00     0.010 A 
ATOM     32  C   UNL A   1      40.466  24.820  27.339  1.00  0.00    -0.014 A 
BRANCH  32  33
ATOM     33  C   UNL A   1      41.163  26.064  27.727  1.00  0.00     0.031 A 
ATOM     34  C   UNL A   1      42.592  26.300  27.341  1.00  0.00     0.074 A 
ATOM     35  C   UNL A   1      40.495  26.956  28.482  1.00  0.00     0.049 A 
ATOM     36  N   UNL A   1      43.323  27.367  27.531  1.00  0.00    -0.248 NA
ATOM     37  C   UNL A   1      43.297  25.198  26.667  1.00  0.00     0.031 C 
ATOM     38  C   UNL A   1      39.132  26.772  28.986  1.00  0.00     0.029 A 
ATOM     39  N   UNL A   1      40.871  28.179  28.970  1.00  0.00    -0.354 N 
ATOM     40  C   UNL A   1      44.573  27.070  27.004  1.00  0.00     0.074 A 
ATOM     41  C   UNL A   1      44.513  25.710  26.513  1.00  0.00     0.031 C 
ATOM     42  C   UNL A   1      38.784  27.848  29.708  1.00  0.00     0.029 A 
ATOM     43  C   UNL A   1      39.896  28.794  29.719  1.00  0.00     0.049 A 
ATOM     44  H   UNL A   1      41.754  28.580  28.800  1.00  0.00     0.167 HD
ATOM     45  C   UNL A   1      45.657  27.876  26.912  1.00  0.00     0.034 A 
ATOM     46  C   UNL A   1      39.894  29.994  30.329  1.00  0.00     0.034 A 
ATOM     47  C   UNL A   1      45.687  29.234  27.389  1.00  0.00     0.049 A 
ATOM     48  C   UNL A   1      41.094  30.885  30.168  1.00  0.00     0.074 A 
ATOM     49  C   UNL A   1      46.705  30.164  27.270  1.00  0.00     0.029 A 
ATOM     50  N   UNL A   1      44.658  29.854  28.082  1.00  0.00    -0.354 N 
ATOM     51  N   UNL A   1      42.201  30.661  29.502  1.00  0.00    -0.248 NA
ATOM     52  C   UNL A   1      41.033  32.207  30.806  1.00  0.00     0.031 C 
ATOM     53  C   UNL A   1      46.297  31.340  27.905  1.00  0.00     0.029 A 
ATOM     54  C   UNL A   1      45.018  31.150  28.406  1.00  0.00     0.049 A 
ATOM     55  H   UNL A   1      43.797  29.433  28.309  1.00  0.00     0.167 HD
ATOM     56  C   UNL A   1      42.958  31.821  29.617  1.00  0.00     0.074 A 
ATOM     57  C   UNL A   1      42.170  32.756  30.396  1.00  0.00     0.031 C 
ATOM     58  C   UNL A   1      44.201  32.081  29.142  1.00  0.00     0.034 A 
BRANCH  45  59
ATOM     59  C   UNL A   1      46.876  27.355  26.198  1.00  0.00     0.023 A 
ATOM     60  C   UNL A   1      47.052  27.668  24.834  1.00  0.00     0.012 A 
ATOM     61  C   UNL A   1      47.896  26.669  26.886  1.00  0.00     0.148 A 
ATOM     62  C   UNL A   1      48.217  27.298  24.163  1.00  0.00     0.002 A 
ATOM     63  C   UNL A   1      49.071  26.336  26.220  1.00  0.00     0.091 A 
ATOM     64  F   UNL A   1      47.704  26.369  28.179  1.00  0.00    -0.205 F 
ATOM     65  C   UNL A   1      49.229  26.644  24.858  1.00  0.00     0.022 A 
BRANCH  63  66
ATOM     66  S   UNL A   1      50.470  25.558  27.036  1.00  0.00     0.127 S 
ATOM     67  O   UNL A   1      51.400  25.380  25.922  1.00  0.00    -0.237 OA
ATOM     68  O   UNL A   1      50.868  26.583  28.003  1.00  0.00    -0.237 OA
ATOM     69  O   UNL A   1      49.963  24.327  27.625  1.00  0.00    -0.744 OA
ENDBRANCH  63  66
ENDBRANCH  45  59
BRANCH  46  70
ATOM     70  C   UNL A   1      38.670  30.453  31.042  1.00  0.00     0.023 A 
ATOM     71  C   UNL A   1      38.587  30.292  32.438  1.00  0.00     0.012 A 
ATOM     72  C   UNL A   1      37.625  31.112  30.364  1.00  0.00     0.148 A 
ATOM     73  C   UNL A   1      37.479  30.761  33.145  1.00  0.00     0.002 A 
ATOM     74  C   UNL A   1      36.550  31.625  31.081  1.00  0.00     0.091 A 
ATOM     75  F   UNL A   1      37.714  31.243  29.033  1.00  0.00    -0.205 F 
ATOM     76  C   UNL A   1      36.469  31.438  32.469  1.00  0.00     0.022 A 
BRANCH  74  77
ATOM     77  S   UNL A   1      35.282  32.636  30.306  1.00  0.00     0.127 S 
ATOM     78  O   UNL A   1      34.325  32.803  31.396  1.00  0.00    -0.237 OA
ATOM     79  O   UNL A   1      36.027  33.844  29.949  1.00  0.00    -0.237 OA
ATOM     80  O   UNL A   1      34.819  31.864  29.161  1.00  0.00    -0.744 OA
ENDBRANCH  74  77
ENDBRANCH  46  70
BRANCH  58  81
ATOM     81  C   UNL A   1      44.800  33.427  29.450  1.00  0.00     0.023 A 
ATOM     82  C   UNL A   1      45.542  33.595  30.636  1.00  0.00     0.012 A 
ATOM     83  C   UNL A   1      44.723  34.485  28.524  1.00  0.00     0.148 A 
ATOM     84  C   UNL A   1      46.182  34.803  30.906  1.00  0.00     0.002 A 
ATOM     85  C   UNL A   1      45.403  35.671  28.778  1.00  0.00     0.091 A 
ATOM     86  F   UNL A   1      43.997  34.311  27.411  1.00  0.00    -0.205 F 
ATOM     87  C   UNL A   1      46.125  35.835  29.971  1.00  0.00     0.022 A 
BRANCH  85  88
ATOM     88  S   UNL A   1      45.467  37.016  27.587  1.00  0.00     0.127 S 
ATOM     89  O   UNL A   1      44.056  37.385  27.480  1.00  0.00    -0.237 OA
ATOM     90  O   UNL A   1      46.305  38.001  28.273  1.00  0.00    -0.237 OA
ATOM     91  O   UNL A   1      46.061  36.453  26.381  1.00  0.00    -0.744 OA
ENDBRANCH  85  88
ENDBRANCH  58  81
ENDBRANCH  32  33
ENDBRANCH  25  27
ENDBRANCH  24  25
ENDBRANCH   1  24
TORSDOF 16
ENDMDL
