MODEL 1
REMARK VINA RESULT:      -9.8      0.000      0.000
REMARK SMILES O=C(CCCC[C@@H]1CCSS1)OCCOC(=O)c1ccc(-c2c3nc(c(-c4cccc(S(=O)(=O)[O-])c4F)c4ccc([nH]4)c(-c4cccc(S(=O)(=O)[O-])c4F)c4nc(c(-c5cccc(S(=O)(=O)[O-])c5F)c5ccc2[nH]5)C=C4)C=C3)cc1
REMARK SMILES IDX 13 1 12 2 2 3 1 4 3 5 4 6 5 7 6 8 7 9 8 10 11 11 9 12 10 13
REMARK SMILES IDX 14 14 15 15 16 16 17 17 18 18 19 19 80 20 20 21 79 22 21 23
REMARK SMILES IDX 22 24 23 25 73 26 24 27 78 28 72 29 74 30 25 31 77 32 71 33
REMARK SMILES IDX 70 34 26 36 58 37 38 38 57 39 39 40 42 41 56 42 75 43 40 44
REMARK SMILES IDX 41 45 55 47 76 48 43 49 27 50 28 51 36 52 29 53 31 54 37 55
REMARK SMILES IDX 30 56 32 57 33 58 34 59 35 60 59 61 60 62 68 63 61 64 63 65
REMARK SMILES IDX 69 66 62 67 64 68 65 69 66 70 67 71 44 72 45 73 53 74 46 75
REMARK SMILES IDX 48 76 54 77 47 78 49 79 50 80 51 81 52 82
REMARK H PARENT 74 35 42 46
REMARK Flexibility Score: inf
ROOT
ATOM      1  C   UNL A   1      35.331  21.541  26.299  1.00  0.00     0.274 C 
ENDROOT
BRANCH   1   2
ATOM      2  O   UNL A   1      34.030  21.742  25.723  1.00  0.00    -0.462 OA
BRANCH   2   3
ATOM      3  C   UNL A   1      33.827  22.844  24.950  1.00  0.00     0.305 C 
ATOM      4  O   UNL A   1      33.832  23.968  25.440  1.00  0.00    -0.252 OA
BRANCH   3   5
ATOM      5  C   UNL A   1      33.412  22.579  23.517  1.00  0.00     0.123 C 
BRANCH   5   6
ATOM      6  C   UNL A   1      32.046  21.915  23.361  1.00  0.00     0.012 C 
BRANCH   6   7
ATOM      7  C   UNL A   1      32.078  20.464  22.870  1.00  0.00     0.002 C 
BRANCH   7   8
ATOM      8  C   UNL A   1      33.177  19.564  23.456  1.00  0.00     0.015 C 
BRANCH   8   9
ATOM      9  C   UNL A   1      32.743  18.132  23.814  1.00  0.00     0.059 C 
ATOM     10  C   UNL A   1      32.568  17.965  25.337  1.00  0.00     0.027 C 
ATOM     11  S   UNL A   1      34.034  16.946  23.284  1.00  0.00    -0.091 SA
ATOM     12  C   UNL A   1      32.658  16.502  25.753  1.00  0.00     0.083 C 
ATOM     13  S   UNL A   1      34.209  15.916  25.042  1.00  0.00    -0.094 SA
ENDBRANCH   8   9
ENDBRANCH   7   8
ENDBRANCH   6   7
ENDBRANCH   5   6
ENDBRANCH   3   5
ENDBRANCH   2   3
ENDBRANCH   1   2
BRANCH   1  14
ATOM     14  C   UNL A   1      36.288  20.791  25.368  1.00  0.00     0.275 C 
BRANCH  14  15
ATOM     15  O   UNL A   1      37.464  21.562  25.079  1.00  0.00    -0.458 OA
BRANCH  15  16
ATOM     16  C   UNL A   1      38.566  21.194  25.788  1.00  0.00     0.338 C 
ATOM     17  O   UNL A   1      39.056  20.082  25.842  1.00  0.00    -0.246 OA
BRANCH  16  18
ATOM     18  C   UNL A   1      39.204  22.395  26.375  1.00  0.00     0.060 A 
ATOM     19  C   UNL A   1      38.669  23.646  26.044  1.00  0.00     0.016 A 
ATOM     20  C   UNL A   1      40.306  22.304  27.230  1.00  0.00     0.016 A 
ATOM     21  C   UNL A   1      39.255  24.813  26.539  1.00  0.00     0.010 A 
ATOM     22  C   UNL A   1      40.890  23.472  27.725  1.00  0.00     0.010 A 
ATOM     23  C   UNL A   1      40.388  24.732  27.356  1.00  0.00    -0.014 A 
BRANCH  23  24
ATOM     24  C   UNL A   1      41.155  25.954  27.699  1.00  0.00     0.031 A 
ATOM     25  C   UNL A   1      40.454  27.060  28.435  1.00  0.00     0.074 A 
ATOM     26  C   UNL A   1      42.435  26.105  27.317  1.00  0.00     0.049 A 
ATOM     27  N   UNL A   1      40.900  28.240  28.775  1.00  0.00    -0.248 NA
ATOM     28  C   UNL A   1      39.057  26.805  28.827  1.00  0.00     0.031 C 
ATOM     29  C   UNL A   1      43.221  25.116  26.583  1.00  0.00     0.029 A 
ATOM     30  N   UNL A   1      43.284  27.174  27.461  1.00  0.00    -0.354 N 
ATOM     31  C   UNL A   1      39.834  28.881  29.394  1.00  0.00     0.074 A 
ATOM     32  C   UNL A   1      38.716  27.962  29.371  1.00  0.00     0.031 C 
ATOM     33  C   UNL A   1      44.425  25.644  26.300  1.00  0.00     0.029 A 
ATOM     34  C   UNL A   1      44.487  27.010  26.819  1.00  0.00     0.049 A 
ATOM     35  H   UNL A   1      43.052  27.982  27.976  1.00  0.00     0.167 HD
ATOM     36  C   UNL A   1      39.791  30.114  29.948  1.00  0.00     0.034 A 
ATOM     37  C   UNL A   1      45.512  27.870  26.649  1.00  0.00     0.034 A 
ATOM     38  C   UNL A   1      40.904  31.020  29.994  1.00  0.00     0.049 A 
ATOM     39  C   UNL A   1      45.444  29.241  27.272  1.00  0.00     0.074 A 
ATOM     40  C   UNL A   1      40.975  32.263  30.597  1.00  0.00     0.029 A 
ATOM     41  N   UNL A   1      42.135  30.788  29.403  1.00  0.00    -0.354 N 
ATOM     42  N   UNL A   1      44.485  29.775  27.990  1.00  0.00    -0.248 NA
ATOM     43  C   UNL A   1      46.612  30.118  27.091  1.00  0.00     0.031 C 
ATOM     44  C   UNL A   1      42.248  32.791  30.354  1.00  0.00     0.029 A 
ATOM     45  C   UNL A   1      42.971  31.870  29.613  1.00  0.00     0.049 A 
ATOM     46  H   UNL A   1      42.379  29.973  28.908  1.00  0.00     0.167 HD
ATOM     47  C   UNL A   1      44.946  31.030  28.375  1.00  0.00     0.074 A 
ATOM     48  C   UNL A   1      46.276  31.175  27.819  1.00  0.00     0.031 C 
ATOM     49  C   UNL A   1      44.318  31.980  29.111  1.00  0.00     0.034 A 
BRANCH  36  50
ATOM     50  C   UNL A   1      38.494  30.536  30.579  1.00  0.00     0.023 A 
ATOM     51  C   UNL A   1      38.218  30.164  31.910  1.00  0.00     0.012 A 
ATOM     52  C   UNL A   1      37.559  31.309  29.866  1.00  0.00     0.148 A 
ATOM     53  C   UNL A   1      37.014  30.527  32.511  1.00  0.00     0.002 A 
ATOM     54  C   UNL A   1      36.376  31.697  30.485  1.00  0.00     0.091 A 
ATOM     55  F   UNL A   1      37.823  31.622  28.590  1.00  0.00    -0.205 F 
ATOM     56  C   UNL A   1      36.097  31.301  31.802  1.00  0.00     0.022 A 
BRANCH  54  57
ATOM     57  S   UNL A   1      35.177  32.747  29.656  1.00  0.00     0.127 S 
ATOM     58  O   UNL A   1      36.008  33.876  29.243  1.00  0.00    -0.237 OA
ATOM     59  O   UNL A   1      34.716  31.896  28.558  1.00  0.00    -0.237 OA
ATOM     60  O   UNL A   1      34.160  33.037  30.657  1.00  0.00    -0.744 OA
ENDBRANCH  54  57
ENDBRANCH  36  50
BRANCH  37  61
ATOM     61  C   UNL A   1      46.711  27.438  25.880  1.00  0.00     0.023 A 
ATOM     62  C   UNL A   1      46.792  27.715  24.503  1.00  0.00     0.012 A 
ATOM     63  C   UNL A   1      47.791  26.798  26.520  1.00  0.00     0.148 A 
ATOM     64  C   UNL A   1      47.921  27.347  23.770  1.00  0.00     0.002 A 
ATOM     65  C   UNL A   1      48.935  26.481  25.795  1.00  0.00     0.091 A 
ATOM     66  F   UNL A   1      47.686  26.532  27.829  1.00  0.00    -0.205 F 
ATOM     67  C   UNL A   1      48.995  26.741  24.416  1.00  0.00     0.022 A 
BRANCH  65  68
ATOM     68  S   UNL A   1      50.414  25.818  26.567  1.00  0.00     0.127 S 
ATOM     69  O   UNL A   1      51.306  25.662  25.421  1.00  0.00    -0.237 OA
ATOM     70  O   UNL A   1      50.778  26.895  27.490  1.00  0.00    -0.237 OA
ATOM     71  O   UNL A   1      50.000  24.583  27.219  1.00  0.00    -0.744 OA
ENDBRANCH  65  68
ENDBRANCH  37  61
BRANCH  49  72
ATOM     72  C   UNL A   1      45.056  33.262  29.400  1.00  0.00     0.023 A 
ATOM     73  C   UNL A   1      45.887  33.348  30.534  1.00  0.00     0.012 A 
ATOM     74  C   UNL A   1      45.021  34.333  28.483  1.00  0.00     0.148 A 
ATOM     75  C   UNL A   1      46.660  34.486  30.760  1.00  0.00     0.002 A 
ATOM     76  C   UNL A   1      45.828  35.446  28.693  1.00  0.00     0.091 A 
ATOM     77  F   UNL A   1      44.210  34.239  27.420  1.00  0.00    -0.205 F 
ATOM     78  C   UNL A   1      46.643  35.527  29.834  1.00  0.00     0.022 A 
BRANCH  76  79
ATOM     79  S   UNL A   1      45.939  36.790  27.505  1.00  0.00     0.127 S 
ATOM     80  O   UNL A   1      47.145  37.485  27.952  1.00  0.00    -0.237 OA
ATOM     81  O   UNL A   1      46.082  36.075  26.236  1.00  0.00    -0.237 OA
ATOM     82  O   UNL A   1      44.698  37.541  27.636  1.00  0.00    -0.744 OA
ENDBRANCH  76  79
ENDBRANCH  49  72
ENDBRANCH  23  24
ENDBRANCH  16  18
ENDBRANCH  15  16
ENDBRANCH  14  15
ENDBRANCH   1  14
TORSDOF 18
ENDMDL
MODEL 2
REMARK VINA RESULT:      -9.8      2.566      3.320
REMARK SMILES O=C(CCCC[C@@H]1CCSS1)OCCOC(=O)c1ccc(-c2c3nc(c(-c4cccc(S(=O)(=O)[O-])c4F)c4ccc([nH]4)c(-c4cccc(S(=O)(=O)[O-])c4F)c4nc(c(-c5cccc(S(=O)(=O)[O-])c5F)c5ccc2[nH]5)C=C4)C=C3)cc1
REMARK SMILES IDX 13 1 12 2 2 3 1 4 3 5 4 6 5 7 6 8 7 9 8 10 11 11 9 12 10 13
REMARK SMILES IDX 14 14 15 15 16 16 17 17 18 18 19 19 80 20 20 21 79 22 21 23
REMARK SMILES IDX 22 24 23 25 73 26 24 27 78 28 72 29 74 30 25 31 77 32 71 33
REMARK SMILES IDX 70 34 26 36 58 37 38 38 57 39 39 40 42 41 56 42 75 43 40 44
REMARK SMILES IDX 41 45 55 47 76 48 43 49 27 50 28 51 36 52 29 53 31 54 37 55
REMARK SMILES IDX 30 56 32 57 33 58 34 59 35 60 59 61 60 62 68 63 61 64 63 65
REMARK SMILES IDX 69 66 62 67 64 68 65 69 66 70 67 71 44 72 45 73 53 74 46 75
REMARK SMILES IDX 48 76 54 77 47 78 49 79 50 80 51 81 52 82
REMARK H PARENT 74 35 42 46
REMARK Flexibility Score: inf
ROOT
ATOM      1  C   UNL A   1      36.655  22.121  23.860  1.00  0.00     0.274 C 
ENDROOT
BRANCH   1   2
ATOM      2  O   UNL A   1      35.254  22.233  24.161  1.00  0.00    -0.462 OA
BRANCH   2   3
ATOM      3  C   UNL A   1      34.539  23.218  23.554  1.00  0.00     0.305 C 
ATOM      4  O   UNL A   1      34.742  23.517  22.382  1.00  0.00    -0.252 OA
BRANCH   3   5
ATOM      5  C   UNL A   1      33.635  24.032  24.459  1.00  0.00     0.123 C 
BRANCH   5   6
ATOM      6  C   UNL A   1      34.368  24.941  25.442  1.00  0.00     0.012 C 
BRANCH   6   7
ATOM      7  C   UNL A   1      33.951  26.416  25.401  1.00  0.00     0.002 C 
BRANCH   7   8
ATOM      8  C   UNL A   1      33.181  26.878  24.155  1.00  0.00     0.015 C 
BRANCH   8   9
ATOM      9  C   UNL A   1      31.716  27.284  24.391  1.00  0.00     0.059 C 
ATOM     10  C   UNL A   1      30.821  26.861  23.209  1.00  0.00     0.027 C 
ATOM     11  S   UNL A   1      31.597  29.107  24.535  1.00  0.00    -0.091 SA
ATOM     12  C   UNL A   1      29.534  27.675  23.163  1.00  0.00     0.083 C 
ATOM     13  S   UNL A   1      30.076  29.396  23.198  1.00  0.00    -0.094 SA
ENDBRANCH   8   9
ENDBRANCH   7   8
ENDBRANCH   6   7
ENDBRANCH   5   6
ENDBRANCH   3   5
ENDBRANCH   2   3
ENDBRANCH   1   2
BRANCH   1  14
ATOM     14  C   UNL A   1      37.334  20.962  24.595  1.00  0.00     0.275 C 
BRANCH  14  15
ATOM     15  O   UNL A   1      37.739  21.334  25.921  1.00  0.00    -0.458 OA
BRANCH  15  16
ATOM     16  C   UNL A   1      39.063  21.155  26.176  1.00  0.00     0.338 C 
ATOM     17  O   UNL A   1      39.726  20.170  25.910  1.00  0.00    -0.246 OA
BRANCH  16  18
ATOM     18  C   UNL A   1      39.646  22.416  26.690  1.00  0.00     0.060 A 
ATOM     19  C   UNL A   1      39.117  23.622  26.212  1.00  0.00     0.016 A 
ATOM     20  C   UNL A   1      40.692  22.423  27.617  1.00  0.00     0.016 A 
ATOM     21  C   UNL A   1      39.655  24.839  26.634  1.00  0.00     0.010 A 
ATOM     22  C   UNL A   1      41.228  23.643  28.039  1.00  0.00     0.010 A 
ATOM     23  C   UNL A   1      40.734  24.854  27.525  1.00  0.00    -0.014 A 
BRANCH  23  24
ATOM     24  C   UNL A   1      41.462  26.116  27.803  1.00  0.00     0.031 A 
ATOM     25  C   UNL A   1      40.769  27.185  28.600  1.00  0.00     0.074 A 
ATOM     26  C   UNL A   1      42.693  26.335  27.311  1.00  0.00     0.049 A 
ATOM     27  N   UNL A   1      41.180  28.388  28.903  1.00  0.00    -0.248 NA
ATOM     28  C   UNL A   1      39.428  26.856  29.112  1.00  0.00     0.031 C 
ATOM     29  C   UNL A   1      43.464  25.388  26.508  1.00  0.00     0.029 A 
ATOM     30  N   UNL A   1      43.493  27.448  27.382  1.00  0.00    -0.354 N 
ATOM     31  C   UNL A   1      40.139  28.972  29.614  1.00  0.00     0.074 A 
ATOM     32  C   UNL A   1      39.074  27.995  29.686  1.00  0.00     0.031 C 
ATOM     33  C   UNL A   1      44.609  25.979  26.122  1.00  0.00     0.029 A 
ATOM     34  C   UNL A   1      44.643  27.347  26.637  1.00  0.00     0.049 A 
ATOM     35  H   UNL A   1      43.264  28.243  27.918  1.00  0.00     0.167 HD
ATOM     36  C   UNL A   1      40.079  30.202  30.172  1.00  0.00     0.034 A 
ATOM     37  C   UNL A   1      45.601  28.261  26.381  1.00  0.00     0.034 A 
ATOM     38  C   UNL A   1      41.141  31.167  30.123  1.00  0.00     0.049 A 
ATOM     39  C   UNL A   1      45.515  29.628  27.010  1.00  0.00     0.074 A 
ATOM     40  C   UNL A   1      41.198  32.413  30.721  1.00  0.00     0.029 A 
ATOM     41  N   UNL A   1      42.327  31.000  29.426  1.00  0.00    -0.354 N 
ATOM     42  N   UNL A   1      44.595  30.111  27.810  1.00  0.00    -0.248 NA
ATOM     43  C   UNL A   1      46.614  30.566  26.729  1.00  0.00     0.031 C 
ATOM     44  C   UNL A   1      42.415  33.009  30.368  1.00  0.00     0.029 A 
ATOM     45  C   UNL A   1      43.119  32.126  29.565  1.00  0.00     0.049 A 
ATOM     46  H   UNL A   1      42.570  30.198  28.910  1.00  0.00     0.167 HD
ATOM     47  C   UNL A   1      45.020  31.390  28.157  1.00  0.00     0.074 A 
ATOM     48  C   UNL A   1      46.286  31.605  27.487  1.00  0.00     0.031 C 
ATOM     49  C   UNL A   1      44.408  32.307  28.947  1.00  0.00     0.034 A 
BRANCH  36  50
ATOM     50  C   UNL A   1      38.821  30.556  30.915  1.00  0.00     0.023 A 
ATOM     51  C   UNL A   1      38.690  30.189  32.270  1.00  0.00     0.012 A 
ATOM     52  C   UNL A   1      37.779  31.260  30.283  1.00  0.00     0.148 A 
ATOM     53  C   UNL A   1      37.526  30.488  32.975  1.00  0.00     0.002 A 
ATOM     54  C   UNL A   1      36.637  31.587  31.004  1.00  0.00     0.091 A 
ATOM     55  F   UNL A   1      37.906  31.569  28.985  1.00  0.00    -0.205 F 
ATOM     56  C   UNL A   1      36.503  31.195  32.345  1.00  0.00     0.022 A 
BRANCH  54  57
ATOM     57  S   UNL A   1      35.305  32.549  30.278  1.00  0.00     0.127 S 
ATOM     58  O   UNL A   1      34.344  32.602  31.379  1.00  0.00    -0.237 OA
ATOM     59  O   UNL A   1      35.961  33.824  29.981  1.00  0.00    -0.237 OA
ATOM     60  O   UNL A   1      34.885  31.803  29.101  1.00  0.00    -0.744 OA
ENDBRANCH  54  57
ENDBRANCH  36  50
BRANCH  37  61
ATOM     61  C   UNL A   1      46.750  27.892  25.508  1.00  0.00     0.023 A 
ATOM     62  C   UNL A   1      46.656  28.080  24.117  1.00  0.00     0.012 A 
ATOM     63  C   UNL A   1      47.951  27.402  26.059  1.00  0.00     0.148 A 
ATOM     64  C   UNL A   1      47.734  27.770  23.285  1.00  0.00     0.002 A 
ATOM     65  C   UNL A   1      49.037  27.145  25.231  1.00  0.00     0.091 A 
ATOM     66  F   UNL A   1      48.012  27.217  27.385  1.00  0.00    -0.205 F 
ATOM     67  C   UNL A   1      48.926  27.314  23.841  1.00  0.00     0.022 A 
BRANCH  65  68
ATOM     68  S   UNL A   1      50.650  26.679  25.870  1.00  0.00     0.127 S 
ATOM     69  O   UNL A   1      50.932  27.773  26.795  1.00  0.00    -0.237 OA
ATOM     70  O   UNL A   1      50.360  25.393  26.505  1.00  0.00    -0.237 OA
ATOM     71  O   UNL A   1      51.524  26.591  24.707  1.00  0.00    -0.744 OA
ENDBRANCH  65  68
ENDBRANCH  37  61
BRANCH  49  72
ATOM     72  C   UNL A   1      45.099  33.627  29.173  1.00  0.00     0.023 A 
ATOM     73  C   UNL A   1      46.032  33.755  30.220  1.00  0.00     0.012 A 
ATOM     74  C   UNL A   1      44.915  34.697  28.274  1.00  0.00     0.148 A 
ATOM     75  C   UNL A   1      46.760  34.934  30.379  1.00  0.00     0.002 A 
ATOM     76  C   UNL A   1      45.675  35.853  28.414  1.00  0.00     0.091 A 
ATOM     77  F   UNL A   1      44.009  34.562  27.295  1.00  0.00    -0.205 F 
ATOM     78  C   UNL A   1      46.593  35.976  29.469  1.00  0.00     0.022 A 
BRANCH  76  79
ATOM     79  S   UNL A   1      45.593  37.206  27.233  1.00  0.00     0.127 S 
ATOM     80  O   UNL A   1      46.242  38.288  27.972  1.00  0.00    -0.237 OA
ATOM     81  O   UNL A   1      46.370  36.686  26.107  1.00  0.00    -0.237 OA
ATOM     82  O   UNL A   1      44.178  37.401  26.948  1.00  0.00    -0.744 OA
ENDBRANCH  76  79
ENDBRANCH  49  72
ENDBRANCH  23  24
ENDBRANCH  16  18
ENDBRANCH  15  16
ENDBRANCH  14  15
ENDBRANCH   1  14
TORSDOF 18
ENDMDL
MODEL 3
REMARK VINA RESULT:      -9.8      2.611      3.469
REMARK SMILES O=C(CCCC[C@@H]1CCSS1)OCCOC(=O)c1ccc(-c2c3nc(c(-c4cccc(S(=O)(=O)[O-])c4F)c4ccc([nH]4)c(-c4cccc(S(=O)(=O)[O-])c4F)c4nc(c(-c5cccc(S(=O)(=O)[O-])c5F)c5ccc2[nH]5)C=C4)C=C3)cc1
REMARK SMILES IDX 13 1 12 2 2 3 1 4 3 5 4 6 5 7 6 8 7 9 8 10 11 11 9 12 10 13
REMARK SMILES IDX 14 14 15 15 16 16 17 17 18 18 19 19 80 20 20 21 79 22 21 23
REMARK SMILES IDX 22 24 23 25 73 26 24 27 78 28 72 29 74 30 25 31 77 32 71 33
REMARK SMILES IDX 70 34 26 36 58 37 38 38 57 39 39 40 42 41 56 42 75 43 40 44
REMARK SMILES IDX 41 45 55 47 76 48 43 49 27 50 28 51 36 52 29 53 31 54 37 55
REMARK SMILES IDX 30 56 32 57 33 58 34 59 35 60 59 61 60 62 68 63 61 64 63 65
REMARK SMILES IDX 69 66 62 67 64 68 65 69 66 70 67 71 44 72 45 73 53 74 46 75
REMARK SMILES IDX 48 76 54 77 47 78 49 79 50 80 51 81 52 82
REMARK H PARENT 74 35 42 46
REMARK Flexibility Score: inf
ROOT
ATOM      1  C   UNL A   1      35.713  21.855  25.294  1.00  0.00     0.274 C 
ENDROOT
BRANCH   1   2
ATOM      2  O   UNL A   1      35.099  22.104  26.569  1.00  0.00    -0.462 OA
BRANCH   2   3
ATOM      3  C   UNL A   1      33.811  21.707  26.756  1.00  0.00     0.305 C 
ATOM      4  O   UNL A   1      33.364  20.722  26.179  1.00  0.00    -0.252 OA
BRANCH   3   5
ATOM      5  C   UNL A   1      32.936  22.655  27.553  1.00  0.00     0.123 C 
BRANCH   5   6
ATOM      6  C   UNL A   1      31.626  23.038  26.870  1.00  0.00     0.012 C 
BRANCH   6   7
ATOM      7  C   UNL A   1      31.748  24.105  25.776  1.00  0.00     0.002 C 
BRANCH   7   8
ATOM      8  C   UNL A   1      32.822  25.183  25.985  1.00  0.00     0.015 C 
BRANCH   8   9
ATOM      9  C   UNL A   1      32.431  26.605  25.547  1.00  0.00     0.059 C 
ATOM     10  C   UNL A   1      33.676  27.493  25.348  1.00  0.00     0.027 C 
ATOM     11  S   UNL A   1      31.409  27.392  26.847  1.00  0.00    -0.091 SA
ATOM     12  C   UNL A   1      33.328  28.973  25.432  1.00  0.00     0.083 C 
ATOM     13  S   UNL A   1      32.444  29.150  26.995  1.00  0.00    -0.094 SA
ENDBRANCH   8   9
ENDBRANCH   7   8
ENDBRANCH   6   7
ENDBRANCH   5   6
ENDBRANCH   3   5
ENDBRANCH   2   3
ENDBRANCH   1   2
BRANCH   1  14
ATOM     14  C   UNL A   1      36.806  20.784  25.356  1.00  0.00     0.275 C 
BRANCH  14  15
ATOM     15  O   UNL A   1      38.100  21.323  25.046  1.00  0.00    -0.458 OA
BRANCH  15  16
ATOM     16  C   UNL A   1      39.074  20.996  25.938  1.00  0.00     0.338 C 
ATOM     17  O   UNL A   1      39.516  19.883  26.154  1.00  0.00    -0.246 OA
BRANCH  16  18
ATOM     18  C   UNL A   1      39.655  22.230  26.515  1.00  0.00     0.060 A 
ATOM     19  C   UNL A   1      39.153  23.459  26.068  1.00  0.00     0.016 A 
ATOM     20  C   UNL A   1      40.674  22.191  27.470  1.00  0.00     0.016 A 
ATOM     21  C   UNL A   1      39.691  24.654  26.549  1.00  0.00     0.010 A 
ATOM     22  C   UNL A   1      41.211  23.388  27.952  1.00  0.00     0.010 A 
ATOM     23  C   UNL A   1      40.745  24.623  27.470  1.00  0.00    -0.014 A 
BRANCH  23  24
ATOM     24  C   UNL A   1      41.478  25.865  27.814  1.00  0.00     0.031 A 
ATOM     25  C   UNL A   1      40.738  26.964  28.524  1.00  0.00     0.074 A 
ATOM     26  C   UNL A   1      42.761  26.042  27.456  1.00  0.00     0.049 A 
ATOM     27  N   UNL A   1      41.151  28.157  28.860  1.00  0.00    -0.248 NA
ATOM     28  C   UNL A   1      39.340  26.681  28.892  1.00  0.00     0.031 C 
ATOM     29  C   UNL A   1      43.584  25.062  26.748  1.00  0.00     0.029 A 
ATOM     30  N   UNL A   1      43.583  27.131  27.604  1.00  0.00    -0.354 N 
ATOM     31  C   UNL A   1      40.059  28.780  29.450  1.00  0.00     0.074 A 
ATOM     32  C   UNL A   1      38.961  27.836  29.416  1.00  0.00     0.031 C 
ATOM     33  C   UNL A   1      44.781  25.614  26.483  1.00  0.00     0.029 A 
ATOM     34  C   UNL A   1      44.802  26.986  26.988  1.00  0.00     0.049 A 
ATOM     35  H   UNL A   1      43.323  27.938  28.106  1.00  0.00     0.167 HD
ATOM     36  C   UNL A   1      39.977  30.018  29.990  1.00  0.00     0.034 A 
ATOM     37  C   UNL A   1      45.811  27.868  26.829  1.00  0.00     0.034 A 
ATOM     38  C   UNL A   1      41.069  30.949  30.048  1.00  0.00     0.049 A 
ATOM     39  C   UNL A   1      45.700  29.244  27.434  1.00  0.00     0.074 A 
ATOM     40  C   UNL A   1      41.100  32.199  30.638  1.00  0.00     0.029 A 
ATOM     41  N   UNL A   1      42.316  30.739  29.484  1.00  0.00    -0.354 N 
ATOM     42  N   UNL A   1      44.715  29.764  28.128  1.00  0.00    -0.248 NA
ATOM     43  C   UNL A   1      46.852  30.145  27.266  1.00  0.00     0.031 C 
ATOM     44  C   UNL A   1      42.365  32.754  30.414  1.00  0.00     0.029 A 
ATOM     45  C   UNL A   1      43.123  31.841  29.697  1.00  0.00     0.049 A 
ATOM     46  H   UNL A   1      42.588  29.924  29.002  1.00  0.00     0.167 HD
ATOM     47  C   UNL A   1      45.141  31.033  28.508  1.00  0.00     0.074 A 
ATOM     48  C   UNL A   1      46.477  31.202  27.977  1.00  0.00     0.031 C 
ATOM     49  C   UNL A   1      44.477  31.976  29.221  1.00  0.00     0.034 A 
BRANCH  36  50
ATOM     50  C   UNL A   1      38.659  30.417  30.590  1.00  0.00     0.023 A 
ATOM     51  C   UNL A   1      38.372  30.069  31.926  1.00  0.00     0.012 A 
ATOM     52  C   UNL A   1      37.714  31.146  29.845  1.00  0.00     0.148 A 
ATOM     53  C   UNL A   1      37.149  30.411  32.499  1.00  0.00     0.002 A 
ATOM     54  C   UNL A   1      36.511  31.515  30.436  1.00  0.00     0.091 A 
ATOM     55  F   UNL A   1      37.989  31.437  28.566  1.00  0.00    -0.205 F 
ATOM     56  C   UNL A   1      36.222  31.142  31.758  1.00  0.00     0.022 A 
BRANCH  54  57
ATOM     57  S   UNL A   1      35.296  32.510  29.565  1.00  0.00     0.127 S 
ATOM     58  O   UNL A   1      34.888  31.606  28.491  1.00  0.00    -0.237 OA
ATOM     59  O   UNL A   1      34.276  32.736  30.590  1.00  0.00    -0.237 OA
ATOM     60  O   UNL A   1      36.006  33.712  29.150  1.00  0.00    -0.744 OA
ENDBRANCH  54  57
ENDBRANCH  36  50
BRANCH  37  61
ATOM     61  C   UNL A   1      47.034  27.455  26.088  1.00  0.00     0.023 A 
ATOM     62  C   UNL A   1      48.014  26.683  26.738  1.00  0.00     0.012 A 
ATOM     63  C   UNL A   1      47.204  27.782  24.728  1.00  0.00     0.148 A 
ATOM     64  C   UNL A   1      49.153  26.257  26.052  1.00  0.00     0.002 A 
ATOM     65  C   UNL A   1      48.315  27.312  24.037  1.00  0.00     0.091 A 
ATOM     66  F   UNL A   1      46.265  28.530  24.133  1.00  0.00    -0.205 F 
ATOM     67  C   UNL A   1      49.298  26.561  24.702  1.00  0.00     0.022 A 
BRANCH  65  68
ATOM     68  S   UNL A   1      48.521  27.544  22.268  1.00  0.00     0.127 S 
ATOM     69  O   UNL A   1      49.748  28.333  22.211  1.00  0.00    -0.237 OA
ATOM     70  O   UNL A   1      48.652  26.164  21.799  1.00  0.00    -0.237 OA
ATOM     71  O   UNL A   1      47.312  28.220  21.815  1.00  0.00    -0.744 OA
ENDBRANCH  65  68
ENDBRANCH  37  61
BRANCH  49  72
ATOM     72  C   UNL A   1      45.180  33.277  29.509  1.00  0.00     0.023 A 
ATOM     73  C   UNL A   1      45.996  33.390  30.652  1.00  0.00     0.012 A 
ATOM     74  C   UNL A   1      45.130  34.341  28.586  1.00  0.00     0.148 A 
ATOM     75  C   UNL A   1      46.739  34.548  30.880  1.00  0.00     0.002 A 
ATOM     76  C   UNL A   1      45.907  35.475  28.798  1.00  0.00     0.091 A 
ATOM     77  F   UNL A   1      44.334  34.222  27.514  1.00  0.00    -0.205 F 
ATOM     78  C   UNL A   1      46.707  35.583  29.947  1.00  0.00     0.022 A 
BRANCH  76  79
ATOM     79  S   UNL A   1      45.999  36.815  27.603  1.00  0.00     0.127 S 
ATOM     80  O   UNL A   1      44.630  37.328  27.623  1.00  0.00    -0.237 OA
ATOM     81  O   UNL A   1      46.993  37.704  28.206  1.00  0.00    -0.237 OA
ATOM     82  O   UNL A   1      46.421  36.203  26.350  1.00  0.00    -0.744 OA
ENDBRANCH  76  79
ENDBRANCH  49  72
ENDBRANCH  23  24
ENDBRANCH  16  18
ENDBRANCH  15  16
ENDBRANCH  14  15
ENDBRANCH   1  14
TORSDOF 18
ENDMDL
