MODEL 1
REMARK VINA RESULT:     -12.0      0.000      0.000
REMARK SMILES CC(C)CCOc1ccccc1-c1cc(C(=O)OCCOC(=O)c2ccc(-c3c4nc(c(-c5cccc(S(=O)(=O)[O-])c5F)c5ccc([nH]5)c(-c5cccc(S(=O)(=O)[O-])c5F)c5nc(c(-c6cccc(S(=O)(=O)[O-])c6F)c6ccc3[nH]6)C=C5)C=C4)cc2)no1
REMARK SMILES IDX 19 1 18 2 16 3 17 4 15 5 13 6 14 7 88 8 87 9 12 10 7 11 8 12
REMARK SMILES IDX 9 13 11 14 10 15 6 16 5 17 4 18 2 19 1 20 3 21 20 22 21 23
REMARK SMILES IDX 22 24 23 25 24 26 25 27 86 28 26 29 85 30 27 31 28 32 29 33
REMARK SMILES IDX 79 34 30 35 84 36 78 37 80 38 31 39 83 40 77 41 76 42 32 44
REMARK SMILES IDX 64 45 44 46 63 47 45 48 48 49 62 50 81 51 46 52 47 53 61 55
REMARK SMILES IDX 82 56 49 57 33 58 34 59 42 60 35 61 37 62 43 63 36 64 38 65
REMARK SMILES IDX 39 66 40 67 41 68 65 69 66 70 74 71 67 72 69 73 75 74 68 75
REMARK SMILES IDX 70 76 71 77 72 78 73 79 50 80 51 81 59 82 52 83 54 84 60 85
REMARK SMILES IDX 53 86 55 87 56 88 57 89 58 90
REMARK H PARENT 80 43 48 54
REMARK Flexibility Score: inf
ROOT
ATOM      1  C   UNL A   1      34.876  20.588  25.058  1.00  0.00     0.275 C 
ENDROOT
BRANCH   1   2
ATOM      2  O   UNL A   1      33.754  21.476  25.215  1.00  0.00    -0.457 OA
BRANCH   2   3
ATOM      3  C   UNL A   1      33.459  21.875  26.490  1.00  0.00     0.360 C 
ATOM      4  O   UNL A   1      33.952  21.396  27.501  1.00  0.00    -0.244 OA
BRANCH   3   5
ATOM      5  C   UNL A   1      32.522  22.997  26.475  1.00  0.00     0.192 A 
ATOM      6  C   UNL A   1      31.761  25.764  26.137  1.00  0.00     0.171 A 
ATOM      7  C   UNL A   1      33.016  24.724  26.024  1.00  0.00     0.090 A 
ATOM      8  O   UNL A   1      30.293  24.810  26.836  1.00  0.00    -0.355 OA
ATOM      9  N   UNL A   1      30.928  22.914  27.012  1.00  0.00    -0.072 NA
BRANCH   6  10
ATOM     10  C   UNL A   1      31.429  26.946  25.365  1.00  0.00     0.062 A 
ATOM     11  C   UNL A   1      30.432  26.822  24.373  1.00  0.00     0.130 A 
ATOM     12  C   UNL A   1      29.953  27.951  23.722  1.00  0.00     0.047 A 
ATOM     13  C   UNL A   1      30.461  29.205  24.067  1.00  0.00     0.004 A 
ATOM     14  C   UNL A   1      31.940  28.197  25.700  1.00  0.00     0.016 A 
ATOM     15  C   UNL A   1      31.458  29.327  25.040  1.00  0.00     0.001 A 
BRANCH  11  16
ATOM     16  O   UNL A   1      29.948  25.593  23.977  1.00  0.00    -0.493 OA
BRANCH  16  17
ATOM     17  C   UNL A   1      30.813  24.880  23.071  1.00  0.00     0.230 C 
BRANCH  17  18
ATOM     18  C   UNL A   1      31.511  25.822  22.061  1.00  0.00     0.044 C 
BRANCH  18  19
ATOM     19  C   UNL A   1      33.195  25.644  22.134  1.00  0.00    -0.014 C 
ATOM     20  C   UNL A   1      33.659  27.337  22.347  1.00  0.00     0.007 C 
ATOM     21  C   UNL A   1      34.539  23.962  22.843  1.00  0.00     0.007 C 
ENDBRANCH  18  19
ENDBRANCH  17  18
ENDBRANCH  16  17
ENDBRANCH  11  16
ENDBRANCH   6  10
ENDBRANCH   3   5
ENDBRANCH   2   3
ENDBRANCH   1   2
BRANCH   1  22
ATOM     22  C   UNL A   1      36.137  21.368  24.678  1.00  0.00     0.275 C 
BRANCH  22  23
ATOM     23  O   UNL A   1      36.876  21.742  25.857  1.00  0.00    -0.458 OA
BRANCH  23  24
ATOM     24  C   UNL A   1      38.201  21.470  25.824  1.00  0.00     0.338 C 
ATOM     25  O   UNL A   1      38.744  20.528  25.270  1.00  0.00    -0.246 OA
BRANCH  24  26
ATOM     26  C   UNL A   1      38.948  22.567  26.450  1.00  0.00     0.060 A 
ATOM     27  C   UNL A   1      38.552  23.867  26.161  1.00  0.00     0.016 A 
ATOM     28  C   UNL A   1      40.099  22.348  27.196  1.00  0.00     0.016 A 
ATOM     29  C   UNL A   1      39.332  24.955  26.511  1.00  0.00     0.010 A 
ATOM     30  C   UNL A   1      40.826  23.452  27.662  1.00  0.00     0.010 A 
ATOM     31  C   UNL A   1      40.457  24.766  27.306  1.00  0.00    -0.014 A 
BRANCH  31  32
ATOM     32  C   UNL A   1      41.220  25.948  27.777  1.00  0.00     0.031 A 
ATOM     33  C   UNL A   1      40.541  27.004  28.596  1.00  0.00     0.074 A 
ATOM     34  C   UNL A   1      42.521  26.074  27.444  1.00  0.00     0.049 A 
ATOM     35  N   UNL A   1      40.977  28.186  28.939  1.00  0.00    -0.248 NA
ATOM     36  C   UNL A   1      39.186  26.697  29.084  1.00  0.00     0.031 C 
ATOM     37  C   UNL A   1      43.305  25.092  26.689  1.00  0.00     0.029 A 
ATOM     38  N   UNL A   1      43.410  27.095  27.674  1.00  0.00    -0.354 N 
ATOM     39  C   UNL A   1      39.930  28.793  29.618  1.00  0.00     0.074 A 
ATOM     40  C   UNL A   1      38.838  27.845  29.649  1.00  0.00     0.031 C 
ATOM     41  C   UNL A   1      44.548  25.559  26.509  1.00  0.00     0.029 A 
ATOM     42  C   UNL A   1      44.624  26.907  27.053  1.00  0.00     0.049 A 
ATOM     43  H   UNL A   1      43.200  27.882  28.227  1.00  0.00     0.167 HD
ATOM     44  C   UNL A   1      39.887  30.033  30.162  1.00  0.00     0.034 A 
ATOM     45  C   UNL A   1      45.660  27.748  26.879  1.00  0.00     0.034 A 
ATOM     46  C   UNL A   1      40.997  30.949  30.153  1.00  0.00     0.049 A 
ATOM     47  C   UNL A   1      45.569  29.133  27.453  1.00  0.00     0.074 A 
ATOM     48  C   UNL A   1      41.074  32.209  30.719  1.00  0.00     0.029 A 
ATOM     49  N   UNL A   1      42.217  30.712  29.536  1.00  0.00    -0.354 N 
ATOM     50  N   UNL A   1      44.598  29.674  28.147  1.00  0.00    -0.248 NA
ATOM     51  C   UNL A   1      46.720  30.019  27.234  1.00  0.00     0.031 C 
ATOM     52  C   UNL A   1      42.321  32.754  30.400  1.00  0.00     0.029 A 
ATOM     53  C   UNL A   1      43.043  31.813  29.683  1.00  0.00     0.049 A 
ATOM     54  H   UNL A   1      42.459  29.883  29.065  1.00  0.00     0.167 HD
ATOM     55  C   UNL A   1      45.031  30.953  28.474  1.00  0.00     0.074 A 
ATOM     56  C   UNL A   1      46.362  31.095  27.920  1.00  0.00     0.031 C 
ATOM     57  C   UNL A   1      44.381  31.924  29.160  1.00  0.00     0.034 A 
BRANCH  44  58
ATOM     58  C   UNL A   1      38.597  30.479  30.797  1.00  0.00     0.023 A 
ATOM     59  C   UNL A   1      38.381  30.299  32.177  1.00  0.00     0.012 A 
ATOM     60  C   UNL A   1      37.613  31.129  30.023  1.00  0.00     0.148 A 
ATOM     61  C   UNL A   1      37.192  30.723  32.771  1.00  0.00     0.002 A 
ATOM     62  C   UNL A   1      36.454  31.595  30.631  1.00  0.00     0.091 A 
ATOM     63  F   UNL A   1      37.828  31.274  28.708  1.00  0.00    -0.205 F 
ATOM     64  C   UNL A   1      36.235  31.381  32.001  1.00  0.00     0.022 A 
BRANCH  62  65
ATOM     65  S   UNL A   1      35.200  32.524  29.742  1.00  0.00     0.127 S 
ATOM     66  O   UNL A   1      34.239  32.814  30.805  1.00  0.00    -0.237 OA
ATOM     67  O   UNL A   1      35.956  33.685  29.272  1.00  0.00    -0.237 OA
ATOM     68  O   UNL A   1      34.714  31.644  28.688  1.00  0.00    -0.744 OA
ENDBRANCH  62  65
ENDBRANCH  44  58
BRANCH  45  69
ATOM     69  C   UNL A   1      46.858  27.305  26.110  1.00  0.00     0.023 A 
ATOM     70  C   UNL A   1      46.933  27.565  24.730  1.00  0.00     0.012 A 
ATOM     71  C   UNL A   1      47.934  26.653  26.747  1.00  0.00     0.148 A 
ATOM     72  C   UNL A   1      48.043  27.155  23.989  1.00  0.00     0.002 A 
ATOM     73  C   UNL A   1      49.062  26.301  26.016  1.00  0.00     0.091 A 
ATOM     74  F   UNL A   1      47.840  26.406  28.061  1.00  0.00    -0.205 F 
ATOM     75  C   UNL A   1      49.110  26.534  24.634  1.00  0.00     0.022 A 
BRANCH  73  76
ATOM     76  S   UNL A   1      50.535  25.613  26.781  1.00  0.00     0.127 S 
ATOM     77  O   UNL A   1      51.409  25.421  25.626  1.00  0.00    -0.237 OA
ATOM     78  O   UNL A   1      50.936  26.694  27.684  1.00  0.00    -0.237 OA
ATOM     79  O   UNL A   1      50.103  24.396  27.452  1.00  0.00    -0.744 OA
ENDBRANCH  73  76
ENDBRANCH  45  69
BRANCH  57  80
ATOM     80  C   UNL A   1      45.113  33.219  29.393  1.00  0.00     0.023 A 
ATOM     81  C   UNL A   1      45.926  33.376  30.531  1.00  0.00     0.012 A 
ATOM     82  C   UNL A   1      45.052  34.252  28.435  1.00  0.00     0.148 A 
ATOM     83  C   UNL A   1      46.647  34.553  30.729  1.00  0.00     0.002 A 
ATOM     84  C   UNL A   1      45.816  35.398  28.611  1.00  0.00     0.091 A 
ATOM     85  F   UNL A   1      44.259  34.087  27.367  1.00  0.00    -0.205 F 
ATOM     86  C   UNL A   1      46.602  35.557  29.763  1.00  0.00     0.022 A 
BRANCH  84  87
ATOM     87  S   UNL A   1      45.901  36.701  27.378  1.00  0.00     0.127 S 
ATOM     88  O   UNL A   1      44.518  37.174  27.348  1.00  0.00    -0.237 OA
ATOM     89  O   UNL A   1      46.853  37.633  27.982  1.00  0.00    -0.237 OA
ATOM     90  O   UNL A   1      46.364  36.069  26.149  1.00  0.00    -0.744 OA
ENDBRANCH  84  87
ENDBRANCH  57  80
ENDBRANCH  31  32
ENDBRANCH  24  26
ENDBRANCH  23  24
ENDBRANCH  22  23
ENDBRANCH   1  22
TORSDOF 19
ENDMDL
MODEL 2
REMARK VINA RESULT:     -11.8      1.005      1.977
REMARK SMILES CC(C)CCOc1ccccc1-c1cc(C(=O)OCCOC(=O)c2ccc(-c3c4nc(c(-c5cccc(S(=O)(=O)[O-])c5F)c5ccc([nH]5)c(-c5cccc(S(=O)(=O)[O-])c5F)c5nc(c(-c6cccc(S(=O)(=O)[O-])c6F)c6ccc3[nH]6)C=C5)C=C4)cc2)no1
REMARK SMILES IDX 19 1 18 2 16 3 17 4 15 5 13 6 14 7 88 8 87 9 12 10 7 11 8 12
REMARK SMILES IDX 9 13 11 14 10 15 6 16 5 17 4 18 2 19 1 20 3 21 20 22 21 23
REMARK SMILES IDX 22 24 23 25 24 26 25 27 86 28 26 29 85 30 27 31 28 32 29 33
REMARK SMILES IDX 79 34 30 35 84 36 78 37 80 38 31 39 83 40 77 41 76 42 32 44
REMARK SMILES IDX 64 45 44 46 63 47 45 48 48 49 62 50 81 51 46 52 47 53 61 55
REMARK SMILES IDX 82 56 49 57 33 58 34 59 42 60 35 61 37 62 43 63 36 64 38 65
REMARK SMILES IDX 39 66 40 67 41 68 65 69 66 70 74 71 67 72 69 73 75 74 68 75
REMARK SMILES IDX 70 76 71 77 72 78 73 79 50 80 51 81 59 82 52 83 54 84 60 85
REMARK SMILES IDX 53 86 55 87 56 88 57 89 58 90
REMARK H PARENT 80 43 48 54
REMARK Flexibility Score: inf
ROOT
ATOM      1  C   UNL A   1      34.424  21.371  25.264  1.00  0.00     0.275 C 
ENDROOT
BRANCH   1   2
ATOM      2  O   UNL A   1      33.803  21.657  23.998  1.00  0.00    -0.457 OA
BRANCH   2   3
ATOM      3  C   UNL A   1      33.974  22.919  23.500  1.00  0.00     0.360 C 
ATOM      4  O   UNL A   1      34.623  23.193  22.501  1.00  0.00    -0.244 OA
BRANCH   3   5
ATOM      5  C   UNL A   1      33.220  23.891  24.292  1.00  0.00     0.192 A 
ATOM      6  C   UNL A   1      32.895  26.289  25.870  1.00  0.00     0.171 A 
ATOM      7  C   UNL A   1      33.976  25.423  25.005  1.00  0.00     0.090 A 
ATOM      8  O   UNL A   1      31.292  25.299  25.930  1.00  0.00    -0.355 OA
ATOM      9  N   UNL A   1      31.626  23.677  24.795  1.00  0.00    -0.072 NA
BRANCH   6  10
ATOM     10  C   UNL A   1      32.755  27.719  26.066  1.00  0.00     0.062 A 
ATOM     11  C   UNL A   1      32.006  28.441  25.111  1.00  0.00     0.130 A 
ATOM     12  C   UNL A   1      31.696  29.776  25.333  1.00  0.00     0.047 A 
ATOM     13  C   UNL A   1      32.122  30.388  26.513  1.00  0.00     0.004 A 
ATOM     14  C   UNL A   1      33.187  28.335  27.237  1.00  0.00     0.016 A 
ATOM     15  C   UNL A   1      32.876  29.677  27.453  1.00  0.00     0.001 A 
BRANCH  11  16
ATOM     16  O   UNL A   1      31.614  27.876  23.915  1.00  0.00    -0.493 OA
BRANCH  16  17
ATOM     17  C   UNL A   1      30.186  27.770  23.751  1.00  0.00     0.230 C 
BRANCH  17  18
ATOM     18  C   UNL A   1      29.689  28.469  22.463  1.00  0.00     0.044 C 
BRANCH  18  19
ATOM     19  C   UNL A   1      28.610  29.722  22.836  1.00  0.00    -0.014 C 
ATOM     20  C   UNL A   1      27.134  28.776  23.074  1.00  0.00     0.007 C 
ATOM     21  C   UNL A   1      28.876  31.746  23.822  1.00  0.00     0.007 C 
ENDBRANCH  18  19
ENDBRANCH  17  18
ENDBRANCH  16  17
ENDBRANCH  11  16
ENDBRANCH   6  10
ENDBRANCH   3   5
ENDBRANCH   2   3
ENDBRANCH   1   2
BRANCH   1  22
ATOM     22  C   UNL A   1      35.882  20.944  25.071  1.00  0.00     0.275 C 
BRANCH  22  23
ATOM     23  O   UNL A   1      36.776  21.945  25.590  1.00  0.00    -0.458 OA
BRANCH  23  24
ATOM     24  C   UNL A   1      38.061  21.551  25.752  1.00  0.00     0.338 C 
ATOM     25  O   UNL A   1      38.572  20.525  25.336  1.00  0.00    -0.246 OA
BRANCH  24  26
ATOM     26  C   UNL A   1      38.829  22.620  26.403  1.00  0.00     0.060 A 
ATOM     27  C   UNL A   1      38.444  23.932  26.162  1.00  0.00     0.016 A 
ATOM     28  C   UNL A   1      39.987  22.363  27.126  1.00  0.00     0.016 A 
ATOM     29  C   UNL A   1      39.241  24.999  26.536  1.00  0.00     0.010 A 
ATOM     30  C   UNL A   1      40.732  23.444  27.618  1.00  0.00     0.010 A 
ATOM     31  C   UNL A   1      40.374  24.772  27.309  1.00  0.00    -0.014 A 
BRANCH  31  32
ATOM     32  C   UNL A   1      41.158  25.929  27.808  1.00  0.00     0.031 A 
ATOM     33  C   UNL A   1      40.491  26.988  28.634  1.00  0.00     0.074 A 
ATOM     34  C   UNL A   1      42.465  26.032  27.493  1.00  0.00     0.049 A 
ATOM     35  N   UNL A   1      40.950  28.155  29.000  1.00  0.00    -0.248 NA
ATOM     36  C   UNL A   1      39.124  26.705  29.100  1.00  0.00     0.031 C 
ATOM     37  C   UNL A   1      43.237  25.044  26.733  1.00  0.00     0.029 A 
ATOM     38  N   UNL A   1      43.373  27.029  27.750  1.00  0.00    -0.354 N 
ATOM     39  C   UNL A   1      39.907  28.775  29.676  1.00  0.00     0.074 A 
ATOM     40  C   UNL A   1      38.794  27.851  29.678  1.00  0.00     0.031 C 
ATOM     41  C   UNL A   1      44.492  25.486  26.576  1.00  0.00     0.029 A 
ATOM     42  C   UNL A   1      44.591  26.823  27.141  1.00  0.00     0.049 A 
ATOM     43  H   UNL A   1      43.174  27.812  28.312  1.00  0.00     0.167 HD
ATOM     44  C   UNL A   1      39.885  30.008  30.237  1.00  0.00     0.034 A 
ATOM     45  C   UNL A   1      45.648  27.644  26.993  1.00  0.00     0.034 A 
ATOM     46  C   UNL A   1      41.015  30.899  30.256  1.00  0.00     0.049 A 
ATOM     47  C   UNL A   1      45.580  29.021  27.586  1.00  0.00     0.074 A 
ATOM     48  C   UNL A   1      41.112  32.148  30.842  1.00  0.00     0.029 A 
ATOM     49  N   UNL A   1      42.237  30.643  29.651  1.00  0.00    -0.354 N 
ATOM     50  N   UNL A   1      44.612  29.573  28.276  1.00  0.00    -0.248 NA
ATOM     51  C   UNL A   1      46.753  29.884  27.395  1.00  0.00     0.031 C 
ATOM     52  C   UNL A   1      42.376  32.670  30.547  1.00  0.00     0.029 A 
ATOM     53  C   UNL A   1      43.085  31.724  29.825  1.00  0.00     0.049 A 
ATOM     54  H   UNL A   1      42.467  29.817  29.170  1.00  0.00     0.167 HD
ATOM     55  C   UNL A   1      45.070  30.837  28.629  1.00  0.00     0.074 A 
ATOM     56  C   UNL A   1      46.410  30.958  28.093  1.00  0.00     0.031 C 
ATOM     57  C   UNL A   1      44.432  31.812  29.321  1.00  0.00     0.034 A 
BRANCH  44  58
ATOM     58  C   UNL A   1      38.597  30.473  30.862  1.00  0.00     0.023 A 
ATOM     59  C   UNL A   1      38.315  30.187  32.213  1.00  0.00     0.012 A 
ATOM     60  C   UNL A   1      37.684  31.245  30.115  1.00  0.00     0.148 A 
ATOM     61  C   UNL A   1      37.128  30.628  32.799  1.00  0.00     0.002 A 
ATOM     62  C   UNL A   1      36.529  31.724  30.720  1.00  0.00     0.091 A 
ATOM     63  F   UNL A   1      37.960  31.490  28.826  1.00  0.00    -0.205 F 
ATOM     64  C   UNL A   1      36.242  31.406  32.057  1.00  0.00     0.022 A 
BRANCH  62  65
ATOM     65  S   UNL A   1      35.366  32.800  29.873  1.00  0.00     0.127 S 
ATOM     66  O   UNL A   1      34.872  31.924  28.812  1.00  0.00    -0.237 OA
ATOM     67  O   UNL A   1      34.393  33.088  30.927  1.00  0.00    -0.237 OA
ATOM     68  O   UNL A   1      36.134  33.952  29.421  1.00  0.00    -0.744 OA
ENDBRANCH  62  65
ENDBRANCH  44  58
BRANCH  45  69
ATOM     69  C   UNL A   1      46.845  27.185  26.233  1.00  0.00     0.023 A 
ATOM     70  C   UNL A   1      46.912  27.402  24.844  1.00  0.00     0.012 A 
ATOM     71  C   UNL A   1      47.929  26.561  26.884  1.00  0.00     0.148 A 
ATOM     72  C   UNL A   1      48.022  26.977  24.112  1.00  0.00     0.002 A 
ATOM     73  C   UNL A   1      49.056  26.194  26.160  1.00  0.00     0.091 A 
ATOM     74  F   UNL A   1      47.842  26.354  28.206  1.00  0.00    -0.205 F 
ATOM     75  C   UNL A   1      49.096  26.384  24.770  1.00  0.00     0.022 A 
BRANCH  73  76
ATOM     76  S   UNL A   1      50.537  25.541  26.939  1.00  0.00     0.127 S 
ATOM     77  O   UNL A   1      50.900  26.627  27.847  1.00  0.00    -0.237 OA
ATOM     78  O   UNL A   1      50.025  24.336  27.594  1.00  0.00    -0.237 OA
ATOM     79  O   UNL A   1      51.477  25.286  25.857  1.00  0.00    -0.744 OA
ENDBRANCH  73  76
ENDBRANCH  45  69
BRANCH  57  80
ATOM     80  C   UNL A   1      45.190  33.087  29.582  1.00  0.00     0.023 A 
ATOM     81  C   UNL A   1      45.978  33.215  30.742  1.00  0.00     0.012 A 
ATOM     82  C   UNL A   1      45.179  34.129  28.632  1.00  0.00     0.148 A 
ATOM     83  C   UNL A   1      46.722  34.373  30.967  1.00  0.00     0.002 A 
ATOM     84  C   UNL A   1      45.965  35.254  28.836  1.00  0.00     0.091 A 
ATOM     85  F   UNL A   1      44.408  33.991  27.543  1.00  0.00    -0.205 F 
ATOM     86  C   UNL A   1      46.726  35.384  30.009  1.00  0.00     0.022 A 
BRANCH  84  87
ATOM     87  S   UNL A   1      46.113  36.564  27.616  1.00  0.00     0.127 S 
ATOM     88  O   UNL A   1      44.915  37.358  27.885  1.00  0.00    -0.237 OA
ATOM     89  O   UNL A   1      47.370  37.203  28.005  1.00  0.00    -0.237 OA
ATOM     90  O   UNL A   1      46.141  35.907  26.316  1.00  0.00    -0.744 OA
ENDBRANCH  84  87
ENDBRANCH  57  80
ENDBRANCH  31  32
ENDBRANCH  24  26
ENDBRANCH  23  24
ENDBRANCH  22  23
ENDBRANCH   1  22
TORSDOF 19
ENDMDL
MODEL 3
REMARK VINA RESULT:     -11.6      0.964      1.954
REMARK SMILES CC(C)CCOc1ccccc1-c1cc(C(=O)OCCOC(=O)c2ccc(-c3c4nc(c(-c5cccc(S(=O)(=O)[O-])c5F)c5ccc([nH]5)c(-c5cccc(S(=O)(=O)[O-])c5F)c5nc(c(-c6cccc(S(=O)(=O)[O-])c6F)c6ccc3[nH]6)C=C5)C=C4)cc2)no1
REMARK SMILES IDX 19 1 18 2 16 3 17 4 15 5 13 6 14 7 88 8 87 9 12 10 7 11 8 12
REMARK SMILES IDX 9 13 11 14 10 15 6 16 5 17 4 18 2 19 1 20 3 21 20 22 21 23
REMARK SMILES IDX 22 24 23 25 24 26 25 27 86 28 26 29 85 30 27 31 28 32 29 33
REMARK SMILES IDX 79 34 30 35 84 36 78 37 80 38 31 39 83 40 77 41 76 42 32 44
REMARK SMILES IDX 64 45 44 46 63 47 45 48 48 49 62 50 81 51 46 52 47 53 61 55
REMARK SMILES IDX 82 56 49 57 33 58 34 59 42 60 35 61 37 62 43 63 36 64 38 65
REMARK SMILES IDX 39 66 40 67 41 68 65 69 66 70 74 71 67 72 69 73 75 74 68 75
REMARK SMILES IDX 70 76 71 77 72 78 73 79 50 80 51 81 59 82 52 83 54 84 60 85
REMARK SMILES IDX 53 86 55 87 56 88 57 89 58 90
REMARK H PARENT 80 43 48 54
REMARK Flexibility Score: inf
ROOT
ATOM      1  C   UNL A   1      34.736  20.655  25.506  1.00  0.00     0.275 C 
ENDROOT
BRANCH   1   2
ATOM      2  O   UNL A   1      34.111  21.946  25.626  1.00  0.00    -0.457 OA
BRANCH   2   3
ATOM      3  C   UNL A   1      33.651  22.294  26.866  1.00  0.00     0.360 C 
ATOM      4  O   UNL A   1      34.185  21.981  27.920  1.00  0.00    -0.244 OA
BRANCH   3   5
ATOM      5  C   UNL A   1      32.468  23.146  26.756  1.00  0.00     0.192 A 
ATOM      6  C   UNL A   1      31.036  25.552  26.045  1.00  0.00     0.171 A 
ATOM      7  C   UNL A   1      32.500  24.830  25.987  1.00  0.00     0.090 A 
ATOM      8  O   UNL A   1      29.884  24.425  27.024  1.00  0.00    -0.355 OA
ATOM      9  N   UNL A   1      30.973  22.792  27.446  1.00  0.00    -0.072 NA
BRANCH   6  10
ATOM     10  C   UNL A   1      30.385  26.466  25.126  1.00  0.00     0.062 A 
ATOM     11  C   UNL A   1      31.095  27.625  24.741  1.00  0.00     0.130 A 
ATOM     12  C   UNL A   1      30.597  28.445  23.738  1.00  0.00     0.047 A 
ATOM     13  C   UNL A   1      29.397  28.105  23.110  1.00  0.00     0.004 A 
ATOM     14  C   UNL A   1      29.184  26.135  24.505  1.00  0.00     0.016 A 
ATOM     15  C   UNL A   1      28.687  26.964  23.500  1.00  0.00     0.001 A 
BRANCH  11  16
ATOM     16  O   UNL A   1      32.256  28.011  25.377  1.00  0.00    -0.493 OA
BRANCH  16  17
ATOM     17  C   UNL A   1      32.056  28.940  26.461  1.00  0.00     0.230 C 
BRANCH  17  18
ATOM     18  C   UNL A   1      32.498  30.377  26.093  1.00  0.00     0.044 C 
BRANCH  18  19
ATOM     19  C   UNL A   1      31.163  31.420  26.033  1.00  0.00    -0.014 C 
ATOM     20  C   UNL A   1      31.734  32.688  27.126  1.00  0.00     0.007 C 
ATOM     21  C   UNL A   1      29.618  31.859  24.433  1.00  0.00     0.007 C 
ENDBRANCH  18  19
ENDBRANCH  17  18
ENDBRANCH  16  17
ENDBRANCH  11  16
ENDBRANCH   6  10
ENDBRANCH   3   5
ENDBRANCH   2   3
ENDBRANCH   1   2
BRANCH   1  22
ATOM     22  C   UNL A   1      36.147  20.785  24.928  1.00  0.00     0.275 C 
BRANCH  22  23
ATOM     23  O   UNL A   1      36.945  21.672  25.734  1.00  0.00    -0.458 OA
BRANCH  23  24
ATOM     24  C   UNL A   1      38.261  21.365  25.809  1.00  0.00     0.338 C 
ATOM     25  O   UNL A   1      38.812  20.378  25.352  1.00  0.00    -0.246 OA
BRANCH  24  26
ATOM     26  C   UNL A   1      38.996  22.480  26.420  1.00  0.00     0.060 A 
ATOM     27  C   UNL A   1      38.602  23.771  26.092  1.00  0.00     0.016 A 
ATOM     28  C   UNL A   1      40.134  22.281  27.191  1.00  0.00     0.016 A 
ATOM     29  C   UNL A   1      39.374  24.869  26.428  1.00  0.00     0.010 A 
ATOM     30  C   UNL A   1      40.851  23.399  27.641  1.00  0.00     0.010 A 
ATOM     31  C   UNL A   1      40.486  24.702  27.246  1.00  0.00    -0.014 A 
BRANCH  31  32
ATOM     32  C   UNL A   1      41.239  25.897  27.700  1.00  0.00     0.031 A 
ATOM     33  C   UNL A   1      40.549  26.963  28.497  1.00  0.00     0.074 A 
ATOM     34  C   UNL A   1      42.541  26.026  27.372  1.00  0.00     0.049 A 
ATOM     35  N   UNL A   1      40.976  28.154  28.821  1.00  0.00    -0.248 NA
ATOM     36  C   UNL A   1      39.193  26.656  28.983  1.00  0.00     0.031 C 
ATOM     37  C   UNL A   1      43.335  25.035  26.639  1.00  0.00     0.029 A 
ATOM     38  N   UNL A   1      43.422  27.056  27.589  1.00  0.00    -0.354 N 
ATOM     39  C   UNL A   1      39.921  28.766  29.484  1.00  0.00     0.074 A 
ATOM     40  C   UNL A   1      38.835  27.812  29.526  1.00  0.00     0.031 C 
ATOM     41  C   UNL A   1      44.576  25.507  26.457  1.00  0.00     0.029 A 
ATOM     42  C   UNL A   1      44.641  26.866  26.977  1.00  0.00     0.049 A 
ATOM     43  H   UNL A   1      43.204  27.851  28.126  1.00  0.00     0.167 HD
ATOM     44  C   UNL A   1      39.868  30.015  30.005  1.00  0.00     0.034 A 
ATOM     45  C   UNL A   1      45.673  27.710  26.794  1.00  0.00     0.034 A 
ATOM     46  C   UNL A   1      40.971  30.938  29.986  1.00  0.00     0.049 A 
ATOM     47  C   UNL A   1      45.569  29.104  27.343  1.00  0.00     0.074 A 
ATOM     48  C   UNL A   1      41.038  32.208  30.530  1.00  0.00     0.029 A 
ATOM     49  N   UNL A   1      42.196  30.698  29.380  1.00  0.00    -0.354 N 
ATOM     50  N   UNL A   1      44.592  29.651  28.022  1.00  0.00    -0.248 NA
ATOM     51  C   UNL A   1      46.716  29.993  27.114  1.00  0.00     0.031 C 
ATOM     52  C   UNL A   1      42.283  32.756  30.208  1.00  0.00     0.029 A 
ATOM     53  C   UNL A   1      43.015  31.807  29.511  1.00  0.00     0.049 A 
ATOM     54  H   UNL A   1      42.447  29.863  28.925  1.00  0.00     0.167 HD
ATOM     55  C   UNL A   1      45.015  30.938  28.329  1.00  0.00     0.074 A 
ATOM     56  C   UNL A   1      46.348  31.079  27.779  1.00  0.00     0.031 C 
ATOM     57  C   UNL A   1      44.355  31.916  28.994  1.00  0.00     0.034 A 
BRANCH  44  58
ATOM     58  C   UNL A   1      38.571  30.464  30.625  1.00  0.00     0.023 A 
ATOM     59  C   UNL A   1      38.336  30.276  32.002  1.00  0.00     0.012 A 
ATOM     60  C   UNL A   1      37.602  31.124  29.842  1.00  0.00     0.148 A 
ATOM     61  C   UNL A   1      37.141  30.703  32.582  1.00  0.00     0.002 A 
ATOM     62  C   UNL A   1      36.437  31.592  30.438  1.00  0.00     0.091 A 
ATOM     63  F   UNL A   1      37.836  31.277  28.531  1.00  0.00    -0.205 F 
ATOM     64  C   UNL A   1      36.198  31.371  31.803  1.00  0.00     0.022 A 
BRANCH  62  65
ATOM     65  S   UNL A   1      35.200  32.534  29.538  1.00  0.00     0.127 S 
ATOM     66  O   UNL A   1      34.721  31.546  28.572  1.00  0.00    -0.237 OA
ATOM     67  O   UNL A   1      34.242  32.867  30.594  1.00  0.00    -0.237 OA
ATOM     68  O   UNL A   1      35.897  33.677  28.965  1.00  0.00    -0.744 OA
ENDBRANCH  62  65
ENDBRANCH  44  58
BRANCH  45  69
ATOM     69  C   UNL A   1      46.877  27.261  26.040  1.00  0.00     0.023 A 
ATOM     70  C   UNL A   1      46.961  27.502  24.656  1.00  0.00     0.012 A 
ATOM     71  C   UNL A   1      47.951  26.621  26.692  1.00  0.00     0.148 A 
ATOM     72  C   UNL A   1      48.078  27.086  23.929  1.00  0.00     0.002 A 
ATOM     73  C   UNL A   1      49.086  26.264  25.974  1.00  0.00     0.091 A 
ATOM     74  F   UNL A   1      47.848  26.391  28.009  1.00  0.00    -0.205 F 
ATOM     75  C   UNL A   1      49.142  26.478  24.589  1.00  0.00     0.022 A 
BRANCH  73  76
ATOM     76  S   UNL A   1      50.555  25.591  26.759  1.00  0.00     0.127 S 
ATOM     77  O   UNL A   1      51.411  25.320  25.606  1.00  0.00    -0.237 OA
ATOM     78  O   UNL A   1      50.988  26.712  27.596  1.00  0.00    -0.237 OA
ATOM     79  O   UNL A   1      50.110  24.421  27.501  1.00  0.00    -0.744 OA
ENDBRANCH  73  76
ENDBRANCH  45  69
BRANCH  57  80
ATOM     80  C   UNL A   1      45.077  33.220  29.207  1.00  0.00     0.023 A 
ATOM     81  C   UNL A   1      45.882  33.403  30.348  1.00  0.00     0.012 A 
ATOM     82  C   UNL A   1      45.018  34.235  28.230  1.00  0.00     0.148 A 
ATOM     83  C   UNL A   1      46.594  34.589  30.529  1.00  0.00     0.002 A 
ATOM     84  C   UNL A   1      45.773  35.389  28.390  1.00  0.00     0.091 A 
ATOM     85  F   UNL A   1      44.233  34.045  27.160  1.00  0.00    -0.205 F 
ATOM     86  C   UNL A   1      46.550  35.574  29.545  1.00  0.00     0.022 A 
BRANCH  84  87
ATOM     87  S   UNL A   1      45.859  36.669  27.133  1.00  0.00     0.127 S 
ATOM     88  O   UNL A   1      44.502  37.212  27.167  1.00  0.00    -0.237 OA
ATOM     89  O   UNL A   1      46.887  37.559  27.673  1.00  0.00    -0.237 OA
ATOM     90  O   UNL A   1      46.226  35.997  25.893  1.00  0.00    -0.744 OA
ENDBRANCH  84  87
ENDBRANCH  57  80
ENDBRANCH  31  32
ENDBRANCH  24  26
ENDBRANCH  23  24
ENDBRANCH  22  23
ENDBRANCH   1  22
TORSDOF 19
ENDMDL
