MODEL 1
REMARK VINA RESULT:     -12.3      0.000      0.000
REMARK SMILES CCOc1ccc(C(=O)N2CCC(C(=O)OCCOC(=O)c3ccc(-c4c5nc(c(-c6cccc(S(=O)(=O)[O-])c6F)c6ccc([nH]6)c(-c6cccc(S(=O)(=O)[O-])c6F)c6nc(c(-c7cccc(S(=O)(=O)[O-])c7F)c7ccc4[nH]7)C=C6)C=C5)cc3)(c3ccccc3)CC2)cc1OC
REMARK SMILES IDX 17 1 16 2 14 3 15 4 13 5 8 6 9 7 10 8 11 9 92 10 12 11 91 12
REMARK SMILES IDX 7 13 4 14 5 15 94 16 6 17 93 18 3 19 2 20 1 21 95 22 96 23
REMARK SMILES IDX 85 24 86 25 90 26 87 27 89 28 88 29 18 30 19 31 20 32 21 33
REMARK SMILES IDX 22 34 23 35 84 36 24 37 83 38 25 39 26 40 27 41 77 42 28 43
REMARK SMILES IDX 82 44 76 45 78 46 29 47 81 48 75 49 74 50 30 52 62 53 42 54
REMARK SMILES IDX 61 55 43 56 46 57 60 58 79 59 44 60 45 61 59 63 80 64 47 65
REMARK SMILES IDX 31 66 32 67 40 68 33 69 35 70 41 71 34 72 36 73 37 74 38 75
REMARK SMILES IDX 39 76 63 77 64 78 72 79 65 80 67 81 73 82 66 83 68 84 69 85
REMARK SMILES IDX 70 86 71 87 48 88 49 89 57 90 50 91 52 92 58 93 51 94 53 95
REMARK SMILES IDX 54 96 55 97 56 98
REMARK H PARENT 78 51 46 62
REMARK Flexibility Score: inf
ROOT
ATOM      1  C   UNL A   1      36.770  21.567  24.484  1.00  0.00     0.274 C 
ENDROOT
BRANCH   1   2
ATOM      2  O   UNL A   1      36.325  22.450  25.533  1.00  0.00    -0.461 OA
BRANCH   2   3
ATOM      3  C   UNL A   1      35.171  22.115  26.179  1.00  0.00     0.316 C 
ATOM      4  O   UNL A   1      35.118  21.208  27.001  1.00  0.00    -0.251 OA
BRANCH   3   5
ATOM      5  C   UNL A   1      33.932  22.922  25.661  1.00  0.00     0.096 C 
ATOM      6  C   UNL A   1      31.695  26.668  26.008  1.00  0.00     0.253 C 
ATOM      7  O   UNL A   1      31.179  27.003  27.075  1.00  0.00    -0.269 OA
ATOM      8  N   UNL A   1      32.450  25.494  25.876  1.00  0.00    -0.339 N 
ATOM      9  C   UNL A   1      31.982  24.366  26.665  1.00  0.00     0.121 C 
ATOM     10  C   UNL A   1      33.412  25.251  24.802  1.00  0.00     0.121 C 
ATOM     11  C   UNL A   1      32.967  23.214  26.848  1.00  0.00     0.045 C 
ATOM     12  C   UNL A   1      34.512  24.283  25.208  1.00  0.00     0.045 C 
BRANCH   6  13
ATOM     13  C   UNL A   1      31.389  27.503  24.814  1.00  0.00     0.043 A 
ATOM     14  C   UNL A   1      30.526  28.994  22.601  1.00  0.00     0.161 A 
ATOM     15  C   UNL A   1      30.477  29.546  23.889  1.00  0.00     0.051 A 
ATOM     16  C   UNL A   1      31.042  27.710  22.407  1.00  0.00     0.161 A 
ATOM     17  C   UNL A   1      30.908  28.803  24.992  1.00  0.00     0.018 A 
ATOM     18  C   UNL A   1      31.406  26.957  23.526  1.00  0.00     0.064 A 
BRANCH  14  19
ATOM     19  O   UNL A   1      30.062  29.730  21.546  1.00  0.00    -0.490 OA
BRANCH  19  20
ATOM     20  C   UNL A   1      29.193  30.788  21.971  1.00  0.00     0.226 C 
ATOM     21  C   UNL A   1      27.990  30.827  21.046  1.00  0.00     0.049 C 
ENDBRANCH  19  20
ENDBRANCH  14  19
BRANCH  16  22
ATOM     22  O   UNL A   1      31.188  27.027  21.234  1.00  0.00    -0.493 OA
ATOM     23  C   UNL A   1      31.997  25.861  21.238  1.00  0.00     0.278 C 
ENDBRANCH  16  22
ENDBRANCH   6  13
BRANCH   5  24
ATOM     24  C   UNL A   1      33.259  22.209  24.442  1.00  0.00    -0.031 A 
ATOM     25  C   UNL A   1      32.823  20.870  24.538  1.00  0.00     0.005 A 
ATOM     26  C   UNL A   1      33.075  22.829  23.191  1.00  0.00     0.005 A 
ATOM     27  C   UNL A   1      32.215  20.204  23.464  1.00  0.00     0.000 A 
ATOM     28  C   UNL A   1      32.511  22.150  22.101  1.00  0.00     0.000 A 
ATOM     29  C   UNL A   1      32.071  20.842  22.239  1.00  0.00     0.000 A 
ENDBRANCH   5  24
ENDBRANCH   3   5
ENDBRANCH   2   3
ENDBRANCH   1   2
BRANCH   1  30
ATOM     30  C   UNL A   1      37.847  20.629  25.018  1.00  0.00     0.275 C 
BRANCH  30  31
ATOM     31  O   UNL A   1      38.318  21.128  26.280  1.00  0.00    -0.458 OA
BRANCH  31  32
ATOM     32  C   UNL A   1      39.659  21.162  26.445  1.00  0.00     0.338 C 
ATOM     33  O   UNL A   1      40.462  20.272  26.211  1.00  0.00    -0.246 OA
BRANCH  32  34
ATOM     34  C   UNL A   1      40.043  22.494  26.931  1.00  0.00     0.060 A 
ATOM     35  C   UNL A   1      39.373  23.612  26.437  1.00  0.00     0.016 A 
ATOM     36  C   UNL A   1      41.122  22.647  27.799  1.00  0.00     0.016 A 
ATOM     37  C   UNL A   1      39.808  24.891  26.771  1.00  0.00     0.010 A 
ATOM     38  C   UNL A   1      41.518  23.934  28.182  1.00  0.00     0.010 A 
ATOM     39  C   UNL A   1      40.884  25.071  27.648  1.00  0.00    -0.014 A 
BRANCH  39  40
ATOM     40  C   UNL A   1      41.380  26.442  27.949  1.00  0.00     0.031 A 
ATOM     41  C   UNL A   1      42.776  26.837  27.544  1.00  0.00     0.074 A 
ATOM     42  C   UNL A   1      40.590  27.342  28.569  1.00  0.00     0.049 A 
ATOM     43  N   UNL A   1      43.446  27.921  27.840  1.00  0.00    -0.248 NA
ATOM     44  C   UNL A   1      43.520  25.886  26.701  1.00  0.00     0.031 C 
ATOM     45  C   UNL A   1      39.205  27.111  28.984  1.00  0.00     0.029 A 
ATOM     46  N   UNL A   1      40.842  28.633  28.968  1.00  0.00    -0.354 N 
ATOM     47  C   UNL A   1      44.710  27.747  27.292  1.00  0.00     0.074 A 
ATOM     48  C   UNL A   1      44.708  26.466  26.618  1.00  0.00     0.031 C 
ATOM     49  C   UNL A   1      38.728  28.223  29.566  1.00  0.00     0.029 A 
ATOM     50  C   UNL A   1      39.789  29.225  29.627  1.00  0.00     0.049 A 
ATOM     51  H   UNL A   1      41.697  29.092  28.797  1.00  0.00     0.167 HD
ATOM     52  C   UNL A   1      45.776  28.579  27.341  1.00  0.00     0.034 A 
ATOM     53  C   UNL A   1      39.697  30.421  30.240  1.00  0.00     0.034 A 
ATOM     54  C   UNL A   1      45.760  29.888  27.936  1.00  0.00     0.049 A 
ATOM     55  C   UNL A   1      40.893  31.334  30.260  1.00  0.00     0.074 A 
ATOM     56  C   UNL A   1      46.788  30.811  28.007  1.00  0.00     0.029 A 
ATOM     57  N   UNL A   1      44.660  30.466  28.545  1.00  0.00    -0.354 N 
ATOM     58  N   UNL A   1      42.065  31.173  29.694  1.00  0.00    -0.248 NA
ATOM     59  C   UNL A   1      40.754  32.599  30.999  1.00  0.00     0.031 C 
ATOM     60  C   UNL A   1      46.310  31.949  28.663  1.00  0.00     0.029 A 
ATOM     61  C   UNL A   1      44.982  31.735  28.995  1.00  0.00     0.049 A 
ATOM     62  H   UNL A   1      43.778  30.038  28.645  1.00  0.00     0.167 HD
ATOM     63  C   UNL A   1      42.795  32.317  29.995  1.00  0.00     0.074 A 
ATOM     64  C   UNL A   1      41.922  33.182  30.761  1.00  0.00     0.031 C 
ATOM     65  C   UNL A   1      44.082  32.612  29.695  1.00  0.00     0.034 A 
BRANCH  52  66
ATOM     66  C   UNL A   1      47.063  28.111  26.720  1.00  0.00     0.023 A 
ATOM     67  C   UNL A   1      48.117  27.673  27.542  1.00  0.00     0.012 A 
ATOM     68  C   UNL A   1      47.190  28.031  25.319  1.00  0.00     0.148 A 
ATOM     69  C   UNL A   1      49.290  27.172  26.978  1.00  0.00     0.002 A 
ATOM     70  C   UNL A   1      48.348  27.499  24.765  1.00  0.00     0.091 A 
ATOM     71  F   UNL A   1      46.180  28.476  24.559  1.00  0.00    -0.205 F 
ATOM     72  C   UNL A   1      49.400  27.073  25.593  1.00  0.00     0.022 A 
BRANCH  70  73
ATOM     73  S   UNL A   1      48.557  27.271  22.996  1.00  0.00     0.127 S 
ATOM     74  O   UNL A   1      49.970  27.600  22.821  1.00  0.00    -0.237 OA
ATOM     75  O   UNL A   1      48.235  25.853  22.827  1.00  0.00    -0.237 OA
ATOM     76  O   UNL A   1      47.619  28.184  22.358  1.00  0.00    -0.744 OA
ENDBRANCH  70  73
ENDBRANCH  52  66
BRANCH  53  77
ATOM     77  C   UNL A   1      38.416  30.839  30.882  1.00  0.00     0.023 A 
ATOM     78  C   UNL A   1      38.202  30.561  32.246  1.00  0.00     0.012 A 
ATOM     79  C   UNL A   1      37.414  31.512  30.158  1.00  0.00     0.148 A 
ATOM     80  C   UNL A   1      37.006  30.923  32.869  1.00  0.00     0.002 A 
ATOM     81  C   UNL A   1      36.251  31.927  30.800  1.00  0.00     0.091 A 
ATOM     82  F   UNL A   1      37.609  31.740  28.851  1.00  0.00    -0.205 F 
ATOM     83  C   UNL A   1      36.037  31.619  32.150  1.00  0.00     0.022 A 
BRANCH  81  84
ATOM     84  S   UNL A   1      35.045  32.956  29.957  1.00  0.00     0.127 S 
ATOM     85  O   UNL A   1      34.111  33.272  31.032  1.00  0.00    -0.237 OA
ATOM     86  O   UNL A   1      35.856  34.083  29.494  1.00  0.00    -0.237 OA
ATOM     87  O   UNL A   1      34.534  32.116  28.879  1.00  0.00    -0.744 OA
ENDBRANCH  81  84
ENDBRANCH  53  77
BRANCH  65  88
ATOM     88  C   UNL A   1      44.630  33.929  30.175  1.00  0.00     0.023 A 
ATOM     89  C   UNL A   1      45.333  33.980  31.395  1.00  0.00     0.012 A 
ATOM     90  C   UNL A   1      44.527  35.090  29.386  1.00  0.00     0.148 A 
ATOM     91  C   UNL A   1      45.906  35.172  31.832  1.00  0.00     0.002 A 
ATOM     92  C   UNL A   1      45.135  36.267  29.809  1.00  0.00     0.091 A 
ATOM     93  F   UNL A   1      43.835  35.027  28.238  1.00  0.00    -0.205 F 
ATOM     94  C   UNL A   1      45.819  36.311  31.035  1.00  0.00     0.022 A 
BRANCH  92  95
ATOM     95  S   UNL A   1      45.143  37.752  28.799  1.00  0.00     0.127 S 
ATOM     96  O   UNL A   1      43.722  38.093  28.758  1.00  0.00    -0.237 OA
ATOM     97  O   UNL A   1      45.966  38.669  29.590  1.00  0.00    -0.237 OA
ATOM     98  O   UNL A   1      45.736  37.362  27.528  1.00  0.00    -0.744 OA
ENDBRANCH  92  95
ENDBRANCH  65  88
ENDBRANCH  39  40
ENDBRANCH  32  34
ENDBRANCH  31  32
ENDBRANCH  30  31
ENDBRANCH   1  30
TORSDOF 19
ENDMDL
MODEL 2
REMARK VINA RESULT:     -12.2      4.799     10.122
REMARK SMILES CCOc1ccc(C(=O)N2CCC(C(=O)OCCOC(=O)c3ccc(-c4c5nc(c(-c6cccc(S(=O)(=O)[O-])c6F)c6ccc([nH]6)c(-c6cccc(S(=O)(=O)[O-])c6F)c6nc(c(-c7cccc(S(=O)(=O)[O-])c7F)c7ccc4[nH]7)C=C6)C=C5)cc3)(c3ccccc3)CC2)cc1OC
REMARK SMILES IDX 17 1 16 2 14 3 15 4 13 5 8 6 9 7 10 8 11 9 92 10 12 11 91 12
REMARK SMILES IDX 7 13 4 14 5 15 94 16 6 17 93 18 3 19 2 20 1 21 95 22 96 23
REMARK SMILES IDX 85 24 86 25 90 26 87 27 89 28 88 29 18 30 19 31 20 32 21 33
REMARK SMILES IDX 22 34 23 35 84 36 24 37 83 38 25 39 26 40 27 41 77 42 28 43
REMARK SMILES IDX 82 44 76 45 78 46 29 47 81 48 75 49 74 50 30 52 62 53 42 54
REMARK SMILES IDX 61 55 43 56 46 57 60 58 79 59 44 60 45 61 59 63 80 64 47 65
REMARK SMILES IDX 31 66 32 67 40 68 33 69 35 70 41 71 34 72 36 73 37 74 38 75
REMARK SMILES IDX 39 76 63 77 64 78 72 79 65 80 67 81 73 82 66 83 68 84 69 85
REMARK SMILES IDX 70 86 71 87 48 88 49 89 57 90 50 91 52 92 58 93 51 94 53 95
REMARK SMILES IDX 54 96 55 97 56 98
REMARK H PARENT 78 51 46 62
REMARK Flexibility Score: inf
ROOT
ATOM      1  C   UNL A   1      31.328  30.849  25.701  1.00  0.00     0.274 C 
ENDROOT
BRANCH   1   2
ATOM      2  O   UNL A   1      32.403  29.898  25.843  1.00  0.00    -0.461 OA
BRANCH   2   3
ATOM      3  C   UNL A   1      32.137  28.762  26.551  1.00  0.00     0.316 C 
ATOM      4  O   UNL A   1      31.911  28.777  27.756  1.00  0.00    -0.251 OA
BRANCH   3   5
ATOM      5  C   UNL A   1      32.284  27.464  25.687  1.00  0.00     0.096 C 
ATOM      6  C   UNL A   1      34.911  24.112  24.675  1.00  0.00     0.253 C 
ATOM      7  O   UNL A   1      36.016  24.303  24.165  1.00  0.00    -0.269 OA
ATOM      8  N   UNL A   1      34.065  25.166  25.047  1.00  0.00    -0.339 N 
ATOM      9  C   UNL A   1      34.097  26.324  24.168  1.00  0.00     0.121 C 
ATOM     10  C   UNL A   1      32.970  25.043  26.008  1.00  0.00     0.121 C 
ATOM     11  C   UNL A   1      33.501  27.613  24.725  1.00  0.00     0.045 C 
ATOM     12  C   UNL A   1      32.650  26.356  26.704  1.00  0.00     0.045 C 
BRANCH   6  13
ATOM     13  C   UNL A   1      34.446  22.702  24.782  1.00  0.00     0.043 A 
ATOM     14  C   UNL A   1      33.782  19.977  24.779  1.00  0.00     0.161 A 
ATOM     15  C   UNL A   1      34.807  20.455  25.609  1.00  0.00     0.051 A 
ATOM     16  C   UNL A   1      33.060  20.862  23.976  1.00  0.00     0.161 A 
ATOM     17  C   UNL A   1      35.137  21.814  25.611  1.00  0.00     0.018 A 
ATOM     18  C   UNL A   1      33.446  22.204  23.940  1.00  0.00     0.064 A 
BRANCH  14  19
ATOM     19  O   UNL A   1      33.507  18.637  24.770  1.00  0.00    -0.490 OA
BRANCH  19  20
ATOM     20  C   UNL A   1      34.608  17.867  24.270  1.00  0.00     0.226 C 
ATOM     21  C   UNL A   1      34.065  16.788  23.351  1.00  0.00     0.049 C 
ENDBRANCH  19  20
ENDBRANCH  14  19
BRANCH  16  22
ATOM     22  O   UNL A   1      32.024  20.583  23.131  1.00  0.00    -0.493 OA
ATOM     23  C   UNL A   1      31.869  21.394  21.976  1.00  0.00     0.278 C 
ENDBRANCH  16  22
ENDBRANCH   6  13
BRANCH   5  24
ATOM     24  C   UNL A   1      30.940  27.097  24.977  1.00  0.00    -0.031 A 
ATOM     25  C   UNL A   1      30.501  27.817  23.844  1.00  0.00     0.005 A 
ATOM     26  C   UNL A   1      30.084  26.074  25.425  1.00  0.00     0.005 A 
ATOM     27  C   UNL A   1      29.302  27.513  23.185  1.00  0.00     0.000 A 
ATOM     28  C   UNL A   1      28.861  25.799  24.797  1.00  0.00     0.000 A 
ATOM     29  C   UNL A   1      28.474  26.510  23.670  1.00  0.00     0.000 A 
ENDBRANCH   5  24
ENDBRANCH   3   5
ENDBRANCH   2   3
ENDBRANCH   1   2
BRANCH   1  30
ATOM     30  C   UNL A   1      31.496  31.976  26.714  1.00  0.00     0.275 C 
BRANCH  30  31
ATOM     31  O   UNL A   1      32.788  32.578  26.534  1.00  0.00    -0.458 OA
BRANCH  31  32
ATOM     32  C   UNL A   1      33.268  33.283  27.583  1.00  0.00     0.338 C 
ATOM     33  O   UNL A   1      32.779  34.275  28.102  1.00  0.00    -0.246 OA
BRANCH  32  34
ATOM     34  C   UNL A   1      34.497  32.638  28.064  1.00  0.00     0.060 A 
ATOM     35  C   UNL A   1      34.454  31.296  28.435  1.00  0.00     0.016 A 
ATOM     36  C   UNL A   1      35.665  33.379  28.236  1.00  0.00     0.016 A 
ATOM     37  C   UNL A   1      35.565  30.699  29.026  1.00  0.00     0.010 A 
ATOM     38  C   UNL A   1      36.799  32.759  28.774  1.00  0.00     0.010 A 
ATOM     39  C   UNL A   1      36.751  31.419  29.202  1.00  0.00    -0.014 A 
BRANCH  39  40
ATOM     40  C   UNL A   1      37.912  30.789  29.891  1.00  0.00     0.031 A 
ATOM     41  C   UNL A   1      38.232  31.170  31.313  1.00  0.00     0.074 A 
ATOM     42  C   UNL A   1      38.673  29.872  29.262  1.00  0.00     0.049 A 
ATOM     43  N   UNL A   1      39.273  30.852  32.038  1.00  0.00    -0.248 NA
ATOM     44  C   UNL A   1      37.256  32.023  32.011  1.00  0.00     0.031 C 
ATOM     45  C   UNL A   1      38.458  29.381  27.900  1.00  0.00     0.029 A 
ATOM     46  N   UNL A   1      39.792  29.194  29.684  1.00  0.00    -0.354 N 
ATOM     47  C   UNL A   1      39.120  31.529  33.240  1.00  0.00     0.074 A 
ATOM     48  C   UNL A   1      37.869  32.253  33.163  1.00  0.00     0.031 C 
ATOM     49  C   UNL A   1      39.404  28.475  27.604  1.00  0.00     0.029 A 
ATOM     50  C   UNL A   1      40.331  28.365  28.726  1.00  0.00     0.049 A 
ATOM     51  H   UNL A   1      40.171  29.291  30.587  1.00  0.00     0.167 HD
ATOM     52  C   UNL A   1      39.943  31.545  34.315  1.00  0.00     0.034 A 
ATOM     53  C   UNL A   1      41.461  27.630  28.735  1.00  0.00     0.034 A 
ATOM     54  C   UNL A   1      41.144  30.764  34.430  1.00  0.00     0.049 A 
ATOM     55  C   UNL A   1      42.345  27.652  29.953  1.00  0.00     0.074 A 
ATOM     56  C   UNL A   1      42.025  30.698  35.496  1.00  0.00     0.029 A 
ATOM     57  N   UNL A   1      41.624  29.903  33.459  1.00  0.00    -0.354 N 
ATOM     58  N   UNL A   1      42.159  28.261  31.099  1.00  0.00    -0.248 NA
ATOM     59  C   UNL A   1      43.596  26.881  29.881  1.00  0.00     0.031 C 
ATOM     60  C   UNL A   1      43.042  29.797  35.167  1.00  0.00     0.029 A 
ATOM     61  C   UNL A   1      42.789  29.298  33.899  1.00  0.00     0.049 A 
ATOM     62  H   UNL A   1      41.199  29.743  32.585  1.00  0.00     0.167 HD
ATOM     63  C   UNL A   1      43.256  27.935  31.887  1.00  0.00     0.074 A 
ATOM     64  C   UNL A   1      44.086  27.044  31.103  1.00  0.00     0.031 C 
ATOM     65  C   UNL A   1      43.568  28.361  33.135  1.00  0.00     0.034 A 
BRANCH  52  66
ATOM     66  C   UNL A   1      39.571  32.429  35.472  1.00  0.00     0.023 A 
ATOM     67  C   UNL A   1      38.817  31.906  36.538  1.00  0.00     0.012 A 
ATOM     68  C   UNL A   1      40.043  33.756  35.536  1.00  0.00     0.148 A 
ATOM     69  C   UNL A   1      38.525  32.695  37.650  1.00  0.00     0.002 A 
ATOM     70  C   UNL A   1      39.776  34.526  36.661  1.00  0.00     0.091 A 
ATOM     71  F   UNL A   1      40.739  34.238  34.497  1.00  0.00    -0.205 F 
ATOM     72  C   UNL A   1      39.013  33.998  37.717  1.00  0.00     0.022 A 
BRANCH  70  73
ATOM     73  S   UNL A   1      40.416  36.191  36.869  1.00  0.00     0.127 S 
ATOM     74  O   UNL A   1      40.044  36.810  35.598  1.00  0.00    -0.237 OA
ATOM     75  O   UNL A   1      39.659  36.671  38.026  1.00  0.00    -0.237 OA
ATOM     76  O   UNL A   1      41.847  36.046  37.098  1.00  0.00    -0.744 OA
ENDBRANCH  70  73
ENDBRANCH  52  66
BRANCH  53  77
ATOM     77  C   UNL A   1      41.821  26.794  27.553  1.00  0.00     0.023 A 
ATOM     78  C   UNL A   1      42.480  27.388  26.460  1.00  0.00     0.012 A 
ATOM     79  C   UNL A   1      41.525  25.418  27.505  1.00  0.00     0.148 A 
ATOM     80  C   UNL A   1      42.813  26.634  25.332  1.00  0.00     0.002 A 
ATOM     81  C   UNL A   1      41.916  24.660  26.407  1.00  0.00     0.091 A 
ATOM     82  F   UNL A   1      40.864  24.868  28.535  1.00  0.00    -0.205 F 
ATOM     83  C   UNL A   1      42.544  25.268  25.311  1.00  0.00     0.022 A 
BRANCH  81  84
ATOM     84  S   UNL A   1      41.729  22.874  26.401  1.00  0.00     0.127 S 
ATOM     85  O   UNL A   1      42.574  22.484  25.278  1.00  0.00    -0.237 OA
ATOM     86  O   UNL A   1      42.242  22.496  27.718  1.00  0.00    -0.237 OA
ATOM     87  O   UNL A   1      40.296  22.655  26.242  1.00  0.00    -0.744 OA
ENDBRANCH  81  84
ENDBRANCH  53  77
BRANCH  65  88
ATOM     88  C   UNL A   1      44.849  27.862  33.747  1.00  0.00     0.023 A 
ATOM     89  C   UNL A   1      46.024  28.627  33.607  1.00  0.00     0.012 A 
ATOM     90  C   UNL A   1      44.874  26.690  34.527  1.00  0.00     0.148 A 
ATOM     91  C   UNL A   1      47.210  28.222  34.217  1.00  0.00     0.002 A 
ATOM     92  C   UNL A   1      46.051  26.313  35.165  1.00  0.00     0.091 A 
ATOM     93  F   UNL A   1      43.751  25.964  34.630  1.00  0.00    -0.205 F 
ATOM     94  C   UNL A   1      47.220  27.074  35.005  1.00  0.00     0.022 A 
BRANCH  92  95
ATOM     95  S   UNL A   1      46.125  24.897  36.268  1.00  0.00     0.127 S 
ATOM     96  O   UNL A   1      46.012  23.781  35.330  1.00  0.00    -0.237 OA
ATOM     97  O   UNL A   1      47.444  25.043  36.884  1.00  0.00    -0.237 OA
ATOM     98  O   UNL A   1      45.011  25.058  37.193  1.00  0.00    -0.744 OA
ENDBRANCH  92  95
ENDBRANCH  65  88
ENDBRANCH  39  40
ENDBRANCH  32  34
ENDBRANCH  31  32
ENDBRANCH  30  31
ENDBRANCH   1  30
TORSDOF 19
ENDMDL
MODEL 3
REMARK VINA RESULT:     -12.1      4.876      8.394
REMARK SMILES CCOc1ccc(C(=O)N2CCC(C(=O)OCCOC(=O)c3ccc(-c4c5nc(c(-c6cccc(S(=O)(=O)[O-])c6F)c6ccc([nH]6)c(-c6cccc(S(=O)(=O)[O-])c6F)c6nc(c(-c7cccc(S(=O)(=O)[O-])c7F)c7ccc4[nH]7)C=C6)C=C5)cc3)(c3ccccc3)CC2)cc1OC
REMARK SMILES IDX 17 1 16 2 14 3 15 4 13 5 8 6 9 7 10 8 11 9 92 10 12 11 91 12
REMARK SMILES IDX 7 13 4 14 5 15 94 16 6 17 93 18 3 19 2 20 1 21 95 22 96 23
REMARK SMILES IDX 85 24 86 25 90 26 87 27 89 28 88 29 18 30 19 31 20 32 21 33
REMARK SMILES IDX 22 34 23 35 84 36 24 37 83 38 25 39 26 40 27 41 77 42 28 43
REMARK SMILES IDX 82 44 76 45 78 46 29 47 81 48 75 49 74 50 30 52 62 53 42 54
REMARK SMILES IDX 61 55 43 56 46 57 60 58 79 59 44 60 45 61 59 63 80 64 47 65
REMARK SMILES IDX 31 66 32 67 40 68 33 69 35 70 41 71 34 72 36 73 37 74 38 75
REMARK SMILES IDX 39 76 63 77 64 78 72 79 65 80 67 81 73 82 66 83 68 84 69 85
REMARK SMILES IDX 70 86 71 87 48 88 49 89 57 90 50 91 52 92 58 93 51 94 53 95
REMARK SMILES IDX 54 96 55 97 56 98
REMARK H PARENT 78 51 46 62
REMARK Flexibility Score: inf
ROOT
ATOM      1  C   UNL A   1      31.308  30.706  25.914  1.00  0.00     0.274 C 
ENDROOT
BRANCH   1   2
ATOM      2  O   UNL A   1      32.386  29.767  25.728  1.00  0.00    -0.461 OA
BRANCH   2   3
ATOM      3  C   UNL A   1      32.292  28.574  26.383  1.00  0.00     0.316 C 
ATOM      4  O   UNL A   1      32.310  28.493  27.606  1.00  0.00    -0.251 OA
BRANCH   3   5
ATOM      5  C   UNL A   1      32.290  27.348  25.408  1.00  0.00     0.096 C 
ATOM      6  C   UNL A   1      34.656  24.017  23.838  1.00  0.00     0.253 C 
ATOM      7  O   UNL A   1      35.703  24.217  23.220  1.00  0.00    -0.269 OA
ATOM      8  N   UNL A   1      33.898  25.060  24.386  1.00  0.00    -0.339 N 
ATOM      9  C   UNL A   1      33.875  26.286  23.604  1.00  0.00     0.121 C 
ATOM     10  C   UNL A   1      32.915  24.890  25.454  1.00  0.00     0.121 C 
ATOM     11  C   UNL A   1      33.395  27.541  24.327  1.00  0.00     0.045 C 
ATOM     12  C   UNL A   1      32.726  26.150  26.285  1.00  0.00     0.045 C 
BRANCH   6  13
ATOM     13  C   UNL A   1      34.152  22.616  23.885  1.00  0.00     0.043 A 
ATOM     14  C   UNL A   1      33.101  20.043  24.251  1.00  0.00     0.161 A 
ATOM     15  C   UNL A   1      32.288  21.077  23.765  1.00  0.00     0.051 A 
ATOM     16  C   UNL A   1      34.451  20.279  24.520  1.00  0.00     0.161 A 
ATOM     17  C   UNL A   1      32.812  22.360  23.582  1.00  0.00     0.018 A 
ATOM     18  C   UNL A   1      34.942  21.581  24.395  1.00  0.00     0.064 A 
BRANCH  14  19
ATOM     19  O   UNL A   1      32.550  18.807  24.457  1.00  0.00    -0.490 OA
BRANCH  19  20
ATOM     20  C   UNL A   1      32.739  17.942  23.329  1.00  0.00     0.226 C 
ATOM     21  C   UNL A   1      33.494  16.708  23.790  1.00  0.00     0.049 C 
ENDBRANCH  19  20
ENDBRANCH  14  19
BRANCH  16  22
ATOM     22  O   UNL A   1      35.390  19.396  24.972  1.00  0.00    -0.493 OA
ATOM     23  C   UNL A   1      36.756  19.763  24.864  1.00  0.00     0.278 C 
ENDBRANCH  16  22
ENDBRANCH   6  13
BRANCH   5  24
ATOM     24  C   UNL A   1      30.861  27.081  24.831  1.00  0.00    -0.031 A 
ATOM     25  C   UNL A   1      30.386  27.803  23.714  1.00  0.00     0.005 A 
ATOM     26  C   UNL A   1      29.965  26.151  25.389  1.00  0.00     0.005 A 
ATOM     27  C   UNL A   1      29.111  27.586  23.173  1.00  0.00     0.000 A 
ATOM     28  C   UNL A   1      28.671  25.966  24.880  1.00  0.00     0.000 A 
ATOM     29  C   UNL A   1      28.247  26.675  23.765  1.00  0.00     0.000 A 
ENDBRANCH   5  24
ENDBRANCH   3   5
ENDBRANCH   2   3
ENDBRANCH   1   2
BRANCH   1  30
ATOM     30  C   UNL A   1      31.801  31.910  26.709  1.00  0.00     0.275 C 
BRANCH  30  31
ATOM     31  O   UNL A   1      33.230  31.837  26.832  1.00  0.00    -0.458 OA
BRANCH  31  32
ATOM     32  C   UNL A   1      33.806  32.750  27.645  1.00  0.00     0.338 C 
ATOM     33  O   UNL A   1      33.371  33.847  27.961  1.00  0.00    -0.246 OA
BRANCH  32  34
ATOM     34  C   UNL A   1      35.070  32.201  28.154  1.00  0.00     0.060 A 
ATOM     35  C   UNL A   1      35.093  30.892  28.632  1.00  0.00     0.016 A 
ATOM     36  C   UNL A   1      36.205  33.004  28.246  1.00  0.00     0.016 A 
ATOM     37  C   UNL A   1      36.238  30.394  29.248  1.00  0.00     0.010 A 
ATOM     38  C   UNL A   1      37.374  32.479  28.811  1.00  0.00     0.010 A 
ATOM     39  C   UNL A   1      37.393  31.177  29.346  1.00  0.00    -0.014 A 
BRANCH  39  40
ATOM     40  C   UNL A   1      38.590  30.657  30.061  1.00  0.00     0.031 A 
ATOM     41  C   UNL A   1      39.497  29.666  29.378  1.00  0.00     0.074 A 
ATOM     42  C   UNL A   1      38.882  31.070  31.311  1.00  0.00     0.049 A 
ATOM     43  N   UNL A   1      40.498  28.986  29.873  1.00  0.00    -0.248 NA
ATOM     44  C   UNL A   1      39.241  29.402  27.952  1.00  0.00     0.031 C 
ATOM     45  C   UNL A   1      38.115  32.053  32.079  1.00  0.00     0.029 A 
ATOM     46  N   UNL A   1      39.900  30.708  32.161  1.00  0.00    -0.354 N 
ATOM     47  C   UNL A   1      40.937  28.157  28.849  1.00  0.00     0.074 A 
ATOM     48  C   UNL A   1      40.114  28.439  27.692  1.00  0.00     0.031 C 
ATOM     49  C   UNL A   1      38.695  32.223  33.279  1.00  0.00     0.029 A 
ATOM     50  C   UNL A   1      39.835  31.318  33.393  1.00  0.00     0.049 A 
ATOM     51  H   UNL A   1      40.610  30.074  31.910  1.00  0.00     0.167 HD
ATOM     52  C   UNL A   1      41.937  27.246  28.866  1.00  0.00     0.034 A 
ATOM     53  C   UNL A   1      40.584  31.143  34.500  1.00  0.00     0.034 A 
ATOM     54  C   UNL A   1      42.812  27.020  29.984  1.00  0.00     0.049 A 
ATOM     55  C   UNL A   1      41.703  30.137  34.482  1.00  0.00     0.074 A 
ATOM     56  C   UNL A   1      43.871  26.134  30.080  1.00  0.00     0.029 A 
ATOM     57  N   UNL A   1      42.743  27.693  31.192  1.00  0.00    -0.354 N 
ATOM     58  N   UNL A   1      42.134  29.398  33.489  1.00  0.00    -0.248 NA
ATOM     59  C   UNL A   1      42.445  29.944  35.738  1.00  0.00     0.031 C 
ATOM     60  C   UNL A   1      44.442  26.270  31.350  1.00  0.00     0.029 A 
ATOM     61  C   UNL A   1      43.740  27.245  32.040  1.00  0.00     0.049 A 
ATOM     62  H   UNL A   1      42.081  28.389  31.414  1.00  0.00     0.167 HD
ATOM     63  C   UNL A   1      43.202  28.665  33.994  1.00  0.00     0.074 A 
ATOM     64  C   UNL A   1      43.379  29.076  35.371  1.00  0.00     0.031 C 
ATOM     65  C   UNL A   1      43.948  27.713  33.384  1.00  0.00     0.034 A 
BRANCH  52  66
ATOM     66  C   UNL A   1      42.159  26.421  27.630  1.00  0.00     0.023 A 
ATOM     67  C   UNL A   1      42.841  26.977  26.531  1.00  0.00     0.012 A 
ATOM     68  C   UNL A   1      41.763  25.070  27.593  1.00  0.00     0.148 A 
ATOM     69  C   UNL A   1      43.114  26.203  25.405  1.00  0.00     0.002 A 
ATOM     70  C   UNL A   1      42.068  24.295  26.481  1.00  0.00     0.091 A 
ATOM     71  F   UNL A   1      41.095  24.571  28.643  1.00  0.00    -0.205 F 
ATOM     72  C   UNL A   1      42.740  24.861  25.385  1.00  0.00     0.022 A 
BRANCH  70  73
ATOM     73  S   UNL A   1      41.686  22.542  26.389  1.00  0.00     0.127 S 
ATOM     74  O   UNL A   1      42.388  22.151  25.168  1.00  0.00    -0.237 OA
ATOM     75  O   UNL A   1      42.281  22.031  27.625  1.00  0.00    -0.237 OA
ATOM     76  O   UNL A   1      40.234  22.449  26.332  1.00  0.00    -0.744 OA
ENDBRANCH  70  73
ENDBRANCH  52  66
BRANCH  53  77
ATOM     77  C   UNL A   1      40.311  31.950  35.725  1.00  0.00     0.023 A 
ATOM     78  C   UNL A   1      41.216  32.960  36.105  1.00  0.00     0.012 A 
ATOM     79  C   UNL A   1      39.164  31.732  36.511  1.00  0.00     0.148 A 
ATOM     80  C   UNL A   1      40.996  33.719  37.256  1.00  0.00     0.002 A 
ATOM     81  C   UNL A   1      38.918  32.534  37.621  1.00  0.00     0.091 A 
ATOM     82  F   UNL A   1      38.326  30.744  36.164  1.00  0.00    -0.205 F 
ATOM     83  C   UNL A   1      39.840  33.516  38.006  1.00  0.00     0.022 A 
BRANCH  81  84
ATOM     84  S   UNL A   1      37.372  32.412  38.527  1.00  0.00     0.127 S 
ATOM     85  O   UNL A   1      37.650  33.215  39.713  1.00  0.00    -0.237 OA
ATOM     86  O   UNL A   1      36.410  33.002  37.596  1.00  0.00    -0.237 OA
ATOM     87  O   UNL A   1      37.183  30.982  38.741  1.00  0.00    -0.744 OA
ENDBRANCH  81  84
ENDBRANCH  53  77
BRANCH  65  88
ATOM     88  C   UNL A   1      45.038  27.056  34.187  1.00  0.00     0.023 A 
ATOM     89  C   UNL A   1      46.238  27.755  34.423  1.00  0.00     0.012 A 
ATOM     90  C   UNL A   1      44.846  25.792  34.777  1.00  0.00     0.148 A 
ATOM     91  C   UNL A   1      47.239  27.198  35.216  1.00  0.00     0.002 A 
ATOM     92  C   UNL A   1      45.832  25.259  35.599  1.00  0.00     0.091 A 
ATOM     93  F   UNL A   1      43.706  25.132  34.523  1.00  0.00    -0.205 F 
ATOM     94  C   UNL A   1      47.032  25.957  35.815  1.00  0.00     0.022 A 
BRANCH  92  95
ATOM     95  S   UNL A   1      45.606  23.707  36.476  1.00  0.00     0.127 S 
ATOM     96  O   UNL A   1      46.865  23.019  36.197  1.00  0.00    -0.237 OA
ATOM     97  O   UNL A   1      45.447  24.147  37.863  1.00  0.00    -0.237 OA
ATOM     98  O   UNL A   1      44.413  23.100  35.901  1.00  0.00    -0.744 OA
ENDBRANCH  92  95
ENDBRANCH  65  88
ENDBRANCH  39  40
ENDBRANCH  32  34
ENDBRANCH  31  32
ENDBRANCH  30  31
ENDBRANCH   1  30
TORSDOF 19
ENDMDL
