MODEL 1
REMARK VINA RESULT:     -11.7      0.000      0.000
REMARK SMILES Cn1ccc(NC(=O)[C@@H]2CCCC[C@@H]2C(=O)OCCOC(=O)c2ccc(-c3c4nc(c(-c5cccc(S(=O)(=O)[O-])c5F)c5ccc([nH]5)c(-c5cccc(S(=O)(=O)[O-])c5F)c5nc(c(-c6cccc(S(=O)(=O)[O-])c6F)c6ccc3[nH]6)C=C5)C=C4)cc2)n1
REMARK SMILES IDX 19 1 18 2 17 3 15 4 16 5 14 6 9 7 10 8 11 9 13 10 12 11 7 12
REMARK SMILES IDX 6 13 8 15 5 16 1 17 2 18 3 19 86 20 4 21 20 22 21 23 22 24
REMARK SMILES IDX 23 25 24 26 85 27 25 28 84 29 26 30 27 31 28 32 78 33 29 34
REMARK SMILES IDX 83 35 77 36 79 37 30 38 82 39 76 40 75 41 31 43 63 44 43 45
REMARK SMILES IDX 62 46 44 47 47 48 61 49 80 50 45 51 46 52 60 54 81 55 48 56
REMARK SMILES IDX 32 57 33 58 41 59 34 60 36 61 42 62 35 63 37 64 38 65 39 66
REMARK SMILES IDX 40 67 64 68 65 69 73 70 66 71 68 72 74 73 67 74 69 75 70 76
REMARK SMILES IDX 71 77 72 78 49 79 50 80 58 81 51 82 53 83 59 84 52 85 54 86
REMARK SMILES IDX 55 87 56 88 57 89
REMARK H PARENT 6 14 79 42 47 53
REMARK Flexibility Score: inf
ROOT
ATOM      1  C   UNL A   1      36.463  21.727  24.120  1.00  0.00     0.275 C 
ENDROOT
BRANCH   1   2
ATOM      2  C   UNL A   1      35.839  23.079  23.802  1.00  0.00     0.274 C 
BRANCH   2   3
ATOM      3  O   UNL A   1      34.856  22.951  22.753  1.00  0.00    -0.462 OA
BRANCH   3   4
ATOM      4  C   UNL A   1      33.853  23.862  22.764  1.00  0.00     0.309 C 
ATOM      5  O   UNL A   1      33.983  25.036  22.428  1.00  0.00    -0.252 OA
BRANCH   4   6
ATOM      6  C   UNL A   1      32.529  23.323  23.282  1.00  0.00     0.111 C 
ATOM      7  C   UNL A   1      32.229  23.443  24.796  1.00  0.00     0.093 C 
ATOM      8  C   UNL A   1      32.727  22.186  25.547  1.00  0.00     0.014 C 
ATOM      9  C   UNL A   1      32.187  20.894  24.946  1.00  0.00     0.001 C 
ATOM     10  C   UNL A   1      32.147  21.962  22.683  1.00  0.00     0.016 C 
ATOM     11  C   UNL A   1      32.613  20.767  23.496  1.00  0.00     0.001 C 
BRANCH   7  12
ATOM     12  C   UNL A   1      32.773  24.701  25.504  1.00  0.00     0.229 C 
ATOM     13  N   UNL A   1      32.299  25.955  25.262  1.00  0.00    -0.309 N 
ATOM     14  H   UNL A   1      32.793  26.678  25.713  1.00  0.00     0.171 HD
ATOM     15  O   UNL A   1      33.692  24.626  26.330  1.00  0.00    -0.274 OA
BRANCH  13  16
ATOM     16  C   UNL A   1      31.246  26.372  24.491  1.00  0.00     0.154 A 
ATOM     17  C   UNL A   1      29.819  28.724  22.391  1.00  0.00     0.173 C 
ATOM     18  N   UNL A   1      30.070  27.552  23.195  1.00  0.00    -0.274 N 
ATOM     19  C   UNL A   1      29.160  26.802  23.877  1.00  0.00     0.110 A 
ATOM     20  N   UNL A   1      31.338  27.191  23.448  1.00  0.00    -0.155 NA
ATOM     21  C   UNL A   1      29.901  25.999  24.717  1.00  0.00     0.068 A 
ENDBRANCH  13  16
ENDBRANCH   7  12
ENDBRANCH   4   6
ENDBRANCH   3   4
ENDBRANCH   2   3
ENDBRANCH   1   2
BRANCH   1  22
ATOM     22  O   UNL A   1      36.859  21.717  25.499  1.00  0.00    -0.458 OA
BRANCH  22  23
ATOM     23  C   UNL A   1      38.157  21.432  25.740  1.00  0.00     0.338 C 
ATOM     24  O   UNL A   1      38.746  20.401  25.442  1.00  0.00    -0.246 OA
BRANCH  23  25
ATOM     25  C   UNL A   1      38.822  22.584  26.386  1.00  0.00     0.060 A 
ATOM     26  C   UNL A   1      38.337  23.882  26.216  1.00  0.00     0.016 A 
ATOM     27  C   UNL A   1      40.025  22.383  27.064  1.00  0.00     0.016 A 
ATOM     28  C   UNL A   1      39.109  24.976  26.607  1.00  0.00     0.010 A 
ATOM     29  C   UNL A   1      40.734  23.480  27.563  1.00  0.00     0.010 A 
ATOM     30  C   UNL A   1      40.312  24.796  27.305  1.00  0.00    -0.014 A 
BRANCH  30  31
ATOM     31  C   UNL A   1      41.140  25.958  27.747  1.00  0.00     0.031 A 
ATOM     32  C   UNL A   1      40.541  27.028  28.628  1.00  0.00     0.074 A 
ATOM     33  C   UNL A   1      42.418  26.093  27.336  1.00  0.00     0.049 A 
ATOM     34  N   UNL A   1      40.977  28.237  28.872  1.00  0.00    -0.248 NA
ATOM     35  C   UNL A   1      39.270  26.706  29.300  1.00  0.00     0.031 C 
ATOM     36  C   UNL A   1      43.150  25.139  26.503  1.00  0.00     0.029 A 
ATOM     37  N   UNL A   1      43.328  27.103  27.552  1.00  0.00    -0.354 N 
ATOM     38  C   UNL A   1      39.987  28.855  29.628  1.00  0.00     0.074 A 
ATOM     39  C   UNL A   1      38.942  27.875  29.834  1.00  0.00     0.031 C 
ATOM     40  C   UNL A   1      44.398  25.586  26.306  1.00  0.00     0.029 A 
ATOM     41  C   UNL A   1      44.525  26.910  26.903  1.00  0.00     0.049 A 
ATOM     42  H   UNL A   1      43.139  27.888  28.116  1.00  0.00     0.167 HD
ATOM     43  C   UNL A   1      39.953  30.123  30.103  1.00  0.00     0.034 A 
ATOM     44  C   UNL A   1      45.591  27.720  26.747  1.00  0.00     0.034 A 
ATOM     45  C   UNL A   1      41.044  31.055  30.000  1.00  0.00     0.049 A 
ATOM     46  C   UNL A   1      45.554  29.101  27.334  1.00  0.00     0.074 A 
ATOM     47  C   UNL A   1      41.122  32.347  30.492  1.00  0.00     0.029 A 
ATOM     48  N   UNL A   1      42.259  30.787  29.391  1.00  0.00    -0.354 N 
ATOM     49  N   UNL A   1      44.608  29.672  28.038  1.00  0.00    -0.248 NA
ATOM     50  C   UNL A   1      46.730  29.953  27.105  1.00  0.00     0.031 C 
ATOM     51  C   UNL A   1      42.389  32.857  30.190  1.00  0.00     0.029 A 
ATOM     52  C   UNL A   1      43.099  31.882  29.508  1.00  0.00     0.049 A 
ATOM     53  H   UNL A   1      42.492  29.943  28.942  1.00  0.00     0.167 HD
ATOM     54  C   UNL A   1      45.071  30.946  28.336  1.00  0.00     0.074 A 
ATOM     55  C   UNL A   1      46.400  31.052  27.769  1.00  0.00     0.031 C 
ATOM     56  C   UNL A   1      44.438  31.953  28.987  1.00  0.00     0.034 A 
BRANCH  43  57
ATOM     57  C   UNL A   1      38.706  30.581  30.813  1.00  0.00     0.023 A 
ATOM     58  C   UNL A   1      38.608  30.454  32.211  1.00  0.00     0.012 A 
ATOM     59  C   UNL A   1      37.670  31.220  30.102  1.00  0.00     0.148 A 
ATOM     60  C   UNL A   1      37.490  30.940  32.890  1.00  0.00     0.002 A 
ATOM     61  C   UNL A   1      36.576  31.735  30.789  1.00  0.00     0.091 A 
ATOM     62  F   UNL A   1      37.768  31.308  28.767  1.00  0.00    -0.205 F 
ATOM     63  C   UNL A   1      36.482  31.591  32.182  1.00  0.00     0.022 A 
BRANCH  61  64
ATOM     64  S   UNL A   1      35.274  32.661  29.965  1.00  0.00     0.127 S 
ATOM     65  O   UNL A   1      34.801  31.692  28.978  1.00  0.00    -0.237 OA
ATOM     66  O   UNL A   1      34.336  32.924  31.056  1.00  0.00    -0.237 OA
ATOM     67  O   UNL A   1      35.916  33.851  29.425  1.00  0.00    -0.744 OA
ENDBRANCH  61  64
ENDBRANCH  43  57
BRANCH  44  68
ATOM     68  C   UNL A   1      46.781  27.227  25.997  1.00  0.00     0.023 A 
ATOM     69  C   UNL A   1      46.890  27.501  24.620  1.00  0.00     0.012 A 
ATOM     70  C   UNL A   1      47.842  26.571  26.651  1.00  0.00     0.148 A 
ATOM     71  C   UNL A   1      48.033  27.130  23.910  1.00  0.00     0.002 A 
ATOM     72  C   UNL A   1      49.007  26.271  25.953  1.00  0.00     0.091 A 
ATOM     73  F   UNL A   1      47.711  26.282  27.953  1.00  0.00    -0.205 F 
ATOM     74  C   UNL A   1      49.099  26.535  24.580  1.00  0.00     0.022 A 
BRANCH  72  75
ATOM     75  S   UNL A   1      50.477  25.685  26.806  1.00  0.00     0.127 S 
ATOM     76  O   UNL A   1      50.751  26.783  27.727  1.00  0.00    -0.237 OA
ATOM     77  O   UNL A   1      50.003  24.453  27.440  1.00  0.00    -0.237 OA
ATOM     78  O   UNL A   1      51.457  25.464  25.750  1.00  0.00    -0.744 OA
ENDBRANCH  72  75
ENDBRANCH  44  68
BRANCH  56  79
ATOM     79  C   UNL A   1      45.177  33.254  29.129  1.00  0.00     0.023 A 
ATOM     80  C   UNL A   1      45.996  33.459  30.256  1.00  0.00     0.012 A 
ATOM     81  C   UNL A   1      45.111  34.242  28.129  1.00  0.00     0.148 A 
ATOM     82  C   UNL A   1      46.719  34.643  30.399  1.00  0.00     0.002 A 
ATOM     83  C   UNL A   1      45.861  35.405  28.262  1.00  0.00     0.091 A 
ATOM     84  F   UNL A   1      44.306  34.037  27.076  1.00  0.00    -0.205 F 
ATOM     85  C   UNL A   1      46.661  35.610  29.398  1.00  0.00     0.022 A 
BRANCH  83  86
ATOM     86  S   UNL A   1      45.892  36.665  26.981  1.00  0.00     0.127 S 
ATOM     87  O   UNL A   1      46.403  35.913  25.836  1.00  0.00    -0.237 OA
ATOM     88  O   UNL A   1      44.483  37.049  26.877  1.00  0.00    -0.237 OA
ATOM     89  O   UNL A   1      46.763  37.717  27.488  1.00  0.00    -0.744 OA
ENDBRANCH  83  86
ENDBRANCH  56  79
ENDBRANCH  30  31
ENDBRANCH  23  25
ENDBRANCH  22  23
ENDBRANCH   1  22
TORSDOF 16
ENDMDL
MODEL 2
REMARK VINA RESULT:     -11.7      1.871      3.163
REMARK SMILES Cn1ccc(NC(=O)[C@@H]2CCCC[C@@H]2C(=O)OCCOC(=O)c2ccc(-c3c4nc(c(-c5cccc(S(=O)(=O)[O-])c5F)c5ccc([nH]5)c(-c5cccc(S(=O)(=O)[O-])c5F)c5nc(c(-c6cccc(S(=O)(=O)[O-])c6F)c6ccc3[nH]6)C=C5)C=C4)cc2)n1
REMARK SMILES IDX 19 1 18 2 17 3 15 4 16 5 14 6 9 7 10 8 11 9 13 10 12 11 7 12
REMARK SMILES IDX 6 13 8 15 5 16 1 17 2 18 3 19 86 20 4 21 20 22 21 23 22 24
REMARK SMILES IDX 23 25 24 26 85 27 25 28 84 29 26 30 27 31 28 32 78 33 29 34
REMARK SMILES IDX 83 35 77 36 79 37 30 38 82 39 76 40 75 41 31 43 63 44 43 45
REMARK SMILES IDX 62 46 44 47 47 48 61 49 80 50 45 51 46 52 60 54 81 55 48 56
REMARK SMILES IDX 32 57 33 58 41 59 34 60 36 61 42 62 35 63 37 64 38 65 39 66
REMARK SMILES IDX 40 67 64 68 65 69 73 70 66 71 68 72 74 73 67 74 69 75 70 76
REMARK SMILES IDX 71 77 72 78 49 79 50 80 58 81 51 82 53 83 59 84 52 85 54 86
REMARK SMILES IDX 55 87 56 88 57 89
REMARK H PARENT 6 14 79 42 47 53
REMARK Flexibility Score: inf
ROOT
ATOM      1  C   UNL A   1      36.829  21.562  23.948  1.00  0.00     0.275 C 
ENDROOT
BRANCH   1   2
ATOM      2  C   UNL A   1      36.423  22.960  23.502  1.00  0.00     0.274 C 
BRANCH   2   3
ATOM      3  O   UNL A   1      35.131  22.935  22.859  1.00  0.00    -0.462 OA
BRANCH   3   4
ATOM      4  C   UNL A   1      34.093  23.404  23.592  1.00  0.00     0.309 C 
ATOM      5  O   UNL A   1      33.440  24.403  23.303  1.00  0.00    -0.252 OA
BRANCH   4   6
ATOM      6  C   UNL A   1      33.817  22.610  24.859  1.00  0.00     0.111 C 
ATOM      7  C   UNL A   1      32.648  21.595  24.851  1.00  0.00     0.093 C 
ATOM      8  C   UNL A   1      31.338  22.275  25.313  1.00  0.00     0.014 C 
ATOM      9  C   UNL A   1      31.488  22.980  26.655  1.00  0.00     0.001 C 
ATOM     10  C   UNL A   1      33.890  23.456  26.138  1.00  0.00     0.016 C 
ATOM     11  C   UNL A   1      32.561  24.048  26.573  1.00  0.00     0.001 C 
BRANCH   7  12
ATOM     12  C   UNL A   1      32.391  20.858  23.520  1.00  0.00     0.229 C 
ATOM     13  N   UNL A   1      32.649  19.532  23.341  1.00  0.00    -0.309 N 
ATOM     14  H   UNL A   1      32.524  19.208  22.420  1.00  0.00     0.171 HD
ATOM     15  O   UNL A   1      31.944  21.455  22.531  1.00  0.00    -0.274 OA
BRANCH  13  16
ATOM     16  C   UNL A   1      33.053  18.579  24.237  1.00  0.00     0.154 A 
ATOM     17  C   UNL A   1      35.198  16.006  25.109  1.00  0.00     0.173 C 
ATOM     18  N   UNL A   1      34.154  17.003  25.108  1.00  0.00    -0.274 N 
ATOM     19  C   UNL A   1      32.936  16.929  25.713  1.00  0.00     0.110 A 
ATOM     20  N   UNL A   1      34.285  18.088  24.330  1.00  0.00    -0.155 NA
ATOM     21  C   UNL A   1      32.198  17.965  25.182  1.00  0.00     0.068 A 
ENDBRANCH  13  16
ENDBRANCH   7  12
ENDBRANCH   4   6
ENDBRANCH   3   4
ENDBRANCH   2   3
ENDBRANCH   1   2
BRANCH   1  22
ATOM     22  O   UNL A   1      37.088  21.589  25.358  1.00  0.00    -0.458 OA
BRANCH  22  23
ATOM     23  C   UNL A   1      38.353  21.294  25.733  1.00  0.00     0.338 C 
ATOM     24  O   UNL A   1      38.946  20.241  25.533  1.00  0.00    -0.246 OA
BRANCH  23  25
ATOM     25  C   UNL A   1      38.976  22.461  26.392  1.00  0.00     0.060 A 
ATOM     26  C   UNL A   1      38.503  23.754  26.163  1.00  0.00     0.016 A 
ATOM     27  C   UNL A   1      40.135  22.276  27.147  1.00  0.00     0.016 A 
ATOM     28  C   UNL A   1      39.251  24.857  26.577  1.00  0.00     0.010 A 
ATOM     29  C   UNL A   1      40.813  23.385  27.665  1.00  0.00     0.010 A 
ATOM     30  C   UNL A   1      40.408  24.694  27.351  1.00  0.00    -0.014 A 
BRANCH  30  31
ATOM     31  C   UNL A   1      41.208  25.867  27.817  1.00  0.00     0.031 A 
ATOM     32  C   UNL A   1      40.574  26.920  28.694  1.00  0.00     0.074 A 
ATOM     33  C   UNL A   1      42.491  26.026  27.433  1.00  0.00     0.049 A 
ATOM     34  N   UNL A   1      40.985  28.134  28.955  1.00  0.00    -0.248 NA
ATOM     35  C   UNL A   1      39.295  26.572  29.338  1.00  0.00     0.031 C 
ATOM     36  C   UNL A   1      43.255  25.090  26.607  1.00  0.00     0.029 A 
ATOM     37  N   UNL A   1      43.379  27.049  27.673  1.00  0.00    -0.354 N 
ATOM     38  C   UNL A   1      39.969  28.731  29.695  1.00  0.00     0.074 A 
ATOM     39  C   UNL A   1      38.937  27.732  29.874  1.00  0.00     0.031 C 
ATOM     40  C   UNL A   1      44.499  25.559  26.438  1.00  0.00     0.029 A 
ATOM     41  C   UNL A   1      44.592  26.880  27.047  1.00  0.00     0.049 A 
ATOM     42  H   UNL A   1      43.166  27.827  28.239  1.00  0.00     0.167 HD
ATOM     43  C   UNL A   1      39.905  29.994  30.178  1.00  0.00     0.034 A 
ATOM     44  C   UNL A   1      45.647  27.710  26.917  1.00  0.00     0.034 A 
ATOM     45  C   UNL A   1      40.982  30.945  30.102  1.00  0.00     0.049 A 
ATOM     46  C   UNL A   1      45.576  29.086  27.513  1.00  0.00     0.074 A 
ATOM     47  C   UNL A   1      41.029  32.235  30.605  1.00  0.00     0.029 A 
ATOM     48  N   UNL A   1      42.213  30.702  29.516  1.00  0.00    -0.354 N 
ATOM     49  N   UNL A   1      44.606  29.635  28.201  1.00  0.00    -0.248 NA
ATOM     50  C   UNL A   1      46.742  29.958  27.312  1.00  0.00     0.031 C 
ATOM     51  C   UNL A   1      42.293  32.767  30.331  1.00  0.00     0.029 A 
ATOM     52  C   UNL A   1      43.032  31.810  29.657  1.00  0.00     0.049 A 
ATOM     53  H   UNL A   1      42.469  29.865  29.066  1.00  0.00     0.167 HD
ATOM     54  C   UNL A   1      45.042  30.915  28.517  1.00  0.00     0.074 A 
ATOM     55  C   UNL A   1      46.380  31.047  27.977  1.00  0.00     0.031 C 
ATOM     56  C   UNL A   1      44.380  31.907  29.162  1.00  0.00     0.034 A 
BRANCH  43  57
ATOM     57  C   UNL A   1      38.637  30.427  30.866  1.00  0.00     0.023 A 
ATOM     58  C   UNL A   1      38.490  30.231  32.252  1.00  0.00     0.012 A 
ATOM     59  C   UNL A   1      37.630  31.109  30.152  1.00  0.00     0.148 A 
ATOM     60  C   UNL A   1      37.351  30.690  32.915  1.00  0.00     0.002 A 
ATOM     61  C   UNL A   1      36.517  31.598  30.827  1.00  0.00     0.091 A 
ATOM     62  F   UNL A   1      37.776  31.263  28.828  1.00  0.00    -0.205 F 
ATOM     63  C   UNL A   1      36.373  31.385  32.207  1.00  0.00     0.022 A 
BRANCH  61  64
ATOM     64  S   UNL A   1      35.251  32.575  30.006  1.00  0.00     0.127 S 
ATOM     65  O   UNL A   1      34.776  31.645  28.982  1.00  0.00    -0.237 OA
ATOM     66  O   UNL A   1      34.297  32.827  31.087  1.00  0.00    -0.237 OA
ATOM     67  O   UNL A   1      35.928  33.766  29.512  1.00  0.00    -0.744 OA
ENDBRANCH  61  64
ENDBRANCH  43  57
BRANCH  44  68
ATOM     68  C   UNL A   1      46.860  27.242  26.187  1.00  0.00     0.023 A 
ATOM     69  C   UNL A   1      47.042  27.617  24.842  1.00  0.00     0.012 A 
ATOM     70  C   UNL A   1      47.871  26.508  26.836  1.00  0.00     0.148 A 
ATOM     71  C   UNL A   1      48.208  27.269  24.159  1.00  0.00     0.002 A 
ATOM     72  C   UNL A   1      49.061  26.229  26.172  1.00  0.00     0.091 A 
ATOM     73  F   UNL A   1      47.670  26.124  28.105  1.00  0.00    -0.205 F 
ATOM     74  C   UNL A   1      49.226  26.594  24.830  1.00  0.00     0.022 A 
BRANCH  72  75
ATOM     75  S   UNL A   1      50.473  25.538  27.045  1.00  0.00     0.127 S 
ATOM     76  O   UNL A   1      51.454  25.401  25.973  1.00  0.00    -0.237 OA
ATOM     77  O   UNL A   1      50.776  26.579  28.028  1.00  0.00    -0.237 OA
ATOM     78  O   UNL A   1      49.978  24.299  27.632  1.00  0.00    -0.744 OA
ENDBRANCH  72  75
ENDBRANCH  44  68
BRANCH  56  79
ATOM     79  C   UNL A   1      45.094  33.219  29.327  1.00  0.00     0.023 A 
ATOM     80  C   UNL A   1      45.865  33.440  30.485  1.00  0.00     0.012 A 
ATOM     81  C   UNL A   1      45.052  34.202  28.322  1.00  0.00     0.148 A 
ATOM     82  C   UNL A   1      46.565  34.634  30.651  1.00  0.00     0.002 A 
ATOM     83  C   UNL A   1      45.780  35.376  28.478  1.00  0.00     0.091 A 
ATOM     84  F   UNL A   1      44.293  33.982  27.239  1.00  0.00    -0.205 F 
ATOM     85  C   UNL A   1      46.532  35.597  29.644  1.00  0.00     0.022 A 
BRANCH  83  86
ATOM     86  S   UNL A   1      45.843  36.631  27.195  1.00  0.00     0.127 S 
ATOM     87  O   UNL A   1      44.457  37.096  27.163  1.00  0.00    -0.237 OA
ATOM     88  O   UNL A   1      46.797  37.599  27.741  1.00  0.00    -0.237 OA
ATOM     89  O   UNL A   1      46.308  35.944  25.997  1.00  0.00    -0.744 OA
ENDBRANCH  83  86
ENDBRANCH  56  79
ENDBRANCH  30  31
ENDBRANCH  23  25
ENDBRANCH  22  23
ENDBRANCH   1  22
TORSDOF 16
ENDMDL
MODEL 3
REMARK VINA RESULT:     -11.7      5.441     10.130
REMARK SMILES Cn1ccc(NC(=O)[C@@H]2CCCC[C@@H]2C(=O)OCCOC(=O)c2ccc(-c3c4nc(c(-c5cccc(S(=O)(=O)[O-])c5F)c5ccc([nH]5)c(-c5cccc(S(=O)(=O)[O-])c5F)c5nc(c(-c6cccc(S(=O)(=O)[O-])c6F)c6ccc3[nH]6)C=C5)C=C4)cc2)n1
REMARK SMILES IDX 19 1 18 2 17 3 15 4 16 5 14 6 9 7 10 8 11 9 13 10 12 11 7 12
REMARK SMILES IDX 6 13 8 15 5 16 1 17 2 18 3 19 86 20 4 21 20 22 21 23 22 24
REMARK SMILES IDX 23 25 24 26 85 27 25 28 84 29 26 30 27 31 28 32 78 33 29 34
REMARK SMILES IDX 83 35 77 36 79 37 30 38 82 39 76 40 75 41 31 43 63 44 43 45
REMARK SMILES IDX 62 46 44 47 47 48 61 49 80 50 45 51 46 52 60 54 81 55 48 56
REMARK SMILES IDX 32 57 33 58 41 59 34 60 36 61 42 62 35 63 37 64 38 65 39 66
REMARK SMILES IDX 40 67 64 68 65 69 73 70 66 71 68 72 74 73 67 74 69 75 70 76
REMARK SMILES IDX 71 77 72 78 49 79 50 80 58 81 51 82 53 83 59 84 52 85 54 86
REMARK SMILES IDX 55 87 56 88 57 89
REMARK H PARENT 6 14 79 42 47 53
REMARK Flexibility Score: inf
ROOT
ATOM      1  C   UNL A   1      31.650  31.354  26.691  1.00  0.00     0.275 C 
ENDROOT
BRANCH   1   2
ATOM      2  C   UNL A   1      31.664  30.564  25.389  1.00  0.00     0.274 C 
BRANCH   2   3
ATOM      3  O   UNL A   1      31.127  29.240  25.591  1.00  0.00    -0.462 OA
BRANCH   3   4
ATOM      4  C   UNL A   1      31.806  28.226  25.001  1.00  0.00     0.309 C 
ATOM      5  O   UNL A   1      32.364  27.321  25.614  1.00  0.00    -0.252 OA
BRANCH   4   6
ATOM      6  C   UNL A   1      31.870  28.320  23.485  1.00  0.00     0.111 C 
ATOM      7  C   UNL A   1      30.804  27.563  22.657  1.00  0.00     0.093 C 
ATOM      8  C   UNL A   1      31.294  26.135  22.320  1.00  0.00     0.014 C 
ATOM      9  C   UNL A   1      32.664  26.129  21.653  1.00  0.00     0.001 C 
ATOM     10  C   UNL A   1      33.294  28.190  22.925  1.00  0.00     0.016 C 
ATOM     11  C   UNL A   1      33.696  26.772  22.559  1.00  0.00     0.001 C 
BRANCH   7  12
ATOM     12  C   UNL A   1      29.391  27.479  23.271  1.00  0.00     0.229 C 
ATOM     13  N   UNL A   1      28.518  28.524  23.274  1.00  0.00    -0.309 N 
ATOM     14  H   UNL A   1      27.686  28.366  23.777  1.00  0.00     0.171 HD
ATOM     15  O   UNL A   1      28.988  26.442  23.813  1.00  0.00    -0.274 OA
BRANCH  13  16
ATOM     16  C   UNL A   1      28.610  29.759  22.690  1.00  0.00     0.154 A 
ATOM     17  C   UNL A   1      28.853  33.200  22.982  1.00  0.00     0.173 C 
ATOM     18  N   UNL A   1      28.772  31.852  22.471  1.00  0.00    -0.274 N 
ATOM     19  C   UNL A   1      28.203  31.441  21.304  1.00  0.00     0.110 A 
ATOM     20  N   UNL A   1      29.163  30.832  23.249  1.00  0.00    -0.155 NA
ATOM     21  C   UNL A   1      28.107  30.070  21.405  1.00  0.00     0.068 A 
ENDBRANCH  13  16
ENDBRANCH   7  12
ENDBRANCH   4   6
ENDBRANCH   3   4
ENDBRANCH   2   3
ENDBRANCH   1   2
BRANCH   1  22
ATOM     22  O   UNL A   1      32.851  31.064  27.417  1.00  0.00    -0.458 OA
BRANCH  22  23
ATOM     23  C   UNL A   1      33.664  32.116  27.660  1.00  0.00     0.338 C 
ATOM     24  O   UNL A   1      33.366  33.301  27.586  1.00  0.00    -0.246 OA
BRANCH  23  25
ATOM     25  C   UNL A   1      34.995  31.643  28.098  1.00  0.00     0.060 A 
ATOM     26  C   UNL A   1      35.198  30.315  28.474  1.00  0.00     0.016 A 
ATOM     27  C   UNL A   1      36.026  32.569  28.261  1.00  0.00     0.016 A 
ATOM     28  C   UNL A   1      36.375  29.943  29.125  1.00  0.00     0.010 A 
ATOM     29  C   UNL A   1      37.250  32.161  28.801  1.00  0.00     0.010 A 
ATOM     30  C   UNL A   1      37.430  30.853  29.283  1.00  0.00    -0.014 A 
BRANCH  30  31
ATOM     31  C   UNL A   1      38.703  30.464  29.962  1.00  0.00     0.031 A 
ATOM     32  C   UNL A   1      39.662  29.511  29.290  1.00  0.00     0.074 A 
ATOM     33  C   UNL A   1      38.997  30.922  31.196  1.00  0.00     0.049 A 
ATOM     34  N   UNL A   1      40.647  28.827  29.811  1.00  0.00    -0.248 NA
ATOM     35  C   UNL A   1      39.470  29.276  27.848  1.00  0.00     0.031 C 
ATOM     36  C   UNL A   1      38.188  31.863  31.970  1.00  0.00     0.029 A 
ATOM     37  N   UNL A   1      40.057  30.641  32.028  1.00  0.00    -0.354 N 
ATOM     38  C   UNL A   1      41.117  28.000  28.796  1.00  0.00     0.074 A 
ATOM     39  C   UNL A   1      40.333  28.296  27.616  1.00  0.00     0.031 C 
ATOM     40  C   UNL A   1      38.791  32.109  33.142  1.00  0.00     0.029 A 
ATOM     41  C   UNL A   1      39.971  31.260  33.253  1.00  0.00     0.049 A 
ATOM     42  H   UNL A   1      40.803  30.052  31.771  1.00  0.00     0.167 HD
ATOM     43  C   UNL A   1      42.110  27.080  28.846  1.00  0.00     0.034 A 
ATOM     44  C   UNL A   1      40.714  31.125  34.370  1.00  0.00     0.034 A 
ATOM     45  C   UNL A   1      42.965  26.873  29.984  1.00  0.00     0.049 A 
ATOM     46  C   UNL A   1      41.847  30.141  34.382  1.00  0.00     0.074 A 
ATOM     47  C   UNL A   1      44.030  25.997  30.114  1.00  0.00     0.029 A 
ATOM     48  N   UNL A   1      42.879  27.573  31.177  1.00  0.00    -0.354 N 
ATOM     49  N   UNL A   1      42.272  29.363  33.417  1.00  0.00    -0.248 NA
ATOM     50  C   UNL A   1      42.602  30.012  35.637  1.00  0.00     0.031 C 
ATOM     51  C   UNL A   1      44.593  26.174  31.382  1.00  0.00     0.029 A 
ATOM     52  C   UNL A   1      43.878  27.161  32.042  1.00  0.00     0.049 A 
ATOM     53  H   UNL A   1      42.206  28.263  31.380  1.00  0.00     0.167 HD
ATOM     54  C   UNL A   1      43.342  28.653  33.946  1.00  0.00     0.074 A 
ATOM     55  C   UNL A   1      43.526  29.121  35.304  1.00  0.00     0.031 C 
ATOM     56  C   UNL A   1      44.083  27.674  33.370  1.00  0.00     0.034 A 
BRANCH  43  57
ATOM     57  C   UNL A   1      42.357  26.235  27.623  1.00  0.00     0.023 A 
ATOM     58  C   UNL A   1      43.097  26.760  26.548  1.00  0.00     0.012 A 
ATOM     59  C   UNL A   1      41.930  24.892  27.581  1.00  0.00     0.148 A 
ATOM     60  C   UNL A   1      43.395  25.966  25.439  1.00  0.00     0.002 A 
ATOM     61  C   UNL A   1      42.263  24.096  26.491  1.00  0.00     0.091 A 
ATOM     62  F   UNL A   1      41.203  24.418  28.603  1.00  0.00    -0.205 F 
ATOM     63  C   UNL A   1      42.990  24.632  25.416  1.00  0.00     0.022 A 
BRANCH  61  64
ATOM     64  S   UNL A   1      41.853  22.348  26.419  1.00  0.00     0.127 S 
ATOM     65  O   UNL A   1      40.392  22.384  26.452  1.00  0.00    -0.237 OA
ATOM     66  O   UNL A   1      42.422  21.943  25.133  1.00  0.00    -0.237 OA
ATOM     67  O   UNL A   1      42.497  21.742  27.577  1.00  0.00    -0.744 OA
ENDBRANCH  61  64
ENDBRANCH  43  57
BRANCH  44  68
ATOM     68  C   UNL A   1      40.395  31.957  35.565  1.00  0.00     0.023 A 
ATOM     69  C   UNL A   1      41.122  33.140  35.796  1.00  0.00     0.012 A 
ATOM     70  C   UNL A   1      39.324  31.633  36.421  1.00  0.00     0.148 A 
ATOM     71  C   UNL A   1      40.788  33.984  36.856  1.00  0.00     0.002 A 
ATOM     72  C   UNL A   1      38.951  32.515  37.430  1.00  0.00     0.091 A 
ATOM     73  F   UNL A   1      38.663  30.485  36.214  1.00  0.00    -0.205 F 
ATOM     74  C   UNL A   1      39.691  33.683  37.659  1.00  0.00     0.022 A 
BRANCH  72  75
ATOM     75  S   UNL A   1      37.434  32.273  38.362  1.00  0.00     0.127 S 
ATOM     76  O   UNL A   1      36.458  32.983  37.543  1.00  0.00    -0.237 OA
ATOM     77  O   UNL A   1      37.294  30.816  38.363  1.00  0.00    -0.237 OA
ATOM     78  O   UNL A   1      37.710  32.838  39.677  1.00  0.00    -0.744 OA
ENDBRANCH  72  75
ENDBRANCH  44  68
BRANCH  56  79
ATOM     79  C   UNL A   1      45.164  27.047  34.205  1.00  0.00     0.023 A 
ATOM     80  C   UNL A   1      46.462  27.594  34.170  1.00  0.00     0.012 A 
ATOM     81  C   UNL A   1      44.890  25.964  35.060  1.00  0.00     0.148 A 
ATOM     82  C   UNL A   1      47.478  27.056  34.959  1.00  0.00     0.002 A 
ATOM     83  C   UNL A   1      45.899  25.453  35.868  1.00  0.00     0.091 A 
ATOM     84  F   UNL A   1      43.655  25.442  35.059  1.00  0.00    -0.205 F 
ATOM     85  C   UNL A   1      47.195  25.993  35.815  1.00  0.00     0.022 A 
BRANCH  83  86
ATOM     86  S   UNL A   1      45.593  24.132  37.046  1.00  0.00     0.127 S 
ATOM     87  O   UNL A   1      45.213  23.029  36.166  1.00  0.00    -0.237 OA
ATOM     88  O   UNL A   1      46.897  23.974  37.693  1.00  0.00    -0.237 OA
ATOM     89  O   UNL A   1      44.545  24.629  37.928  1.00  0.00    -0.744 OA
ENDBRANCH  83  86
ENDBRANCH  56  79
ENDBRANCH  30  31
ENDBRANCH  23  25
ENDBRANCH  22  23
ENDBRANCH   1  22
TORSDOF 16
ENDMDL
