MODEL 1
REMARK VINA RESULT:     -10.7      0.000      0.000
REMARK SMILES CS(=O)(=O)c1ccc(C2=NN(c3ccc(C(=O)OCCOC(=O)c4ccc(-c5c6nc(c(-c7cccc(S(=O)(=O)[O-])c7F)c7ccc([nH]7)c(-c7cccc(S(=O)(=O)[O-])c7F)c7nc(c(-c8cccc(S(=O)(=O)[O-])c8F)c8ccc5[nH]8)C=C7)C=C6)cc4)cc3)[C@H](c3ccccc3)C2)cc1
REMARK SMILES IDX 19 1 18 2 16 3 17 4 15 5 12 6 13 7 88 8 14 9 87 10 11 11
REMARK SMILES IDX 9 12 10 13 96 14 89 15 8 16 5 17 6 18 98 19 7 20 97 21 2 22
REMARK SMILES IDX 1 23 3 24 4 25 90 26 91 27 95 28 92 29 94 30 93 31 20 32
REMARK SMILES IDX 21 33 22 34 23 35 24 36 25 37 86 38 26 39 85 40 27 41 28 42
REMARK SMILES IDX 29 43 79 44 30 45 84 46 78 47 80 48 31 49 83 50 77 51 76 52
REMARK SMILES IDX 32 54 64 55 44 56 63 57 45 58 48 59 62 60 81 61 46 62 47 63
REMARK SMILES IDX 61 65 82 66 49 67 33 68 34 69 42 70 35 71 37 72 43 73 36 74
REMARK SMILES IDX 38 75 39 76 40 77 41 78 65 79 66 80 74 81 67 82 69 83 75 84
REMARK SMILES IDX 68 85 70 86 71 87 72 88 73 89 50 90 51 91 59 92 52 93 54 94
REMARK SMILES IDX 60 95 53 96 55 97 56 98 57 99 58 100
REMARK H PARENT 80 53 48 64
REMARK Flexibility Score: inf
ROOT
ATOM      1  C   UNL A   1      33.205  34.794  28.311  1.00  0.00     0.275 C 
ENDROOT
BRANCH   1   2
ATOM      2  O   UNL A   1      32.565  34.710  29.600  1.00  0.00    -0.458 OA
BRANCH   2   3
ATOM      3  C   UNL A   1      32.926  35.659  30.500  1.00  0.00     0.338 C 
ATOM      4  O   UNL A   1      32.480  36.787  30.577  1.00  0.00    -0.246 OA
BRANCH   3   5
ATOM      5  C   UNL A   1      33.923  35.125  31.462  1.00  0.00     0.060 A 
ATOM      6  C   UNL A   1      35.903  34.270  33.264  1.00  0.00     0.060 A 
ATOM      7  C   UNL A   1      35.255  35.492  33.459  1.00  0.00     0.029 A 
ATOM      8  C   UNL A   1      35.511  33.458  32.190  1.00  0.00     0.029 A 
ATOM      9  C   UNL A   1      34.301  35.933  32.544  1.00  0.00     0.018 A 
ATOM     10  C   UNL A   1      34.521  33.875  31.295  1.00  0.00     0.018 A 
BRANCH   6  11
ATOM     11  N   UNL A   1      37.021  33.919  34.034  1.00  0.00    -0.257 N 
ATOM     12  C   UNL A   1      37.793  33.774  36.022  1.00  0.00     0.071 C 
ATOM     13  N   UNL A   1      36.806  33.397  35.272  1.00  0.00    -0.176 NA
ATOM     14  C   UNL A   1      38.805  34.678  35.376  1.00  0.00     0.091 C 
ATOM     15  C   UNL A   1      38.174  34.839  33.987  1.00  0.00     0.144 C 
BRANCH  12  16
ATOM     16  C   UNL A   1      37.956  33.298  37.406  1.00  0.00    -0.002 A 
ATOM     17  C   UNL A   1      38.243  32.549  40.073  1.00  0.00     0.067 A 
ATOM     18  C   UNL A   1      38.796  33.753  39.635  1.00  0.00     0.021 A 
ATOM     19  C   UNL A   1      37.573  31.704  39.178  1.00  0.00     0.021 A 
ATOM     20  C   UNL A   1      38.662  34.119  38.295  1.00  0.00     0.011 A 
ATOM     21  C   UNL A   1      37.417  32.085  37.841  1.00  0.00     0.011 A 
BRANCH  17  22
ATOM     22  S   UNL A   1      38.349  32.052  41.778  1.00  0.00     0.175 S 
ATOM     23  C   UNL A   1      36.794  31.317  42.203  1.00  0.00     0.163 C 
ATOM     24  O   UNL A   1      38.482  33.264  42.562  1.00  0.00    -0.224 OA
ATOM     25  O   UNL A   1      39.360  31.014  41.830  1.00  0.00    -0.224 OA
ENDBRANCH  17  22
ENDBRANCH  12  16
BRANCH  15  26
ATOM     26  C   UNL A   1      39.019  34.535  32.757  1.00  0.00    -0.023 A 
ATOM     27  C   UNL A   1      40.400  34.306  32.801  1.00  0.00     0.006 A 
ATOM     28  C   UNL A   1      38.358  34.345  31.525  1.00  0.00     0.006 A 
ATOM     29  C   UNL A   1      41.092  33.895  31.657  1.00  0.00     0.000 A 
ATOM     30  C   UNL A   1      39.042  33.903  30.393  1.00  0.00     0.000 A 
ATOM     31  C   UNL A   1      40.412  33.679  30.460  1.00  0.00     0.000 A 
ENDBRANCH  15  26
ENDBRANCH   6  11
ENDBRANCH   3   5
ENDBRANCH   2   3
ENDBRANCH   1   2
BRANCH   1  32
ATOM     32  C   UNL A   1      33.281  33.419  27.648  1.00  0.00     0.275 C 
BRANCH  32  33
ATOM     33  O   UNL A   1      34.565  32.814  27.885  1.00  0.00    -0.458 OA
BRANCH  33  34
ATOM     34  C   UNL A   1      34.607  31.470  27.736  1.00  0.00     0.338 C 
ATOM     35  O   UNL A   1      33.869  30.774  27.058  1.00  0.00    -0.246 OA
BRANCH  34  36
ATOM     36  C   UNL A   1      35.753  30.930  28.478  1.00  0.00     0.060 A 
ATOM     37  C   UNL A   1      37.009  31.482  28.248  1.00  0.00     0.016 A 
ATOM     38  C   UNL A   1      35.618  29.804  29.286  1.00  0.00     0.016 A 
ATOM     39  C   UNL A   1      38.152  30.865  28.746  1.00  0.00     0.010 A 
ATOM     40  C   UNL A   1      36.760  29.240  29.866  1.00  0.00     0.010 A 
ATOM     41  C   UNL A   1      38.044  29.743  29.577  1.00  0.00    -0.014 A 
BRANCH  41  42
ATOM     42  C   UNL A   1      39.261  29.084  30.127  1.00  0.00     0.031 A 
ATOM     43  C   UNL A   1      39.885  29.596  31.400  1.00  0.00     0.074 A 
ATOM     44  C   UNL A   1      39.831  28.052  29.473  1.00  0.00     0.049 A 
ATOM     45  N   UNL A   1      41.050  29.313  31.922  1.00  0.00    -0.248 NA
ATOM     46  C   UNL A   1      39.100  30.568  32.180  1.00  0.00     0.031 C 
ATOM     47  C   UNL A   1      39.321  27.441  28.244  1.00  0.00     0.029 A 
ATOM     48  N   UNL A   1      40.984  27.349  29.734  1.00  0.00    -0.354 N 
ATOM     49  C   UNL A   1      41.173  30.126  33.044  1.00  0.00     0.074 A 
ATOM     50  C   UNL A   1      39.957  30.905  33.133  1.00  0.00     0.031 C 
ATOM     51  C   UNL A   1      40.152  26.463  27.856  1.00  0.00     0.029 A 
ATOM     52  C   UNL A   1      41.299  26.433  28.757  1.00  0.00     0.049 A 
ATOM     53  H   UNL A   1      41.531  27.488  30.542  1.00  0.00     0.167 HD
ATOM     54  C   UNL A   1      42.203  30.209  33.920  1.00  0.00     0.034 A 
ATOM     55  C   UNL A   1      42.409  25.693  28.566  1.00  0.00     0.034 A 
ATOM     56  C   UNL A   1      43.379  29.382  33.861  1.00  0.00     0.049 A 
ATOM     57  C   UNL A   1      43.539  25.808  29.548  1.00  0.00     0.074 A 
ATOM     58  C   UNL A   1      44.457  29.358  34.728  1.00  0.00     0.029 A 
ATOM     59  N   UNL A   1      43.628  28.429  32.886  1.00  0.00    -0.354 N 
ATOM     60  N   UNL A   1      43.621  26.547  30.627  1.00  0.00    -0.248 NA
ATOM     61  C   UNL A   1      44.726  24.978  29.297  1.00  0.00     0.031 C 
ATOM     62  C   UNL A   1      45.369  28.404  34.264  1.00  0.00     0.029 A 
ATOM     63  C   UNL A   1      44.845  27.814  33.125  1.00  0.00     0.049 A 
ATOM     64  H   UNL A   1      43.029  28.220  32.133  1.00  0.00     0.167 HD
ATOM     65  C   UNL A   1      44.852  26.252  31.199  1.00  0.00     0.074 A 
ATOM     66  C   UNL A   1      45.474  25.250  30.358  1.00  0.00     0.031 C 
ATOM     67  C   UNL A   1      45.424  26.777  32.310  1.00  0.00     0.034 A 
BRANCH  54  68
ATOM     68  C   UNL A   1      42.102  31.220  35.036  1.00  0.00     0.023 A 
ATOM     69  C   UNL A   1      41.418  30.892  36.224  1.00  0.00     0.012 A 
ATOM     70  C   UNL A   1      42.739  32.474  34.930  1.00  0.00     0.148 A 
ATOM     71  C   UNL A   1      41.341  31.806  37.275  1.00  0.00     0.002 A 
ATOM     72  C   UNL A   1      42.696  33.362  35.999  1.00  0.00     0.091 A 
ATOM     73  F   UNL A   1      43.369  32.776  33.787  1.00  0.00    -0.205 F 
ATOM     74  C   UNL A   1      41.987  33.035  37.167  1.00  0.00     0.022 A 
BRANCH  72  75
ATOM     75  S   UNL A   1      43.564  34.935  35.989  1.00  0.00     0.127 S 
ATOM     76  O   UNL A   1      43.346  35.401  37.358  1.00  0.00    -0.237 OA
ATOM     77  O   UNL A   1      44.938  34.528  35.696  1.00  0.00    -0.237 OA
ATOM     78  O   UNL A   1      42.933  35.735  34.949  1.00  0.00    -0.744 OA
ENDBRANCH  72  75
ENDBRANCH  54  68
BRANCH  55  79
ATOM     79  C   UNL A   1      42.499  24.784  27.386  1.00  0.00     0.023 A 
ATOM     80  C   UNL A   1      43.130  25.234  26.210  1.00  0.00     0.012 A 
ATOM     81  C   UNL A   1      42.005  23.466  27.438  1.00  0.00     0.148 A 
ATOM     82  C   UNL A   1      43.247  24.394  25.101  1.00  0.00     0.002 A 
ATOM     83  C   UNL A   1      42.180  22.615  26.353  1.00  0.00     0.091 A 
ATOM     84  F   UNL A   1      41.388  23.062  28.558  1.00  0.00    -0.205 F 
ATOM     85  C   UNL A   1      42.784  23.082  25.177  1.00  0.00     0.022 A 
BRANCH  83  86
ATOM     86  S   UNL A   1      41.746  20.873  26.420  1.00  0.00     0.127 S 
ATOM     87  O   UNL A   1      42.522  20.329  25.308  1.00  0.00    -0.237 OA
ATOM     88  O   UNL A   1      42.225  20.493  27.750  1.00  0.00    -0.237 OA
ATOM     89  O   UNL A   1      40.298  20.822  26.269  1.00  0.00    -0.744 OA
ENDBRANCH  83  86
ENDBRANCH  55  79
BRANCH  67  90
ATOM     90  C   UNL A   1      46.774  26.248  32.717  1.00  0.00     0.023 A 
ATOM     91  C   UNL A   1      47.943  26.908  32.291  1.00  0.00     0.012 A 
ATOM     92  C   UNL A   1      46.876  25.149  33.590  1.00  0.00     0.148 A 
ATOM     93  C   UNL A   1      49.197  26.465  32.709  1.00  0.00     0.002 A 
ATOM     94  C   UNL A   1      48.126  24.742  34.042  1.00  0.00     0.091 A 
ATOM     95  F   UNL A   1      45.750  24.525  33.968  1.00  0.00    -0.205 F 
ATOM     96  C   UNL A   1      49.287  25.392  33.594  1.00  0.00     0.022 A 
BRANCH  94  97
ATOM     97  S   UNL A   1      48.336  23.434  35.254  1.00  0.00     0.127 S 
ATOM     98  O   UNL A   1      47.647  23.993  36.417  1.00  0.00    -0.237 OA
ATOM     99  O   UNL A   1      47.648  22.310  34.619  1.00  0.00    -0.237 OA
ATOM    100  O   UNL A   1      49.774  23.255  35.410  1.00  0.00    -0.744 OA
ENDBRANCH  94  97
ENDBRANCH  67  90
ENDBRANCH  41  42
ENDBRANCH  34  36
ENDBRANCH  33  34
ENDBRANCH  32  33
ENDBRANCH   1  32
TORSDOF 18
ENDMDL
MODEL 2
REMARK VINA RESULT:     -10.5      5.150     12.356
REMARK SMILES CS(=O)(=O)c1ccc(C2=NN(c3ccc(C(=O)OCCOC(=O)c4ccc(-c5c6nc(c(-c7cccc(S(=O)(=O)[O-])c7F)c7ccc([nH]7)c(-c7cccc(S(=O)(=O)[O-])c7F)c7nc(c(-c8cccc(S(=O)(=O)[O-])c8F)c8ccc5[nH]8)C=C7)C=C6)cc4)cc3)[C@H](c3ccccc3)C2)cc1
REMARK SMILES IDX 19 1 18 2 16 3 17 4 15 5 12 6 13 7 88 8 14 9 87 10 11 11
REMARK SMILES IDX 9 12 10 13 96 14 89 15 8 16 5 17 6 18 98 19 7 20 97 21 2 22
REMARK SMILES IDX 1 23 3 24 4 25 90 26 91 27 95 28 92 29 94 30 93 31 20 32
REMARK SMILES IDX 21 33 22 34 23 35 24 36 25 37 86 38 26 39 85 40 27 41 28 42
REMARK SMILES IDX 29 43 79 44 30 45 84 46 78 47 80 48 31 49 83 50 77 51 76 52
REMARK SMILES IDX 32 54 64 55 44 56 63 57 45 58 48 59 62 60 81 61 46 62 47 63
REMARK SMILES IDX 61 65 82 66 49 67 33 68 34 69 42 70 35 71 37 72 43 73 36 74
REMARK SMILES IDX 38 75 39 76 40 77 41 78 65 79 66 80 74 81 67 82 69 83 75 84
REMARK SMILES IDX 68 85 70 86 71 87 72 88 73 89 50 90 51 91 59 92 52 93 54 94
REMARK SMILES IDX 60 95 53 96 55 97 56 98 57 99 58 100
REMARK H PARENT 80 53 48 64
REMARK Flexibility Score: inf
ROOT
ATOM      1  C   UNL A   1      40.304  21.442  26.650  1.00  0.00     0.275 C 
ENDROOT
BRANCH   1   2
ATOM      2  O   UNL A   1      39.272  21.943  25.777  1.00  0.00    -0.458 OA
BRANCH   2   3
ATOM      3  C   UNL A   1      38.683  23.102  26.167  1.00  0.00     0.338 C 
ATOM      4  O   UNL A   1      39.218  24.023  26.752  1.00  0.00    -0.246 OA
BRANCH   3   5
ATOM      5  C   UNL A   1      37.265  23.150  25.726  1.00  0.00     0.060 A 
ATOM      6  C   UNL A   1      34.642  23.303  24.730  1.00  0.00     0.060 A 
ATOM      7  C   UNL A   1      35.620  22.595  24.028  1.00  0.00     0.029 A 
ATOM      8  C   UNL A   1      34.977  23.885  25.961  1.00  0.00     0.029 A 
ATOM      9  C   UNL A   1      36.929  22.553  24.503  1.00  0.00     0.018 A 
ATOM     10  C   UNL A   1      36.279  23.805  26.465  1.00  0.00     0.018 A 
BRANCH   6  11
ATOM     11  N   UNL A   1      33.387  23.554  24.158  1.00  0.00    -0.257 N 
ATOM     12  C   UNL A   1      31.710  24.879  24.146  1.00  0.00     0.071 C 
ATOM     13  N   UNL A   1      32.998  24.850  24.013  1.00  0.00    -0.176 NA
ATOM     14  C   UNL A   1      31.049  23.567  24.464  1.00  0.00     0.091 C 
ATOM     15  C   UNL A   1      32.283  22.661  24.560  1.00  0.00     0.144 C 
BRANCH  12  16
ATOM     16  C   UNL A   1      30.925  26.107  23.934  1.00  0.00    -0.002 A 
ATOM     17  C   UNL A   1      29.563  28.487  23.445  1.00  0.00     0.067 A 
ATOM     18  C   UNL A   1      30.938  28.519  23.677  1.00  0.00     0.021 A 
ATOM     19  C   UNL A   1      28.860  27.275  23.487  1.00  0.00     0.021 A 
ATOM     20  C   UNL A   1      31.615  27.326  23.934  1.00  0.00     0.011 A 
ATOM     21  C   UNL A   1      29.546  26.077  23.720  1.00  0.00     0.011 A 
BRANCH  17  22
ATOM     22  S   UNL A   1      28.655  29.971  23.071  1.00  0.00     0.175 S 
ATOM     23  C   UNL A   1      28.984  30.368  21.377  1.00  0.00     0.163 C 
ATOM     24  O   UNL A   1      29.227  31.028  23.882  1.00  0.00    -0.224 OA
ATOM     25  O   UNL A   1      27.252  29.620  23.182  1.00  0.00    -0.224 OA
ENDBRANCH  17  22
ENDBRANCH  12  16
BRANCH  15  26
ATOM     26  C   UNL A   1      32.326  21.389  23.725  1.00  0.00    -0.023 A 
ATOM     27  C   UNL A   1      32.556  20.115  24.261  1.00  0.00     0.006 A 
ATOM     28  C   UNL A   1      31.988  21.478  22.357  1.00  0.00     0.006 A 
ATOM     29  C   UNL A   1      32.444  18.973  23.460  1.00  0.00     0.000 A 
ATOM     30  C   UNL A   1      31.844  20.337  21.568  1.00  0.00     0.000 A 
ATOM     31  C   UNL A   1      32.073  19.083  22.121  1.00  0.00     0.000 A 
ENDBRANCH  15  26
ENDBRANCH   6  11
ENDBRANCH   3   5
ENDBRANCH   2   3
ENDBRANCH   1   2
BRANCH   1  32
ATOM     32  C   UNL A   1      41.672  21.505  25.970  1.00  0.00     0.275 C 
BRANCH  32  33
ATOM     33  O   UNL A   1      41.814  22.734  25.236  1.00  0.00    -0.458 OA
BRANCH  33  34
ATOM     34  C   UNL A   1      43.000  23.366  25.390  1.00  0.00     0.338 C 
ATOM     35  O   UNL A   1      44.028  23.180  24.761  1.00  0.00    -0.246 OA
BRANCH  34  36
ATOM     36  C   UNL A   1      42.872  24.405  26.420  1.00  0.00     0.060 A 
ATOM     37  C   UNL A   1      42.480  24.022  27.699  1.00  0.00     0.016 A 
ATOM     38  C   UNL A   1      43.000  25.753  26.098  1.00  0.00     0.016 A 
ATOM     39  C   UNL A   1      42.125  24.980  28.644  1.00  0.00     0.010 A 
ATOM     40  C   UNL A   1      42.735  26.716  27.079  1.00  0.00     0.010 A 
ATOM     41  C   UNL A   1      42.262  26.343  28.353  1.00  0.00    -0.014 A 
BRANCH  41  42
ATOM     42  C   UNL A   1      41.897  27.376  29.362  1.00  0.00     0.031 A 
ATOM     43  C   UNL A   1      42.663  27.467  30.657  1.00  0.00     0.074 A 
ATOM     44  C   UNL A   1      40.861  28.209  29.140  1.00  0.00     0.049 A 
ATOM     45  N   UNL A   1      42.374  28.135  31.744  1.00  0.00    -0.248 NA
ATOM     46  C   UNL A   1      43.911  26.691  30.747  1.00  0.00     0.031 C 
ATOM     47  C   UNL A   1      40.048  28.247  27.922  1.00  0.00     0.029 A 
ATOM     48  N   UNL A   1      40.292  29.170  29.942  1.00  0.00    -0.354 N 
ATOM     49  C   UNL A   1      43.355  27.800  32.670  1.00  0.00     0.074 A 
ATOM     50  C   UNL A   1      44.256  26.877  32.013  1.00  0.00     0.031 C 
ATOM     51  C   UNL A   1      39.089  29.173  28.057  1.00  0.00     0.029 A 
ATOM     52  C   UNL A   1      39.161  29.736  29.400  1.00  0.00     0.049 A 
ATOM     53  H   UNL A   1      40.659  29.428  30.820  1.00  0.00     0.167 HD
ATOM     54  C   UNL A   1      43.495  28.227  33.948  1.00  0.00     0.034 A 
ATOM     55  C   UNL A   1      38.246  30.567  29.937  1.00  0.00     0.034 A 
ATOM     56  C   UNL A   1      42.633  29.197  34.571  1.00  0.00     0.049 A 
ATOM     57  C   UNL A   1      38.419  31.021  31.359  1.00  0.00     0.074 A 
ATOM     58  C   UNL A   1      42.717  29.729  35.846  1.00  0.00     0.029 A 
ATOM     59  N   UNL A   1      41.533  29.784  33.964  1.00  0.00    -0.354 N 
ATOM     60  N   UNL A   1      39.377  30.731  32.205  1.00  0.00    -0.248 NA
ATOM     61  C   UNL A   1      37.396  31.929  31.897  1.00  0.00     0.031 C 
ATOM     62  C   UNL A   1      41.656  30.623  36.016  1.00  0.00     0.029 A 
ATOM     63  C   UNL A   1      40.927  30.669  34.839  1.00  0.00     0.049 A 
ATOM     64  H   UNL A   1      41.228  29.598  33.047  1.00  0.00     0.167 HD
ATOM     65  C   UNL A   1      39.088  31.440  33.364  1.00  0.00     0.074 A 
ATOM     66  C   UNL A   1      37.877  32.191  33.105  1.00  0.00     0.031 C 
ATOM     67  C   UNL A   1      39.755  31.454  34.544  1.00  0.00     0.034 A 
BRANCH  54  68
ATOM     68  C   UNL A   1      44.634  27.665  34.761  1.00  0.00     0.023 A 
ATOM     69  C   UNL A   1      45.848  28.374  34.859  1.00  0.00     0.012 A 
ATOM     70  C   UNL A   1      44.479  26.461  35.481  1.00  0.00     0.148 A 
ATOM     71  C   UNL A   1      46.900  27.880  35.631  1.00  0.00     0.002 A 
ATOM     72  C   UNL A   1      45.515  25.998  36.283  1.00  0.00     0.091 A 
ATOM     73  F   UNL A   1      43.325  25.790  35.362  1.00  0.00    -0.205 F 
ATOM     74  C   UNL A   1      46.730  26.699  36.350  1.00  0.00     0.022 A 
BRANCH  72  75
ATOM     75  S   UNL A   1      45.366  24.531  37.310  1.00  0.00     0.127 S 
ATOM     76  O   UNL A   1      46.765  24.261  37.643  1.00  0.00    -0.237 OA
ATOM     77  O   UNL A   1      44.558  25.018  38.428  1.00  0.00    -0.237 OA
ATOM     78  O   UNL A   1      44.715  23.526  36.482  1.00  0.00    -0.744 OA
ENDBRANCH  72  75
ENDBRANCH  54  68
BRANCH  55  79
ATOM     79  C   UNL A   1      37.080  31.012  29.121  1.00  0.00     0.023 A 
ATOM     80  C   UNL A   1      36.951  32.371  28.777  1.00  0.00     0.012 A 
ATOM     81  C   UNL A   1      36.124  30.091  28.647  1.00  0.00     0.148 A 
ATOM     82  C   UNL A   1      35.880  32.808  27.995  1.00  0.00     0.002 A 
ATOM     83  C   UNL A   1      35.096  30.522  27.818  1.00  0.00     0.091 A 
ATOM     84  F   UNL A   1      36.251  28.804  29.003  1.00  0.00    -0.205 F 
ATOM     85  C   UNL A   1      34.961  31.882  27.504  1.00  0.00     0.022 A 
BRANCH  83  86
ATOM     86  S   UNL A   1      33.958  29.378  27.026  1.00  0.00     0.127 S 
ATOM     87  O   UNL A   1      33.143  28.938  28.155  1.00  0.00    -0.237 OA
ATOM     88  O   UNL A   1      33.270  30.248  26.071  1.00  0.00    -0.237 OA
ATOM     89  O   UNL A   1      34.794  28.357  26.409  1.00  0.00    -0.744 OA
ENDBRANCH  83  86
ENDBRANCH  55  79
BRANCH  67  90
ATOM     90  C   UNL A   1      39.224  32.343  35.636  1.00  0.00     0.023 A 
ATOM     91  C   UNL A   1      38.260  31.850  36.536  1.00  0.00     0.012 A 
ATOM     92  C   UNL A   1      39.746  33.638  35.820  1.00  0.00     0.148 A 
ATOM     93  C   UNL A   1      37.804  32.642  37.588  1.00  0.00     0.002 A 
ATOM     94  C   UNL A   1      39.323  34.405  36.899  1.00  0.00     0.091 A 
ATOM     95  F   UNL A   1      40.651  34.093  34.939  1.00  0.00    -0.205 F 
ATOM     96  C   UNL A   1      38.344  33.913  37.777  1.00  0.00     0.022 A 
BRANCH  94  97
ATOM     97  S   UNL A   1      40.031  36.012  37.277  1.00  0.00     0.127 S 
ATOM     98  O   UNL A   1      39.720  36.767  36.064  1.00  0.00    -0.237 OA
ATOM     99  O   UNL A   1      39.269  36.414  38.459  1.00  0.00    -0.237 OA
ATOM    100  O   UNL A   1      41.449  35.781  37.520  1.00  0.00    -0.744 OA
ENDBRANCH  94  97
ENDBRANCH  67  90
ENDBRANCH  41  42
ENDBRANCH  34  36
ENDBRANCH  33  34
ENDBRANCH  32  33
ENDBRANCH   1  32
TORSDOF 18
ENDMDL
MODEL 3
REMARK VINA RESULT:     -10.3      6.857     13.498
REMARK SMILES CS(=O)(=O)c1ccc(C2=NN(c3ccc(C(=O)OCCOC(=O)c4ccc(-c5c6nc(c(-c7cccc(S(=O)(=O)[O-])c7F)c7ccc([nH]7)c(-c7cccc(S(=O)(=O)[O-])c7F)c7nc(c(-c8cccc(S(=O)(=O)[O-])c8F)c8ccc5[nH]8)C=C7)C=C6)cc4)cc3)[C@H](c3ccccc3)C2)cc1
REMARK SMILES IDX 19 1 18 2 16 3 17 4 15 5 12 6 13 7 88 8 14 9 87 10 11 11
REMARK SMILES IDX 9 12 10 13 96 14 89 15 8 16 5 17 6 18 98 19 7 20 97 21 2 22
REMARK SMILES IDX 1 23 3 24 4 25 90 26 91 27 95 28 92 29 94 30 93 31 20 32
REMARK SMILES IDX 21 33 22 34 23 35 24 36 25 37 86 38 26 39 85 40 27 41 28 42
REMARK SMILES IDX 29 43 79 44 30 45 84 46 78 47 80 48 31 49 83 50 77 51 76 52
REMARK SMILES IDX 32 54 64 55 44 56 63 57 45 58 48 59 62 60 81 61 46 62 47 63
REMARK SMILES IDX 61 65 82 66 49 67 33 68 34 69 42 70 35 71 37 72 43 73 36 74
REMARK SMILES IDX 38 75 39 76 40 77 41 78 65 79 66 80 74 81 67 82 69 83 75 84
REMARK SMILES IDX 68 85 70 86 71 87 72 88 73 89 50 90 51 91 59 92 52 93 54 94
REMARK SMILES IDX 60 95 53 96 55 97 56 98 57 99 58 100
REMARK H PARENT 80 53 48 64
REMARK Flexibility Score: inf
ROOT
ATOM      1  C   UNL A   1      40.760  20.151  26.625  1.00  0.00     0.275 C 
ENDROOT
BRANCH   1   2
ATOM      2  O   UNL A   1      39.836  20.810  25.736  1.00  0.00    -0.458 OA
BRANCH   2   3
ATOM      3  C   UNL A   1      39.453  22.059  26.104  1.00  0.00     0.338 C 
ATOM      4  O   UNL A   1      40.173  22.934  26.544  1.00  0.00    -0.246 OA
BRANCH   3   5
ATOM      5  C   UNL A   1      38.007  22.269  25.839  1.00  0.00     0.060 A 
ATOM      6  C   UNL A   1      35.304  22.636  25.162  1.00  0.00     0.060 A 
ATOM      7  C   UNL A   1      35.974  21.471  24.778  1.00  0.00     0.029 A 
ATOM      8  C   UNL A   1      35.986  23.587  25.935  1.00  0.00     0.029 A 
ATOM      9  C   UNL A   1      37.324  21.308  25.080  1.00  0.00     0.018 A 
ATOM     10  C   UNL A   1      37.328  23.406  26.281  1.00  0.00     0.018 A 
BRANCH   6  11
ATOM     11  N   UNL A   1      34.024  22.923  24.670  1.00  0.00    -0.257 N 
ATOM     12  C   UNL A   1      32.498  24.416  24.546  1.00  0.00     0.071 C 
ATOM     13  N   UNL A   1      33.753  24.205  24.302  1.00  0.00    -0.176 NA
ATOM     14  C   UNL A   1      31.750  23.279  25.184  1.00  0.00     0.091 C 
ATOM     15  C   UNL A   1      32.890  22.265  25.346  1.00  0.00     0.144 C 
BRANCH  12  16
ATOM     16  C   UNL A   1      31.822  25.667  24.163  1.00  0.00    -0.002 A 
ATOM     17  C   UNL A   1      30.481  27.955  23.313  1.00  0.00     0.067 A 
ATOM     18  C   UNL A   1      31.074  27.116  22.368  1.00  0.00     0.021 A 
ATOM     19  C   UNL A   1      30.581  27.671  24.681  1.00  0.00     0.021 A 
ATOM     20  C   UNL A   1      31.756  25.978  22.799  1.00  0.00     0.011 A 
ATOM     21  C   UNL A   1      31.243  26.515  25.109  1.00  0.00     0.011 A 
BRANCH  17  22
ATOM     22  S   UNL A   1      29.564  29.398  22.818  1.00  0.00     0.175 S 
ATOM     23  C   UNL A   1      27.849  28.953  22.829  1.00  0.00     0.163 C 
ATOM     24  O   UNL A   1      29.930  29.676  21.444  1.00  0.00    -0.224 OA
ATOM     25  O   UNL A   1      29.774  30.382  23.862  1.00  0.00    -0.224 OA
ENDBRANCH  17  22
ENDBRANCH  12  16
BRANCH  15  26
ATOM     26  C   UNL A   1      32.707  20.861  24.787  1.00  0.00    -0.023 A 
ATOM     27  C   UNL A   1      32.488  20.588  23.430  1.00  0.00     0.006 A 
ATOM     28  C   UNL A   1      32.899  19.767  25.657  1.00  0.00     0.006 A 
ATOM     29  C   UNL A   1      32.468  19.270  22.962  1.00  0.00     0.000 A 
ATOM     30  C   UNL A   1      32.912  18.455  25.184  1.00  0.00     0.000 A 
ATOM     31  C   UNL A   1      32.695  18.207  23.834  1.00  0.00     0.000 A 
ENDBRANCH  15  26
ENDBRANCH   6  11
ENDBRANCH   3   5
ENDBRANCH   2   3
ENDBRANCH   1   2
BRANCH   1  32
ATOM     32  C   UNL A   1      41.588  19.107  25.877  1.00  0.00     0.275 C 
BRANCH  32  33
ATOM     33  O   UNL A   1      42.990  19.288  26.146  1.00  0.00    -0.458 OA
BRANCH  33  34
ATOM     34  C   UNL A   1      43.743  19.642  25.079  1.00  0.00     0.338 C 
ATOM     35  O   UNL A   1      44.029  18.956  24.112  1.00  0.00    -0.246 OA
BRANCH  34  36
ATOM     36  C   UNL A   1      44.140  21.049  25.204  1.00  0.00     0.060 A 
ATOM     37  C   UNL A   1      44.747  21.463  26.386  1.00  0.00     0.016 A 
ATOM     38  C   UNL A   1      43.795  21.981  24.229  1.00  0.00     0.016 A 
ATOM     39  C   UNL A   1      44.934  22.817  26.647  1.00  0.00     0.010 A 
ATOM     40  C   UNL A   1      44.072  23.335  24.451  1.00  0.00     0.010 A 
ATOM     41  C   UNL A   1      44.613  23.774  25.675  1.00  0.00    -0.014 A 
BRANCH  41  42
ATOM     42  C   UNL A   1      44.823  25.225  25.939  1.00  0.00     0.031 A 
ATOM     43  C   UNL A   1      46.199  25.824  25.799  1.00  0.00     0.074 A 
ATOM     44  C   UNL A   1      43.795  25.999  26.339  1.00  0.00     0.049 A 
ATOM     45  N   UNL A   1      46.634  26.995  26.187  1.00  0.00    -0.248 NA
ATOM     46  C   UNL A   1      47.224  24.990  25.151  1.00  0.00     0.031 C 
ATOM     47  C   UNL A   1      42.408  25.555  26.494  1.00  0.00     0.029 A 
ATOM     48  N   UNL A   1      43.760  27.321  26.716  1.00  0.00    -0.354 N 
ATOM     49  C   UNL A   1      47.996  27.009  25.904  1.00  0.00     0.074 A 
ATOM     50  C   UNL A   1      48.312  25.733  25.300  1.00  0.00     0.031 C 
ATOM     51  C   UNL A   1      41.662  26.578  26.935  1.00  0.00     0.029 A 
ATOM     52  C   UNL A   1      42.527  27.725  27.178  1.00  0.00     0.049 A 
ATOM     53  H   UNL A   1      44.540  27.920  26.661  1.00  0.00     0.167 HD
ATOM     54  C   UNL A   1      48.896  27.997  26.123  1.00  0.00     0.034 A 
ATOM     55  C   UNL A   1      42.143  28.865  27.784  1.00  0.00     0.034 A 
ATOM     56  C   UNL A   1      48.559  29.288  26.663  1.00  0.00     0.049 A 
ATOM     57  C   UNL A   1      43.162  29.943  28.022  1.00  0.00     0.074 A 
ATOM     58  C   UNL A   1      49.390  30.372  26.881  1.00  0.00     0.029 A 
ATOM     59  N   UNL A   1      47.288  29.671  27.064  1.00  0.00    -0.354 N 
ATOM     60  N   UNL A   1      44.434  29.959  27.708  1.00  0.00    -0.248 NA
ATOM     61  C   UNL A   1      42.692  31.168  28.685  1.00  0.00     0.031 C 
ATOM     62  C   UNL A   1      48.625  31.405  27.433  1.00  0.00     0.029 A 
ATOM     63  C   UNL A   1      47.313  30.973  27.532  1.00  0.00     0.049 A 
ATOM     64  H   UNL A   1      46.487  29.101  27.022  1.00  0.00     0.167 HD
ATOM     65  C   UNL A   1      44.911  31.201  28.107  1.00  0.00     0.074 A 
ATOM     66  C   UNL A   1      43.785  31.920  28.669  1.00  0.00     0.031 C 
ATOM     67  C   UNL A   1      46.171  31.695  28.034  1.00  0.00     0.034 A 
BRANCH  54  68
ATOM     68  C   UNL A   1      50.337  27.733  25.763  1.00  0.00     0.023 A 
ATOM     69  C   UNL A   1      51.264  27.393  26.768  1.00  0.00     0.012 A 
ATOM     70  C   UNL A   1      50.758  27.763  24.417  1.00  0.00     0.148 A 
ATOM     71  C   UNL A   1      52.593  27.119  26.446  1.00  0.00     0.002 A 
ATOM     72  C   UNL A   1      52.074  27.445  24.099  1.00  0.00     0.091 A 
ATOM     73  F   UNL A   1      49.869  28.106  23.475  1.00  0.00    -0.205 F 
ATOM     74  C   UNL A   1      52.995  27.135  25.112  1.00  0.00     0.022 A 
BRANCH  72  75
ATOM     75  S   UNL A   1      52.669  27.359  22.405  1.00  0.00     0.127 S 
ATOM     76  O   UNL A   1      51.445  27.024  21.679  1.00  0.00    -0.237 OA
ATOM     77  O   UNL A   1      53.158  28.719  22.180  1.00  0.00    -0.237 OA
ATOM     78  O   UNL A   1      53.702  26.333  22.395  1.00  0.00    -0.744 OA
ENDBRANCH  72  75
ENDBRANCH  54  68
BRANCH  55  79
ATOM     79  C   UNL A   1      40.725  29.034  28.215  1.00  0.00     0.023 A 
ATOM     80  C   UNL A   1      39.740  29.340  27.257  1.00  0.00     0.012 A 
ATOM     81  C   UNL A   1      40.342  28.849  29.559  1.00  0.00     0.148 A 
ATOM     82  C   UNL A   1      38.403  29.480  27.633  1.00  0.00     0.002 A 
ATOM     83  C   UNL A   1      39.001  28.928  29.915  1.00  0.00     0.091 A 
ATOM     84  F   UNL A   1      41.297  28.579  30.460  1.00  0.00    -0.205 F 
ATOM     85  C   UNL A   1      38.032  29.261  28.958  1.00  0.00     0.022 A 
BRANCH  83  86
ATOM     86  S   UNL A   1      38.421  28.518  31.565  1.00  0.00     0.127 S 
ATOM     87  O   UNL A   1      37.029  28.955  31.511  1.00  0.00    -0.237 OA
ATOM     88  O   UNL A   1      38.610  27.067  31.601  1.00  0.00    -0.237 OA
ATOM     89  O   UNL A   1      39.283  29.255  32.480  1.00  0.00    -0.744 OA
ENDBRANCH  83  86
ENDBRANCH  55  79
BRANCH  67  90
ATOM     90  C   UNL A   1      46.400  33.099  28.527  1.00  0.00     0.023 A 
ATOM     91  C   UNL A   1      46.832  33.315  29.849  1.00  0.00     0.012 A 
ATOM     92  C   UNL A   1      46.269  34.193  27.651  1.00  0.00     0.148 A 
ATOM     93  C   UNL A   1      47.107  34.605  30.301  1.00  0.00     0.002 A 
ATOM     94  C   UNL A   1      46.590  35.471  28.093  1.00  0.00     0.091 A 
ATOM     95  F   UNL A   1      45.838  33.964  26.401  1.00  0.00    -0.205 F 
ATOM     96  C   UNL A   1      46.998  35.680  29.420  1.00  0.00     0.022 A 
BRANCH  94  97
ATOM     97  S   UNL A   1      46.574  36.901  27.006  1.00  0.00     0.127 S 
ATOM     98  O   UNL A   1      45.140  37.156  26.872  1.00  0.00    -0.237 OA
ATOM     99  O   UNL A   1      47.299  37.897  27.794  1.00  0.00    -0.237 OA
ATOM    100  O   UNL A   1      47.249  36.486  25.783  1.00  0.00    -0.744 OA
ENDBRANCH  94  97
ENDBRANCH  67  90
ENDBRANCH  41  42
ENDBRANCH  34  36
ENDBRANCH  33  34
ENDBRANCH  32  33
ENDBRANCH   1  32
TORSDOF 18
ENDMDL
