MODEL 1
REMARK VINA RESULT:     -12.5      0.000      0.000
REMARK SMILES COc1ccc(-c2cc(F)cc(C(=O)OCCOC(=O)c3ccc(-c4c5nc(c(-c6cccc(S(=O)(=O)[O-])c6F)c6ccc([nH]6)c(-c6cccc(S(=O)(=O)[O-])c6F)c6nc(c(-c7cccc(S(=O)(=O)[O-])c7F)c7ccc4[nH]7)C=C6)C=C5)cc3)c2)cc1C
REMARK SMILES IDX 17 1 16 2 15 3 13 4 14 5 12 6 7 7 8 8 84 9 9 10 10 11 11 12
REMARK SMILES IDX 6 13 3 14 4 15 86 16 5 17 85 18 87 19 2 20 1 21 18 22 19 23
REMARK SMILES IDX 20 24 21 25 22 26 83 27 23 28 82 29 24 30 25 31 26 32 76 33
REMARK SMILES IDX 27 34 81 35 75 36 77 37 28 38 80 39 74 40 73 41 29 43 61 44
REMARK SMILES IDX 41 45 60 46 42 47 45 48 59 49 78 50 43 51 44 52 58 54 79 55
REMARK SMILES IDX 46 56 30 57 31 58 39 59 32 60 34 61 40 62 33 63 35 64 36 65
REMARK SMILES IDX 37 66 38 67 62 68 63 69 71 70 64 71 66 72 72 73 65 74 67 75
REMARK SMILES IDX 68 76 69 77 70 78 47 79 48 80 56 81 49 82 51 83 57 84 50 85
REMARK SMILES IDX 52 86 53 87 54 88 55 89
REMARK H PARENT 77 42 45 53
REMARK Flexibility Score: inf
ROOT
ATOM      1  C   UNL A   1      44.571  19.480  25.080  1.00  0.00     0.275 C 
ENDROOT
BRANCH   1   2
ATOM      2  C   UNL A   1      43.370  18.694  25.621  1.00  0.00     0.275 C 
BRANCH   2   3
ATOM      3  O   UNL A   1      42.178  19.412  25.275  1.00  0.00    -0.458 OA
BRANCH   3   4
ATOM      4  C   UNL A   1      41.370  19.964  26.411  1.00  0.00     0.338 C 
ATOM      5  O   UNL A   1      41.880  19.307  27.367  1.00  0.00    -0.246 OA
BRANCH   4   6
ATOM      6  C   UNL A   1      39.831  21.478  26.311  1.00  0.00     0.063 A 
ATOM      7  C   UNL A   1      37.294  22.335  25.619  1.00  0.00    -0.015 A 
ATOM      8  C   UNL A   1      37.540  23.636  25.987  1.00  0.00     0.048 A 
ATOM      9  C   UNL A   1      38.375  21.385  25.755  1.00  0.00     0.024 A 
ATOM     10  C   UNL A   1      38.782  23.929  26.503  1.00  0.00     0.124 A 
ATOM     11  F   UNL A   1      39.042  25.195  26.868  1.00  0.00    -0.207 F 
ATOM     12  C   UNL A   1      39.811  22.951  26.680  1.00  0.00     0.055 A 
BRANCH   7  13
ATOM     13  C   UNL A   1      35.974  21.883  25.115  1.00  0.00    -0.018 A 
ATOM     14  C   UNL A   1      33.386  21.088  24.245  1.00  0.00     0.121 A 
ATOM     15  C   UNL A   1      33.744  22.436  24.273  1.00  0.00     0.047 A 
ATOM     16  C   UNL A   1      34.318  20.114  24.629  1.00  0.00    -0.008 A 
ATOM     17  C   UNL A   1      35.017  22.827  24.706  1.00  0.00     0.012 A 
ATOM     18  C   UNL A   1      35.602  20.529  25.067  1.00  0.00     0.016 A 
ATOM     19  C   UNL A   1      33.994  18.649  24.621  1.00  0.00     0.048 C 
BRANCH  14  20
ATOM     20  O   UNL A   1      32.156  20.811  23.701  1.00  0.00    -0.496 OA
ATOM     21  C   UNL A   1      32.065  21.074  22.302  1.00  0.00     0.278 C 
ENDBRANCH  14  20
ENDBRANCH   7  13
ENDBRANCH   4   6
ENDBRANCH   3   4
ENDBRANCH   2   3
ENDBRANCH   1   2
BRANCH   1  22
ATOM     22  O   UNL A   1      44.309  20.864  24.708  1.00  0.00    -0.458 OA
BRANCH  22  23
ATOM     23  C   UNL A   1      44.621  21.880  25.570  1.00  0.00     0.338 C 
ATOM     24  O   UNL A   1      45.697  22.012  26.126  1.00  0.00    -0.246 OA
BRANCH  23  25
ATOM     25  C   UNL A   1      43.409  22.636  25.977  1.00  0.00     0.060 A 
ATOM     26  C   UNL A   1      43.021  24.038  24.903  1.00  0.00     0.016 A 
ATOM     27  C   UNL A   1      43.183  22.762  27.761  1.00  0.00     0.016 A 
ATOM     28  C   UNL A   1      42.453  25.634  25.647  1.00  0.00     0.010 A 
ATOM     29  C   UNL A   1      42.677  24.368  28.504  1.00  0.00     0.010 A 
ATOM     30  C   UNL A   1      42.332  25.794  27.437  1.00  0.00    -0.014 A 
BRANCH  30  31
ATOM     31  C   UNL A   1      42.611  27.050  28.118  1.00  0.00     0.031 A 
ATOM     32  C   UNL A   1      41.456  27.921  28.387  1.00  0.00     0.074 A 
ATOM     33  C   UNL A   1      43.815  27.273  28.711  1.00  0.00     0.049 A 
ATOM     34  N   UNL A   1      41.575  29.066  28.948  1.00  0.00    -0.248 NA
ATOM     35  C   UNL A   1      40.073  27.613  28.019  1.00  0.00     0.031 C 
ATOM     36  C   UNL A   1      44.092  28.159  29.845  1.00  0.00     0.029 A 
ATOM     37  N   UNL A   1      45.081  26.783  28.431  1.00  0.00    -0.354 N 
ATOM     38  C   UNL A   1      40.321  29.524  29.245  1.00  0.00     0.074 A 
ATOM     39  C   UNL A   1      39.415  28.638  28.569  1.00  0.00     0.031 C 
ATOM     40  C   UNL A   1      45.418  28.329  29.980  1.00  0.00     0.029 A 
ATOM     41  C   UNL A   1      46.056  27.694  28.848  1.00  0.00     0.049 A 
ATOM     42  H   UNL A   1      45.268  25.917  28.000  1.00  0.00     0.167 HD
ATOM     43  C   UNL A   1      40.230  30.551  30.124  1.00  0.00     0.034 A 
ATOM     44  C   UNL A   1      46.926  28.332  28.001  1.00  0.00     0.034 A 
ATOM     45  C   UNL A   1      41.554  31.178  30.303  1.00  0.00     0.049 A 
ATOM     46  C   UNL A   1      46.607  29.830  27.867  1.00  0.00     0.074 A 
ATOM     47  C   UNL A   1      42.522  31.140  31.290  1.00  0.00     0.029 A 
ATOM     48  N   UNL A   1      42.193  31.679  29.169  1.00  0.00    -0.354 N 
ATOM     49  N   UNL A   1      45.684  30.474  28.532  1.00  0.00    -0.248 NA
ATOM     50  C   UNL A   1      47.249  30.688  26.877  1.00  0.00     0.031 C 
ATOM     51  C   UNL A   1      43.756  31.580  30.713  1.00  0.00     0.029 A 
ATOM     52  C   UNL A   1      43.532  31.954  29.397  1.00  0.00     0.049 A 
ATOM     53  H   UNL A   1      41.744  31.822  28.305  1.00  0.00     0.167 HD
ATOM     54  C   UNL A   1      45.432  31.693  27.939  1.00  0.00     0.074 A 
ATOM     55  C   UNL A   1      46.462  31.774  26.910  1.00  0.00     0.031 C 
ATOM     56  C   UNL A   1      44.365  32.487  28.306  1.00  0.00     0.034 A 
BRANCH  43  57
ATOM     57  C   UNL A   1      38.988  30.915  30.905  1.00  0.00     0.023 A 
ATOM     58  C   UNL A   1      38.916  30.455  32.236  1.00  0.00     0.012 A 
ATOM     59  C   UNL A   1      37.830  31.569  30.401  1.00  0.00     0.148 A 
ATOM     60  C   UNL A   1      37.769  30.620  33.020  1.00  0.00     0.002 A 
ATOM     61  C   UNL A   1      36.709  31.793  31.208  1.00  0.00     0.091 A 
ATOM     62  F   UNL A   1      37.751  31.899  29.108  1.00  0.00    -0.205 F 
ATOM     63  C   UNL A   1      36.669  31.301  32.513  1.00  0.00     0.022 A 
BRANCH  61  64
ATOM     64  S   UNL A   1      35.262  32.712  30.639  1.00  0.00     0.127 S 
ATOM     65  O   UNL A   1      35.834  34.021  30.322  1.00  0.00    -0.237 OA
ATOM     66  O   UNL A   1      34.836  31.937  29.472  1.00  0.00    -0.237 OA
ATOM     67  O   UNL A   1      34.311  32.704  31.744  1.00  0.00    -0.744 OA
ENDBRANCH  61  64
ENDBRANCH  43  57
BRANCH  44  68
ATOM     68  C   UNL A   1      47.366  27.460  26.863  1.00  0.00     0.023 A 
ATOM     69  C   UNL A   1      46.611  27.546  25.667  1.00  0.00     0.012 A 
ATOM     70  C   UNL A   1      48.695  27.027  26.791  1.00  0.00     0.148 A 
ATOM     71  C   UNL A   1      47.258  27.509  24.431  1.00  0.00     0.002 A 
ATOM     72  C   UNL A   1      49.334  26.996  25.563  1.00  0.00     0.091 A 
ATOM     73  F   UNL A   1      49.371  26.744  27.909  1.00  0.00    -0.205 F 
ATOM     74  C   UNL A   1      48.634  27.294  24.384  1.00  0.00     0.022 A 
BRANCH  72  75
ATOM     75  S   UNL A   1      51.134  26.913  25.568  1.00  0.00     0.127 S 
ATOM     76  O   UNL A   1      51.502  28.028  26.441  1.00  0.00    -0.237 OA
ATOM     77  O   UNL A   1      51.409  25.599  26.136  1.00  0.00    -0.237 OA
ATOM     78  O   UNL A   1      51.459  27.098  24.158  1.00  0.00    -0.744 OA
ENDBRANCH  72  75
ENDBRANCH  44  68
BRANCH  56  79
ATOM     79  C   UNL A   1      43.976  33.839  27.668  1.00  0.00     0.023 A 
ATOM     80  C   UNL A   1      43.419  33.943  26.380  1.00  0.00     0.012 A 
ATOM     81  C   UNL A   1      44.217  35.089  28.314  1.00  0.00     0.148 A 
ATOM     82  C   UNL A   1      43.031  35.165  25.810  1.00  0.00     0.002 A 
ATOM     83  C   UNL A   1      43.835  36.306  27.752  1.00  0.00     0.091 A 
ATOM     84  F   UNL A   1      44.891  35.137  29.466  1.00  0.00    -0.205 F 
ATOM     85  C   UNL A   1      43.224  36.348  26.503  1.00  0.00     0.022 A 
BRANCH  83  86
ATOM     86  S   UNL A   1      44.129  37.882  28.573  1.00  0.00     0.127 S 
ATOM     87  O   UNL A   1      43.517  38.820  27.633  1.00  0.00    -0.237 OA
ATOM     88  O   UNL A   1      43.396  37.710  29.827  1.00  0.00    -0.237 OA
ATOM     89  O   UNL A   1      45.572  38.004  28.725  1.00  0.00    -0.744 OA
ENDBRANCH  83  86
ENDBRANCH  56  79
ENDBRANCH  30  31
ENDBRANCH  23  25
ENDBRANCH  22  23
ENDBRANCH   1  22
TORSDOF 16
ENDMDL
MODEL 2
REMARK VINA RESULT:     -12.3      5.043     11.776
REMARK SMILES COc1ccc(-c2cc(F)cc(C(=O)OCCOC(=O)c3ccc(-c4c5nc(c(-c6cccc(S(=O)(=O)[O-])c6F)c6ccc([nH]6)c(-c6cccc(S(=O)(=O)[O-])c6F)c6nc(c(-c7cccc(S(=O)(=O)[O-])c7F)c7ccc4[nH]7)C=C6)C=C5)cc3)c2)cc1C
REMARK SMILES IDX 17 1 16 2 15 3 13 4 14 5 12 6 7 7 8 8 84 9 9 10 10 11 11 12
REMARK SMILES IDX 6 13 3 14 4 15 86 16 5 17 85 18 87 19 2 20 1 21 18 22 19 23
REMARK SMILES IDX 20 24 21 25 22 26 83 27 23 28 82 29 24 30 25 31 26 32 76 33
REMARK SMILES IDX 27 34 81 35 75 36 77 37 28 38 80 39 74 40 73 41 29 43 61 44
REMARK SMILES IDX 41 45 60 46 42 47 45 48 59 49 78 50 43 51 44 52 58 54 79 55
REMARK SMILES IDX 46 56 30 57 31 58 39 59 32 60 34 61 40 62 33 63 35 64 36 65
REMARK SMILES IDX 37 66 38 67 62 68 63 69 71 70 64 71 66 72 72 73 65 74 67 75
REMARK SMILES IDX 68 76 69 77 70 78 47 79 48 80 56 81 49 82 51 83 57 84 50 85
REMARK SMILES IDX 52 86 53 87 54 88 55 89
REMARK H PARENT 77 42 45 53
REMARK Flexibility Score: inf
ROOT
ATOM      1  C   UNL A   1      33.490  36.066  31.208  1.00  0.00     0.275 C 
ENDROOT
BRANCH   1   2
ATOM      2  C   UNL A   1      32.868  35.977  29.808  1.00  0.00     0.275 C 
BRANCH   2   3
ATOM      3  O   UNL A   1      32.741  34.591  29.467  1.00  0.00    -0.458 OA
BRANCH   3   4
ATOM      4  C   UNL A   1      33.644  34.078  28.385  1.00  0.00     0.338 C 
ATOM      5  O   UNL A   1      34.046  35.181  27.910  1.00  0.00    -0.246 OA
BRANCH   4   6
ATOM      6  C   UNL A   1      34.074  32.014  27.906  1.00  0.00     0.063 A 
ATOM      7  C   UNL A   1      33.373  29.559  26.847  1.00  0.00    -0.015 A 
ATOM      8  C   UNL A   1      34.531  28.949  27.268  1.00  0.00     0.048 A 
ATOM      9  C   UNL A   1      33.188  30.952  27.183  1.00  0.00     0.024 A 
ATOM     10  C   UNL A   1      35.452  29.723  27.937  1.00  0.00     0.124 A 
ATOM     11  F   UNL A   1      36.589  29.147  28.357  1.00  0.00    -0.207 F 
ATOM     12  C   UNL A   1      35.264  31.117  28.202  1.00  0.00     0.055 A 
BRANCH   7  13
ATOM     13  C   UNL A   1      32.338  28.847  26.057  1.00  0.00    -0.018 A 
ATOM     14  C   UNL A   1      30.439  27.385  24.524  1.00  0.00     0.121 A 
ATOM     15  C   UNL A   1      30.976  26.847  25.695  1.00  0.00     0.047 A 
ATOM     16  C   UNL A   1      30.825  28.668  24.111  1.00  0.00    -0.008 A 
ATOM     17  C   UNL A   1      31.914  27.565  26.446  1.00  0.00     0.012 A 
ATOM     18  C   UNL A   1      31.777  29.380  24.884  1.00  0.00     0.016 A 
ATOM     19  C   UNL A   1      30.285  29.302  22.862  1.00  0.00     0.048 C 
BRANCH  14  20
ATOM     20  O   UNL A   1      29.451  26.643  23.927  1.00  0.00    -0.496 OA
ATOM     21  C   UNL A   1      29.870  25.346  23.505  1.00  0.00     0.278 C 
ENDBRANCH  14  20
ENDBRANCH   7  13
ENDBRANCH   4   6
ENDBRANCH   3   4
ENDBRANCH   2   3
ENDBRANCH   1   2
BRANCH   1  22
ATOM     22  O   UNL A   1      33.834  34.794  31.831  1.00  0.00    -0.458 OA
BRANCH  22  23
ATOM     23  C   UNL A   1      35.146  34.458  32.031  1.00  0.00     0.338 C 
ATOM     24  O   UNL A   1      35.943  35.120  32.672  1.00  0.00    -0.246 OA
BRANCH  23  25
ATOM     25  C   UNL A   1      35.562  33.347  31.136  1.00  0.00     0.060 A 
ATOM     26  C   UNL A   1      35.467  31.712  31.903  1.00  0.00     0.016 A 
ATOM     27  C   UNL A   1      36.924  33.760  30.031  1.00  0.00     0.016 A 
ATOM     28  C   UNL A   1      36.814  30.479  31.602  1.00  0.00     0.010 A 
ATOM     29  C   UNL A   1      38.293  32.557  29.781  1.00  0.00     0.010 A 
ATOM     30  C   UNL A   1      38.231  30.931  30.584  1.00  0.00    -0.014 A 
BRANCH  30  31
ATOM     31  C   UNL A   1      39.566  30.416  30.852  1.00  0.00     0.031 A 
ATOM     32  C   UNL A   1      39.933  29.162  30.175  1.00  0.00     0.074 A 
ATOM     33  C   UNL A   1      40.505  31.187  31.463  1.00  0.00     0.049 A 
ATOM     34  N   UNL A   1      41.064  28.590  30.354  1.00  0.00    -0.248 NA
ATOM     35  C   UNL A   1      39.058  28.413  29.270  1.00  0.00     0.031 C 
ATOM     36  C   UNL A   1      41.961  31.081  31.331  1.00  0.00     0.029 A 
ATOM     37  N   UNL A   1      40.388  32.232  32.367  1.00  0.00    -0.354 N 
ATOM     38  C   UNL A   1      41.178  27.581  29.438  1.00  0.00     0.074 A 
ATOM     39  C   UNL A   1      39.876  27.445  28.847  1.00  0.00     0.031 C 
ATOM     40  C   UNL A   1      42.562  31.820  32.279  1.00  0.00     0.029 A 
ATOM     41  C   UNL A   1      41.531  32.310  33.168  1.00  0.00     0.049 A 
ATOM     42  H   UNL A   1      39.610  32.833  32.436  1.00  0.00     0.167 HD
ATOM     43  C   UNL A   1      42.415  27.066  29.237  1.00  0.00     0.034 A 
ATOM     44  C   UNL A   1      41.536  32.118  34.526  1.00  0.00     0.034 A 
ATOM     45  C   UNL A   1      43.318  27.488  30.325  1.00  0.00     0.049 A 
ATOM     46  C   UNL A   1      42.223  30.800  34.920  1.00  0.00     0.074 A 
ATOM     47  C   UNL A   1      44.327  28.426  30.441  1.00  0.00     0.029 A 
ATOM     48  N   UNL A   1      42.957  27.161  31.632  1.00  0.00    -0.354 N 
ATOM     49  N   UNL A   1      42.822  29.978  34.098  1.00  0.00    -0.248 NA
ATOM     50  C   UNL A   1      42.180  30.264  36.276  1.00  0.00     0.031 C 
ATOM     51  C   UNL A   1      44.527  28.688  31.835  1.00  0.00     0.029 A 
ATOM     52  C   UNL A   1      43.694  27.861  32.573  1.00  0.00     0.049 A 
ATOM     53  H   UNL A   1      42.259  26.505  31.860  1.00  0.00     0.167 HD
ATOM     54  C   UNL A   1      43.021  28.757  34.707  1.00  0.00     0.074 A 
ATOM     55  C   UNL A   1      42.608  29.006  36.082  1.00  0.00     0.031 C 
ATOM     56  C   UNL A   1      43.442  27.644  34.008  1.00  0.00     0.034 A 
BRANCH  43  57
ATOM     57  C   UNL A   1      42.840  26.286  28.014  1.00  0.00     0.023 A 
ATOM     58  C   UNL A   1      43.576  26.987  27.037  1.00  0.00     0.012 A 
ATOM     59  C   UNL A   1      42.472  24.951  27.687  1.00  0.00     0.148 A 
ATOM     60  C   UNL A   1      43.919  26.412  25.808  1.00  0.00     0.002 A 
ATOM     61  C   UNL A   1      42.874  24.356  26.487  1.00  0.00     0.091 A 
ATOM     62  F   UNL A   1      41.646  24.266  28.484  1.00  0.00    -0.205 F 
ATOM     63  C   UNL A   1      43.582  25.093  25.536  1.00  0.00     0.022 A 
BRANCH  61  64
ATOM     64  S   UNL A   1      42.518  22.633  26.082  1.00  0.00     0.127 S 
ATOM     65  O   UNL A   1      43.163  21.918  27.184  1.00  0.00    -0.237 OA
ATOM     66  O   UNL A   1      41.055  22.598  26.112  1.00  0.00    -0.237 OA
ATOM     67  O   UNL A   1      43.098  22.392  24.767  1.00  0.00    -0.744 OA
ENDBRANCH  61  64
ENDBRANCH  43  57
BRANCH  44  68
ATOM     68  C   UNL A   1      40.301  32.655  35.188  1.00  0.00     0.023 A 
ATOM     69  C   UNL A   1      39.349  31.702  35.624  1.00  0.00     0.012 A 
ATOM     70  C   UNL A   1      40.333  33.908  35.808  1.00  0.00     0.148 A 
ATOM     71  C   UNL A   1      38.682  31.887  36.837  1.00  0.00     0.002 A 
ATOM     72  C   UNL A   1      39.676  34.087  37.013  1.00  0.00     0.091 A 
ATOM     73  F   UNL A   1      41.077  34.894  35.295  1.00  0.00    -0.205 F 
ATOM     74  C   UNL A   1      38.895  33.058  37.562  1.00  0.00     0.022 A 
BRANCH  72  75
ATOM     75  S   UNL A   1      40.134  35.521  38.003  1.00  0.00     0.127 S 
ATOM     76  O   UNL A   1      41.565  35.311  38.224  1.00  0.00    -0.237 OA
ATOM     77  O   UNL A   1      39.827  36.646  37.128  1.00  0.00    -0.237 OA
ATOM     78  O   UNL A   1      39.296  35.365  39.187  1.00  0.00    -0.744 OA
ENDBRANCH  72  75
ENDBRANCH  44  68
BRANCH  56  79
ATOM     79  C   UNL A   1      43.645  26.228  34.591  1.00  0.00     0.023 A 
ATOM     80  C   UNL A   1      42.573  25.400  34.973  1.00  0.00     0.012 A 
ATOM     81  C   UNL A   1      44.938  25.683  34.848  1.00  0.00     0.148 A 
ATOM     82  C   UNL A   1      42.750  24.100  35.469  1.00  0.00     0.002 A 
ATOM     83  C   UNL A   1      45.120  24.392  35.342  1.00  0.00     0.091 A 
ATOM     84  F   UNL A   1      46.032  26.430  34.686  1.00  0.00    -0.205 F 
ATOM     85  C   UNL A   1      44.025  23.588  35.639  1.00  0.00     0.022 A 
BRANCH  83  86
ATOM     86  S   UNL A   1      46.754  23.701  35.656  1.00  0.00     0.127 S 
ATOM     87  O   UNL A   1      46.416  22.361  36.137  1.00  0.00    -0.237 OA
ATOM     88  O   UNL A   1      47.356  23.736  34.324  1.00  0.00    -0.237 OA
ATOM     89  O   UNL A   1      47.389  24.573  36.633  1.00  0.00    -0.744 OA
ENDBRANCH  83  86
ENDBRANCH  56  79
ENDBRANCH  30  31
ENDBRANCH  23  25
ENDBRANCH  22  23
ENDBRANCH   1  22
TORSDOF 16
ENDMDL
MODEL 3
REMARK VINA RESULT:     -11.7      5.310     11.700
REMARK SMILES COc1ccc(-c2cc(F)cc(C(=O)OCCOC(=O)c3ccc(-c4c5nc(c(-c6cccc(S(=O)(=O)[O-])c6F)c6ccc([nH]6)c(-c6cccc(S(=O)(=O)[O-])c6F)c6nc(c(-c7cccc(S(=O)(=O)[O-])c7F)c7ccc4[nH]7)C=C6)C=C5)cc3)c2)cc1C
REMARK SMILES IDX 17 1 16 2 15 3 13 4 14 5 12 6 7 7 8 8 84 9 9 10 10 11 11 12
REMARK SMILES IDX 6 13 3 14 4 15 86 16 5 17 85 18 87 19 2 20 1 21 18 22 19 23
REMARK SMILES IDX 20 24 21 25 22 26 83 27 23 28 82 29 24 30 25 31 26 32 76 33
REMARK SMILES IDX 27 34 81 35 75 36 77 37 28 38 80 39 74 40 73 41 29 43 61 44
REMARK SMILES IDX 41 45 60 46 42 47 45 48 59 49 78 50 43 51 44 52 58 54 79 55
REMARK SMILES IDX 46 56 30 57 31 58 39 59 32 60 34 61 40 62 33 63 35 64 36 65
REMARK SMILES IDX 37 66 38 67 62 68 63 69 71 70 64 71 66 72 72 73 65 74 67 75
REMARK SMILES IDX 68 76 69 77 70 78 47 79 48 80 56 81 49 82 51 83 57 84 50 85
REMARK SMILES IDX 52 86 53 87 54 88 55 89
REMARK H PARENT 77 42 45 53
REMARK Flexibility Score: inf
ROOT
ATOM      1  C   UNL A   1      33.586  35.767  31.995  1.00  0.00     0.275 C 
ENDROOT
BRANCH   1   2
ATOM      2  C   UNL A   1      32.782  36.127  30.739  1.00  0.00     0.275 C 
BRANCH   2   3
ATOM      3  O   UNL A   1      32.677  34.950  29.928  1.00  0.00    -0.458 OA
BRANCH   3   4
ATOM      4  C   UNL A   1      33.753  34.737  28.905  1.00  0.00     0.338 C 
ATOM      5  O   UNL A   1      33.904  35.931  28.511  1.00  0.00    -0.246 OA
BRANCH   4   6
ATOM      6  C   UNL A   1      34.711  32.872  28.380  1.00  0.00     0.063 A 
ATOM      7  C   UNL A   1      34.626  30.219  27.604  1.00  0.00    -0.015 A 
ATOM      8  C   UNL A   1      35.986  30.053  27.718  1.00  0.00     0.048 A 
ATOM      9  C   UNL A   1      34.079  31.513  27.944  1.00  0.00     0.024 A 
ATOM     10  C   UNL A   1      36.732  31.145  28.100  1.00  0.00     0.124 A 
ATOM     11  F   UNL A   1      38.062  31.002  28.218  1.00  0.00    -0.207 F 
ATOM     12  C   UNL A   1      36.165  32.429  28.372  1.00  0.00     0.055 A 
BRANCH   7  13
ATOM     13  C   UNL A   1      33.726  29.137  27.135  1.00  0.00    -0.018 A 
ATOM     14  C   UNL A   1      31.965  27.043  26.359  1.00  0.00     0.121 A 
ATOM     15  C   UNL A   1      31.482  28.169  27.027  1.00  0.00     0.047 A 
ATOM     16  C   UNL A   1      33.329  26.954  26.049  1.00  0.00    -0.008 A 
ATOM     17  C   UNL A   1      32.350  29.197  27.413  1.00  0.00     0.012 A 
ATOM     18  C   UNL A   1      34.194  28.004  26.448  1.00  0.00     0.016 A 
ATOM     19  C   UNL A   1      33.910  25.769  25.332  1.00  0.00     0.048 C 
BRANCH  14  20
ATOM     20  O   UNL A   1      31.013  26.150  25.933  1.00  0.00    -0.496 OA
ATOM     21  C   UNL A   1      30.275  26.586  24.793  1.00  0.00     0.278 C 
ENDBRANCH  14  20
ENDBRANCH   7  13
ENDBRANCH   4   6
ENDBRANCH   3   4
ENDBRANCH   2   3
ENDBRANCH   1   2
BRANCH   1  22
ATOM     22  O   UNL A   1      33.451  34.394  32.463  1.00  0.00    -0.458 OA
BRANCH  22  23
ATOM     23  C   UNL A   1      34.450  33.487  32.235  1.00  0.00     0.338 C 
ATOM     24  O   UNL A   1      34.277  32.352  31.825  1.00  0.00    -0.246 OA
BRANCH  23  25
ATOM     25  C   UNL A   1      35.738  33.941  32.819  1.00  0.00     0.060 A 
ATOM     26  C   UNL A   1      36.916  34.571  31.600  1.00  0.00     0.016 A 
ATOM     27  C   UNL A   1      36.307  32.949  34.212  1.00  0.00     0.016 A 
ATOM     28  C   UNL A   1      38.709  34.137  31.749  1.00  0.00     0.010 A 
ATOM     29  C   UNL A   1      38.080  32.468  34.324  1.00  0.00     0.010 A 
ATOM     30  C   UNL A   1      39.262  33.056  33.079  1.00  0.00    -0.014 A 
BRANCH  30  31
ATOM     31  C   UNL A   1      40.361  32.119  32.903  1.00  0.00     0.031 A 
ATOM     32  C   UNL A   1      40.080  30.921  32.095  1.00  0.00     0.074 A 
ATOM     33  C   UNL A   1      41.636  32.463  33.230  1.00  0.00     0.049 A 
ATOM     34  N   UNL A   1      40.952  30.006  31.896  1.00  0.00    -0.248 NA
ATOM     35  C   UNL A   1      38.789  30.618  31.472  1.00  0.00     0.031 C 
ATOM     36  C   UNL A   1      42.873  31.929  32.653  1.00  0.00     0.029 A 
ATOM     37  N   UNL A   1      42.134  33.354  34.169  1.00  0.00    -0.354 N 
ATOM     38  C   UNL A   1      40.460  29.151  30.948  1.00  0.00     0.074 A 
ATOM     39  C   UNL A   1      39.081  29.513  30.779  1.00  0.00     0.031 C 
ATOM     40  C   UNL A   1      43.925  32.302  33.401  1.00  0.00     0.029 A 
ATOM     41  C   UNL A   1      43.409  32.958  34.583  1.00  0.00     0.049 A 
ATOM     42  H   UNL A   1      41.658  34.151  34.497  1.00  0.00     0.167 HD
ATOM     43  C   UNL A   1      41.343  28.310  30.356  1.00  0.00     0.034 A 
ATOM     44  C   UNL A   1      43.721  32.584  35.865  1.00  0.00     0.034 A 
ATOM     45  C   UNL A   1      42.597  28.272  31.132  1.00  0.00     0.049 A 
ATOM     46  C   UNL A   1      44.000  31.076  35.975  1.00  0.00     0.074 A 
ATOM     47  C   UNL A   1      43.856  28.823  30.972  1.00  0.00     0.029 A 
ATOM     48  N   UNL A   1      42.520  27.892  32.472  1.00  0.00    -0.354 N 
ATOM     49  N   UNL A   1      44.034  30.233  34.976  1.00  0.00    -0.248 NA
ATOM     50  C   UNL A   1      44.152  30.394  37.256  1.00  0.00     0.031 C 
ATOM     51  C   UNL A   1      44.507  28.809  32.248  1.00  0.00     0.029 A 
ATOM     52  C   UNL A   1      43.680  28.188  33.171  1.00  0.00     0.049 A 
ATOM     53  H   UNL A   1      41.732  27.462  32.876  1.00  0.00     0.167 HD
ATOM     54  C   UNL A   1      43.965  28.938  35.443  1.00  0.00     0.074 A 
ATOM     55  C   UNL A   1      44.057  29.106  36.888  1.00  0.00     0.031 C 
ATOM     56  C   UNL A   1      43.773  27.860  34.604  1.00  0.00     0.034 A 
BRANCH  43  57
ATOM     57  C   UNL A   1      41.124  27.618  29.031  1.00  0.00     0.023 A 
ATOM     58  C   UNL A   1      39.980  26.802  28.920  1.00  0.00     0.012 A 
ATOM     59  C   UNL A   1      42.015  27.604  27.922  1.00  0.00     0.148 A 
ATOM     60  C   UNL A   1      39.733  26.013  27.792  1.00  0.00     0.002 A 
ATOM     61  C   UNL A   1      41.733  26.868  26.767  1.00  0.00     0.091 A 
ATOM     62  F   UNL A   1      43.198  28.223  28.001  1.00  0.00    -0.205 F 
ATOM     63  C   UNL A   1      40.600  26.055  26.708  1.00  0.00     0.022 A 
BRANCH  61  64
ATOM     64  S   UNL A   1      42.784  26.908  25.300  1.00  0.00     0.127 S 
ATOM     65  O   UNL A   1      44.126  26.882  25.881  1.00  0.00    -0.237 OA
ATOM     66  O   UNL A   1      42.402  25.678  24.604  1.00  0.00    -0.237 OA
ATOM     67  O   UNL A   1      42.444  28.132  24.585  1.00  0.00    -0.744 OA
ENDBRANCH  61  64
ENDBRANCH  43  57
BRANCH  44  68
ATOM     68  C   UNL A   1      42.975  33.380  36.895  1.00  0.00     0.023 A 
ATOM     69  C   UNL A   1      43.153  34.785  36.864  1.00  0.00     0.012 A 
ATOM     70  C   UNL A   1      41.806  32.861  37.463  1.00  0.00     0.148 A 
ATOM     71  C   UNL A   1      42.068  35.631  37.098  1.00  0.00     0.002 A 
ATOM     72  C   UNL A   1      40.730  33.702  37.690  1.00  0.00     0.091 A 
ATOM     73  F   UNL A   1      41.694  31.548  37.689  1.00  0.00    -0.205 F 
ATOM     74  C   UNL A   1      40.837  35.081  37.453  1.00  0.00     0.022 A 
BRANCH  72  75
ATOM     75  S   UNL A   1      39.120  32.936  37.950  1.00  0.00     0.127 S 
ATOM     76  O   UNL A   1      38.194  33.987  37.527  1.00  0.00    -0.237 OA
ATOM     77  O   UNL A   1      39.150  31.779  37.064  1.00  0.00    -0.237 OA
ATOM     78  O   UNL A   1      39.132  32.663  39.384  1.00  0.00    -0.744 OA
ENDBRANCH  72  75
ENDBRANCH  44  68
BRANCH  56  79
ATOM     79  C   UNL A   1      43.635  26.383  35.037  1.00  0.00     0.023 A 
ATOM     80  C   UNL A   1      42.391  25.778  35.295  1.00  0.00     0.012 A 
ATOM     81  C   UNL A   1      44.765  25.545  35.274  1.00  0.00     0.148 A 
ATOM     82  C   UNL A   1      42.257  24.428  35.654  1.00  0.00     0.002 A 
ATOM     83  C   UNL A   1      44.637  24.204  35.632  1.00  0.00     0.091 A 
ATOM     84  F   UNL A   1      46.002  26.046  35.227  1.00  0.00    -0.205 F 
ATOM     85  C   UNL A   1      43.381  23.634  35.807  1.00  0.00     0.022 A 
BRANCH  83  86
ATOM     86  S   UNL A   1      46.065  23.143  35.920  1.00  0.00     0.127 S 
ATOM     87  O   UNL A   1      45.422  21.873  36.257  1.00  0.00    -0.237 OA
ATOM     88  O   UNL A   1      46.725  23.165  34.615  1.00  0.00    -0.237 OA
ATOM     89  O   UNL A   1      46.827  23.760  36.996  1.00  0.00    -0.744 OA
ENDBRANCH  83  86
ENDBRANCH  56  79
ENDBRANCH  30  31
ENDBRANCH  23  25
ENDBRANCH  22  23
ENDBRANCH   1  22
TORSDOF 16
ENDMDL
