MODEL 1
REMARK VINA RESULT:     -11.4      0.000      0.000
REMARK SMILES CC1(C)C(C(=O)N2CCOC[C@H]2C(=O)OCCOC(=O)c2ccc(-c3c4nc(c(-c5cccc(S(=O)(=O)[O-])c5F)c5ccc([nH]5)c(-c5cccc(S(=O)(=O)[O-])c5F)c5nc(c(-c6cccc(S(=O)(=O)[O-])c6F)c6ccc3[nH]6)C=C5)C=C4)cc2)C1(C)C
REMARK SMILES IDX 17 1 16 2 15 3 13 4 14 5 12 6 7 7 8 8 9 9 11 10 10 11 5 12
REMARK SMILES IDX 6 13 4 14 1 15 2 16 3 17 84 18 85 19 86 20 18 21 19 22 20 23
REMARK SMILES IDX 21 24 22 25 83 26 23 27 82 28 24 29 25 30 26 31 76 32 27 33
REMARK SMILES IDX 81 34 75 35 77 36 28 37 80 38 74 39 73 40 29 42 61 43 41 44
REMARK SMILES IDX 60 45 42 46 45 47 59 48 78 49 43 50 44 51 58 53 79 54 46 55
REMARK SMILES IDX 30 56 31 57 39 58 32 59 34 60 40 61 33 62 35 63 36 64 37 65
REMARK SMILES IDX 38 66 62 67 63 68 71 69 64 70 66 71 72 72 65 73 67 74 68 75
REMARK SMILES IDX 69 76 70 77 47 78 48 79 56 80 49 81 51 82 57 83 50 84 52 85
REMARK SMILES IDX 53 86 54 87 55 88
REMARK H PARENT 77 41 45 52
REMARK Flexibility Score: inf
ROOT
ATOM      1  C   UNL A   1      31.633  29.971  25.680  1.00  0.00     0.275 C 
ENDROOT
BRANCH   1   2
ATOM      2  C   UNL A   1      31.525  28.492  25.311  1.00  0.00     0.274 C 
BRANCH   2   3
ATOM      3  O   UNL A   1      32.832  27.940  25.069  1.00  0.00    -0.460 OA
BRANCH   3   4
ATOM      4  C   UNL A   1      32.942  26.588  25.120  1.00  0.00     0.331 C 
ATOM      5  O   UNL A   1      32.597  25.904  26.079  1.00  0.00    -0.250 OA
BRANCH   4   6
ATOM      6  C   UNL A   1      33.678  25.985  23.915  1.00  0.00     0.221 C 
ATOM      7  N   UNL A   1      33.270  24.669  23.365  1.00  0.00    -0.324 N 
ATOM      8  C   UNL A   1      31.981  24.661  22.694  1.00  0.00     0.149 C 
ATOM      9  C   UNL A   1      31.902  25.800  21.666  1.00  0.00     0.181 C 
ATOM     10  C   UNL A   1      33.602  27.023  22.790  1.00  0.00     0.197 C 
ATOM     11  O   UNL A   1      32.277  27.071  22.223  1.00  0.00    -0.377 OA
BRANCH   7  12
ATOM     12  C   UNL A   1      34.190  23.638  23.432  1.00  0.00     0.227 C 
ATOM     13  O   UNL A   1      35.230  23.685  22.774  1.00  0.00    -0.275 OA
BRANCH  12  14
ATOM     14  C   UNL A   1      33.990  22.372  24.207  1.00  0.00     0.091 C 
ATOM     15  C   UNL A   1      34.072  19.971  25.105  1.00  0.00     0.012 C 
ATOM     16  C   UNL A   1      34.817  21.295  24.920  1.00  0.00    -0.017 C 
ATOM     17  C   UNL A   1      36.296  21.033  24.839  1.00  0.00     0.012 C 
ATOM     18  C   UNL A   1      34.357  22.522  25.706  1.00  0.00    -0.017 C 
ATOM     19  C   UNL A   1      33.294  22.370  26.766  1.00  0.00     0.012 C 
ATOM     20  C   UNL A   1      35.333  23.635  26.071  1.00  0.00     0.012 C 
ENDBRANCH  12  14
ENDBRANCH   7  12
ENDBRANCH   4   6
ENDBRANCH   3   4
ENDBRANCH   2   3
ENDBRANCH   1   2
BRANCH   1  21
ATOM     21  O   UNL A   1      33.001  30.341  25.915  1.00  0.00    -0.458 OA
BRANCH  21  22
ATOM     22  C   UNL A   1      33.189  31.286  26.869  1.00  0.00     0.338 C 
ATOM     23  O   UNL A   1      32.427  32.181  27.189  1.00  0.00    -0.246 OA
BRANCH  22  24
ATOM     24  C   UNL A   1      34.452  30.994  27.560  1.00  0.00     0.060 A 
ATOM     25  C   UNL A   1      35.351  32.038  27.782  1.00  0.00     0.016 A 
ATOM     26  C   UNL A   1      34.757  29.695  27.963  1.00  0.00     0.016 A 
ATOM     27  C   UNL A   1      36.565  31.793  28.414  1.00  0.00     0.010 A 
ATOM     28  C   UNL A   1      35.968  29.453  28.614  1.00  0.00     0.010 A 
ATOM     29  C   UNL A   1      36.878  30.501  28.846  1.00  0.00    -0.014 A 
BRANCH  29  30
ATOM     30  C   UNL A   1      38.147  30.238  29.565  1.00  0.00     0.031 A 
ATOM     31  C   UNL A   1      39.165  29.309  28.975  1.00  0.00     0.074 A 
ATOM     32  C   UNL A   1      38.342  30.790  30.777  1.00  0.00     0.049 A 
ATOM     33  N   UNL A   1      40.247  28.820  29.520  1.00  0.00    -0.248 NA
ATOM     34  C   UNL A   1      38.930  28.862  27.593  1.00  0.00     0.031 C 
ATOM     35  C   UNL A   1      37.424  31.717  31.441  1.00  0.00     0.029 A 
ATOM     36  N   UNL A   1      39.358  30.618  31.685  1.00  0.00    -0.354 N 
ATOM     37  C   UNL A   1      40.796  27.968  28.571  1.00  0.00     0.074 A 
ATOM     38  C   UNL A   1      39.933  28.014  27.410  1.00  0.00     0.031 C 
ATOM     39  C   UNL A   1      37.898  32.004  32.663  1.00  0.00     0.029 A 
ATOM     40  C   UNL A   1      39.120  31.239  32.889  1.00  0.00     0.049 A 
ATOM     41  H   UNL A   1      40.174  30.102  31.493  1.00  0.00     0.167 HD
ATOM     42  C   UNL A   1      41.921  27.220  28.665  1.00  0.00     0.034 A 
ATOM     43  C   UNL A   1      39.779  31.158  34.061  1.00  0.00     0.034 A 
ATOM     44  C   UNL A   1      42.788  27.211  29.814  1.00  0.00     0.049 A 
ATOM     45  C   UNL A   1      41.007  30.294  34.145  1.00  0.00     0.074 A 
ATOM     46  C   UNL A   1      43.988  26.542  29.979  1.00  0.00     0.029 A 
ATOM     47  N   UNL A   1      42.542  27.890  30.997  1.00  0.00    -0.354 N 
ATOM     48  N   UNL A   1      41.579  29.579  33.206  1.00  0.00    -0.248 NA
ATOM     49  C   UNL A   1      41.692  30.236  35.444  1.00  0.00     0.031 C 
ATOM     50  C   UNL A   1      44.448  26.786  31.277  1.00  0.00     0.029 A 
ATOM     51  C   UNL A   1      43.552  27.634  31.910  1.00  0.00     0.049 A 
ATOM     52  H   UNL A   1      41.763  28.469  31.165  1.00  0.00     0.167 HD
ATOM     53  C   UNL A   1      42.701  29.004  33.793  1.00  0.00     0.074 A 
ATOM     54  C   UNL A   1      42.742  29.478  35.161  1.00  0.00     0.031 C 
ATOM     55  C   UNL A   1      43.602  28.147  33.255  1.00  0.00     0.034 A 
BRANCH  42  56
ATOM     56  C   UNL A   1      42.290  26.350  27.493  1.00  0.00     0.023 A 
ATOM     57  C   UNL A   1      43.100  26.866  26.462  1.00  0.00     0.012 A 
ATOM     58  C   UNL A   1      41.894  24.998  27.452  1.00  0.00     0.148 A 
ATOM     59  C   UNL A   1      43.489  26.058  25.393  1.00  0.00     0.002 A 
ATOM     60  C   UNL A   1      42.320  24.187  26.406  1.00  0.00     0.091 A 
ATOM     61  F   UNL A   1      41.107  24.533  28.431  1.00  0.00    -0.205 F 
ATOM     62  C   UNL A   1      43.109  24.718  25.372  1.00  0.00     0.022 A 
BRANCH  60  63
ATOM     63  S   UNL A   1      41.948  22.432  26.326  1.00  0.00     0.127 S 
ATOM     64  O   UNL A   1      42.654  22.037  25.108  1.00  0.00    -0.237 OA
ATOM     65  O   UNL A   1      42.546  21.934  27.565  1.00  0.00    -0.237 OA
ATOM     66  O   UNL A   1      40.497  22.328  26.266  1.00  0.00    -0.744 OA
ENDBRANCH  60  63
ENDBRANCH  42  56
BRANCH  43  67
ATOM     67  C   UNL A   1      39.282  31.910  35.248  1.00  0.00     0.023 A 
ATOM     68  C   UNL A   1      38.394  31.286  36.143  1.00  0.00     0.012 A 
ATOM     69  C   UNL A   1      39.707  33.229  35.507  1.00  0.00     0.148 A 
ATOM     70  C   UNL A   1      37.916  31.970  37.262  1.00  0.00     0.002 A 
ATOM     71  C   UNL A   1      39.274  33.883  36.654  1.00  0.00     0.091 A 
ATOM     72  F   UNL A   1      40.538  33.813  34.633  1.00  0.00    -0.205 F 
ATOM     73  C   UNL A   1      38.365  33.261  37.524  1.00  0.00     0.022 A 
BRANCH  71  74
ATOM     74  S   UNL A   1      39.901  35.495  37.138  1.00  0.00     0.127 S 
ATOM     75  O   UNL A   1      39.174  35.738  38.382  1.00  0.00    -0.237 OA
ATOM     76  O   UNL A   1      41.330  35.228  37.302  1.00  0.00    -0.237 OA
ATOM     77  O   UNL A   1      39.581  36.390  36.032  1.00  0.00    -0.744 OA
ENDBRANCH  71  74
ENDBRANCH  43  67
BRANCH  55  78
ATOM     78  C   UNL A   1      44.726  27.673  34.139  1.00  0.00     0.023 A 
ATOM     79  C   UNL A   1      45.923  28.412  34.202  1.00  0.00     0.012 A 
ATOM     80  C   UNL A   1      44.564  26.544  34.966  1.00  0.00     0.148 A 
ATOM     81  C   UNL A   1      46.954  28.021  35.054  1.00  0.00     0.002 A 
ATOM     82  C   UNL A   1      45.576  26.188  35.850  1.00  0.00     0.091 A 
ATOM     83  F   UNL A   1      43.422  25.847  34.880  1.00  0.00    -0.205 F 
ATOM     84  C   UNL A   1      46.776  26.918  35.886  1.00  0.00     0.022 A 
BRANCH  82  85
ATOM     85  S   UNL A   1      45.403  24.842  37.026  1.00  0.00     0.127 S 
ATOM     86  O   UNL A   1      46.671  24.916  37.751  1.00  0.00    -0.237 OA
ATOM     87  O   UNL A   1      44.233  25.257  37.800  1.00  0.00    -0.237 OA
ATOM     88  O   UNL A   1      45.209  23.635  36.234  1.00  0.00    -0.744 OA
ENDBRANCH  82  85
ENDBRANCH  55  78
ENDBRANCH  29  30
ENDBRANCH  22  24
ENDBRANCH  21  22
ENDBRANCH   1  21
TORSDOF 16
ENDMDL
MODEL 2
REMARK VINA RESULT:     -11.4      4.789      9.864
REMARK SMILES CC1(C)C(C(=O)N2CCOC[C@H]2C(=O)OCCOC(=O)c2ccc(-c3c4nc(c(-c5cccc(S(=O)(=O)[O-])c5F)c5ccc([nH]5)c(-c5cccc(S(=O)(=O)[O-])c5F)c5nc(c(-c6cccc(S(=O)(=O)[O-])c6F)c6ccc3[nH]6)C=C5)C=C4)cc2)C1(C)C
REMARK SMILES IDX 17 1 16 2 15 3 13 4 14 5 12 6 7 7 8 8 9 9 11 10 10 11 5 12
REMARK SMILES IDX 6 13 4 14 1 15 2 16 3 17 84 18 85 19 86 20 18 21 19 22 20 23
REMARK SMILES IDX 21 24 22 25 83 26 23 27 82 28 24 29 25 30 26 31 76 32 27 33
REMARK SMILES IDX 81 34 75 35 77 36 28 37 80 38 74 39 73 40 29 42 61 43 41 44
REMARK SMILES IDX 60 45 42 46 45 47 59 48 78 49 43 50 44 51 58 53 79 54 46 55
REMARK SMILES IDX 30 56 31 57 39 58 32 59 34 60 40 61 33 62 35 63 36 64 37 65
REMARK SMILES IDX 38 66 62 67 63 68 71 69 64 70 66 71 72 72 65 73 67 74 68 75
REMARK SMILES IDX 69 76 70 77 47 78 48 79 56 80 49 81 51 82 57 83 50 84 52 85
REMARK SMILES IDX 53 86 54 87 55 88
REMARK H PARENT 77 41 45 52
REMARK Flexibility Score: inf
ROOT
ATOM      1  C   UNL A   1      36.520  21.055  24.661  1.00  0.00     0.275 C 
ENDROOT
BRANCH   1   2
ATOM      2  C   UNL A   1      35.226  20.299  24.954  1.00  0.00     0.274 C 
BRANCH   2   3
ATOM      3  O   UNL A   1      34.362  21.091  25.789  1.00  0.00    -0.460 OA
BRANCH   3   4
ATOM      4  C   UNL A   1      33.083  21.255  25.364  1.00  0.00     0.331 C 
ATOM      5  O   UNL A   1      32.307  20.329  25.144  1.00  0.00    -0.250 OA
BRANCH   4   6
ATOM      6  C   UNL A   1      32.724  22.711  25.038  1.00  0.00     0.221 C 
ATOM      7  N   UNL A   1      33.756  23.643  24.520  1.00  0.00    -0.324 N 
ATOM      8  C   UNL A   1      34.214  23.360  23.170  1.00  0.00     0.149 C 
ATOM      9  C   UNL A   1      33.016  23.191  22.222  1.00  0.00     0.181 C 
ATOM     10  C   UNL A   1      31.569  22.663  24.031  1.00  0.00     0.197 C 
ATOM     11  O   UNL A   1      32.039  22.266  22.727  1.00  0.00    -0.377 OA
BRANCH   7  12
ATOM     12  C   UNL A   1      34.079  24.735  25.307  1.00  0.00     0.227 C 
ATOM     13  O   UNL A   1      35.236  24.910  25.689  1.00  0.00    -0.275 OA
BRANCH  12  14
ATOM     14  C   UNL A   1      33.085  25.728  25.827  1.00  0.00     0.091 C 
ATOM     15  C   UNL A   1      31.860  27.561  27.137  1.00  0.00     0.012 C 
ATOM     16  C   UNL A   1      32.991  27.221  26.164  1.00  0.00    -0.017 C 
ATOM     17  C   UNL A   1      34.100  28.228  26.308  1.00  0.00     0.012 C 
ATOM     18  C   UNL A   1      32.640  26.751  24.752  1.00  0.00    -0.017 C 
ATOM     19  C   UNL A   1      31.203  26.791  24.292  1.00  0.00     0.012 C 
ATOM     20  C   UNL A   1      33.591  26.986  23.584  1.00  0.00     0.012 C 
ENDBRANCH  12  14
ENDBRANCH   7  12
ENDBRANCH   4   6
ENDBRANCH   3   4
ENDBRANCH   2   3
ENDBRANCH   1   2
BRANCH   1  21
ATOM     21  O   UNL A   1      37.167  21.455  25.880  1.00  0.00    -0.458 OA
BRANCH  21  22
ATOM     22  C   UNL A   1      38.489  21.163  25.956  1.00  0.00     0.338 C 
ATOM     23  O   UNL A   1      39.044  20.135  25.610  1.00  0.00    -0.246 OA
BRANCH  22  24
ATOM     24  C   UNL A   1      39.194  22.357  26.439  1.00  0.00     0.060 A 
ATOM     25  C   UNL A   1      40.326  22.190  27.237  1.00  0.00     0.016 A 
ATOM     26  C   UNL A   1      38.726  23.633  26.126  1.00  0.00     0.016 A 
ATOM     27  C   UNL A   1      41.006  23.299  27.729  1.00  0.00     0.010 A 
ATOM     28  C   UNL A   1      39.420  24.746  26.604  1.00  0.00     0.010 A 
ATOM     29  C   UNL A   1      40.565  24.587  27.406  1.00  0.00    -0.014 A 
BRANCH  29  30
ATOM     30  C   UNL A   1      41.311  25.775  27.883  1.00  0.00     0.031 A 
ATOM     31  C   UNL A   1      40.603  26.839  28.667  1.00  0.00     0.074 A 
ATOM     32  C   UNL A   1      42.607  25.916  27.548  1.00  0.00     0.049 A 
ATOM     33  N   UNL A   1      41.031  28.022  29.021  1.00  0.00    -0.248 NA
ATOM     34  C   UNL A   1      39.230  26.538  29.102  1.00  0.00     0.031 C 
ATOM     35  C   UNL A   1      43.396  24.937  26.799  1.00  0.00     0.029 A 
ATOM     36  N   UNL A   1      43.476  26.957  27.759  1.00  0.00    -0.354 N 
ATOM     37  C   UNL A   1      39.966  28.629  29.674  1.00  0.00     0.074 A 
ATOM     38  C   UNL A   1      38.873  27.679  29.677  1.00  0.00     0.031 C 
ATOM     39  C   UNL A   1      44.622  25.439  26.580  1.00  0.00     0.029 A 
ATOM     40  C   UNL A   1      44.685  26.791  27.123  1.00  0.00     0.049 A 
ATOM     41  H   UNL A   1      43.258  27.743  28.310  1.00  0.00     0.167 HD
ATOM     42  C   UNL A   1      39.912  29.865  30.223  1.00  0.00     0.034 A 
ATOM     43  C   UNL A   1      45.707  27.651  26.948  1.00  0.00     0.034 A 
ATOM     44  C   UNL A   1      41.017  30.786  30.242  1.00  0.00     0.049 A 
ATOM     45  C   UNL A   1      45.605  29.031  27.541  1.00  0.00     0.074 A 
ATOM     46  C   UNL A   1      41.085  32.035  30.835  1.00  0.00     0.029 A 
ATOM     47  N   UNL A   1      42.242  30.566  29.631  1.00  0.00    -0.354 N 
ATOM     48  N   UNL A   1      44.636  29.554  28.252  1.00  0.00    -0.248 NA
ATOM     49  C   UNL A   1      46.744  29.933  27.322  1.00  0.00     0.031 C 
ATOM     50  C   UNL A   1      42.338  32.586  30.549  1.00  0.00     0.029 A 
ATOM     51  C   UNL A   1      43.064  31.667  29.806  1.00  0.00     0.049 A 
ATOM     52  H   UNL A   1      42.492  29.748  29.144  1.00  0.00     0.167 HD
ATOM     53  C   UNL A   1      45.055  30.837  28.583  1.00  0.00     0.074 A 
ATOM     54  C   UNL A   1      46.379  31.000  28.019  1.00  0.00     0.031 C 
ATOM     55  C   UNL A   1      44.396  31.799  29.275  1.00  0.00     0.034 A 
BRANCH  42  56
ATOM     56  C   UNL A   1      38.616  30.301  30.856  1.00  0.00     0.023 A 
ATOM     57  C   UNL A   1      38.386  30.055  32.225  1.00  0.00     0.012 A 
ATOM     58  C   UNL A   1      37.660  31.019  30.110  1.00  0.00     0.148 A 
ATOM     59  C   UNL A   1      37.211  30.495  32.835  1.00  0.00     0.002 A 
ATOM     60  C   UNL A   1      36.512  31.490  30.735  1.00  0.00     0.091 A 
ATOM     61  F   UNL A   1      37.889  31.223  28.805  1.00  0.00    -0.205 F 
ATOM     62  C   UNL A   1      36.282  31.221  32.094  1.00  0.00     0.022 A 
BRANCH  60  63
ATOM     63  S   UNL A   1      35.290  32.498  29.888  1.00  0.00     0.127 S 
ATOM     64  O   UNL A   1      34.296  32.703  30.941  1.00  0.00    -0.237 OA
ATOM     65  O   UNL A   1      36.064  33.691  29.541  1.00  0.00    -0.237 OA
ATOM     66  O   UNL A   1      34.838  31.713  28.749  1.00  0.00    -0.744 OA
ENDBRANCH  60  63
ENDBRANCH  42  56
BRANCH  43  67
ATOM     67  C   UNL A   1      46.906  27.233  26.169  1.00  0.00     0.023 A 
ATOM     68  C   UNL A   1      46.971  27.509  24.790  1.00  0.00     0.012 A 
ATOM     69  C   UNL A   1      47.993  26.588  26.793  1.00  0.00     0.148 A 
ATOM     70  C   UNL A   1      48.084  27.128  24.041  1.00  0.00     0.002 A 
ATOM     71  C   UNL A   1      49.124  26.264  26.052  1.00  0.00     0.091 A 
ATOM     72  F   UNL A   1      47.906  26.315  28.102  1.00  0.00    -0.205 F 
ATOM     73  C   UNL A   1      49.164  26.517  24.672  1.00  0.00     0.022 A 
BRANCH  71  74
ATOM     74  S   UNL A   1      50.610  25.595  26.807  1.00  0.00     0.127 S 
ATOM     75  O   UNL A   1      51.472  25.393  25.645  1.00  0.00    -0.237 OA
ATOM     76  O   UNL A   1      51.017  26.686  27.694  1.00  0.00    -0.237 OA
ATOM     77  O   UNL A   1      50.189  24.385  27.501  1.00  0.00    -0.744 OA
ENDBRANCH  71  74
ENDBRANCH  43  67
BRANCH  55  78
ATOM     78  C   UNL A   1      45.100  33.115  29.478  1.00  0.00     0.023 A 
ATOM     79  C   UNL A   1      45.974  33.277  30.570  1.00  0.00     0.012 A 
ATOM     80  C   UNL A   1      44.957  34.160  28.544  1.00  0.00     0.148 A 
ATOM     81  C   UNL A   1      46.676  34.468  30.746  1.00  0.00     0.002 A 
ATOM     82  C   UNL A   1      45.697  35.326  28.697  1.00  0.00     0.091 A 
ATOM     83  F   UNL A   1      44.109  33.989  27.519  1.00  0.00    -0.205 F 
ATOM     84  C   UNL A   1      46.548  35.486  29.803  1.00  0.00     0.022 A 
BRANCH  82  85
ATOM     85  S   UNL A   1      45.671  36.654  27.488  1.00  0.00     0.127 S 
ATOM     86  O   UNL A   1      44.320  37.186  27.660  1.00  0.00    -0.237 OA
ATOM     87  O   UNL A   1      46.739  37.531  27.971  1.00  0.00    -0.237 OA
ATOM     88  O   UNL A   1      45.935  36.032  26.198  1.00  0.00    -0.744 OA
ENDBRANCH  82  85
ENDBRANCH  55  78
ENDBRANCH  29  30
ENDBRANCH  22  24
ENDBRANCH  21  22
ENDBRANCH   1  21
TORSDOF 16
ENDMDL
MODEL 3
REMARK VINA RESULT:     -11.2      0.889      1.756
REMARK SMILES CC1(C)C(C(=O)N2CCOC[C@H]2C(=O)OCCOC(=O)c2ccc(-c3c4nc(c(-c5cccc(S(=O)(=O)[O-])c5F)c5ccc([nH]5)c(-c5cccc(S(=O)(=O)[O-])c5F)c5nc(c(-c6cccc(S(=O)(=O)[O-])c6F)c6ccc3[nH]6)C=C5)C=C4)cc2)C1(C)C
REMARK SMILES IDX 17 1 16 2 15 3 13 4 14 5 12 6 7 7 8 8 9 9 11 10 10 11 5 12
REMARK SMILES IDX 6 13 4 14 1 15 2 16 3 17 84 18 85 19 86 20 18 21 19 22 20 23
REMARK SMILES IDX 21 24 22 25 83 26 23 27 82 28 24 29 25 30 26 31 76 32 27 33
REMARK SMILES IDX 81 34 75 35 77 36 28 37 80 38 74 39 73 40 29 42 61 43 41 44
REMARK SMILES IDX 60 45 42 46 45 47 59 48 78 49 43 50 44 51 58 53 79 54 46 55
REMARK SMILES IDX 30 56 31 57 39 58 32 59 34 60 40 61 33 62 35 63 36 64 37 65
REMARK SMILES IDX 38 66 62 67 63 68 71 69 64 70 66 71 72 72 65 73 67 74 68 75
REMARK SMILES IDX 69 76 70 77 47 78 48 79 56 80 49 81 51 82 57 83 50 84 52 85
REMARK SMILES IDX 53 86 54 87 55 88
REMARK H PARENT 77 41 45 52
REMARK Flexibility Score: inf
ROOT
ATOM      1  C   UNL A   1      31.737  30.012  25.529  1.00  0.00     0.275 C 
ENDROOT
BRANCH   1   2
ATOM      2  C   UNL A   1      31.720  29.346  24.154  1.00  0.00     0.274 C 
BRANCH   2   3
ATOM      3  O   UNL A   1      30.842  28.206  24.162  1.00  0.00    -0.460 OA
BRANCH   3   4
ATOM      4  C   UNL A   1      30.791  27.467  23.024  1.00  0.00     0.331 C 
ATOM      5  O   UNL A   1      30.204  27.814  22.003  1.00  0.00    -0.250 OA
BRANCH   4   6
ATOM      6  C   UNL A   1      31.418  26.073  23.167  1.00  0.00     0.221 C 
ATOM      7  N   UNL A   1      32.562  25.853  24.088  1.00  0.00    -0.324 N 
ATOM      8  C   UNL A   1      32.236  25.949  25.500  1.00  0.00     0.149 C 
ATOM      9  C   UNL A   1      31.013  25.079  25.831  1.00  0.00     0.181 C 
ATOM     10  C   UNL A   1      30.286  25.121  23.569  1.00  0.00     0.197 C 
ATOM     11  O   UNL A   1      29.907  25.323  24.946  1.00  0.00    -0.377 OA
BRANCH   7  12
ATOM     12  C   UNL A   1      33.764  25.463  23.526  1.00  0.00     0.227 C 
ATOM     13  O   UNL A   1      33.973  25.623  22.323  1.00  0.00    -0.275 OA
BRANCH  12  14
ATOM     14  C   UNL A   1      34.857  24.756  24.268  1.00  0.00     0.091 C 
ATOM     15  C   UNL A   1      36.366  23.701  26.053  1.00  0.00     0.012 C 
ATOM     16  C   UNL A   1      35.033  23.639  25.305  1.00  0.00    -0.017 C 
ATOM     17  C   UNL A   1      33.994  22.990  26.178  1.00  0.00     0.012 C 
ATOM     18  C   UNL A   1      35.031  23.282  23.818  1.00  0.00    -0.017 C 
ATOM     19  C   UNL A   1      36.315  22.838  23.160  1.00  0.00     0.012 C 
ATOM     20  C   UNL A   1      33.827  22.609  23.170  1.00  0.00     0.012 C 
ENDBRANCH  12  14
ENDBRANCH   7  12
ENDBRANCH   4   6
ENDBRANCH   3   4
ENDBRANCH   2   3
ENDBRANCH   1   2
BRANCH   1  21
ATOM     21  O   UNL A   1      33.085  30.223  25.979  1.00  0.00    -0.458 OA
BRANCH  21  22
ATOM     22  C   UNL A   1      33.244  31.226  26.877  1.00  0.00     0.338 C 
ATOM     23  O   UNL A   1      32.466  32.127  27.131  1.00  0.00    -0.246 OA
BRANCH  22  24
ATOM     24  C   UNL A   1      34.499  30.992  27.604  1.00  0.00     0.060 A 
ATOM     25  C   UNL A   1      34.760  29.714  28.098  1.00  0.00     0.016 A 
ATOM     26  C   UNL A   1      35.401  32.034  27.816  1.00  0.00     0.016 A 
ATOM     27  C   UNL A   1      35.929  29.462  28.809  1.00  0.00     0.010 A 
ATOM     28  C   UNL A   1      36.584  31.777  28.513  1.00  0.00     0.010 A 
ATOM     29  C   UNL A   1      36.856  30.490  29.011  1.00  0.00    -0.014 A 
BRANCH  29  30
ATOM     30  C   UNL A   1      38.127  30.222  29.723  1.00  0.00     0.031 A 
ATOM     31  C   UNL A   1      39.119  29.256  29.148  1.00  0.00     0.074 A 
ATOM     32  C   UNL A   1      38.348  30.802  30.917  1.00  0.00     0.049 A 
ATOM     33  N   UNL A   1      40.198  28.761  29.695  1.00  0.00    -0.248 NA
ATOM     34  C   UNL A   1      38.860  28.776  27.781  1.00  0.00     0.031 C 
ATOM     35  C   UNL A   1      37.456  31.767  31.564  1.00  0.00     0.029 A 
ATOM     36  N   UNL A   1      39.370  30.635  31.818  1.00  0.00    -0.354 N 
ATOM     37  C   UNL A   1      40.719  27.871  28.764  1.00  0.00     0.074 A 
ATOM     38  C   UNL A   1      39.844  27.903  27.611  1.00  0.00     0.031 C 
ATOM     39  C   UNL A   1      37.949  32.077  32.773  1.00  0.00     0.029 A 
ATOM     40  C   UNL A   1      39.158  31.294  33.007  1.00  0.00     0.049 A 
ATOM     41  H   UNL A   1      40.173  30.098  31.632  1.00  0.00     0.167 HD
ATOM     42  C   UNL A   1      41.830  27.104  28.866  1.00  0.00     0.034 A 
ATOM     43  C   UNL A   1      39.829  31.232  34.173  1.00  0.00     0.034 A 
ATOM     44  C   UNL A   1      42.709  27.109  30.005  1.00  0.00     0.049 A 
ATOM     45  C   UNL A   1      41.041  30.345  34.268  1.00  0.00     0.074 A 
ATOM     46  C   UNL A   1      43.897  26.421  30.176  1.00  0.00     0.029 A 
ATOM     47  N   UNL A   1      42.491  27.825  31.172  1.00  0.00    -0.354 N 
ATOM     48  N   UNL A   1      41.587  29.594  33.344  1.00  0.00    -0.248 NA
ATOM     49  C   UNL A   1      41.739  30.310  35.561  1.00  0.00     0.031 C 
ATOM     50  C   UNL A   1      44.377  26.691  31.462  1.00  0.00     0.029 A 
ATOM     51  C   UNL A   1      43.506  27.574  32.080  1.00  0.00     0.049 A 
ATOM     52  H   UNL A   1      41.726  28.424  31.332  1.00  0.00     0.167 HD
ATOM     53  C   UNL A   1      42.704  29.013  33.934  1.00  0.00     0.074 A 
ATOM     54  C   UNL A   1      42.771  29.523  35.288  1.00  0.00     0.031 C 
ATOM     55  C   UNL A   1      43.582  28.123  33.410  1.00  0.00     0.034 A 
BRANCH  42  56
ATOM     56  C   UNL A   1      42.168  26.194  27.715  1.00  0.00     0.023 A 
ATOM     57  C   UNL A   1      43.015  26.650  26.684  1.00  0.00     0.012 A 
ATOM     58  C   UNL A   1      41.705  24.863  27.693  1.00  0.00     0.148 A 
ATOM     59  C   UNL A   1      43.374  25.803  25.636  1.00  0.00     0.002 A 
ATOM     60  C   UNL A   1      42.101  24.013  26.668  1.00  0.00     0.091 A 
ATOM     61  F   UNL A   1      40.884  24.456  28.672  1.00  0.00    -0.205 F 
ATOM     62  C   UNL A   1      42.928  24.483  25.634  1.00  0.00     0.022 A 
BRANCH  60  63
ATOM     63  S   UNL A   1      41.643  22.277  26.615  1.00  0.00     0.127 S 
ATOM     64  O   UNL A   1      42.284  21.841  25.376  1.00  0.00    -0.237 OA
ATOM     65  O   UNL A   1      42.261  21.759  27.836  1.00  0.00    -0.237 OA
ATOM     66  O   UNL A   1      40.188  22.243  26.609  1.00  0.00    -0.744 OA
ENDBRANCH  60  63
ENDBRANCH  42  56
BRANCH  43  67
ATOM     67  C   UNL A   1      39.361  32.026  35.344  1.00  0.00     0.023 A 
ATOM     68  C   UNL A   1      38.490  31.437  36.280  1.00  0.00     0.012 A 
ATOM     69  C   UNL A   1      39.796  33.352  35.549  1.00  0.00     0.148 A 
ATOM     70  C   UNL A   1      38.040  32.162  37.384  1.00  0.00     0.002 A 
ATOM     71  C   UNL A   1      39.390  34.046  36.682  1.00  0.00     0.091 A 
ATOM     72  F   UNL A   1      40.609  33.902  34.637  1.00  0.00    -0.205 F 
ATOM     73  C   UNL A   1      38.498  33.459  37.592  1.00  0.00     0.022 A 
BRANCH  71  74
ATOM     74  S   UNL A   1      40.033  35.672  37.096  1.00  0.00     0.127 S 
ATOM     75  O   UNL A   1      39.653  36.453  35.921  1.00  0.00    -0.237 OA
ATOM     76  O   UNL A   1      39.289  35.991  38.315  1.00  0.00    -0.237 OA
ATOM     77  O   UNL A   1      41.465  35.489  37.298  1.00  0.00    -0.744 OA
ENDBRANCH  71  74
ENDBRANCH  43  67
BRANCH  55  78
ATOM     78  C   UNL A   1      44.705  27.651  34.294  1.00  0.00     0.023 A 
ATOM     79  C   UNL A   1      45.910  28.378  34.339  1.00  0.00     0.012 A 
ATOM     80  C   UNL A   1      44.537  26.537  35.140  1.00  0.00     0.148 A 
ATOM     81  C   UNL A   1      46.943  27.989  35.190  1.00  0.00     0.002 A 
ATOM     82  C   UNL A   1      45.551  26.183  36.023  1.00  0.00     0.091 A 
ATOM     83  F   UNL A   1      43.387  25.850  35.071  1.00  0.00    -0.205 F 
ATOM     84  C   UNL A   1      46.758  26.901  36.041  1.00  0.00     0.022 A 
BRANCH  82  85
ATOM     85  S   UNL A   1      45.371  24.857  37.221  1.00  0.00     0.127 S 
ATOM     86  O   UNL A   1      45.145  23.702  36.354  1.00  0.00    -0.237 OA
ATOM     87  O   UNL A   1      46.671  24.871  37.893  1.00  0.00    -0.237 OA
ATOM     88  O   UNL A   1      44.247  25.228  38.070  1.00  0.00    -0.744 OA
ENDBRANCH  82  85
ENDBRANCH  55  78
ENDBRANCH  29  30
ENDBRANCH  22  24
ENDBRANCH  21  22
ENDBRANCH   1  21
TORSDOF 16
ENDMDL
