MODEL 1
REMARK VINA RESULT:     -11.8      0.000      0.000
REMARK SMILES CC(C)[NH2+][C@]1(C(=O)OCCOC(=O)c2ccc(-c3c4nc(c(-c5cccc(S(=O)(=O)[O-])c5F)c5ccc([nH]5)c(-c5cccc(S(=O)(=O)[O-])c5F)c5nc(c(-c6cccc(S(=O)(=O)[O-])c6F)c6ccc3[nH]6)C=C5)C=C4)cc2)CC[C@H]([NH+]2CCC(C)(C)CC2)C1
REMARK SMILES IDX 10 1 9 2 8 3 6 4 7 5 5 6 77 7 88 8 78 9 79 10 4 11 2 14 1 15
REMARK SMILES IDX 3 16 80 17 81 18 87 19 82 21 86 22 83 23 84 24 85 25 11 26
REMARK SMILES IDX 12 27 13 28 14 29 15 30 76 31 16 32 75 33 17 34 18 35 19 36
REMARK SMILES IDX 69 37 20 38 74 39 68 40 70 41 21 42 73 43 67 44 66 45 22 47
REMARK SMILES IDX 54 48 34 49 53 50 35 51 38 52 52 53 71 54 36 55 37 56 51 58
REMARK SMILES IDX 72 59 39 60 23 61 24 62 32 63 25 64 27 65 33 66 26 67 28 68
REMARK SMILES IDX 29 69 30 70 31 71 55 72 56 73 64 74 57 75 59 76 65 77 58 78
REMARK SMILES IDX 60 79 61 80 62 81 63 82 40 83 41 84 49 85 42 86 44 87 50 88
REMARK SMILES IDX 43 89 45 90 46 91 47 92 48 93
REMARK H PARENT 4 12 4 13 80 20 70 46 38 57
REMARK Flexibility Score: inf
ROOT
ATOM      1  C   UNL A   1      36.406  20.680  24.946  1.00  0.00     0.275 C 
ENDROOT
BRANCH   1   2
ATOM      2  C   UNL A   1      34.935  21.103  24.970  1.00  0.00     0.274 C 
BRANCH   2   3
ATOM      3  O   UNL A   1      34.750  22.439  24.465  1.00  0.00    -0.457 OA
BRANCH   3   4
ATOM      4  C   UNL A   1      33.540  22.724  23.906  1.00  0.00     0.368 C 
ATOM      5  O   UNL A   1      32.979  21.998  23.094  1.00  0.00    -0.245 OA
BRANCH   4   6
ATOM      6  C   UNL A   1      33.012  24.123  24.311  1.00  0.00     0.200 C 
ATOM      7  C   UNL A   1      33.796  24.487  25.598  1.00  0.00     0.087 C 
ATOM      8  C   UNL A   1      33.485  25.255  23.365  1.00  0.00     0.146 C 
ATOM      9  C   UNL A   1      33.805  26.008  25.678  1.00  0.00     0.072 C 
ATOM     10  C   UNL A   1      33.814  26.502  24.221  1.00  0.00     0.191 C 
BRANCH   6  11
ATOM     11  N   UNL A   1      31.559  24.164  24.625  1.00  0.00    -0.330 N 
ATOM     12  H   UNL A   1      31.194  25.024  24.213  1.00  0.00     0.347 HD
ATOM     13  H   UNL A   1      31.215  23.279  24.253  1.00  0.00     0.347 HD
BRANCH  11  14
ATOM     14  C   UNL A   1      31.104  24.140  26.022  1.00  0.00     0.176 C 
ATOM     15  C   UNL A   1      30.032  25.232  26.149  1.00  0.00     0.075 C 
ATOM     16  C   UNL A   1      30.496  22.836  26.535  1.00  0.00     0.075 C 
ENDBRANCH  11  14
ENDBRANCH   6  11
BRANCH  10  17
ATOM     17  N   UNL A   1      32.997  27.712  23.948  1.00  0.00    -0.332 N 
ATOM     18  C   UNL A   1      32.102  28.017  25.076  1.00  0.00     0.263 C 
ATOM     19  C   UNL A   1      32.327  27.691  22.649  1.00  0.00     0.263 C 
ATOM     20  H   UNL A   1      33.647  28.494  23.873  1.00  0.00     0.348 HD
ATOM     21  C   UNL A   1      31.133  29.181  24.815  1.00  0.00     0.068 C 
ATOM     22  C   UNL A   1      31.393  28.867  22.385  1.00  0.00     0.068 C 
ATOM     23  C   UNL A   1      30.349  29.018  23.499  1.00  0.00    -0.025 C 
ATOM     24  C   UNL A   1      29.496  30.263  23.219  1.00  0.00     0.011 C 
ATOM     25  C   UNL A   1      29.406  27.798  23.557  1.00  0.00     0.011 C 
ENDBRANCH  10  17
ENDBRANCH   4   6
ENDBRANCH   3   4
ENDBRANCH   2   3
ENDBRANCH   1   2
BRANCH   1  26
ATOM     26  O   UNL A   1      37.179  21.471  25.867  1.00  0.00    -0.458 OA
BRANCH  26  27
ATOM     27  C   UNL A   1      38.494  21.182  25.947  1.00  0.00     0.338 C 
ATOM     28  O   UNL A   1      39.050  20.150  25.589  1.00  0.00    -0.246 OA
BRANCH  27  29
ATOM     29  C   UNL A   1      39.226  22.363  26.430  1.00  0.00     0.060 A 
ATOM     30  C   UNL A   1      38.814  23.621  25.985  1.00  0.00     0.016 A 
ATOM     31  C   UNL A   1      40.327  22.241  27.275  1.00  0.00     0.016 A 
ATOM     32  C   UNL A   1      39.496  24.769  26.376  1.00  0.00     0.010 A 
ATOM     33  C   UNL A   1      41.006  23.394  27.679  1.00  0.00     0.010 A 
ATOM     34  C   UNL A   1      40.598  24.664  27.228  1.00  0.00    -0.014 A 
BRANCH  34  35
ATOM     35  C   UNL A   1      41.322  25.882  27.659  1.00  0.00     0.031 A 
ATOM     36  C   UNL A   1      40.609  26.943  28.442  1.00  0.00     0.074 A 
ATOM     37  C   UNL A   1      42.613  26.043  27.313  1.00  0.00     0.049 A 
ATOM     38  N   UNL A   1      41.036  28.121  28.812  1.00  0.00    -0.248 NA
ATOM     39  C   UNL A   1      39.232  26.641  28.865  1.00  0.00     0.031 C 
ATOM     40  C   UNL A   1      43.413  25.072  26.563  1.00  0.00     0.029 A 
ATOM     41  N   UNL A   1      43.468  27.097  27.515  1.00  0.00    -0.354 N 
ATOM     42  C   UNL A   1      39.973  28.719  29.475  1.00  0.00     0.074 A 
ATOM     43  C   UNL A   1      38.880  27.770  29.462  1.00  0.00     0.031 C 
ATOM     44  C   UNL A   1      44.631  25.591  26.339  1.00  0.00     0.029 A 
ATOM     45  C   UNL A   1      44.684  26.941  26.895  1.00  0.00     0.049 A 
ATOM     46  H   UNL A   1      43.232  27.887  28.053  1.00  0.00     0.167 HD
ATOM     47  C   UNL A   1      39.920  29.943  30.051  1.00  0.00     0.034 A 
ATOM     48  C   UNL A   1      45.712  27.801  26.757  1.00  0.00     0.034 A 
ATOM     49  C   UNL A   1      41.021  30.870  30.089  1.00  0.00     0.049 A 
ATOM     50  C   UNL A   1      45.612  29.166  27.383  1.00  0.00     0.074 A 
ATOM     51  C   UNL A   1      41.078  32.112  30.696  1.00  0.00     0.029 A 
ATOM     52  N   UNL A   1      42.253  30.660  29.491  1.00  0.00    -0.354 N 
ATOM     53  N   UNL A   1      44.643  29.676  28.102  1.00  0.00    -0.248 NA
ATOM     54  C   UNL A   1      46.760  30.067  27.197  1.00  0.00     0.031 C 
ATOM     55  C   UNL A   1      42.341  32.661  30.449  1.00  0.00     0.029 A 
ATOM     56  C   UNL A   1      43.074  31.756  29.701  1.00  0.00     0.049 A 
ATOM     57  H   UNL A   1      42.508  29.851  28.991  1.00  0.00     0.167 HD
ATOM     58  C   UNL A   1      45.071  30.945  28.475  1.00  0.00     0.074 A 
ATOM     59  C   UNL A   1      46.400  31.116  27.924  1.00  0.00     0.031 C 
ATOM     60  C   UNL A   1      44.414  31.892  29.190  1.00  0.00     0.034 A 
BRANCH  47  61
ATOM     61  C   UNL A   1      38.635  30.345  30.719  1.00  0.00     0.023 A 
ATOM     62  C   UNL A   1      38.421  30.009  32.071  1.00  0.00     0.012 A 
ATOM     63  C   UNL A   1      37.670  31.109  30.034  1.00  0.00     0.148 A 
ATOM     64  C   UNL A   1      37.258  30.411  32.726  1.00  0.00     0.002 A 
ATOM     65  C   UNL A   1      36.529  31.536  30.704  1.00  0.00     0.091 A 
ATOM     66  F   UNL A   1      37.880  31.396  28.742  1.00  0.00    -0.205 F 
ATOM     67  C   UNL A   1      36.319  31.183  32.047  1.00  0.00     0.022 A 
BRANCH  65  68
ATOM     68  S   UNL A   1      35.295  32.589  29.933  1.00  0.00     0.127 S 
ATOM     69  O   UNL A   1      34.377  32.832  31.045  1.00  0.00    -0.237 OA
ATOM     70  O   UNL A   1      36.086  33.752  29.530  1.00  0.00    -0.237 OA
ATOM     71  O   UNL A   1      34.747  31.818  28.824  1.00  0.00    -0.744 OA
ENDBRANCH  65  68
ENDBRANCH  47  61
BRANCH  48  72
ATOM     72  C   UNL A   1      46.932  27.386  26.011  1.00  0.00     0.023 A 
ATOM     73  C   UNL A   1      47.901  26.596  26.657  1.00  0.00     0.012 A 
ATOM     74  C   UNL A   1      47.124  27.743  24.661  1.00  0.00     0.148 A 
ATOM     75  C   UNL A   1      49.051  26.189  25.981  1.00  0.00     0.002 A 
ATOM     76  C   UNL A   1      48.245  27.290  23.978  1.00  0.00     0.091 A 
ATOM     77  F   UNL A   1      46.203  28.517  24.070  1.00  0.00    -0.205 F 
ATOM     78  C   UNL A   1      49.218  26.525  24.639  1.00  0.00     0.022 A 
BRANCH  76  79
ATOM     79  S   UNL A   1      48.470  27.569  22.218  1.00  0.00     0.127 S 
ATOM     80  O   UNL A   1      49.660  28.415  22.197  1.00  0.00    -0.237 OA
ATOM     81  O   UNL A   1      48.673  26.210  21.714  1.00  0.00    -0.237 OA
ATOM     82  O   UNL A   1      47.234  28.194  21.764  1.00  0.00    -0.744 OA
ENDBRANCH  76  79
ENDBRANCH  48  72
BRANCH  60  83
ATOM     83  C   UNL A   1      45.125  33.197  29.435  1.00  0.00     0.023 A 
ATOM     84  C   UNL A   1      45.927  33.343  30.584  1.00  0.00     0.012 A 
ATOM     85  C   UNL A   1      45.058  34.247  28.499  1.00  0.00     0.148 A 
ATOM     86  C   UNL A   1      46.631  34.525  30.811  1.00  0.00     0.002 A 
ATOM     87  C   UNL A   1      45.797  35.406  28.710  1.00  0.00     0.091 A 
ATOM     88  F   UNL A   1      44.272  34.098  27.423  1.00  0.00    -0.205 F 
ATOM     89  C   UNL A   1      46.576  35.551  29.869  1.00  0.00     0.022 A 
BRANCH  87  90
ATOM     90  S   UNL A   1      45.852  36.740  27.507  1.00  0.00     0.127 S 
ATOM     91  O   UNL A   1      44.473  37.225  27.535  1.00  0.00    -0.237 OA
ATOM     92  O   UNL A   1      46.831  37.654  28.096  1.00  0.00    -0.237 OA
ATOM     93  O   UNL A   1      46.279  36.128  26.256  1.00  0.00    -0.744 OA
ENDBRANCH  87  90
ENDBRANCH  60  83
ENDBRANCH  34  35
ENDBRANCH  27  29
ENDBRANCH  26  27
ENDBRANCH   1  26
TORSDOF 17
ENDMDL
MODEL 2
REMARK VINA RESULT:     -11.7      5.360     10.322
REMARK SMILES CC(C)[NH2+][C@]1(C(=O)OCCOC(=O)c2ccc(-c3c4nc(c(-c5cccc(S(=O)(=O)[O-])c5F)c5ccc([nH]5)c(-c5cccc(S(=O)(=O)[O-])c5F)c5nc(c(-c6cccc(S(=O)(=O)[O-])c6F)c6ccc3[nH]6)C=C5)C=C4)cc2)CC[C@H]([NH+]2CCC(C)(C)CC2)C1
REMARK SMILES IDX 10 1 9 2 8 3 6 4 7 5 5 6 77 7 88 8 78 9 79 10 4 11 2 14 1 15
REMARK SMILES IDX 3 16 80 17 81 18 87 19 82 21 86 22 83 23 84 24 85 25 11 26
REMARK SMILES IDX 12 27 13 28 14 29 15 30 76 31 16 32 75 33 17 34 18 35 19 36
REMARK SMILES IDX 69 37 20 38 74 39 68 40 70 41 21 42 73 43 67 44 66 45 22 47
REMARK SMILES IDX 54 48 34 49 53 50 35 51 38 52 52 53 71 54 36 55 37 56 51 58
REMARK SMILES IDX 72 59 39 60 23 61 24 62 32 63 25 64 27 65 33 66 26 67 28 68
REMARK SMILES IDX 29 69 30 70 31 71 55 72 56 73 64 74 57 75 59 76 65 77 58 78
REMARK SMILES IDX 60 79 61 80 62 81 63 82 40 83 41 84 49 85 42 86 44 87 50 88
REMARK SMILES IDX 43 89 45 90 46 91 47 92 48 93
REMARK H PARENT 4 12 4 13 80 20 70 46 38 57
REMARK Flexibility Score: inf
ROOT
ATOM      1  C   UNL A   1      31.565  29.873  25.208  1.00  0.00     0.275 C 
ENDROOT
BRANCH   1   2
ATOM      2  C   UNL A   1      31.336  28.434  24.737  1.00  0.00     0.274 C 
BRANCH   2   3
ATOM      3  O   UNL A   1      32.229  27.507  25.383  1.00  0.00    -0.457 OA
BRANCH   3   4
ATOM      4  C   UNL A   1      31.688  26.334  25.821  1.00  0.00     0.368 C 
ATOM      5  O   UNL A   1      30.698  26.270  26.540  1.00  0.00    -0.245 OA
BRANCH   4   6
ATOM      6  C   UNL A   1      32.533  25.101  25.418  1.00  0.00     0.200 C 
ATOM      7  C   UNL A   1      33.986  25.631  25.312  1.00  0.00     0.087 C 
ATOM      8  C   UNL A   1      32.696  24.067  26.561  1.00  0.00     0.146 C 
ATOM      9  C   UNL A   1      34.897  24.434  25.544  1.00  0.00     0.072 C 
ATOM     10  C   UNL A   1      34.142  23.518  26.521  1.00  0.00     0.191 C 
BRANCH   6  11
ATOM     11  N   UNL A   1      32.162  24.502  24.109  1.00  0.00    -0.330 N 
ATOM     12  H   UNL A   1      32.350  23.502  24.180  1.00  0.00     0.347 HD
ATOM     13  H   UNL A   1      31.192  24.793  23.987  1.00  0.00     0.347 HD
BRANCH  11  14
ATOM     14  C   UNL A   1      32.807  24.967  22.873  1.00  0.00     0.176 C 
ATOM     15  C   UNL A   1      33.229  23.707  22.103  1.00  0.00     0.075 C 
ATOM     16  C   UNL A   1      31.969  25.825  21.929  1.00  0.00     0.075 C 
ENDBRANCH  11  14
ENDBRANCH   6  11
BRANCH  10  17
ATOM     17  N   UNL A   1      34.277  22.061  26.271  1.00  0.00    -0.332 N 
ATOM     18  C   UNL A   1      34.999  21.800  25.015  1.00  0.00     0.263 C 
ATOM     19  C   UNL A   1      33.022  21.321  26.396  1.00  0.00     0.263 C 
ATOM     20  H   UNL A   1      34.855  21.686  27.022  1.00  0.00     0.348 HD
ATOM     21  C   UNL A   1      35.067  20.316  24.623  1.00  0.00     0.068 C 
ATOM     22  C   UNL A   1      33.105  19.842  26.036  1.00  0.00     0.068 C 
ATOM     23  C   UNL A   1      33.684  19.636  24.631  1.00  0.00    -0.025 C 
ATOM     24  C   UNL A   1      33.820  18.130  24.362  1.00  0.00     0.011 C 
ATOM     25  C   UNL A   1      32.761  20.231  23.548  1.00  0.00     0.011 C 
ENDBRANCH  10  17
ENDBRANCH   4   6
ENDBRANCH   3   4
ENDBRANCH   2   3
ENDBRANCH   1   2
BRANCH   1  26
ATOM     26  O   UNL A   1      32.870  30.013  25.799  1.00  0.00    -0.458 OA
BRANCH  26  27
ATOM     27  C   UNL A   1      33.004  30.980  26.731  1.00  0.00     0.338 C 
ATOM     28  O   UNL A   1      32.188  31.845  27.025  1.00  0.00    -0.246 OA
BRANCH  27  29
ATOM     29  C   UNL A   1      34.261  30.778  27.467  1.00  0.00     0.060 A 
ATOM     30  C   UNL A   1      34.604  29.477  27.843  1.00  0.00     0.016 A 
ATOM     31  C   UNL A   1      35.077  31.851  27.820  1.00  0.00     0.016 A 
ATOM     32  C   UNL A   1      35.761  29.233  28.576  1.00  0.00     0.010 A 
ATOM     33  C   UNL A   1      36.246  31.607  28.547  1.00  0.00     0.010 A 
ATOM     34  C   UNL A   1      36.592  30.298  28.933  1.00  0.00    -0.014 A 
BRANCH  34  35
ATOM     35  C   UNL A   1      37.832  30.046  29.703  1.00  0.00     0.031 A 
ATOM     36  C   UNL A   1      38.873  29.111  29.167  1.00  0.00     0.074 A 
ATOM     37  C   UNL A   1      37.999  30.637  30.902  1.00  0.00     0.049 A 
ATOM     38  N   UNL A   1      39.965  28.678  29.740  1.00  0.00    -0.248 NA
ATOM     39  C   UNL A   1      38.658  28.590  27.807  1.00  0.00     0.031 C 
ATOM     40  C   UNL A   1      37.059  31.575  31.519  1.00  0.00     0.029 A 
ATOM     41  N   UNL A   1      39.001  30.506  31.830  1.00  0.00    -0.354 N 
ATOM     42  C   UNL A   1      40.550  27.806  28.832  1.00  0.00     0.074 A 
ATOM     43  C   UNL A   1      39.693  27.774  27.665  1.00  0.00     0.031 C 
ATOM     44  C   UNL A   1      37.513  31.909  32.737  1.00  0.00     0.029 A 
ATOM     45  C   UNL A   1      38.752  31.181  33.001  1.00  0.00     0.049 A 
ATOM     46  H   UNL A   1      39.819  29.982  31.671  1.00  0.00     0.167 HD
ATOM     47  C   UNL A   1      41.701  27.106  28.956  1.00  0.00     0.034 A 
ATOM     48  C   UNL A   1      39.425  31.184  34.168  1.00  0.00     0.034 A 
ATOM     49  C   UNL A   1      42.566  27.166  30.105  1.00  0.00     0.049 A 
ATOM     50  C   UNL A   1      40.686  30.372  34.288  1.00  0.00     0.074 A 
ATOM     51  C   UNL A   1      43.781  26.533  30.301  1.00  0.00     0.029 A 
ATOM     52  N   UNL A   1      42.307  27.895  31.254  1.00  0.00    -0.354 N 
ATOM     53  N   UNL A   1      41.285  29.639  33.382  1.00  0.00    -0.248 NA
ATOM     54  C   UNL A   1      41.378  30.407  35.585  1.00  0.00     0.031 C 
ATOM     55  C   UNL A   1      44.248  26.866  31.577  1.00  0.00     0.029 A 
ATOM     56  C   UNL A   1      43.330  27.717  32.170  1.00  0.00     0.049 A 
ATOM     57  H   UNL A   1      41.512  28.458  31.398  1.00  0.00     0.167 HD
ATOM     58  C   UNL A   1      42.434  29.144  33.989  1.00  0.00     0.074 A 
ATOM     59  C   UNL A   1      42.461  29.684  35.333  1.00  0.00     0.031 C 
ATOM     60  C   UNL A   1      43.371  28.302  33.486  1.00  0.00     0.034 A 
BRANCH  47  61
ATOM     61  C   UNL A   1      42.115  26.231  27.805  1.00  0.00     0.023 A 
ATOM     62  C   UNL A   1      42.997  26.739  26.830  1.00  0.00     0.012 A 
ATOM     63  C   UNL A   1      41.687  24.892  27.723  1.00  0.00     0.148 A 
ATOM     64  C   UNL A   1      43.433  25.933  25.780  1.00  0.00     0.002 A 
ATOM     65  C   UNL A   1      42.153  24.084  26.692  1.00  0.00     0.091 A 
ATOM     66  F   UNL A   1      40.828  24.436  28.645  1.00  0.00    -0.205 F 
ATOM     67  C   UNL A   1      43.020  24.604  25.717  1.00  0.00     0.022 A 
BRANCH  65  68
ATOM     68  S   UNL A   1      41.729  22.342  26.564  1.00  0.00     0.127 S 
ATOM     69  O   UNL A   1      42.483  21.942  25.378  1.00  0.00    -0.237 OA
ATOM     70  O   UNL A   1      42.244  21.805  27.824  1.00  0.00    -0.237 OA
ATOM     71  O   UNL A   1      40.280  22.292  26.433  1.00  0.00    -0.744 OA
ENDBRANCH  65  68
ENDBRANCH  47  61
BRANCH  48  72
ATOM     72  C   UNL A   1      38.927  32.001  35.310  1.00  0.00     0.023 A 
ATOM     73  C   UNL A   1      39.020  33.404  35.247  1.00  0.00     0.012 A 
ATOM     74  C   UNL A   1      38.338  31.400  36.440  1.00  0.00     0.148 A 
ATOM     75  C   UNL A   1      38.557  34.193  36.300  1.00  0.00     0.002 A 
ATOM     76  C   UNL A   1      37.831  32.194  37.461  1.00  0.00     0.091 A 
ATOM     77  F   UNL A   1      38.282  30.061  36.494  1.00  0.00    -0.205 F 
ATOM     78  C   UNL A   1      37.952  33.591  37.400  1.00  0.00     0.022 A 
BRANCH  76  79
ATOM     79  S   UNL A   1      36.924  31.504  38.849  1.00  0.00     0.127 S 
ATOM     80  O   UNL A   1      37.873  31.675  39.944  1.00  0.00    -0.237 OA
ATOM     81  O   UNL A   1      35.748  32.373  38.911  1.00  0.00    -0.237 OA
ATOM     82  O   UNL A   1      36.627  30.127  38.471  1.00  0.00    -0.744 OA
ENDBRANCH  76  79
ENDBRANCH  48  72
BRANCH  60  83
ATOM     83  C   UNL A   1      44.517  27.920  34.385  1.00  0.00     0.023 A 
ATOM     84  C   UNL A   1      45.674  28.723  34.411  1.00  0.00     0.012 A 
ATOM     85  C   UNL A   1      44.423  26.812  35.250  1.00  0.00     0.148 A 
ATOM     86  C   UNL A   1      46.730  28.415  35.267  1.00  0.00     0.002 A 
ATOM     87  C   UNL A   1      45.462  26.537  36.132  1.00  0.00     0.091 A 
ATOM     88  F   UNL A   1      43.322  26.047  35.195  1.00  0.00    -0.205 F 
ATOM     89  C   UNL A   1      46.620  27.331  36.136  1.00  0.00     0.022 A 
BRANCH  87  90
ATOM     90  S   UNL A   1      45.365  25.213  37.344  1.00  0.00     0.127 S 
ATOM     91  O   UNL A   1      46.770  25.035  37.705  1.00  0.00    -0.237 OA
ATOM     92  O   UNL A   1      44.537  25.808  38.393  1.00  0.00    -0.237 OA
ATOM     93  O   UNL A   1      44.745  24.089  36.654  1.00  0.00    -0.744 OA
ENDBRANCH  87  90
ENDBRANCH  60  83
ENDBRANCH  34  35
ENDBRANCH  27  29
ENDBRANCH  26  27
ENDBRANCH   1  26
TORSDOF 17
ENDMDL
MODEL 3
REMARK VINA RESULT:     -11.5      1.607      2.281
REMARK SMILES CC(C)[NH2+][C@]1(C(=O)OCCOC(=O)c2ccc(-c3c4nc(c(-c5cccc(S(=O)(=O)[O-])c5F)c5ccc([nH]5)c(-c5cccc(S(=O)(=O)[O-])c5F)c5nc(c(-c6cccc(S(=O)(=O)[O-])c6F)c6ccc3[nH]6)C=C5)C=C4)cc2)CC[C@H]([NH+]2CCC(C)(C)CC2)C1
REMARK SMILES IDX 10 1 9 2 8 3 6 4 7 5 5 6 77 7 88 8 78 9 79 10 4 11 2 14 1 15
REMARK SMILES IDX 3 16 80 17 81 18 87 19 82 21 86 22 83 23 84 24 85 25 11 26
REMARK SMILES IDX 12 27 13 28 14 29 15 30 76 31 16 32 75 33 17 34 18 35 19 36
REMARK SMILES IDX 69 37 20 38 74 39 68 40 70 41 21 42 73 43 67 44 66 45 22 47
REMARK SMILES IDX 54 48 34 49 53 50 35 51 38 52 52 53 71 54 36 55 37 56 51 58
REMARK SMILES IDX 72 59 39 60 23 61 24 62 32 63 25 64 27 65 33 66 26 67 28 68
REMARK SMILES IDX 29 69 30 70 31 71 55 72 56 73 64 74 57 75 59 76 65 77 58 78
REMARK SMILES IDX 60 79 61 80 62 81 63 82 40 83 41 84 49 85 42 86 44 87 50 88
REMARK SMILES IDX 43 89 45 90 46 91 47 92 48 93
REMARK H PARENT 4 12 4 13 80 20 70 46 38 57
REMARK Flexibility Score: inf
ROOT
ATOM      1  C   UNL A   1      36.500  20.894  24.619  1.00  0.00     0.275 C 
ENDROOT
BRANCH   1   2
ATOM      2  C   UNL A   1      35.169  20.250  25.018  1.00  0.00     0.274 C 
BRANCH   2   3
ATOM      3  O   UNL A   1      34.352  21.142  25.799  1.00  0.00    -0.457 OA
BRANCH   3   4
ATOM      4  C   UNL A   1      33.004  21.075  25.601  1.00  0.00     0.368 C 
ATOM      5  O   UNL A   1      32.377  20.023  25.547  1.00  0.00    -0.245 OA
BRANCH   4   6
ATOM      6  C   UNL A   1      32.372  22.462  25.326  1.00  0.00     0.200 C 
ATOM      7  C   UNL A   1      31.096  22.499  26.205  1.00  0.00     0.087 C 
ATOM      8  C   UNL A   1      33.173  23.635  25.946  1.00  0.00     0.146 C 
ATOM      9  C   UNL A   1      30.799  23.969  26.468  1.00  0.00     0.072 C 
ATOM     10  C   UNL A   1      32.168  24.669  26.507  1.00  0.00     0.191 C 
BRANCH   6  11
ATOM     11  N   UNL A   1      31.969  22.685  23.913  1.00  0.00    -0.330 N 
ATOM     12  H   UNL A   1      31.047  22.261  23.801  1.00  0.00     0.347 HD
ATOM     13  H   UNL A   1      32.040  23.697  23.807  1.00  0.00     0.347 HD
BRANCH  11  14
ATOM     14  C   UNL A   1      32.804  22.175  22.816  1.00  0.00     0.176 C 
ATOM     15  C   UNL A   1      31.999  21.056  22.140  1.00  0.00     0.075 C 
ATOM     16  C   UNL A   1      33.213  23.168  21.731  1.00  0.00     0.075 C 
ENDBRANCH  11  14
ENDBRANCH   6  11
BRANCH  10  17
ATOM     17  N   UNL A   1      32.215  26.021  25.893  1.00  0.00    -0.332 N 
ATOM     18  C   UNL A   1      31.307  26.114  24.739  1.00  0.00     0.263 C 
ATOM     19  C   UNL A   1      33.570  26.498  25.620  1.00  0.00     0.263 C 
ATOM     20  H   UNL A   1      31.865  26.674  26.593  1.00  0.00     0.348 HD
ATOM     21  C   UNL A   1      31.396  27.443  23.972  1.00  0.00     0.068 C 
ATOM     22  C   UNL A   1      33.650  27.833  24.888  1.00  0.00     0.068 C 
ATOM     23  C   UNL A   1      32.842  27.810  23.585  1.00  0.00    -0.025 C 
ATOM     24  C   UNL A   1      32.893  29.202  22.940  1.00  0.00     0.011 C 
ATOM     25  C   UNL A   1      33.426  26.797  22.577  1.00  0.00     0.011 C 
ENDBRANCH  10  17
ENDBRANCH   4   6
ENDBRANCH   3   4
ENDBRANCH   2   3
ENDBRANCH   1   2
BRANCH   1  26
ATOM     26  O   UNL A   1      37.139  21.491  25.761  1.00  0.00    -0.458 OA
BRANCH  26  27
ATOM     27  C   UNL A   1      38.427  21.150  25.973  1.00  0.00     0.338 C 
ATOM     28  O   UNL A   1      38.963  20.080  25.710  1.00  0.00    -0.246 OA
BRANCH  27  29
ATOM     29  C   UNL A   1      39.168  22.319  26.469  1.00  0.00     0.060 A 
ATOM     30  C   UNL A   1      38.756  23.587  26.052  1.00  0.00     0.016 A 
ATOM     31  C   UNL A   1      40.277  22.178  27.301  1.00  0.00     0.016 A 
ATOM     32  C   UNL A   1      39.445  24.725  26.458  1.00  0.00     0.010 A 
ATOM     33  C   UNL A   1      40.965  23.321  27.719  1.00  0.00     0.010 A 
ATOM     34  C   UNL A   1      40.556  24.601  27.296  1.00  0.00    -0.014 A 
BRANCH  34  35
ATOM     35  C   UNL A   1      41.288  25.808  27.742  1.00  0.00     0.031 A 
ATOM     36  C   UNL A   1      40.576  26.877  28.514  1.00  0.00     0.074 A 
ATOM     37  C   UNL A   1      42.588  25.951  27.420  1.00  0.00     0.049 A 
ATOM     38  N   UNL A   1      41.012  28.049  28.893  1.00  0.00    -0.248 NA
ATOM     39  C   UNL A   1      39.187  26.593  28.912  1.00  0.00     0.031 C 
ATOM     40  C   UNL A   1      43.387  24.972  26.682  1.00  0.00     0.029 A 
ATOM     41  N   UNL A   1      43.453  26.994  27.639  1.00  0.00    -0.354 N 
ATOM     42  C   UNL A   1      39.946  28.661  29.538  1.00  0.00     0.074 A 
ATOM     43  C   UNL A   1      38.840  27.727  29.504  1.00  0.00     0.031 C 
ATOM     44  C   UNL A   1      44.616  25.474  26.482  1.00  0.00     0.029 A 
ATOM     45  C   UNL A   1      44.678  26.822  27.041  1.00  0.00     0.049 A 
ATOM     46  H   UNL A   1      43.218  27.787  28.174  1.00  0.00     0.167 HD
ATOM     47  C   UNL A   1      39.899  29.884  30.115  1.00  0.00     0.034 A 
ATOM     48  C   UNL A   1      45.719  27.669  26.924  1.00  0.00     0.034 A 
ATOM     49  C   UNL A   1      41.011  30.796  30.174  1.00  0.00     0.049 A 
ATOM     50  C   UNL A   1      45.627  29.034  27.549  1.00  0.00     0.074 A 
ATOM     51  C   UNL A   1      41.074  32.037  30.784  1.00  0.00     0.029 A 
ATOM     52  N   UNL A   1      42.251  30.570  29.599  1.00  0.00    -0.354 N 
ATOM     53  N   UNL A   1      44.652  29.556  28.252  1.00  0.00    -0.248 NA
ATOM     54  C   UNL A   1      46.790  29.919  27.386  1.00  0.00     0.031 C 
ATOM     55  C   UNL A   1      42.348  32.569  30.562  1.00  0.00     0.029 A 
ATOM     56  C   UNL A   1      43.082  31.654  29.825  1.00  0.00     0.049 A 
ATOM     57  H   UNL A   1      42.504  29.758  29.102  1.00  0.00     0.167 HD
ATOM     58  C   UNL A   1      45.090  30.818  28.634  1.00  0.00     0.074 A 
ATOM     59  C   UNL A   1      46.431  30.972  28.108  1.00  0.00     0.031 C 
ATOM     60  C   UNL A   1      44.434  31.773  29.340  1.00  0.00     0.034 A 
BRANCH  47  61
ATOM     61  C   UNL A   1      38.607  30.303  30.761  1.00  0.00     0.023 A 
ATOM     62  C   UNL A   1      38.386  30.013  32.122  1.00  0.00     0.012 A 
ATOM     63  C   UNL A   1      37.643  31.038  30.043  1.00  0.00     0.148 A 
ATOM     64  C   UNL A   1      37.217  30.432  32.755  1.00  0.00     0.002 A 
ATOM     65  C   UNL A   1      36.496  31.482  30.691  1.00  0.00     0.091 A 
ATOM     66  F   UNL A   1      37.861  31.280  28.743  1.00  0.00    -0.205 F 
ATOM     67  C   UNL A   1      36.278  31.174  32.044  1.00  0.00     0.022 A 
BRANCH  65  68
ATOM     68  S   UNL A   1      35.261  32.501  29.875  1.00  0.00     0.127 S 
ATOM     69  O   UNL A   1      34.304  32.728  30.956  1.00  0.00    -0.237 OA
ATOM     70  O   UNL A   1      36.037  33.680  29.490  1.00  0.00    -0.237 OA
ATOM     71  O   UNL A   1      34.767  31.711  28.755  1.00  0.00    -0.744 OA
ENDBRANCH  65  68
ENDBRANCH  47  61
BRANCH  48  72
ATOM     72  C   UNL A   1      46.947  27.238  26.198  1.00  0.00     0.023 A 
ATOM     73  C   UNL A   1      47.073  27.521  24.825  1.00  0.00     0.012 A 
ATOM     74  C   UNL A   1      47.999  26.577  26.864  1.00  0.00     0.148 A 
ATOM     75  C   UNL A   1      48.214  27.133  24.122  1.00  0.00     0.002 A 
ATOM     76  C   UNL A   1      49.155  26.241  26.170  1.00  0.00     0.091 A 
ATOM     77  F   UNL A   1      47.850  26.293  28.166  1.00  0.00    -0.205 F 
ATOM     78  C   UNL A   1      49.259  26.505  24.796  1.00  0.00     0.022 A 
BRANCH  76  79
ATOM     79  S   UNL A   1      50.595  25.548  26.989  1.00  0.00     0.127 S 
ATOM     80  O   UNL A   1      50.927  26.595  27.950  1.00  0.00    -0.237 OA
ATOM     81  O   UNL A   1      50.054  24.322  27.577  1.00  0.00    -0.237 OA
ATOM     82  O   UNL A   1      51.571  25.321  25.931  1.00  0.00    -0.744 OA
ENDBRANCH  76  79
ENDBRANCH  48  72
BRANCH  60  83
ATOM     83  C   UNL A   1      45.158  33.068  29.600  1.00  0.00     0.023 A 
ATOM     84  C   UNL A   1      46.000  33.176  30.723  1.00  0.00     0.012 A 
ATOM     85  C   UNL A   1      45.061  34.147  28.700  1.00  0.00     0.148 A 
ATOM     86  C   UNL A   1      46.716  34.348  30.961  1.00  0.00     0.002 A 
ATOM     87  C   UNL A   1      45.811  35.297  28.920  1.00  0.00     0.091 A 
ATOM     88  F   UNL A   1      44.237  34.033  27.647  1.00  0.00    -0.205 F 
ATOM     89  C   UNL A   1      46.632  35.403  30.055  1.00  0.00     0.022 A 
BRANCH  87  90
ATOM     90  S   UNL A   1      45.829  36.667  27.758  1.00  0.00     0.127 S 
ATOM     91  O   UNL A   1      46.742  37.603  28.412  1.00  0.00    -0.237 OA
ATOM     92  O   UNL A   1      46.361  36.044  26.545  1.00  0.00    -0.237 OA
ATOM     93  O   UNL A   1      44.445  37.111  27.647  1.00  0.00    -0.744 OA
ENDBRANCH  87  90
ENDBRANCH  60  83
ENDBRANCH  34  35
ENDBRANCH  27  29
ENDBRANCH  26  27
ENDBRANCH   1  26
TORSDOF 17
ENDMDL
