MODEL 1
REMARK VINA RESULT:     -11.7      0.000      0.000
REMARK SMILES COc1cc(/C=C2\SC(=S)N(CC(=O)OCCOC(=O)c3ccc(-c4c5nc(c(-c6cccc(S(=O)(=O)[O-])c6F)c6ccc([nH]6)c(-c6cccc(S(=O)(=O)[O-])c6F)c6nc(c(-c7cccc(S(=O)(=O)[O-])c7F)c7ccc4[nH]7)C=C6)C=C5)cc3)C2=O)cc2c1OCO2
REMARK SMILES IDX 16 1 15 2 13 3 14 4 12 5 11 6 6 7 7 8 8 9 84 10 9 11 85 12
REMARK SMILES IDX 10 13 5 14 3 15 4 16 88 17 87 18 89 19 86 20 91 21 90 22
REMARK SMILES IDX 2 23 1 24 17 25 18 26 19 27 20 28 21 29 22 30 83 31 23 32
REMARK SMILES IDX 82 33 24 34 25 35 26 36 76 37 27 38 81 39 75 40 77 41 28 42
REMARK SMILES IDX 80 43 74 44 73 45 29 47 61 48 41 49 60 50 42 51 45 52 59 53
REMARK SMILES IDX 78 54 43 55 44 56 58 58 79 59 46 60 30 61 31 62 39 63 32 64
REMARK SMILES IDX 34 65 40 66 33 67 35 68 36 69 37 70 38 71 62 72 63 73 71 74
REMARK SMILES IDX 64 75 66 76 72 77 65 78 67 79 68 80 69 81 70 82 47 83 48 84
REMARK SMILES IDX 56 85 49 86 51 87 57 88 50 89 52 90 53 91 54 92 55 93
REMARK H PARENT 77 46 45 57
REMARK Flexibility Score: inf
ROOT
ATOM      1  C   UNL A   1      32.234  29.787  25.241  1.00  0.00     0.274 C 
ENDROOT
BRANCH   1   2
ATOM      2  O   UNL A   1      31.216  29.579  24.242  1.00  0.00    -0.461 OA
BRANCH   2   3
ATOM      3  C   UNL A   1      31.527  28.697  23.252  1.00  0.00     0.326 C 
ATOM      4  O   UNL A   1      32.436  28.845  22.442  1.00  0.00    -0.250 OA
BRANCH   3   5
ATOM      5  C   UNL A   1      30.611  27.480  23.222  1.00  0.00     0.250 C 
BRANCH   5   6
ATOM      6  N   UNL A   1      31.222  26.247  23.713  1.00  0.00    -0.282 N 
ATOM      7  C   UNL A   1      32.868  23.156  22.809  1.00  0.00     0.029 C 
ATOM      8  C   UNL A   1      32.308  24.173  23.479  1.00  0.00     0.081 C 
ATOM      9  S   UNL A   1      32.037  24.293  25.174  1.00  0.00    -0.054 SA
ATOM     10  C   UNL A   1      31.767  25.370  22.792  1.00  0.00     0.266 C 
ATOM     11  C   UNL A   1      31.285  25.876  25.035  1.00  0.00     0.148 C 
ATOM     12  O   UNL A   1      31.753  25.513  21.579  1.00  0.00    -0.268 OA
ATOM     13  S   UNL A   1      30.746  26.723  26.367  1.00  0.00    -0.052 S 
BRANCH   7  14
ATOM     14  C   UNL A   1      33.250  21.886  23.430  1.00  0.00    -0.017 A 
ATOM     15  C   UNL A   1      34.810  20.536  24.743  1.00  0.00     0.165 A 
ATOM     16  C   UNL A   1      34.474  21.744  24.113  1.00  0.00     0.058 A 
ATOM     17  C   UNL A   1      33.880  19.510  24.708  1.00  0.00     0.207 A 
ATOM     18  C   UNL A   1      32.687  19.656  24.036  1.00  0.00     0.170 A 
ATOM     19  O   UNL A   1      33.963  18.289  25.311  1.00  0.00    -0.450 OA
ATOM     20  C   UNL A   1      32.350  20.816  23.376  1.00  0.00     0.059 A 
ATOM     21  O   UNL A   1      31.890  18.556  24.122  1.00  0.00    -0.453 OA
ATOM     22  C   UNL A   1      32.682  17.719  24.980  1.00  0.00     0.468 C 
BRANCH  15  23
ATOM     23  O   UNL A   1      36.018  20.520  25.381  1.00  0.00    -0.493 OA
ATOM     24  C   UNL A   1      37.066  21.211  24.706  1.00  0.00     0.278 C 
ENDBRANCH  15  23
ENDBRANCH   7  14
ENDBRANCH   5   6
ENDBRANCH   3   5
ENDBRANCH   2   3
ENDBRANCH   1   2
BRANCH   1  25
ATOM     25  C   UNL A   1      31.823  30.902  26.199  1.00  0.00     0.275 C 
BRANCH  25  26
ATOM     26  O   UNL A   1      32.660  30.869  27.365  1.00  0.00    -0.458 OA
BRANCH  26  27
ATOM     27  C   UNL A   1      33.458  31.950  27.541  1.00  0.00     0.338 C 
ATOM     28  O   UNL A   1      33.172  33.118  27.344  1.00  0.00    -0.246 OA
BRANCH  27  29
ATOM     29  C   UNL A   1      34.778  31.499  28.010  1.00  0.00     0.060 A 
ATOM     30  C   UNL A   1      34.973  30.160  28.348  1.00  0.00     0.016 A 
ATOM     31  C   UNL A   1      35.793  32.432  28.213  1.00  0.00     0.016 A 
ATOM     32  C   UNL A   1      36.156  29.761  28.967  1.00  0.00     0.010 A 
ATOM     33  C   UNL A   1      37.009  32.017  28.763  1.00  0.00     0.010 A 
ATOM     34  C   UNL A   1      37.189  30.685  29.180  1.00  0.00    -0.014 A 
BRANCH  34  35
ATOM     35  C   UNL A   1      38.437  30.272  29.876  1.00  0.00     0.031 A 
ATOM     36  C   UNL A   1      39.371  29.283  29.228  1.00  0.00     0.074 A 
ATOM     37  C   UNL A   1      38.731  30.776  31.091  1.00  0.00     0.049 A 
ATOM     38  N   UNL A   1      40.439  28.709  29.722  1.00  0.00    -0.248 NA
ATOM     39  C   UNL A   1      39.061  28.878  27.847  1.00  0.00     0.031 C 
ATOM     40  C   UNL A   1      37.918  31.749  31.825  1.00  0.00     0.029 A 
ATOM     41  N   UNL A   1      39.788  30.527  31.932  1.00  0.00    -0.354 N 
ATOM     42  C   UNL A   1      40.899  27.846  28.735  1.00  0.00     0.074 A 
ATOM     43  C   UNL A   1      39.992  27.962  27.614  1.00  0.00     0.031 C 
ATOM     44  C   UNL A   1      38.505  32.014  33.003  1.00  0.00     0.029 A 
ATOM     45  C   UNL A   1      39.705  31.195  33.133  1.00  0.00     0.049 A 
ATOM     46  H   UNL A   1      40.533  29.928  31.699  1.00  0.00     0.167 HD
ATOM     47  C   UNL A   1      41.991  27.043  28.751  1.00  0.00     0.034 A 
ATOM     48  C   UNL A   1      40.490  31.133  34.227  1.00  0.00     0.034 A 
ATOM     49  C   UNL A   1      42.926  26.969  29.842  1.00  0.00     0.049 A 
ATOM     50  C   UNL A   1      41.692  30.227  34.216  1.00  0.00     0.074 A 
ATOM     51  C   UNL A   1      44.070  26.197  29.942  1.00  0.00     0.029 A 
ATOM     52  N   UNL A   1      42.835  27.703  31.014  1.00  0.00    -0.354 N 
ATOM     53  N   UNL A   1      42.145  29.467  33.249  1.00  0.00    -0.248 NA
ATOM     54  C   UNL A   1      42.504  30.188  35.442  1.00  0.00     0.031 C 
ATOM     55  C   UNL A   1      44.672  26.464  31.177  1.00  0.00     0.029 A 
ATOM     56  C   UNL A   1      43.907  27.409  31.840  1.00  0.00     0.049 A 
ATOM     57  H   UNL A   1      42.115  28.339  31.228  1.00  0.00     0.167 HD
ATOM     58  C   UNL A   1      43.309  28.886  33.737  1.00  0.00     0.074 A 
ATOM     59  C   UNL A   1      43.506  29.402  35.076  1.00  0.00     0.031 C 
ATOM     60  C   UNL A   1      44.129  27.987  33.139  1.00  0.00     0.034 A 
BRANCH  47  61
ATOM     61  C   UNL A   1      42.272  26.211  27.528  1.00  0.00     0.023 A 
ATOM     62  C   UNL A   1      42.953  26.793  26.441  1.00  0.00     0.012 A 
ATOM     63  C   UNL A   1      41.943  24.841  27.487  1.00  0.00     0.148 A 
ATOM     64  C   UNL A   1      43.285  26.030  25.321  1.00  0.00     0.002 A 
ATOM     65  C   UNL A   1      42.311  24.079  26.384  1.00  0.00     0.091 A 
ATOM     66  F   UNL A   1      41.280  24.312  28.525  1.00  0.00    -0.205 F 
ATOM     67  C   UNL A   1      42.975  24.673  25.298  1.00  0.00     0.022 A 
BRANCH  65  68
ATOM     68  S   UNL A   1      42.021  22.308  26.286  1.00  0.00     0.127 S 
ATOM     69  O   UNL A   1      40.568  22.255  26.131  1.00  0.00    -0.237 OA
ATOM     70  O   UNL A   1      42.775  21.939  25.087  1.00  0.00    -0.237 OA
ATOM     71  O   UNL A   1      42.538  21.746  27.526  1.00  0.00    -0.744 OA
ENDBRANCH  65  68
ENDBRANCH  47  61
BRANCH  48  72
ATOM     72  C   UNL A   1      40.187  31.979  35.416  1.00  0.00     0.023 A 
ATOM     73  C   UNL A   1      40.940  33.146  35.644  1.00  0.00     0.012 A 
ATOM     74  C   UNL A   1      39.158  31.642  36.316  1.00  0.00     0.148 A 
ATOM     75  C   UNL A   1      40.698  33.945  36.762  1.00  0.00     0.002 A 
ATOM     76  C   UNL A   1      38.882  32.474  37.398  1.00  0.00     0.091 A 
ATOM     77  F   UNL A   1      38.465  30.514  36.104  1.00  0.00    -0.205 F 
ATOM     78  C   UNL A   1      39.662  33.616  37.632  1.00  0.00     0.022 A 
BRANCH  76  79
ATOM     79  S   UNL A   1      37.476  32.180  38.475  1.00  0.00     0.127 S 
ATOM     80  O   UNL A   1      37.976  32.658  39.760  1.00  0.00    -0.237 OA
ATOM     81  O   UNL A   1      36.437  33.014  37.868  1.00  0.00    -0.237 OA
ATOM     82  O   UNL A   1      37.217  30.749  38.377  1.00  0.00    -0.744 OA
ENDBRANCH  76  79
ENDBRANCH  48  72
BRANCH  60  83
ATOM     83  C   UNL A   1      45.339  27.529  33.910  1.00  0.00     0.023 A 
ATOM     84  C   UNL A   1      46.535  28.270  33.831  1.00  0.00     0.012 A 
ATOM     85  C   UNL A   1      45.271  26.412  34.763  1.00  0.00     0.148 A 
ATOM     86  C   UNL A   1      47.654  27.887  34.568  1.00  0.00     0.002 A 
ATOM     87  C   UNL A   1      46.378  26.060  35.526  1.00  0.00     0.091 A 
ATOM     88  F   UNL A   1      44.130  25.708  34.808  1.00  0.00    -0.205 F 
ATOM     89  C   UNL A   1      47.574  26.790  35.422  1.00  0.00     0.022 A 
BRANCH  87  90
ATOM     90  S   UNL A   1      46.335  24.716  36.718  1.00  0.00     0.127 S 
ATOM     91  O   UNL A   1      46.037  23.568  35.862  1.00  0.00    -0.237 OA
ATOM     92  O   UNL A   1      47.692  24.734  37.262  1.00  0.00    -0.237 OA
ATOM     93  O   UNL A   1      45.297  25.069  37.677  1.00  0.00    -0.744 OA
ENDBRANCH  87  90
ENDBRANCH  60  83
ENDBRANCH  34  35
ENDBRANCH  27  29
ENDBRANCH  26  27
ENDBRANCH  25  26
ENDBRANCH   1  25
TORSDOF 17
ENDMDL
MODEL 2
REMARK VINA RESULT:     -11.5      5.051     10.416
REMARK SMILES COc1cc(/C=C2\SC(=S)N(CC(=O)OCCOC(=O)c3ccc(-c4c5nc(c(-c6cccc(S(=O)(=O)[O-])c6F)c6ccc([nH]6)c(-c6cccc(S(=O)(=O)[O-])c6F)c6nc(c(-c7cccc(S(=O)(=O)[O-])c7F)c7ccc4[nH]7)C=C6)C=C5)cc3)C2=O)cc2c1OCO2
REMARK SMILES IDX 16 1 15 2 13 3 14 4 12 5 11 6 6 7 7 8 8 9 84 10 9 11 85 12
REMARK SMILES IDX 10 13 5 14 3 15 4 16 88 17 87 18 89 19 86 20 91 21 90 22
REMARK SMILES IDX 2 23 1 24 17 25 18 26 19 27 20 28 21 29 22 30 83 31 23 32
REMARK SMILES IDX 82 33 24 34 25 35 26 36 76 37 27 38 81 39 75 40 77 41 28 42
REMARK SMILES IDX 80 43 74 44 73 45 29 47 61 48 41 49 60 50 42 51 45 52 59 53
REMARK SMILES IDX 78 54 43 55 44 56 58 58 79 59 46 60 30 61 31 62 39 63 32 64
REMARK SMILES IDX 34 65 40 66 33 67 35 68 36 69 37 70 38 71 62 72 63 73 71 74
REMARK SMILES IDX 64 75 66 76 72 77 65 78 67 79 68 80 69 81 70 82 47 83 48 84
REMARK SMILES IDX 56 85 49 86 51 87 57 88 50 89 52 90 53 91 54 92 55 93
REMARK H PARENT 77 46 45 57
REMARK Flexibility Score: inf
ROOT
ATOM      1  C   UNL A   1      35.850  22.418  25.020  1.00  0.00     0.274 C 
ENDROOT
BRANCH   1   2
ATOM      2  O   UNL A   1      34.896  22.263  23.951  1.00  0.00    -0.461 OA
BRANCH   2   3
ATOM      3  C   UNL A   1      33.777  21.547  24.253  1.00  0.00     0.326 C 
ATOM      4  O   UNL A   1      33.701  20.709  25.145  1.00  0.00    -0.250 OA
BRANCH   3   5
ATOM      5  C   UNL A   1      32.594  21.872  23.349  1.00  0.00     0.250 C 
BRANCH   5   6
ATOM      6  N   UNL A   1      31.945  23.149  23.633  1.00  0.00    -0.282 N 
ATOM      7  C   UNL A   1      31.510  26.584  22.587  1.00  0.00     0.029 C 
ATOM      8  C   UNL A   1      31.443  25.414  23.238  1.00  0.00     0.081 C 
ATOM      9  S   UNL A   1      30.628  25.076  24.714  1.00  0.00    -0.054 SA
ATOM     10  C   UNL A   1      32.159  24.205  22.764  1.00  0.00     0.266 C 
ATOM     11  C   UNL A   1      31.139  23.395  24.720  1.00  0.00     0.148 C 
ATOM     12  O   UNL A   1      32.883  24.180  21.781  1.00  0.00    -0.268 OA
ATOM     13  S   UNL A   1      30.678  22.329  25.918  1.00  0.00    -0.052 S 
BRANCH   7  14
ATOM     14  C   UNL A   1      30.968  27.839  23.114  1.00  0.00    -0.017 A 
ATOM     15  C   UNL A   1      31.041  29.695  24.704  1.00  0.00     0.165 A 
ATOM     16  C   UNL A   1      31.541  28.470  24.234  1.00  0.00     0.058 A 
ATOM     17  C   UNL A   1      30.000  30.278  24.001  1.00  0.00     0.207 A 
ATOM     18  C   UNL A   1      29.443  29.653  22.907  1.00  0.00     0.170 A 
ATOM     19  O   UNL A   1      29.415  31.488  24.229  1.00  0.00    -0.450 OA
ATOM     20  C   UNL A   1      29.888  28.433  22.450  1.00  0.00     0.059 A 
ATOM     21  O   UNL A   1      28.446  30.377  22.330  1.00  0.00    -0.453 OA
ATOM     22  C   UNL A   1      28.476  31.564  23.140  1.00  0.00     0.468 C 
BRANCH  15  23
ATOM     23  O   UNL A   1      31.682  30.215  25.792  1.00  0.00    -0.493 OA
ATOM     24  C   UNL A   1      33.088  29.987  25.829  1.00  0.00     0.278 C 
ENDBRANCH  15  23
ENDBRANCH   7  14
ENDBRANCH   5   6
ENDBRANCH   3   5
ENDBRANCH   2   3
ENDBRANCH   1   2
BRANCH   1  25
ATOM     25  C   UNL A   1      37.074  21.540  24.776  1.00  0.00     0.275 C 
BRANCH  25  26
ATOM     26  O   UNL A   1      37.668  21.179  26.033  1.00  0.00    -0.458 OA
BRANCH  26  27
ATOM     27  C   UNL A   1      39.021  21.119  26.042  1.00  0.00     0.338 C 
ATOM     28  O   UNL A   1      39.722  20.193  25.672  1.00  0.00    -0.246 OA
BRANCH  27  29
ATOM     29  C   UNL A   1      39.553  22.374  26.598  1.00  0.00     0.060 A 
ATOM     30  C   UNL A   1      39.100  23.597  26.103  1.00  0.00     0.016 A 
ATOM     31  C   UNL A   1      40.579  22.331  27.540  1.00  0.00     0.016 A 
ATOM     32  C   UNL A   1      39.727  24.781  26.488  1.00  0.00     0.010 A 
ATOM     33  C   UNL A   1      41.156  23.525  27.983  1.00  0.00     0.010 A 
ATOM     34  C   UNL A   1      40.762  24.759  27.434  1.00  0.00    -0.014 A 
BRANCH  34  35
ATOM     35  C   UNL A   1      41.460  26.015  27.815  1.00  0.00     0.031 A 
ATOM     36  C   UNL A   1      40.727  27.080  28.590  1.00  0.00     0.074 A 
ATOM     37  C   UNL A   1      42.746  26.207  27.463  1.00  0.00     0.049 A 
ATOM     38  N   UNL A   1      41.121  28.287  28.910  1.00  0.00    -0.248 NA
ATOM     39  C   UNL A   1      39.371  26.750  29.060  1.00  0.00     0.031 C 
ATOM     40  C   UNL A   1      43.573  25.252  26.722  1.00  0.00     0.029 A 
ATOM     41  N   UNL A   1      43.581  27.278  27.667  1.00  0.00    -0.354 N 
ATOM     42  C   UNL A   1      40.051  28.874  29.575  1.00  0.00     0.074 A 
ATOM     43  C   UNL A   1      38.985  27.895  29.608  1.00  0.00     0.031 C 
ATOM     44  C   UNL A   1      44.794  25.779  26.535  1.00  0.00     0.029 A 
ATOM     45  C   UNL A   1      44.823  27.126  27.094  1.00  0.00     0.049 A 
ATOM     46  H   UNL A   1      43.316  28.079  28.175  1.00  0.00     0.167 HD
ATOM     47  C   UNL A   1      39.968  30.108  30.127  1.00  0.00     0.034 A 
ATOM     48  C   UNL A   1      45.859  27.984  27.004  1.00  0.00     0.034 A 
ATOM     49  C   UNL A   1      41.046  31.061  30.146  1.00  0.00     0.049 A 
ATOM     50  C   UNL A   1      45.734  29.350  27.622  1.00  0.00     0.074 A 
ATOM     51  C   UNL A   1      41.062  32.330  30.697  1.00  0.00     0.029 A 
ATOM     52  N   UNL A   1      42.304  30.845  29.604  1.00  0.00    -0.354 N 
ATOM     53  N   UNL A   1      44.737  29.862  28.302  1.00  0.00    -0.248 NA
ATOM     54  C   UNL A   1      46.888  30.250  27.480  1.00  0.00     0.031 C 
ATOM     55  C   UNL A   1      42.330  32.883  30.488  1.00  0.00     0.029 A 
ATOM     56  C   UNL A   1      43.106  31.954  29.815  1.00  0.00     0.049 A 
ATOM     57  H   UNL A   1      42.585  30.024  29.139  1.00  0.00     0.167 HD
ATOM     58  C   UNL A   1      45.154  31.128  28.695  1.00  0.00     0.074 A 
ATOM     59  C   UNL A   1      46.505  31.295  28.200  1.00  0.00     0.031 C 
ATOM     60  C   UNL A   1      44.473  32.076  29.382  1.00  0.00     0.034 A 
BRANCH  47  61
ATOM     61  C   UNL A   1      38.682  30.491  30.810  1.00  0.00     0.023 A 
ATOM     62  C   UNL A   1      38.530  30.234  32.187  1.00  0.00     0.012 A 
ATOM     63  C   UNL A   1      37.664  31.176  30.117  1.00  0.00     0.148 A 
ATOM     64  C   UNL A   1      37.377  30.636  32.860  1.00  0.00     0.002 A 
ATOM     65  C   UNL A   1      36.535  31.606  30.803  1.00  0.00     0.091 A 
ATOM     66  F   UNL A   1      37.822  31.395  28.803  1.00  0.00    -0.205 F 
ATOM     67  C   UNL A   1      36.385  31.331  32.172  1.00  0.00     0.022 A 
BRANCH  65  68
ATOM     68  S   UNL A   1      35.233  32.571  30.025  1.00  0.00     0.127 S 
ATOM     69  O   UNL A   1      34.312  32.779  31.141  1.00  0.00    -0.237 OA
ATOM     70  O   UNL A   1      35.953  33.772  29.598  1.00  0.00    -0.237 OA
ATOM     71  O   UNL A   1      34.720  31.751  28.936  1.00  0.00    -0.744 OA
ENDBRANCH  65  68
ENDBRANCH  47  61
BRANCH  48  72
ATOM     72  C   UNL A   1      47.121  27.566  26.330  1.00  0.00     0.023 A 
ATOM     73  C   UNL A   1      48.126  26.927  27.080  1.00  0.00     0.012 A 
ATOM     74  C   UNL A   1      47.331  27.792  24.956  1.00  0.00     0.148 A 
ATOM     75  C   UNL A   1      49.329  26.549  26.483  1.00  0.00     0.002 A 
ATOM     76  C   UNL A   1      48.508  27.360  24.354  1.00  0.00     0.091 A 
ATOM     77  F   UNL A   1      46.377  28.426  24.258  1.00  0.00    -0.205 F 
ATOM     78  C   UNL A   1      49.516  26.754  25.118  1.00  0.00     0.022 A 
BRANCH  76  79
ATOM     79  S   UNL A   1      48.752  27.470  22.578  1.00  0.00     0.127 S 
ATOM     80  O   UNL A   1      50.165  27.825  22.489  1.00  0.00    -0.237 OA
ATOM     81  O   UNL A   1      48.429  26.113  22.133  1.00  0.00    -0.237 OA
ATOM     82  O   UNL A   1      47.804  28.481  22.128  1.00  0.00    -0.744 OA
ENDBRANCH  76  79
ENDBRANCH  48  72
BRANCH  60  83
ATOM     83  C   UNL A   1      45.186  33.368  29.678  1.00  0.00     0.023 A 
ATOM     84  C   UNL A   1      45.920  33.500  30.873  1.00  0.00     0.012 A 
ATOM     85  C   UNL A   1      45.188  34.422  28.744  1.00  0.00     0.148 A 
ATOM     86  C   UNL A   1      46.621  34.674  31.148  1.00  0.00     0.002 A 
ATOM     87  C   UNL A   1      45.923  35.572  29.006  1.00  0.00     0.091 A 
ATOM     88  F   UNL A   1      44.467  34.285  27.621  1.00  0.00    -0.205 F 
ATOM     89  C   UNL A   1      46.631  35.704  30.211  1.00  0.00     0.022 A 
BRANCH  87  90
ATOM     90  S   UNL A   1      46.064  36.912  27.816  1.00  0.00     0.127 S 
ATOM     91  O   UNL A   1      46.584  36.215  26.642  1.00  0.00    -0.237 OA
ATOM     92  O   UNL A   1      44.679  37.368  27.691  1.00  0.00    -0.237 OA
ATOM     93  O   UNL A   1      46.964  37.885  28.420  1.00  0.00    -0.744 OA
ENDBRANCH  87  90
ENDBRANCH  60  83
ENDBRANCH  34  35
ENDBRANCH  27  29
ENDBRANCH  26  27
ENDBRANCH  25  26
ENDBRANCH   1  25
TORSDOF 17
ENDMDL
MODEL 3
REMARK VINA RESULT:     -11.1      5.064      8.391
REMARK SMILES COc1cc(/C=C2\SC(=S)N(CC(=O)OCCOC(=O)c3ccc(-c4c5nc(c(-c6cccc(S(=O)(=O)[O-])c6F)c6ccc([nH]6)c(-c6cccc(S(=O)(=O)[O-])c6F)c6nc(c(-c7cccc(S(=O)(=O)[O-])c7F)c7ccc4[nH]7)C=C6)C=C5)cc3)C2=O)cc2c1OCO2
REMARK SMILES IDX 16 1 15 2 13 3 14 4 12 5 11 6 6 7 7 8 8 9 84 10 9 11 85 12
REMARK SMILES IDX 10 13 5 14 3 15 4 16 88 17 87 18 89 19 86 20 91 21 90 22
REMARK SMILES IDX 2 23 1 24 17 25 18 26 19 27 20 28 21 29 22 30 83 31 23 32
REMARK SMILES IDX 82 33 24 34 25 35 26 36 76 37 27 38 81 39 75 40 77 41 28 42
REMARK SMILES IDX 80 43 74 44 73 45 29 47 61 48 41 49 60 50 42 51 45 52 59 53
REMARK SMILES IDX 78 54 43 55 44 56 58 58 79 59 46 60 30 61 31 62 39 63 32 64
REMARK SMILES IDX 34 65 40 66 33 67 35 68 36 69 37 70 38 71 62 72 63 73 71 74
REMARK SMILES IDX 64 75 66 76 72 77 65 78 67 79 68 80 69 81 70 82 47 83 48 84
REMARK SMILES IDX 56 85 49 86 51 87 57 88 50 89 52 90 53 91 54 92 55 93
REMARK H PARENT 77 46 45 57
REMARK Flexibility Score: inf
ROOT
ATOM      1  C   UNL A   1      36.212  21.378  25.492  1.00  0.00     0.274 C 
ENDROOT
BRANCH   1   2
ATOM      2  O   UNL A   1      35.194  21.130  24.501  1.00  0.00    -0.461 OA
BRANCH   2   3
ATOM      3  C   UNL A   1      34.296  20.152  24.805  1.00  0.00     0.326 C 
ATOM      4  O   UNL A   1      34.480  18.953  24.626  1.00  0.00    -0.250 OA
BRANCH   3   5
ATOM      5  C   UNL A   1      32.995  20.690  25.387  1.00  0.00     0.250 C 
BRANCH   5   6
ATOM      6  N   UNL A   1      32.640  22.035  24.940  1.00  0.00    -0.282 N 
ATOM      7  C   UNL A   1      32.188  25.490  25.908  1.00  0.00     0.029 C 
ATOM      8  C   UNL A   1      32.262  24.340  25.224  1.00  0.00     0.081 C 
ATOM      9  S   UNL A   1      31.846  24.067  23.577  1.00  0.00    -0.054 SA
ATOM     10  C   UNL A   1      32.681  23.068  25.859  1.00  0.00     0.266 C 
ATOM     11  C   UNL A   1      32.246  22.358  23.662  1.00  0.00     0.148 C 
ATOM     12  O   UNL A   1      32.956  22.953  27.044  1.00  0.00    -0.268 OA
ATOM     13  S   UNL A   1      32.123  21.349  22.339  1.00  0.00    -0.052 S 
BRANCH   7  14
ATOM     14  C   UNL A   1      31.612  26.723  25.366  1.00  0.00    -0.017 A 
ATOM     15  C   UNL A   1      31.611  29.157  25.132  1.00  0.00     0.165 A 
ATOM     16  C   UNL A   1      32.143  27.985  25.693  1.00  0.00     0.058 A 
ATOM     17  C   UNL A   1      30.581  29.023  24.216  1.00  0.00     0.207 A 
ATOM     18  C   UNL A   1      30.065  27.784  23.904  1.00  0.00     0.170 A 
ATOM     19  O   UNL A   1      29.970  30.008  23.499  1.00  0.00    -0.450 OA
ATOM     20  C   UNL A   1      30.542  26.624  24.469  1.00  0.00     0.059 A 
ATOM     21  O   UNL A   1      29.073  27.840  22.974  1.00  0.00    -0.453 OA
ATOM     22  C   UNL A   1      29.061  29.248  22.682  1.00  0.00     0.468 C 
BRANCH  15  23
ATOM     23  O   UNL A   1      32.214  30.321  25.517  1.00  0.00    -0.493 OA
ATOM     24  C   UNL A   1      32.580  30.384  26.893  1.00  0.00     0.278 C 
ENDBRANCH  15  23
ENDBRANCH   7  14
ENDBRANCH   5   6
ENDBRANCH   3   5
ENDBRANCH   2   3
ENDBRANCH   1   2
BRANCH   1  25
ATOM     25  C   UNL A   1      37.513  20.677  25.108  1.00  0.00     0.275 C 
BRANCH  25  26
ATOM     26  O   UNL A   1      38.287  20.417  26.289  1.00  0.00    -0.458 OA
BRANCH  26  27
ATOM     27  C   UNL A   1      39.627  20.563  26.151  1.00  0.00     0.338 C 
ATOM     28  O   UNL A   1      40.421  19.737  25.734  1.00  0.00    -0.246 OA
BRANCH  27  29
ATOM     29  C   UNL A   1      40.011  21.909  26.607  1.00  0.00     0.060 A 
ATOM     30  C   UNL A   1      39.352  23.027  26.097  1.00  0.00     0.016 A 
ATOM     31  C   UNL A   1      41.100  22.061  27.463  1.00  0.00     0.016 A 
ATOM     32  C   UNL A   1      39.829  24.306  26.377  1.00  0.00     0.010 A 
ATOM     33  C   UNL A   1      41.531  23.347  27.804  1.00  0.00     0.010 A 
ATOM     34  C   UNL A   1      40.923  24.481  27.235  1.00  0.00    -0.014 A 
BRANCH  34  35
ATOM     35  C   UNL A   1      41.459  25.842  27.504  1.00  0.00     0.031 A 
ATOM     36  C   UNL A   1      42.832  26.224  27.012  1.00  0.00     0.074 A 
ATOM     37  C   UNL A   1      40.722  26.734  28.194  1.00  0.00     0.049 A 
ATOM     38  N   UNL A   1      43.520  27.312  27.247  1.00  0.00    -0.248 NA
ATOM     39  C   UNL A   1      43.526  25.253  26.150  1.00  0.00     0.031 C 
ATOM     40  C   UNL A   1      39.374  26.496  28.717  1.00  0.00     0.029 A 
ATOM     41  N   UNL A   1      41.007  28.018  28.589  1.00  0.00    -0.354 N 
ATOM     42  C   UNL A   1      44.740  27.138  26.604  1.00  0.00     0.074 A 
ATOM     43  C   UNL A   1      44.704  25.837  25.974  1.00  0.00     0.031 C 
ATOM     44  C   UNL A   1      38.951  27.595  29.362  1.00  0.00     0.029 A 
ATOM     45  C   UNL A   1      40.013  28.596  29.345  1.00  0.00     0.049 A 
ATOM     46  H   UNL A   1      41.844  28.481  28.355  1.00  0.00     0.167 HD
ATOM     47  C   UNL A   1      45.788  27.993  26.527  1.00  0.00     0.034 A 
ATOM     48  C   UNL A   1      39.970  29.786  29.977  1.00  0.00     0.034 A 
ATOM     49  C   UNL A   1      45.804  29.311  27.105  1.00  0.00     0.049 A 
ATOM     50  C   UNL A   1      41.153  30.710  29.878  1.00  0.00     0.074 A 
ATOM     51  C   UNL A   1      46.814  30.255  27.065  1.00  0.00     0.029 A 
ATOM     52  N   UNL A   1      44.755  29.877  27.813  1.00  0.00    -0.354 N 
ATOM     53  N   UNL A   1      42.271  30.553  29.212  1.00  0.00    -0.248 NA
ATOM     54  C   UNL A   1      41.059  31.988  30.600  1.00  0.00     0.031 C 
ATOM     55  C   UNL A   1      46.377  31.394  27.750  1.00  0.00     0.029 A 
ATOM     56  C   UNL A   1      45.091  31.162  28.208  1.00  0.00     0.049 A 
ATOM     57  H   UNL A   1      43.899  29.432  28.007  1.00  0.00     0.167 HD
ATOM     58  C   UNL A   1      42.998  31.722  29.408  1.00  0.00     0.074 A 
ATOM     59  C   UNL A   1      42.182  32.589  30.233  1.00  0.00     0.031 C 
ATOM     60  C   UNL A   1      44.239  32.040  28.966  1.00  0.00     0.034 A 
BRANCH  47  61
ATOM     61  C   UNL A   1      46.998  27.557  25.745  1.00  0.00     0.023 A 
ATOM     62  C   UNL A   1      47.964  26.741  26.367  1.00  0.00     0.012 A 
ATOM     63  C   UNL A   1      47.139  27.879  24.380  1.00  0.00     0.148 A 
ATOM     64  C   UNL A   1      49.062  26.267  25.650  1.00  0.00     0.002 A 
ATOM     65  C   UNL A   1      48.217  27.372  23.662  1.00  0.00     0.091 A 
ATOM     66  F   UNL A   1      46.219  28.670  23.812  1.00  0.00    -0.205 F 
ATOM     67  C   UNL A   1      49.183  26.573  24.296  1.00  0.00     0.022 A 
BRANCH  65  68
ATOM     68  S   UNL A   1      48.426  27.648  21.898  1.00  0.00     0.127 S 
ATOM     69  O   UNL A   1      49.563  28.566  21.876  1.00  0.00    -0.237 OA
ATOM     70  O   UNL A   1      48.721  26.300  21.409  1.00  0.00    -0.237 OA
ATOM     71  O   UNL A   1      47.165  28.203  21.426  1.00  0.00    -0.744 OA
ENDBRANCH  65  68
ENDBRANCH  47  61
BRANCH  48  72
ATOM     72  C   UNL A   1      38.751  30.189  30.735  1.00  0.00     0.023 A 
ATOM     73  C   UNL A   1      38.599  29.772  32.071  1.00  0.00     0.012 A 
ATOM     74  C   UNL A   1      37.748  30.983  30.146  1.00  0.00     0.148 A 
ATOM     75  C   UNL A   1      37.457  30.111  32.797  1.00  0.00     0.002 A 
ATOM     76  C   UNL A   1      36.639  31.366  30.894  1.00  0.00     0.091 A 
ATOM     77  F   UNL A   1      37.892  31.351  28.865  1.00  0.00    -0.205 F 
ATOM     78  C   UNL A   1      36.483  30.918  32.214  1.00  0.00     0.022 A 
BRANCH  76  79
ATOM     79  S   UNL A   1      35.420  32.514  30.247  1.00  0.00     0.127 S 
ATOM     80  O   UNL A   1      36.224  33.710  30.015  1.00  0.00    -0.237 OA
ATOM     81  O   UNL A   1      34.964  31.834  29.032  1.00  0.00    -0.237 OA
ATOM     82  O   UNL A   1      34.403  32.612  31.286  1.00  0.00    -0.744 OA
ENDBRANCH  76  79
ENDBRANCH  48  72
BRANCH  60  83
ATOM     83  C   UNL A   1      44.780  33.396  29.328  1.00  0.00     0.023 A 
ATOM     84  C   UNL A   1      45.559  33.547  30.494  1.00  0.00     0.012 A 
ATOM     85  C   UNL A   1      44.579  34.503  28.482  1.00  0.00     0.148 A 
ATOM     86  C   UNL A   1      46.103  34.786  30.826  1.00  0.00     0.002 A 
ATOM     87  C   UNL A   1      45.160  35.726  28.799  1.00  0.00     0.091 A 
ATOM     88  F   UNL A   1      43.819  34.345  27.389  1.00  0.00    -0.205 F 
ATOM     89  C   UNL A   1      45.913  35.871  29.975  1.00  0.00     0.022 A 
BRANCH  87  90
ATOM     90  S   UNL A   1      45.041  37.154  27.715  1.00  0.00     0.127 S 
ATOM     91  O   UNL A   1      46.066  36.857  26.716  1.00  0.00    -0.237 OA
ATOM     92  O   UNL A   1      43.666  37.062  27.224  1.00  0.00    -0.237 OA
ATOM     93  O   UNL A   1      45.302  38.314  28.556  1.00  0.00    -0.744 OA
ENDBRANCH  87  90
ENDBRANCH  60  83
ENDBRANCH  34  35
ENDBRANCH  27  29
ENDBRANCH  26  27
ENDBRANCH  25  26
ENDBRANCH   1  25
TORSDOF 17
ENDMDL
