MODEL 1
REMARK VINA RESULT:     -12.0      0.000      0.000
REMARK SMILES CCc1ncc(C[N@H+]2CCC[C@@H](c3cccc(C(=O)OCCOC(=O)c4ccc(-c5c6nc(c(-c7cccc(S(=O)(=O)[O-])c7F)c7ccc([nH]7)c(-c7cccc(S(=O)(=O)[O-])c7F)c7nc(c(-c8cccc(S(=O)(=O)[O-])c8F)c8ccc5[nH]8)C=C7)C=C6)cc4)c3)C2)cn1
REMARK SMILES IDX 21 1 20 2 18 3 19 4 17 5 13 6 14 7 89 8 15 9 16 10 12 11
REMARK SMILES IDX 8 12 9 13 90 14 10 16 11 17 7 18 6 19 3 20 4 21 92 22 5 23
REMARK SMILES IDX 91 24 2 25 1 26 22 27 23 28 24 29 25 30 26 31 27 32 88 33
REMARK SMILES IDX 28 34 87 35 29 36 30 37 31 38 81 39 32 40 86 41 80 42 82 43
REMARK SMILES IDX 33 44 85 45 79 46 78 47 34 49 66 50 46 51 65 52 47 53 50 54
REMARK SMILES IDX 64 55 83 56 48 57 49 58 63 60 84 61 51 62 35 63 36 64 44 65
REMARK SMILES IDX 37 66 39 67 45 68 38 69 40 70 41 71 42 72 43 73 67 74 68 75
REMARK SMILES IDX 76 76 69 77 71 78 77 79 70 80 72 81 73 82 74 83 75 84 52 85
REMARK SMILES IDX 53 86 61 87 54 88 56 89 62 90 55 91 57 92 58 93 59 94 60 95
REMARK H PARENT 8 15 82 48 50 59
REMARK Flexibility Score: inf
ROOT
ATOM      1  C   UNL A   1      31.130  29.900  24.414  1.00  0.00     0.275 C 
ENDROOT
BRANCH   1   2
ATOM      2  O   UNL A   1      31.872  28.769  23.915  1.00  0.00    -0.458 OA
BRANCH   2   3
ATOM      3  C   UNL A   1      31.133  27.754  23.398  1.00  0.00     0.338 C 
ATOM      4  O   UNL A   1      30.633  27.711  22.290  1.00  0.00    -0.246 OA
BRANCH   3   5
ATOM      5  C   UNL A   1      31.105  26.611  24.345  1.00  0.00     0.060 A 
ATOM      6  C   UNL A   1      32.124  24.686  25.412  1.00  0.00    -0.038 A 
ATOM      7  C   UNL A   1      30.907  24.432  26.071  1.00  0.00     0.004 A 
ATOM      8  C   UNL A   1      32.197  25.754  24.505  1.00  0.00     0.020 A 
ATOM      9  C   UNL A   1      29.830  25.299  25.935  1.00  0.00     0.001 A 
ATOM     10  C   UNL A   1      29.950  26.415  25.116  1.00  0.00     0.016 A 
BRANCH   6  11
ATOM     11  C   UNL A   1      33.395  23.955  25.821  1.00  0.00     0.074 C 
ATOM     12  N   UNL A   1      34.744  21.932  25.086  1.00  0.00    -0.331 N 
ATOM     13  C   UNL A   1      35.936  22.782  24.965  1.00  0.00     0.262 C 
ATOM     14  C   UNL A   1      33.513  22.711  24.911  1.00  0.00     0.270 C 
ATOM     15  H   UNL A   1      34.754  21.563  26.036  1.00  0.00     0.348 HD
ATOM     16  C   UNL A   1      35.898  23.947  25.959  1.00  0.00     0.062 C 
ATOM     17  C   UNL A   1      34.659  24.816  25.746  1.00  0.00     0.020 C 
BRANCH  12  18
ATOM     18  C   UNL A   1      34.772  20.754  24.190  1.00  0.00     0.302 C 
BRANCH  18  19
ATOM     19  C   UNL A   1      34.133  19.497  24.710  1.00  0.00     0.043 A 
ATOM     20  C   UNL A   1      32.870  17.196  25.428  1.00  0.00     0.127 A 
ATOM     21  N   UNL A   1      34.078  17.090  24.841  1.00  0.00    -0.241 NA
ATOM     22  N   UNL A   1      32.278  18.361  25.748  1.00  0.00    -0.241 NA
ATOM     23  C   UNL A   1      34.678  18.248  24.496  1.00  0.00     0.124 A 
ATOM     24  C   UNL A   1      32.929  19.483  25.384  1.00  0.00     0.124 A 
BRANCH  20  25
ATOM     25  C   UNL A   1      32.122  15.928  25.725  1.00  0.00     0.074 C 
ATOM     26  C   UNL A   1      32.945  14.699  25.379  1.00  0.00     0.012 C 
ENDBRANCH  20  25
ENDBRANCH  18  19
ENDBRANCH  12  18
ENDBRANCH   6  11
ENDBRANCH   3   5
ENDBRANCH   2   3
ENDBRANCH   1   2
BRANCH   1  27
ATOM     27  C   UNL A   1      31.391  30.099  25.907  1.00  0.00     0.275 C 
BRANCH  27  28
ATOM     28  O   UNL A   1      32.803  30.206  26.159  1.00  0.00    -0.458 OA
BRANCH  28  29
ATOM     29  C   UNL A   1      33.181  31.253  26.927  1.00  0.00     0.338 C 
ATOM     30  O   UNL A   1      32.522  32.237  27.220  1.00  0.00    -0.246 OA
BRANCH  29  31
ATOM     31  C   UNL A   1      34.530  31.009  27.456  1.00  0.00     0.060 A 
ATOM     32  C   UNL A   1      34.910  29.695  27.705  1.00  0.00     0.016 A 
ATOM     33  C   UNL A   1      35.360  32.061  27.832  1.00  0.00     0.016 A 
ATOM     34  C   UNL A   1      36.072  29.415  28.417  1.00  0.00     0.010 A 
ATOM     35  C   UNL A   1      36.574  31.776  28.466  1.00  0.00     0.010 A 
ATOM     36  C   UNL A   1      36.927  30.454  28.804  1.00  0.00    -0.014 A 
BRANCH  36  37
ATOM     37  C   UNL A   1      38.158  30.175  29.598  1.00  0.00     0.031 A 
ATOM     38  C   UNL A   1      39.219  29.262  29.036  1.00  0.00     0.074 A 
ATOM     39  C   UNL A   1      38.324  30.708  30.825  1.00  0.00     0.049 A 
ATOM     40  N   UNL A   1      40.242  28.714  29.636  1.00  0.00    -0.248 NA
ATOM     41  C   UNL A   1      39.098  28.903  27.613  1.00  0.00     0.031 C 
ATOM     42  C   UNL A   1      37.397  31.633  31.482  1.00  0.00     0.029 A 
ATOM     43  N   UNL A   1      39.324  30.531  31.751  1.00  0.00    -0.354 N 
ATOM     44  C   UNL A   1      40.834  27.880  28.694  1.00  0.00     0.074 A 
ATOM     45  C   UNL A   1      40.065  28.008  27.475  1.00  0.00     0.031 C 
ATOM     46  C   UNL A   1      37.871  31.942  32.699  1.00  0.00     0.029 A 
ATOM     47  C   UNL A   1      39.089  31.178  32.943  1.00  0.00     0.049 A 
ATOM     48  H   UNL A   1      40.130  29.994  31.579  1.00  0.00     0.167 HD
ATOM     49  C   UNL A   1      41.923  27.086  28.829  1.00  0.00     0.034 A 
ATOM     50  C   UNL A   1      39.746  31.126  34.118  1.00  0.00     0.034 A 
ATOM     51  C   UNL A   1      42.733  27.026  30.016  1.00  0.00     0.049 A 
ATOM     52  C   UNL A   1      40.961  30.248  34.240  1.00  0.00     0.074 A 
ATOM     53  C   UNL A   1      43.882  26.285  30.239  1.00  0.00     0.029 A 
ATOM     54  N   UNL A   1      42.493  27.747  31.176  1.00  0.00    -0.354 N 
ATOM     55  N   UNL A   1      41.526  29.492  33.330  1.00  0.00    -0.248 NA
ATOM     56  C   UNL A   1      41.637  30.224  35.545  1.00  0.00     0.031 C 
ATOM     57  C   UNL A   1      44.329  26.551  31.537  1.00  0.00     0.029 A 
ATOM     58  C   UNL A   1      43.472  27.474  32.116  1.00  0.00     0.049 A 
ATOM     59  H   UNL A   1      41.737  28.364  31.311  1.00  0.00     0.167 HD
ATOM     60  C   UNL A   1      42.640  28.928  33.941  1.00  0.00     0.074 A 
ATOM     61  C   UNL A   1      42.681  29.445  35.293  1.00  0.00     0.031 C 
ATOM     62  C   UNL A   1      43.537  28.048  33.434  1.00  0.00     0.034 A 
BRANCH  49  63
ATOM     63  C   UNL A   1      42.318  26.225  27.658  1.00  0.00     0.023 A 
ATOM     64  C   UNL A   1      43.213  26.720  26.689  1.00  0.00     0.012 A 
ATOM     65  C   UNL A   1      41.846  24.900  27.548  1.00  0.00     0.148 A 
ATOM     66  C   UNL A   1      43.606  25.924  25.612  1.00  0.00     0.002 A 
ATOM     67  C   UNL A   1      42.277  24.098  26.497  1.00  0.00     0.091 A 
ATOM     68  F   UNL A   1      40.978  24.452  28.467  1.00  0.00    -0.205 F 
ATOM     69  C   UNL A   1      43.147  24.613  25.522  1.00  0.00     0.022 A 
BRANCH  67  70
ATOM     70  S   UNL A   1      41.804  22.371  26.341  1.00  0.00     0.127 S 
ATOM     71  O   UNL A   1      40.359  22.478  26.148  1.00  0.00    -0.237 OA
ATOM     72  O   UNL A   1      42.548  21.954  25.153  1.00  0.00    -0.237 OA
ATOM     73  O   UNL A   1      42.226  21.728  27.577  1.00  0.00    -0.744 OA
ENDBRANCH  67  70
ENDBRANCH  49  63
BRANCH  50  74
ATOM     74  C   UNL A   1      39.270  31.941  35.273  1.00  0.00     0.023 A 
ATOM     75  C   UNL A   1      38.390  31.366  36.210  1.00  0.00     0.012 A 
ATOM     76  C   UNL A   1      39.710  33.265  35.470  1.00  0.00     0.148 A 
ATOM     77  C   UNL A   1      37.942  32.100  37.309  1.00  0.00     0.002 A 
ATOM     78  C   UNL A   1      39.309  33.970  36.599  1.00  0.00     0.091 A 
ATOM     79  F   UNL A   1      40.528  33.806  34.556  1.00  0.00    -0.205 F 
ATOM     80  C   UNL A   1      38.411  33.396  37.511  1.00  0.00     0.022 A 
BRANCH  78  81
ATOM     81  S   UNL A   1      39.977  35.587  37.008  1.00  0.00     0.127 S 
ATOM     82  O   UNL A   1      39.276  35.893  38.253  1.00  0.00    -0.237 OA
ATOM     83  O   UNL A   1      41.404  35.298  37.159  1.00  0.00    -0.237 OA
ATOM     84  O   UNL A   1      39.656  36.440  35.872  1.00  0.00    -0.744 OA
ENDBRANCH  78  81
ENDBRANCH  50  74
BRANCH  62  85
ATOM     85  C   UNL A   1      44.675  27.619  34.322  1.00  0.00     0.023 A 
ATOM     86  C   UNL A   1      45.814  28.438  34.446  1.00  0.00     0.012 A 
ATOM     87  C   UNL A   1      44.575  26.448  35.097  1.00  0.00     0.148 A 
ATOM     88  C   UNL A   1      46.849  28.083  35.310  1.00  0.00     0.002 A 
ATOM     89  C   UNL A   1      45.589  26.124  35.990  1.00  0.00     0.091 A 
ATOM     90  F   UNL A   1      43.490  25.673  34.948  1.00  0.00    -0.205 F 
ATOM     91  C   UNL A   1      46.730  26.935  36.090  1.00  0.00     0.022 A 
BRANCH  89  92
ATOM     92  S   UNL A   1      45.478  24.716  37.100  1.00  0.00     0.127 S 
ATOM     93  O   UNL A   1      46.764  24.780  37.792  1.00  0.00    -0.237 OA
ATOM     94  O   UNL A   1      44.323  25.062  37.928  1.00  0.00    -0.237 OA
ATOM     95  O   UNL A   1      45.282  23.550  36.250  1.00  0.00    -0.744 OA
ENDBRANCH  89  92
ENDBRANCH  62  85
ENDBRANCH  36  37
ENDBRANCH  29  31
ENDBRANCH  28  29
ENDBRANCH  27  28
ENDBRANCH   1  27
TORSDOF 18
ENDMDL
MODEL 2
REMARK VINA RESULT:     -11.9      1.648      7.779
REMARK SMILES CCc1ncc(C[N@H+]2CCC[C@@H](c3cccc(C(=O)OCCOC(=O)c4ccc(-c5c6nc(c(-c7cccc(S(=O)(=O)[O-])c7F)c7ccc([nH]7)c(-c7cccc(S(=O)(=O)[O-])c7F)c7nc(c(-c8cccc(S(=O)(=O)[O-])c8F)c8ccc5[nH]8)C=C7)C=C6)cc4)c3)C2)cn1
REMARK SMILES IDX 21 1 20 2 18 3 19 4 17 5 13 6 14 7 89 8 15 9 16 10 12 11
REMARK SMILES IDX 8 12 9 13 90 14 10 16 11 17 7 18 6 19 3 20 4 21 92 22 5 23
REMARK SMILES IDX 91 24 2 25 1 26 22 27 23 28 24 29 25 30 26 31 27 32 88 33
REMARK SMILES IDX 28 34 87 35 29 36 30 37 31 38 81 39 32 40 86 41 80 42 82 43
REMARK SMILES IDX 33 44 85 45 79 46 78 47 34 49 66 50 46 51 65 52 47 53 50 54
REMARK SMILES IDX 64 55 83 56 48 57 49 58 63 60 84 61 51 62 35 63 36 64 44 65
REMARK SMILES IDX 37 66 39 67 45 68 38 69 40 70 41 71 42 72 43 73 67 74 68 75
REMARK SMILES IDX 76 76 69 77 71 78 77 79 70 80 72 81 73 82 74 83 75 84 52 85
REMARK SMILES IDX 53 86 61 87 54 88 56 89 62 90 55 91 57 92 58 93 59 94 60 95
REMARK H PARENT 8 15 82 48 50 59
REMARK Flexibility Score: inf
ROOT
ATOM      1  C   UNL A   1      31.236  31.917  26.933  1.00  0.00     0.275 C 
ENDROOT
BRANCH   1   2
ATOM      2  O   UNL A   1      31.222  31.237  25.663  1.00  0.00    -0.458 OA
BRANCH   2   3
ATOM      3  C   UNL A   1      31.935  30.083  25.597  1.00  0.00     0.338 C 
ATOM      4  O   UNL A   1      32.984  29.845  26.163  1.00  0.00    -0.246 OA
BRANCH   3   5
ATOM      5  C   UNL A   1      31.190  29.068  24.810  1.00  0.00     0.060 A 
ATOM      6  C   UNL A   1      30.623  26.774  24.260  1.00  0.00    -0.038 A 
ATOM      7  C   UNL A   1      29.824  27.247  23.203  1.00  0.00     0.004 A 
ATOM      8  C   UNL A   1      31.349  27.697  25.030  1.00  0.00     0.020 A 
ATOM      9  C   UNL A   1      29.643  28.610  23.001  1.00  0.00     0.001 A 
ATOM     10  C   UNL A   1      30.283  29.515  23.839  1.00  0.00     0.016 A 
BRANCH   6  11
ATOM     11  C   UNL A   1      30.548  25.319  24.699  1.00  0.00     0.074 C 
ATOM     12  N   UNL A   1      32.049  23.271  24.757  1.00  0.00    -0.331 N 
ATOM     13  C   UNL A   1      31.799  23.139  26.198  1.00  0.00     0.262 C 
ATOM     14  C   UNL A   1      31.892  24.661  24.313  1.00  0.00     0.270 C 
ATOM     15  H   UNL A   1      31.338  22.707  24.293  1.00  0.00     0.348 HD
ATOM     16  C   UNL A   1      30.412  23.665  26.578  1.00  0.00     0.062 C 
ATOM     17  C   UNL A   1      30.251  25.134  26.190  1.00  0.00     0.020 C 
BRANCH  12  18
ATOM     18  C   UNL A   1      33.353  22.712  24.335  1.00  0.00     0.302 C 
BRANCH  18  19
ATOM     19  C   UNL A   1      33.437  21.216  24.216  1.00  0.00     0.043 A 
ATOM     20  C   UNL A   1      33.459  18.495  24.213  1.00  0.00     0.127 A 
ATOM     21  N   UNL A   1      32.412  19.113  23.634  1.00  0.00    -0.241 NA
ATOM     22  N   UNL A   1      34.528  19.129  24.728  1.00  0.00    -0.241 NA
ATOM     23  C   UNL A   1      32.429  20.462  23.653  1.00  0.00     0.124 A 
ATOM     24  C   UNL A   1      34.491  20.476  24.713  1.00  0.00     0.124 A 
BRANCH  20  25
ATOM     25  C   UNL A   1      33.422  16.996  24.311  1.00  0.00     0.074 C 
ATOM     26  C   UNL A   1      32.536  16.533  25.454  1.00  0.00     0.012 C 
ENDBRANCH  20  25
ENDBRANCH  18  19
ENDBRANCH  12  18
ENDBRANCH   6  11
ENDBRANCH   3   5
ENDBRANCH   2   3
ENDBRANCH   1   2
BRANCH   1  27
ATOM     27  C   UNL A   1      32.134  33.152  26.873  1.00  0.00     0.275 C 
BRANCH  27  28
ATOM     28  O   UNL A   1      33.062  33.152  27.972  1.00  0.00    -0.458 OA
BRANCH  28  29
ATOM     29  C   UNL A   1      34.219  33.820  27.760  1.00  0.00     0.338 C 
ATOM     30  O   UNL A   1      34.355  34.958  27.344  1.00  0.00    -0.246 OA
BRANCH  29  31
ATOM     31  C   UNL A   1      35.350  32.986  28.189  1.00  0.00     0.060 A 
ATOM     32  C   UNL A   1      35.088  31.682  28.594  1.00  0.00     0.016 A 
ATOM     33  C   UNL A   1      36.629  33.516  28.322  1.00  0.00     0.016 A 
ATOM     34  C   UNL A   1      36.069  30.924  29.226  1.00  0.00     0.010 A 
ATOM     35  C   UNL A   1      37.641  32.722  28.873  1.00  0.00     0.010 A 
ATOM     36  C   UNL A   1      37.365  31.432  29.370  1.00  0.00    -0.014 A 
BRANCH  36  37
ATOM     37  C   UNL A   1      38.419  30.648  30.075  1.00  0.00     0.031 A 
ATOM     38  C   UNL A   1      38.757  30.971  31.508  1.00  0.00     0.074 A 
ATOM     39  C   UNL A   1      39.093  29.667  29.439  1.00  0.00     0.049 A 
ATOM     40  N   UNL A   1      39.774  30.576  32.229  1.00  0.00    -0.248 NA
ATOM     41  C   UNL A   1      37.839  31.878  32.218  1.00  0.00     0.031 C 
ATOM     42  C   UNL A   1      38.850  29.224  28.065  1.00  0.00     0.029 A 
ATOM     43  N   UNL A   1      40.137  28.880  29.861  1.00  0.00    -0.354 N 
ATOM     44  C   UNL A   1      39.667  31.250  33.440  1.00  0.00     0.074 A 
ATOM     45  C   UNL A   1      38.476  32.068  33.364  1.00  0.00     0.031 C 
ATOM     46  C   UNL A   1      39.717  28.246  27.757  1.00  0.00     0.029 A 
ATOM     47  C   UNL A   1      40.628  28.048  28.879  1.00  0.00     0.049 A 
ATOM     48  H   UNL A   1      40.500  28.908  30.775  1.00  0.00     0.167 HD
ATOM     49  C   UNL A   1      40.484  31.189  34.519  1.00  0.00     0.034 A 
ATOM     50  C   UNL A   1      41.716  27.254  28.860  1.00  0.00     0.034 A 
ATOM     51  C   UNL A   1      41.619  30.312  34.621  1.00  0.00     0.049 A 
ATOM     52  C   UNL A   1      42.598  27.192  30.076  1.00  0.00     0.074 A 
ATOM     53  C   UNL A   1      42.484  30.144  35.689  1.00  0.00     0.029 A 
ATOM     54  N   UNL A   1      42.039  29.442  33.627  1.00  0.00    -0.354 N 
ATOM     55  N   UNL A   1      42.465  27.810  31.224  1.00  0.00    -0.248 NA
ATOM     56  C   UNL A   1      43.775  26.313  30.000  1.00  0.00     0.031 C 
ATOM     57  C   UNL A   1      43.434  29.180  35.336  1.00  0.00     0.029 A 
ATOM     58  C   UNL A   1      43.147  28.732  34.056  1.00  0.00     0.049 A 
ATOM     59  H   UNL A   1      41.612  29.344  32.745  1.00  0.00     0.167 HD
ATOM     60  C   UNL A   1      43.519  27.373  32.018  1.00  0.00     0.074 A 
ATOM     61  C   UNL A   1      44.272  26.423  31.225  1.00  0.00     0.031 C 
ATOM     62  C   UNL A   1      43.845  27.740  33.281  1.00  0.00     0.034 A 
BRANCH  49  63
ATOM     63  C   UNL A   1      40.171  32.083  35.691  1.00  0.00     0.023 A 
ATOM     64  C   UNL A   1      40.903  33.272  35.886  1.00  0.00     0.012 A 
ATOM     65  C   UNL A   1      39.111  31.774  36.568  1.00  0.00     0.148 A 
ATOM     66  C   UNL A   1      40.607  34.121  36.953  1.00  0.00     0.002 A 
ATOM     67  C   UNL A   1      38.793  32.648  37.603  1.00  0.00     0.091 A 
ATOM     68  F   UNL A   1      38.439  30.629  36.380  1.00  0.00    -0.205 F 
ATOM     69  C   UNL A   1      39.548  33.815  37.803  1.00  0.00     0.022 A 
BRANCH  67  70
ATOM     70  S   UNL A   1      37.396  32.379  38.700  1.00  0.00     0.127 S 
ATOM     71  O   UNL A   1      37.472  30.937  38.928  1.00  0.00    -0.237 OA
ATOM     72  O   UNL A   1      37.751  33.199  39.858  1.00  0.00    -0.237 OA
ATOM     73  O   UNL A   1      36.221  32.837  37.972  1.00  0.00    -0.744 OA
ENDBRANCH  67  70
ENDBRANCH  49  63
BRANCH  50  74
ATOM     74  C   UNL A   1      42.024  26.445  27.645  1.00  0.00     0.023 A 
ATOM     75  C   UNL A   1      42.719  27.040  26.575  1.00  0.00     0.012 A 
ATOM     76  C   UNL A   1      41.669  25.084  27.559  1.00  0.00     0.148 A 
ATOM     77  C   UNL A   1      43.035  26.302  25.434  1.00  0.00     0.002 A 
ATOM     78  C   UNL A   1      42.041  24.338  26.446  1.00  0.00     0.091 A 
ATOM     79  F   UNL A   1      40.987  24.539  28.576  1.00  0.00    -0.205 F 
ATOM     80  C   UNL A   1      42.710  24.949  25.375  1.00  0.00     0.022 A 
BRANCH  78  81
ATOM     81  S   UNL A   1      41.787  22.562  26.353  1.00  0.00     0.127 S 
ATOM     82  O   UNL A   1      42.673  22.191  25.252  1.00  0.00    -0.237 OA
ATOM     83  O   UNL A   1      42.230  22.121  27.676  1.00  0.00    -0.237 OA
ATOM     84  O   UNL A   1      40.362  22.384  26.110  1.00  0.00    -0.744 OA
ENDBRANCH  78  81
ENDBRANCH  50  74
BRANCH  62  85
ATOM     85  C   UNL A   1      45.039  27.078  33.915  1.00  0.00     0.023 A 
ATOM     86  C   UNL A   1      46.312  27.671  33.803  1.00  0.00     0.012 A 
ATOM     87  C   UNL A   1      44.883  25.915  34.693  1.00  0.00     0.148 A 
ATOM     88  C   UNL A   1      47.416  27.101  34.434  1.00  0.00     0.002 A 
ATOM     89  C   UNL A   1      45.978  25.378  35.358  1.00  0.00     0.091 A 
ATOM     90  F   UNL A   1      43.666  25.356  34.770  1.00  0.00    -0.205 F 
ATOM     91  C   UNL A   1      47.247  25.964  35.222  1.00  0.00     0.022 A 
BRANCH  89  92
ATOM     92  S   UNL A   1      45.836  23.972  36.466  1.00  0.00     0.127 S 
ATOM     93  O   UNL A   1      45.621  22.872  35.527  1.00  0.00    -0.237 OA
ATOM     94  O   UNL A   1      47.141  23.963  37.127  1.00  0.00    -0.237 OA
ATOM     95  O   UNL A   1      44.715  24.269  37.349  1.00  0.00    -0.744 OA
ENDBRANCH  89  92
ENDBRANCH  62  85
ENDBRANCH  36  37
ENDBRANCH  29  31
ENDBRANCH  28  29
ENDBRANCH  27  28
ENDBRANCH   1  27
TORSDOF 18
ENDMDL
MODEL 3
REMARK VINA RESULT:     -11.4      2.398      3.427
REMARK SMILES CCc1ncc(C[N@H+]2CCC[C@@H](c3cccc(C(=O)OCCOC(=O)c4ccc(-c5c6nc(c(-c7cccc(S(=O)(=O)[O-])c7F)c7ccc([nH]7)c(-c7cccc(S(=O)(=O)[O-])c7F)c7nc(c(-c8cccc(S(=O)(=O)[O-])c8F)c8ccc5[nH]8)C=C7)C=C6)cc4)c3)C2)cn1
REMARK SMILES IDX 21 1 20 2 18 3 19 4 17 5 13 6 14 7 89 8 15 9 16 10 12 11
REMARK SMILES IDX 8 12 9 13 90 14 10 16 11 17 7 18 6 19 3 20 4 21 92 22 5 23
REMARK SMILES IDX 91 24 2 25 1 26 22 27 23 28 24 29 25 30 26 31 27 32 88 33
REMARK SMILES IDX 28 34 87 35 29 36 30 37 31 38 81 39 32 40 86 41 80 42 82 43
REMARK SMILES IDX 33 44 85 45 79 46 78 47 34 49 66 50 46 51 65 52 47 53 50 54
REMARK SMILES IDX 64 55 83 56 48 57 49 58 63 60 84 61 51 62 35 63 36 64 44 65
REMARK SMILES IDX 37 66 39 67 45 68 38 69 40 70 41 71 42 72 43 73 67 74 68 75
REMARK SMILES IDX 76 76 69 77 71 78 77 79 70 80 72 81 73 82 74 83 75 84 52 85
REMARK SMILES IDX 53 86 61 87 54 88 56 89 62 90 55 91 57 92 58 93 59 94 60 95
REMARK H PARENT 8 15 82 48 50 59
REMARK Flexibility Score: inf
ROOT
ATOM      1  C   UNL A   1      33.350  31.385  27.624  1.00  0.00     0.275 C 
ENDROOT
BRANCH   1   2
ATOM      2  O   UNL A   1      33.212  30.599  26.424  1.00  0.00    -0.458 OA
BRANCH   2   3
ATOM      3  C   UNL A   1      33.540  29.285  26.532  1.00  0.00     0.338 C 
ATOM      4  O   UNL A   1      34.179  28.768  27.428  1.00  0.00    -0.246 OA
BRANCH   3   5
ATOM      5  C   UNL A   1      32.903  28.510  25.438  1.00  0.00     0.060 A 
ATOM      6  C   UNL A   1      32.917  26.753  23.766  1.00  0.00    -0.038 A 
ATOM      7  C   UNL A   1      31.654  27.190  23.325  1.00  0.00     0.004 A 
ATOM      8  C   UNL A   1      33.560  27.457  24.795  1.00  0.00     0.020 A 
ATOM      9  C   UNL A   1      30.987  28.218  23.981  1.00  0.00     0.001 A 
ATOM     10  C   UNL A   1      31.590  28.837  25.070  1.00  0.00     0.016 A 
BRANCH   6  11
ATOM     11  C   UNL A   1      33.489  25.426  23.288  1.00  0.00     0.074 C 
ATOM     12  N   UNL A   1      33.695  23.035  24.118  1.00  0.00    -0.331 N 
ATOM     13  C   UNL A   1      33.045  22.562  22.889  1.00  0.00     0.262 C 
ATOM     14  C   UNL A   1      33.296  24.411  24.436  1.00  0.00     0.270 C 
ATOM     15  H   UNL A   1      34.697  23.029  23.929  1.00  0.00     0.348 HD
ATOM     16  C   UNL A   1      33.339  23.488  21.706  1.00  0.00     0.062 C 
ATOM     17  C   UNL A   1      32.865  24.913  21.986  1.00  0.00     0.020 C 
BRANCH  12  18
ATOM     18  C   UNL A   1      33.493  22.131  25.273  1.00  0.00     0.302 C 
BRANCH  18  19
ATOM     19  C   UNL A   1      33.482  20.657  24.980  1.00  0.00     0.043 A 
ATOM     20  C   UNL A   1      33.472  17.950  24.697  1.00  0.00     0.127 A 
ATOM     21  N   UNL A   1      32.287  18.566  24.868  1.00  0.00    -0.241 NA
ATOM     22  N   UNL A   1      34.652  18.588  24.585  1.00  0.00    -0.241 NA
ATOM     23  C   UNL A   1      32.324  19.907  25.006  1.00  0.00     0.124 A 
ATOM     24  C   UNL A   1      34.626  19.927  24.725  1.00  0.00     0.124 A 
BRANCH  20  25
ATOM     25  C   UNL A   1      33.483  16.449  24.650  1.00  0.00     0.074 C 
ATOM     26  C   UNL A   1      34.761  15.881  25.242  1.00  0.00     0.012 C 
ENDBRANCH  20  25
ENDBRANCH  18  19
ENDBRANCH  12  18
ENDBRANCH   6  11
ENDBRANCH   3   5
ENDBRANCH   2   3
ENDBRANCH   1   2
BRANCH   1  27
ATOM     27  C   UNL A   1      33.150  32.870  27.321  1.00  0.00     0.275 C 
BRANCH  27  28
ATOM     28  O   UNL A   1      32.524  33.529  28.437  1.00  0.00    -0.458 OA
BRANCH  28  29
ATOM     29  C   UNL A   1      33.126  34.664  28.856  1.00  0.00     0.338 C 
ATOM     30  O   UNL A   1      32.754  35.813  28.679  1.00  0.00    -0.246 OA
BRANCH  29  31
ATOM     31  C   UNL A   1      34.308  34.324  29.659  1.00  0.00     0.060 A 
ATOM     32  C   UNL A   1      35.560  34.683  29.171  1.00  0.00     0.016 A 
ATOM     33  C   UNL A   1      34.202  33.543  30.806  1.00  0.00     0.016 A 
ATOM     34  C   UNL A   1      36.720  34.190  29.759  1.00  0.00     0.010 A 
ATOM     35  C   UNL A   1      35.370  33.123  31.453  1.00  0.00     0.010 A 
ATOM     36  C   UNL A   1      36.642  33.406  30.916  1.00  0.00    -0.014 A 
BRANCH  36  37
ATOM     37  C   UNL A   1      37.873  32.840  31.539  1.00  0.00     0.031 A 
ATOM     38  C   UNL A   1      38.596  31.701  30.866  1.00  0.00     0.074 A 
ATOM     39  C   UNL A   1      38.335  33.318  32.713  1.00  0.00     0.049 A 
ATOM     40  N   UNL A   1      39.536  30.923  31.336  1.00  0.00    -0.248 NA
ATOM     41  C   UNL A   1      38.190  31.381  29.487  1.00  0.00     0.031 C 
ATOM     42  C   UNL A   1      37.759  34.437  33.460  1.00  0.00     0.029 A 
ATOM     43  N   UNL A   1      39.388  32.906  33.495  1.00  0.00    -0.354 N 
ATOM     44  C   UNL A   1      39.772  29.972  30.350  1.00  0.00     0.074 A 
ATOM     45  C   UNL A   1      38.887  30.280  29.246  1.00  0.00     0.031 C 
ATOM     46  C   UNL A   1      38.462  34.624  34.588  1.00  0.00     0.029 A 
ATOM     47  C   UNL A   1      39.487  33.591  34.685  1.00  0.00     0.049 A 
ATOM     48  H   UNL A   1      40.010  32.192  33.230  1.00  0.00     0.167 HD
ATOM     49  C   UNL A   1      40.649  28.940  30.359  1.00  0.00     0.034 A 
ATOM     50  C   UNL A   1      40.274  33.383  35.758  1.00  0.00     0.034 A 
ATOM     51  C   UNL A   1      41.584  28.688  31.422  1.00  0.00     0.049 A 
ATOM     52  C   UNL A   1      41.251  32.240  35.739  1.00  0.00     0.074 A 
ATOM     53  C   UNL A   1      42.544  27.694  31.508  1.00  0.00     0.029 A 
ATOM     54  N   UNL A   1      41.691  29.446  32.578  1.00  0.00    -0.354 N 
ATOM     55  N   UNL A   1      41.485  31.371  34.785  1.00  0.00    -0.248 NA
ATOM     56  C   UNL A   1      42.083  32.055  36.937  1.00  0.00     0.031 C 
ATOM     57  C   UNL A   1      43.223  27.845  32.721  1.00  0.00     0.029 A 
ATOM     58  C   UNL A   1      42.702  28.945  33.381  1.00  0.00     0.049 A 
ATOM     59  H   UNL A   1      41.130  30.225  32.797  1.00  0.00     0.167 HD
ATOM     60  C   UNL A   1      42.510  30.557  35.254  1.00  0.00     0.074 A 
ATOM     61  C   UNL A   1      42.865  31.049  36.569  1.00  0.00     0.031 C 
ATOM     62  C   UNL A   1      43.089  29.487  34.658  1.00  0.00     0.034 A 
BRANCH  49  63
ATOM     63  C   UNL A   1      40.656  28.010  29.174  1.00  0.00     0.023 A 
ATOM     64  C   UNL A   1      39.700  26.978  29.082  1.00  0.00     0.012 A 
ATOM     65  C   UNL A   1      41.575  28.195  28.121  1.00  0.00     0.148 A 
ATOM     66  C   UNL A   1      39.681  26.125  27.978  1.00  0.00     0.002 A 
ATOM     67  C   UNL A   1      41.521  27.369  27.003  1.00  0.00     0.091 A 
ATOM     68  F   UNL A   1      42.491  29.168  28.234  1.00  0.00    -0.205 F 
ATOM     69  C   UNL A   1      40.582  26.327  26.936  1.00  0.00     0.022 A 
BRANCH  67  70
ATOM     70  S   UNL A   1      42.587  27.602  25.576  1.00  0.00     0.127 S 
ATOM     71  O   UNL A   1      43.914  27.460  26.173  1.00  0.00    -0.237 OA
ATOM     72  O   UNL A   1      42.188  26.495  24.708  1.00  0.00    -0.237 OA
ATOM     73  O   UNL A   1      42.274  28.925  25.053  1.00  0.00    -0.744 OA
ENDBRANCH  67  70
ENDBRANCH  49  63
BRANCH  50  74
ATOM     74  C   UNL A   1      40.176  34.289  36.940  1.00  0.00     0.023 A 
ATOM     75  C   UNL A   1      40.652  35.610  36.840  1.00  0.00     0.012 A 
ATOM     76  C   UNL A   1      39.582  33.863  38.145  1.00  0.00     0.148 A 
ATOM     77  C   UNL A   1      40.556  36.484  37.924  1.00  0.00     0.002 A 
ATOM     78  C   UNL A   1      39.435  34.756  39.200  1.00  0.00     0.091 A 
ATOM     79  F   UNL A   1      39.156  32.595  38.231  1.00  0.00    -0.205 F 
ATOM     80  C   UNL A   1      39.936  36.063  39.098  1.00  0.00     0.022 A 
BRANCH  78  81
ATOM     81  S   UNL A   1      38.522  34.339  40.690  1.00  0.00     0.127 S 
ATOM     82  O   UNL A   1      39.485  33.504  41.405  1.00  0.00    -0.237 OA
ATOM     83  O   UNL A   1      38.288  35.656  41.283  1.00  0.00    -0.237 OA
ATOM     84  O   UNL A   1      37.315  33.666  40.232  1.00  0.00    -0.744 OA
ENDBRANCH  78  81
ENDBRANCH  50  74
BRANCH  62  85
ATOM     85  C   UNL A   1      44.209  28.799  35.392  1.00  0.00     0.023 A 
ATOM     86  C   UNL A   1      45.528  29.274  35.263  1.00  0.00     0.012 A 
ATOM     87  C   UNL A   1      43.937  27.736  36.275  1.00  0.00     0.148 A 
ATOM     88  C   UNL A   1      46.566  28.683  35.983  1.00  0.00     0.002 A 
ATOM     89  C   UNL A   1      44.968  27.183  37.025  1.00  0.00     0.091 A 
ATOM     90  F   UNL A   1      42.677  27.287  36.367  1.00  0.00    -0.205 F 
ATOM     91  C   UNL A   1      46.284  27.648  36.872  1.00  0.00     0.022 A 
BRANCH  89  92
ATOM     92  S   UNL A   1      44.683  25.911  38.260  1.00  0.00     0.127 S 
ATOM     93  O   UNL A   1      46.035  25.403  38.484  1.00  0.00    -0.237 OA
ATOM     94  O   UNL A   1      44.127  26.679  39.375  1.00  0.00    -0.237 OA
ATOM     95  O   UNL A   1      43.752  24.967  37.656  1.00  0.00    -0.744 OA
ENDBRANCH  89  92
ENDBRANCH  62  85
ENDBRANCH  36  37
ENDBRANCH  29  31
ENDBRANCH  28  29
ENDBRANCH  27  28
ENDBRANCH   1  27
TORSDOF 18
ENDMDL
