MODEL 1
REMARK VINA RESULT:     -11.8      0.000      0.000
REMARK SMILES COc1ccc(CNC(=O)[C@H]2CC(C)=C(C)C[C@@H]2C(=O)OCCOC(=O)c2ccc(-c3c4nc(c(-c5cccc(S(=O)(=O)[O-])c5F)c5ccc([nH]5)c(-c5cccc(S(=O)(=O)[O-])c5F)c5nc(c(-c6cccc(S(=O)(=O)[O-])c6F)c6ccc3[nH]6)C=C5)C=C4)cc2)cc1OC
REMARK SMILES IDX 22 1 21 2 19 3 20 4 18 5 11 6 12 7 13 8 17 9 14 10 15 11
REMARK SMILES IDX 16 12 9 13 8 14 10 16 7 17 6 18 3 19 4 20 91 21 5 22 90 23
REMARK SMILES IDX 2 24 1 25 92 26 93 27 23 28 24 29 25 30 26 31 27 32 28 33
REMARK SMILES IDX 89 34 29 35 88 36 30 37 31 38 32 39 82 40 33 41 87 42 81 43
REMARK SMILES IDX 83 44 34 45 86 46 80 47 79 48 35 50 67 51 47 52 66 53 48 54
REMARK SMILES IDX 51 55 65 56 84 57 49 58 50 59 64 61 85 62 52 63 36 64 37 65
REMARK SMILES IDX 45 66 38 67 40 68 46 69 39 70 41 71 42 72 43 73 44 74 68 75
REMARK SMILES IDX 69 76 77 77 70 78 72 79 78 80 71 81 73 82 74 83 75 84 76 85
REMARK SMILES IDX 53 86 54 87 62 88 55 89 57 90 63 91 56 92 58 93 59 94 60 95
REMARK SMILES IDX 61 96
REMARK H PARENT 8 15 83 49 51 60
REMARK Flexibility Score: inf
ROOT
ATOM      1  C   UNL A   1      31.457  28.592  26.051  1.00  0.00     0.274 C 
ENDROOT
BRANCH   1   2
ATOM      2  O   UNL A   1      32.699  28.079  25.531  1.00  0.00    -0.462 OA
BRANCH   2   3
ATOM      3  C   UNL A   1      32.865  26.736  25.663  1.00  0.00     0.310 C 
ATOM      4  O   UNL A   1      32.259  26.047  26.475  1.00  0.00    -0.252 OA
BRANCH   3   5
ATOM      5  C   UNL A   1      33.932  26.167  24.738  1.00  0.00     0.116 C 
ATOM      6  C   UNL A   1      33.214  25.431  23.583  1.00  0.00     0.097 C 
ATOM      7  C   UNL A   1      33.815  24.072  23.227  1.00  0.00     0.045 C 
ATOM      8  C   UNL A   1      34.714  23.365  24.199  1.00  0.00    -0.074 C 
ATOM      9  C   UNL A   1      35.072  25.463  25.492  1.00  0.00     0.046 C 
ATOM     10  C   UNL A   1      34.909  21.903  23.885  1.00  0.00     0.039 C 
ATOM     11  C   UNL A   1      35.315  24.009  25.212  1.00  0.00    -0.073 C 
ATOM     12  C   UNL A   1      36.345  23.358  26.099  1.00  0.00     0.039 C 
BRANCH   6  13
ATOM     13  C   UNL A   1      33.087  26.393  22.375  1.00  0.00     0.224 C 
ATOM     14  N   UNL A   1      31.972  27.119  22.112  1.00  0.00    -0.352 N 
ATOM     15  H   UNL A   1      32.135  27.899  21.533  1.00  0.00     0.163 HD
ATOM     16  O   UNL A   1      34.042  26.633  21.632  1.00  0.00    -0.275 OA
BRANCH  14  17
ATOM     17  C   UNL A   1      30.598  26.972  22.514  1.00  0.00     0.151 C 
BRANCH  17  18
ATOM     18  C   UNL A   1      29.818  28.255  22.493  1.00  0.00    -0.025 A 
ATOM     19  C   UNL A   1      28.388  30.647  22.823  1.00  0.00     0.160 A 
ATOM     20  C   UNL A   1      29.714  30.668  22.364  1.00  0.00     0.051 A 
ATOM     21  C   UNL A   1      27.751  29.426  23.071  1.00  0.00     0.161 A 
ATOM     22  C   UNL A   1      30.430  29.480  22.215  1.00  0.00     0.009 A 
ATOM     23  C   UNL A   1      28.476  28.243  22.899  1.00  0.00     0.056 A 
BRANCH  19  24
ATOM     24  O   UNL A   1      27.718  31.834  22.963  1.00  0.00    -0.493 OA
ATOM     25  C   UNL A   1      28.588  32.953  22.790  1.00  0.00     0.278 C 
ENDBRANCH  19  24
BRANCH  21  26
ATOM     26  O   UNL A   1      26.468  29.201  23.489  1.00  0.00    -0.493 OA
ATOM     27  C   UNL A   1      26.118  27.884  23.878  1.00  0.00     0.278 C 
ENDBRANCH  21  26
ENDBRANCH  17  18
ENDBRANCH  14  17
ENDBRANCH   6  13
ENDBRANCH   3   5
ENDBRANCH   2   3
ENDBRANCH   1   2
BRANCH   1  28
ATOM     28  C   UNL A   1      31.634  30.023  26.557  1.00  0.00     0.275 C 
BRANCH  28  29
ATOM     29  O   UNL A   1      32.983  30.473  26.337  1.00  0.00    -0.458 OA
BRANCH  29  30
ATOM     30  C   UNL A   1      33.423  31.443  27.171  1.00  0.00     0.338 C 
ATOM     31  O   UNL A   1      32.840  32.465  27.491  1.00  0.00    -0.246 OA
BRANCH  30  32
ATOM     32  C   UNL A   1      34.754  31.091  27.686  1.00  0.00     0.060 A 
ATOM     33  C   UNL A   1      35.034  29.770  28.040  1.00  0.00     0.016 A 
ATOM     34  C   UNL A   1      35.683  32.099  27.934  1.00  0.00     0.016 A 
ATOM     35  C   UNL A   1      36.221  29.457  28.698  1.00  0.00     0.010 A 
ATOM     36  C   UNL A   1      36.902  31.774  28.536  1.00  0.00     0.010 A 
ATOM     37  C   UNL A   1      37.169  30.456  28.951  1.00  0.00    -0.014 A 
BRANCH  37  38
ATOM     38  C   UNL A   1      38.426  30.147  29.678  1.00  0.00     0.031 A 
ATOM     39  C   UNL A   1      39.413  29.178  29.085  1.00  0.00     0.074 A 
ATOM     40  C   UNL A   1      38.665  30.701  30.883  1.00  0.00     0.049 A 
ATOM     41  N   UNL A   1      40.468  28.633  29.631  1.00  0.00    -0.248 NA
ATOM     42  C   UNL A   1      39.172  28.757  27.694  1.00  0.00     0.031 C 
ATOM     43  C   UNL A   1      37.797  31.666  31.558  1.00  0.00     0.029 A 
ATOM     44  N   UNL A   1      39.698  30.505  31.767  1.00  0.00    -0.354 N 
ATOM     45  C   UNL A   1      40.987  27.768  28.675  1.00  0.00     0.074 A 
ATOM     46  C   UNL A   1      40.132  27.860  27.512  1.00  0.00     0.031 C 
ATOM     47  C   UNL A   1      38.321  31.965  32.757  1.00  0.00     0.029 A 
ATOM     48  C   UNL A   1      39.531  31.176  32.957  1.00  0.00     0.049 A 
ATOM     49  H   UNL A   1      40.479  29.941  31.569  1.00  0.00     0.167 HD
ATOM     50  C   UNL A   1      42.086  26.979  28.754  1.00  0.00     0.034 A 
ATOM     51  C   UNL A   1      40.251  31.131  34.095  1.00  0.00     0.034 A 
ATOM     52  C   UNL A   1      42.963  26.930  29.893  1.00  0.00     0.049 A 
ATOM     53  C   UNL A   1      41.468  30.249  34.156  1.00  0.00     0.074 A 
ATOM     54  C   UNL A   1      44.108  26.174  30.066  1.00  0.00     0.029 A 
ATOM     55  N   UNL A   1      42.800  27.680  31.048  1.00  0.00    -0.354 N 
ATOM     56  N   UNL A   1      41.974  29.476  33.225  1.00  0.00    -0.248 NA
ATOM     57  C   UNL A   1      42.225  30.246  35.416  1.00  0.00     0.031 C 
ATOM     58  C   UNL A   1      44.641  26.468  31.327  1.00  0.00     0.029 A 
ATOM     59  C   UNL A   1      43.829  27.413  31.935  1.00  0.00     0.049 A 
ATOM     60  H   UNL A   1      42.063  28.311  31.212  1.00  0.00     0.167 HD
ATOM     61  C   UNL A   1      43.119  28.914  33.777  1.00  0.00     0.074 A 
ATOM     62  C   UNL A   1      43.247  29.456  35.114  1.00  0.00     0.031 C 
ATOM     63  C   UNL A   1      43.973  28.010  33.236  1.00  0.00     0.034 A 
BRANCH  50  64
ATOM     64  C   UNL A   1      42.427  26.135  27.556  1.00  0.00     0.023 A 
ATOM     65  C   UNL A   1      43.210  26.688  26.523  1.00  0.00     0.012 A 
ATOM     66  C   UNL A   1      42.024  24.788  27.473  1.00  0.00     0.148 A 
ATOM     67  C   UNL A   1      43.566  25.921  25.414  1.00  0.00     0.002 A 
ATOM     68  C   UNL A   1      42.412  24.019  26.381  1.00  0.00     0.091 A 
ATOM     69  F   UNL A   1      41.258  24.287  28.454  1.00  0.00    -0.205 F 
ATOM     70  C   UNL A   1      43.177  24.585  25.348  1.00  0.00     0.022 A 
BRANCH  68  71
ATOM     71  S   UNL A   1      42.014  22.272  26.238  1.00  0.00     0.127 S 
ATOM     72  O   UNL A   1      40.556  22.308  26.141  1.00  0.00    -0.237 OA
ATOM     73  O   UNL A   1      42.699  21.897  25.001  1.00  0.00    -0.237 OA
ATOM     74  O   UNL A   1      42.550  21.643  27.439  1.00  0.00    -0.744 OA
ENDBRANCH  68  71
ENDBRANCH  50  64
BRANCH  51  75
ATOM     75  C   UNL A   1      39.849  31.969  35.260  1.00  0.00     0.023 A 
ATOM     76  C   UNL A   1      40.304  33.299  35.344  1.00  0.00     0.012 A 
ATOM     77  C   UNL A   1      38.994  31.472  36.263  1.00  0.00     0.148 A 
ATOM     78  C   UNL A   1      39.932  34.112  36.415  1.00  0.00     0.002 A 
ATOM     79  C   UNL A   1      38.584  32.304  37.300  1.00  0.00     0.091 A 
ATOM     80  F   UNL A   1      38.591  30.196  36.185  1.00  0.00    -0.205 F 
ATOM     81  C   UNL A   1      39.063  33.620  37.386  1.00  0.00     0.022 A 
BRANCH  79  82
ATOM     82  S   UNL A   1      37.362  31.775  38.506  1.00  0.00     0.127 S 
ATOM     83  O   UNL A   1      38.080  31.962  39.764  1.00  0.00    -0.237 OA
ATOM     84  O   UNL A   1      36.267  32.719  38.278  1.00  0.00    -0.237 OA
ATOM     85  O   UNL A   1      37.044  30.399  38.145  1.00  0.00    -0.744 OA
ENDBRANCH  79  82
ENDBRANCH  51  75
BRANCH  63  86
ATOM     86  C   UNL A   1      45.137  27.566  34.081  1.00  0.00     0.023 A 
ATOM     87  C   UNL A   1      46.293  28.368  34.141  1.00  0.00     0.012 A 
ATOM     88  C   UNL A   1      45.057  26.401  34.867  1.00  0.00     0.148 A 
ATOM     89  C   UNL A   1      47.364  28.003  34.955  1.00  0.00     0.002 A 
ATOM     90  C   UNL A   1      46.114  26.064  35.705  1.00  0.00     0.091 A 
ATOM     91  F   UNL A   1      43.957  25.640  34.777  1.00  0.00    -0.205 F 
ATOM     92  C   UNL A   1      47.271  26.860  35.745  1.00  0.00     0.022 A 
BRANCH  90  93
ATOM     93  S   UNL A   1      46.039  24.654  36.816  1.00  0.00     0.127 S 
ATOM     94  O   UNL A   1      44.821  24.935  37.575  1.00  0.00    -0.237 OA
ATOM     95  O   UNL A   1      45.932  23.527  35.889  1.00  0.00    -0.237 OA
ATOM     96  O   UNL A   1      47.279  24.687  37.580  1.00  0.00    -0.744 OA
ENDBRANCH  90  93
ENDBRANCH  63  86
ENDBRANCH  37  38
ENDBRANCH  30  32
ENDBRANCH  29  30
ENDBRANCH  28  29
ENDBRANCH   1  28
TORSDOF 19
ENDMDL
MODEL 2
REMARK VINA RESULT:     -11.8      1.775      4.161
REMARK SMILES COc1ccc(CNC(=O)[C@H]2CC(C)=C(C)C[C@@H]2C(=O)OCCOC(=O)c2ccc(-c3c4nc(c(-c5cccc(S(=O)(=O)[O-])c5F)c5ccc([nH]5)c(-c5cccc(S(=O)(=O)[O-])c5F)c5nc(c(-c6cccc(S(=O)(=O)[O-])c6F)c6ccc3[nH]6)C=C5)C=C4)cc2)cc1OC
REMARK SMILES IDX 22 1 21 2 19 3 20 4 18 5 11 6 12 7 13 8 17 9 14 10 15 11
REMARK SMILES IDX 16 12 9 13 8 14 10 16 7 17 6 18 3 19 4 20 91 21 5 22 90 23
REMARK SMILES IDX 2 24 1 25 92 26 93 27 23 28 24 29 25 30 26 31 27 32 28 33
REMARK SMILES IDX 89 34 29 35 88 36 30 37 31 38 32 39 82 40 33 41 87 42 81 43
REMARK SMILES IDX 83 44 34 45 86 46 80 47 79 48 35 50 67 51 47 52 66 53 48 54
REMARK SMILES IDX 51 55 65 56 84 57 49 58 50 59 64 61 85 62 52 63 36 64 37 65
REMARK SMILES IDX 45 66 38 67 40 68 46 69 39 70 41 71 42 72 43 73 44 74 68 75
REMARK SMILES IDX 69 76 77 77 70 78 72 79 78 80 71 81 73 82 74 83 75 84 76 85
REMARK SMILES IDX 53 86 54 87 62 88 55 89 57 90 63 91 56 92 58 93 59 94 60 95
REMARK SMILES IDX 61 96
REMARK H PARENT 8 15 83 49 51 60
REMARK Flexibility Score: inf
ROOT
ATOM      1  C   UNL A   1      31.686  28.556  27.547  1.00  0.00     0.274 C 
ENDROOT
BRANCH   1   2
ATOM      2  O   UNL A   1      31.214  27.387  26.850  1.00  0.00    -0.462 OA
BRANCH   2   3
ATOM      3  C   UNL A   1      32.121  26.811  26.015  1.00  0.00     0.310 C 
ATOM      4  O   UNL A   1      33.249  26.475  26.355  1.00  0.00    -0.252 OA
BRANCH   3   5
ATOM      5  C   UNL A   1      31.620  26.675  24.584  1.00  0.00     0.116 C 
ATOM      6  C   UNL A   1      32.060  27.937  23.806  1.00  0.00     0.097 C 
ATOM      7  C   UNL A   1      30.979  28.538  22.909  1.00  0.00     0.045 C 
ATOM      8  C   UNL A   1      29.536  28.187  23.125  1.00  0.00    -0.074 C 
ATOM      9  C   UNL A   1      30.158  26.205  24.498  1.00  0.00     0.046 C 
ATOM     10  C   UNL A   1      28.577  29.129  22.442  1.00  0.00     0.039 C 
ATOM     11  C   UNL A   1      29.164  27.101  23.822  1.00  0.00    -0.073 C 
ATOM     12  C   UNL A   1      27.731  26.640  23.914  1.00  0.00     0.039 C 
BRANCH   6  13
ATOM     13  C   UNL A   1      33.387  27.634  23.066  1.00  0.00     0.224 C 
ATOM     14  N   UNL A   1      33.529  26.633  22.163  1.00  0.00    -0.352 N 
ATOM     15  H   UNL A   1      34.293  26.753  21.553  1.00  0.00     0.163 HD
ATOM     16  O   UNL A   1      34.377  28.361  23.183  1.00  0.00    -0.275 OA
BRANCH  14  17
ATOM     17  C   UNL A   1      32.778  25.428  21.921  1.00  0.00     0.151 C 
BRANCH  17  18
ATOM     18  C   UNL A   1      33.265  24.242  22.702  1.00  0.00    -0.025 A 
ATOM     19  C   UNL A   1      34.001  22.175  24.453  1.00  0.00     0.160 A 
ATOM     20  C   UNL A   1      32.997  21.972  23.494  1.00  0.00     0.051 A 
ATOM     21  C   UNL A   1      34.680  23.398  24.509  1.00  0.00     0.161 A 
ATOM     22  C   UNL A   1      32.620  23.004  22.635  1.00  0.00     0.009 A 
ATOM     23  C   UNL A   1      34.303  24.416  23.629  1.00  0.00     0.056 A 
BRANCH  19  24
ATOM     24  O   UNL A   1      34.341  21.141  25.284  1.00  0.00    -0.493 OA
ATOM     25  C   UNL A   1      33.637  21.210  26.525  1.00  0.00     0.278 C 
ENDBRANCH  19  24
BRANCH  21  26
ATOM     26  O   UNL A   1      35.697  23.773  25.343  1.00  0.00    -0.493 OA
ATOM     27  C   UNL A   1      37.028  23.567  24.902  1.00  0.00     0.278 C 
ENDBRANCH  21  26
ENDBRANCH  17  18
ENDBRANCH  14  17
ENDBRANCH   6  13
ENDBRANCH   3   5
ENDBRANCH   2   3
ENDBRANCH   1   2
BRANCH   1  28
ATOM     28  C   UNL A   1      31.547  29.799  26.669  1.00  0.00     0.275 C 
BRANCH  28  29
ATOM     29  O   UNL A   1      32.843  30.331  26.339  1.00  0.00    -0.458 OA
BRANCH  29  30
ATOM     30  C   UNL A   1      33.261  31.371  27.095  1.00  0.00     0.338 C 
ATOM     31  O   UNL A   1      32.652  32.398  27.346  1.00  0.00    -0.246 OA
BRANCH  30  32
ATOM     32  C   UNL A   1      34.606  31.095  27.621  1.00  0.00     0.060 A 
ATOM     33  C   UNL A   1      34.971  29.787  27.941  1.00  0.00     0.016 A 
ATOM     34  C   UNL A   1      35.462  32.156  27.911  1.00  0.00     0.016 A 
ATOM     35  C   UNL A   1      36.168  29.536  28.609  1.00  0.00     0.010 A 
ATOM     36  C   UNL A   1      36.691  31.897  28.521  1.00  0.00     0.010 A 
ATOM     37  C   UNL A   1      37.041  30.589  28.904  1.00  0.00    -0.014 A 
BRANCH  37  38
ATOM     38  C   UNL A   1      38.308  30.344  29.641  1.00  0.00     0.031 A 
ATOM     39  C   UNL A   1      39.353  29.439  29.049  1.00  0.00     0.074 A 
ATOM     40  C   UNL A   1      38.503  30.898  30.853  1.00  0.00     0.049 A 
ATOM     41  N   UNL A   1      40.433  28.949  29.601  1.00  0.00    -0.248 NA
ATOM     42  C   UNL A   1      39.151  29.019  27.651  1.00  0.00     0.031 C 
ATOM     43  C   UNL A   1      37.575  31.806  31.528  1.00  0.00     0.029 A 
ATOM     44  N   UNL A   1      39.536  30.753  31.746  1.00  0.00    -0.354 N 
ATOM     45  C   UNL A   1      41.009  28.125  28.641  1.00  0.00     0.074 A 
ATOM     46  C   UNL A   1      40.161  28.180  27.470  1.00  0.00     0.031 C 
ATOM     47  C   UNL A   1      38.068  32.123  32.735  1.00  0.00     0.029 A 
ATOM     48  C   UNL A   1      39.320  31.402  32.940  1.00  0.00     0.049 A 
ATOM     49  H   UNL A   1      40.350  30.237  31.551  1.00  0.00     0.167 HD
ATOM     50  C   UNL A   1      42.150  27.399  28.724  1.00  0.00     0.034 A 
ATOM     51  C   UNL A   1      40.030  31.386  34.085  1.00  0.00     0.034 A 
ATOM     52  C   UNL A   1      43.018  27.388  29.872  1.00  0.00     0.049 A 
ATOM     53  C   UNL A   1      41.294  30.574  34.150  1.00  0.00     0.074 A 
ATOM     54  C   UNL A   1      44.202  26.696  30.050  1.00  0.00     0.029 A 
ATOM     55  N   UNL A   1      42.802  28.116  31.032  1.00  0.00    -0.354 N 
ATOM     56  N   UNL A   1      41.853  29.841  33.217  1.00  0.00    -0.248 NA
ATOM     57  C   UNL A   1      42.038  30.601  35.418  1.00  0.00     0.031 C 
ATOM     58  C   UNL A   1      44.705  27.008  31.318  1.00  0.00     0.029 A 
ATOM     59  C   UNL A   1      43.835  27.899  31.927  1.00  0.00     0.049 A 
ATOM     60  H   UNL A   1      42.027  28.702  31.194  1.00  0.00     0.167 HD
ATOM     61  C   UNL A   1      43.022  29.339  33.776  1.00  0.00     0.074 A 
ATOM     62  C   UNL A   1      43.106  29.873  35.119  1.00  0.00     0.031 C 
ATOM     63  C   UNL A   1      43.932  28.491  33.235  1.00  0.00     0.034 A 
BRANCH  50  64
ATOM     64  C   UNL A   1      42.551  26.588  27.521  1.00  0.00     0.023 A 
ATOM     65  C   UNL A   1      43.344  27.183  26.521  1.00  0.00     0.012 A 
ATOM     66  C   UNL A   1      42.192  25.230  27.404  1.00  0.00     0.148 A 
ATOM     67  C   UNL A   1      43.755  26.448  25.410  1.00  0.00     0.002 A 
ATOM     68  C   UNL A   1      42.635  24.494  26.310  1.00  0.00     0.091 A 
ATOM     69  F   UNL A   1      41.416  24.689  28.354  1.00  0.00    -0.205 F 
ATOM     70  C   UNL A   1      43.409  25.103  25.309  1.00  0.00     0.022 A 
BRANCH  68  71
ATOM     71  S   UNL A   1      42.295  22.739  26.126  1.00  0.00     0.127 S 
ATOM     72  O   UNL A   1      42.856  22.466  24.804  1.00  0.00    -0.237 OA
ATOM     73  O   UNL A   1      43.047  22.158  27.239  1.00  0.00    -0.237 OA
ATOM     74  O   UNL A   1      40.849  22.599  26.237  1.00  0.00    -0.744 OA
ENDBRANCH  68  71
ENDBRANCH  50  64
BRANCH  51  75
ATOM     75  C   UNL A   1      39.570  32.188  35.254  1.00  0.00     0.023 A 
ATOM     76  C   UNL A   1      38.758  31.581  36.231  1.00  0.00     0.012 A 
ATOM     77  C   UNL A   1      39.957  33.531  35.423  1.00  0.00     0.148 A 
ATOM     78  C   UNL A   1      38.323  32.302  37.343  1.00  0.00     0.002 A 
ATOM     79  C   UNL A   1      39.566  34.229  36.561  1.00  0.00     0.091 A 
ATOM     80  F   UNL A   1      40.708  34.105  34.471  1.00  0.00    -0.205 F 
ATOM     81  C   UNL A   1      38.737  33.621  37.516  1.00  0.00     0.022 A 
BRANCH  79  82
ATOM     82  S   UNL A   1      40.174  35.883  36.909  1.00  0.00     0.127 S 
ATOM     83  O   UNL A   1      41.619  35.676  36.924  1.00  0.00    -0.237 OA
ATOM     84  O   UNL A   1      39.675  36.648  35.764  1.00  0.00    -0.237 OA
ATOM     85  O   UNL A   1      39.562  36.252  38.179  1.00  0.00    -0.744 OA
ENDBRANCH  79  82
ENDBRANCH  51  75
BRANCH  63  86
ATOM     86  C   UNL A   1      45.111  28.105  34.088  1.00  0.00     0.023 A 
ATOM     87  C   UNL A   1      46.275  28.897  34.057  1.00  0.00     0.012 A 
ATOM     88  C   UNL A   1      45.039  27.009  34.969  1.00  0.00     0.148 A 
ATOM     89  C   UNL A   1      47.361  28.588  34.874  1.00  0.00     0.002 A 
ATOM     90  C   UNL A   1      46.111  26.730  35.808  1.00  0.00     0.091 A 
ATOM     91  F   UNL A   1      43.930  26.254  34.965  1.00  0.00    -0.205 F 
ATOM     92  C   UNL A   1      47.276  27.514  35.756  1.00  0.00     0.022 A 
BRANCH  90  93
ATOM     93  S   UNL A   1      46.049  25.417  37.032  1.00  0.00     0.127 S 
ATOM     94  O   UNL A   1      46.052  24.222  36.190  1.00  0.00    -0.237 OA
ATOM     95  O   UNL A   1      47.285  25.632  37.788  1.00  0.00    -0.237 OA
ATOM     96  O   UNL A   1      44.832  25.647  37.797  1.00  0.00    -0.744 OA
ENDBRANCH  90  93
ENDBRANCH  63  86
ENDBRANCH  37  38
ENDBRANCH  30  32
ENDBRANCH  29  30
ENDBRANCH  28  29
ENDBRANCH   1  28
TORSDOF 19
ENDMDL
MODEL 3
REMARK VINA RESULT:     -11.8      1.677      4.530
REMARK SMILES COc1ccc(CNC(=O)[C@H]2CC(C)=C(C)C[C@@H]2C(=O)OCCOC(=O)c2ccc(-c3c4nc(c(-c5cccc(S(=O)(=O)[O-])c5F)c5ccc([nH]5)c(-c5cccc(S(=O)(=O)[O-])c5F)c5nc(c(-c6cccc(S(=O)(=O)[O-])c6F)c6ccc3[nH]6)C=C5)C=C4)cc2)cc1OC
REMARK SMILES IDX 22 1 21 2 19 3 20 4 18 5 11 6 12 7 13 8 17 9 14 10 15 11
REMARK SMILES IDX 16 12 9 13 8 14 10 16 7 17 6 18 3 19 4 20 91 21 5 22 90 23
REMARK SMILES IDX 2 24 1 25 92 26 93 27 23 28 24 29 25 30 26 31 27 32 28 33
REMARK SMILES IDX 89 34 29 35 88 36 30 37 31 38 32 39 82 40 33 41 87 42 81 43
REMARK SMILES IDX 83 44 34 45 86 46 80 47 79 48 35 50 67 51 47 52 66 53 48 54
REMARK SMILES IDX 51 55 65 56 84 57 49 58 50 59 64 61 85 62 52 63 36 64 37 65
REMARK SMILES IDX 45 66 38 67 40 68 46 69 39 70 41 71 42 72 43 73 44 74 68 75
REMARK SMILES IDX 69 76 77 77 70 78 72 79 78 80 71 81 73 82 74 83 75 84 76 85
REMARK SMILES IDX 53 86 54 87 62 88 55 89 57 90 63 91 56 92 58 93 59 94 60 95
REMARK SMILES IDX 61 96
REMARK H PARENT 8 15 83 49 51 60
REMARK Flexibility Score: inf
ROOT
ATOM      1  C   UNL A   1      31.427  28.409  26.666  1.00  0.00     0.274 C 
ENDROOT
BRANCH   1   2
ATOM      2  O   UNL A   1      31.753  27.297  25.810  1.00  0.00    -0.462 OA
BRANCH   2   3
ATOM      3  C   UNL A   1      30.705  26.490  25.493  1.00  0.00     0.310 C 
ATOM      4  O   UNL A   1      30.193  25.694  26.272  1.00  0.00    -0.252 OA
BRANCH   3   5
ATOM      5  C   UNL A   1      30.257  26.625  24.045  1.00  0.00     0.116 C 
ATOM      6  C   UNL A   1      31.412  27.278  23.251  1.00  0.00     0.097 C 
ATOM      7  C   UNL A   1      30.974  28.379  22.285  1.00  0.00     0.045 C 
ATOM      8  C   UNL A   1      29.632  29.032  22.442  1.00  0.00    -0.074 C 
ATOM      9  C   UNL A   1      28.831  27.182  23.902  1.00  0.00     0.046 C 
ATOM     10  C   UNL A   1      29.502  30.330  21.684  1.00  0.00     0.039 C 
ATOM     11  C   UNL A   1      28.643  28.467  23.152  1.00  0.00    -0.073 C 
ATOM     12  C   UNL A   1      27.242  29.022  23.189  1.00  0.00     0.039 C 
BRANCH   6  13
ATOM     13  C   UNL A   1      32.259  26.165  22.586  1.00  0.00     0.224 C 
ATOM     14  N   UNL A   1      33.099  25.352  23.273  1.00  0.00    -0.352 N 
ATOM     15  H   UNL A   1      33.314  24.514  22.803  1.00  0.00     0.163 HD
ATOM     16  O   UNL A   1      32.138  25.882  21.391  1.00  0.00    -0.275 OA
BRANCH  14  17
ATOM     17  C   UNL A   1      33.737  25.477  24.558  1.00  0.00     0.151 C 
BRANCH  17  18
ATOM     18  C   UNL A   1      34.471  24.241  24.994  1.00  0.00    -0.025 A 
ATOM     19  C   UNL A   1      35.866  21.849  25.448  1.00  0.00     0.160 A 
ATOM     20  C   UNL A   1      36.515  23.085  25.575  1.00  0.00     0.051 A 
ATOM     21  C   UNL A   1      34.501  21.801  25.143  1.00  0.00     0.161 A 
ATOM     22  C   UNL A   1      35.826  24.275  25.334  1.00  0.00     0.009 A 
ATOM     23  C   UNL A   1      33.820  23.001  24.922  1.00  0.00     0.056 A 
BRANCH  19  24
ATOM     24  O   UNL A   1      36.576  20.701  25.687  1.00  0.00    -0.493 OA
ATOM     25  C   UNL A   1      37.659  20.552  24.768  1.00  0.00     0.278 C 
ENDBRANCH  19  24
BRANCH  21  26
ATOM     26  O   UNL A   1      33.693  20.705  25.007  1.00  0.00    -0.493 OA
ATOM     27  C   UNL A   1      32.461  20.868  24.326  1.00  0.00     0.278 C 
ENDBRANCH  21  26
ENDBRANCH  17  18
ENDBRANCH  14  17
ENDBRANCH   6  13
ENDBRANCH   3   5
ENDBRANCH   2   3
ENDBRANCH   1   2
BRANCH   1  28
ATOM     28  C   UNL A   1      31.527  29.727  25.899  1.00  0.00     0.275 C 
BRANCH  28  29
ATOM     29  O   UNL A   1      32.877  30.223  25.923  1.00  0.00    -0.458 OA
BRANCH  29  30
ATOM     30  C   UNL A   1      33.148  31.142  26.878  1.00  0.00     0.338 C 
ATOM     31  O   UNL A   1      32.429  32.050  27.258  1.00  0.00    -0.246 OA
BRANCH  30  32
ATOM     32  C   UNL A   1      34.482  30.892  27.445  1.00  0.00     0.060 A 
ATOM     33  C   UNL A   1      34.898  29.582  27.687  1.00  0.00     0.016 A 
ATOM     34  C   UNL A   1      35.269  31.968  27.851  1.00  0.00     0.016 A 
ATOM     35  C   UNL A   1      36.076  29.339  28.390  1.00  0.00     0.010 A 
ATOM     36  C   UNL A   1      36.482  31.723  28.497  1.00  0.00     0.010 A 
ATOM     37  C   UNL A   1      36.882  30.408  28.801  1.00  0.00    -0.014 A 
BRANCH  37  38
ATOM     38  C   UNL A   1      38.126  30.170  29.577  1.00  0.00     0.031 A 
ATOM     39  C   UNL A   1      39.183  29.250  29.030  1.00  0.00     0.074 A 
ATOM     40  C   UNL A   1      38.290  30.743  30.785  1.00  0.00     0.049 A 
ATOM     41  N   UNL A   1      40.244  28.765  29.619  1.00  0.00    -0.248 NA
ATOM     42  C   UNL A   1      39.017  28.807  27.634  1.00  0.00     0.031 C 
ATOM     43  C   UNL A   1      37.348  31.666  31.419  1.00  0.00     0.029 A 
ATOM     44  N   UNL A   1      39.297  30.608  31.709  1.00  0.00    -0.354 N 
ATOM     45  C   UNL A   1      40.843  27.922  28.690  1.00  0.00     0.074 A 
ATOM     46  C   UNL A   1      40.028  27.961  27.496  1.00  0.00     0.031 C 
ATOM     47  C   UNL A   1      37.810  32.001  32.634  1.00  0.00     0.029 A 
ATOM     48  C   UNL A   1      39.051  31.278  32.886  1.00  0.00     0.049 A 
ATOM     49  H   UNL A   1      40.114  30.085  31.545  1.00  0.00     0.167 HD
ATOM     50  C   UNL A   1      41.977  27.192  28.817  1.00  0.00     0.034 A 
ATOM     51  C   UNL A   1      39.729  31.278  34.050  1.00  0.00     0.034 A 
ATOM     52  C   UNL A   1      42.812  27.196  29.988  1.00  0.00     0.049 A 
ATOM     53  C   UNL A   1      40.987  30.461  34.164  1.00  0.00     0.074 A 
ATOM     54  C   UNL A   1      43.988  26.502  30.211  1.00  0.00     0.029 A 
ATOM     55  N   UNL A   1      42.568  27.944  31.130  1.00  0.00    -0.354 N 
ATOM     56  N   UNL A   1      41.567  29.710  33.259  1.00  0.00    -0.248 NA
ATOM     57  C   UNL A   1      41.695  30.506  35.451  1.00  0.00     0.031 C 
ATOM     58  C   UNL A   1      44.457  26.833  31.488  1.00  0.00     0.029 A 
ATOM     59  C   UNL A   1      43.574  27.737  32.057  1.00  0.00     0.049 A 
ATOM     60  H   UNL A   1      41.792  28.537  31.261  1.00  0.00     0.167 HD
ATOM     61  C   UNL A   1      42.718  29.212  33.858  1.00  0.00     0.074 A 
ATOM     62  C   UNL A   1      42.767  29.768  35.194  1.00  0.00     0.031 C 
ATOM     63  C   UNL A   1      43.638  28.351  33.357  1.00  0.00     0.034 A 
BRANCH  50  64
ATOM     64  C   UNL A   1      42.407  26.359  27.640  1.00  0.00     0.023 A 
ATOM     65  C   UNL A   1      43.249  26.927  26.663  1.00  0.00     0.012 A 
ATOM     66  C   UNL A   1      42.027  25.007  27.524  1.00  0.00     0.148 A 
ATOM     67  C   UNL A   1      43.686  26.171  25.576  1.00  0.00     0.002 A 
ATOM     68  C   UNL A   1      42.496  24.250  26.457  1.00  0.00     0.091 A 
ATOM     69  F   UNL A   1      41.206  24.491  28.450  1.00  0.00    -0.205 F 
ATOM     70  C   UNL A   1      43.319  24.831  25.478  1.00  0.00     0.022 A 
BRANCH  68  71
ATOM     71  S   UNL A   1      42.131  22.499  26.280  1.00  0.00     0.127 S 
ATOM     72  O   UNL A   1      42.685  21.954  27.518  1.00  0.00    -0.237 OA
ATOM     73  O   UNL A   1      40.669  22.491  26.211  1.00  0.00    -0.237 OA
ATOM     74  O   UNL A   1      42.795  22.075  25.054  1.00  0.00    -0.744 OA
ENDBRANCH  68  71
ENDBRANCH  50  64
BRANCH  51  75
ATOM     75  C   UNL A   1      39.240  32.101  35.192  1.00  0.00     0.023 A 
ATOM     76  C   UNL A   1      38.301  31.553  36.087  1.00  0.00     0.012 A 
ATOM     77  C   UNL A   1      39.723  33.405  35.419  1.00  0.00     0.148 A 
ATOM     78  C   UNL A   1      37.836  32.295  37.173  1.00  0.00     0.002 A 
ATOM     79  C   UNL A   1      39.297  34.119  36.534  1.00  0.00     0.091 A 
ATOM     80  F   UNL A   1      40.596  33.924  34.544  1.00  0.00    -0.205 F 
ATOM     81  C   UNL A   1      38.343  33.571  37.405  1.00  0.00     0.022 A 
BRANCH  79  82
ATOM     82  S   UNL A   1      40.009  35.712  36.963  1.00  0.00     0.127 S 
ATOM     83  O   UNL A   1      41.425  35.383  37.092  1.00  0.00    -0.237 OA
ATOM     84  O   UNL A   1      39.673  36.530  35.796  1.00  0.00    -0.237 OA
ATOM     85  O   UNL A   1      39.327  36.114  38.186  1.00  0.00    -0.744 OA
ENDBRANCH  79  82
ENDBRANCH  51  75
BRANCH  63  86
ATOM     86  C   UNL A   1      44.791  27.973  34.249  1.00  0.00     0.023 A 
ATOM     87  C   UNL A   1      45.940  28.788  34.275  1.00  0.00     0.012 A 
ATOM     88  C   UNL A   1      44.706  26.862  35.109  1.00  0.00     0.148 A 
ATOM     89  C   UNL A   1      47.000  28.487  35.128  1.00  0.00     0.002 A 
ATOM     90  C   UNL A   1      45.751  26.591  35.985  1.00  0.00     0.091 A 
ATOM     91  F   UNL A   1      43.614  26.087  35.052  1.00  0.00    -0.205 F 
ATOM     92  C   UNL A   1      46.902  27.397  35.991  1.00  0.00     0.022 A 
BRANCH  90  93
ATOM     93  S   UNL A   1      45.668  25.257  37.186  1.00  0.00     0.127 S 
ATOM     94  O   UNL A   1      45.579  24.082  36.322  1.00  0.00    -0.237 OA
ATOM     95  O   UNL A   1      46.940  25.395  37.899  1.00  0.00    -0.237 OA
ATOM     96  O   UNL A   1      44.493  25.532  38.001  1.00  0.00    -0.744 OA
ENDBRANCH  90  93
ENDBRANCH  63  86
ENDBRANCH  37  38
ENDBRANCH  30  32
ENDBRANCH  29  30
ENDBRANCH  28  29
ENDBRANCH   1  28
TORSDOF 19
ENDMDL
