MODEL 1
REMARK VINA RESULT:     -13.0      0.000      0.000
REMARK SMILES O=C(OCCOC(=O)[C@H]1CC=CC[C@@H]1C(=O)N[C@@H]1CCCN(c2ccccc2F)C1=O)c1ccc(-c2c3nc(c(-c4cccc(S(=O)(=O)[O-])c4F)c4ccc([nH]4)c(-c4cccc(S(=O)(=O)[O-])c4F)c4nc(c(-c5cccc(S(=O)(=O)[O-])c5F)c5ccc2[nH]5)C=C4)C=C3)cc1
REMARK SMILES IDX 4 1 3 2 2 3 1 4 32 5 33 6 94 7 34 8 93 9 35 10 36 11 37 12
REMARK SMILES IDX 87 13 38 14 92 15 86 16 88 17 39 18 91 19 85 20 84 21 40 23
REMARK SMILES IDX 72 24 52 25 71 26 53 27 56 28 70 29 89 30 54 31 55 32 69 34
REMARK SMILES IDX 90 35 57 36 41 37 42 38 50 39 43 40 45 41 51 42 44 43 46 44
REMARK SMILES IDX 47 45 48 46 49 47 73 48 74 49 82 50 75 51 77 52 83 53 76 54
REMARK SMILES IDX 78 55 79 56 80 57 81 58 58 59 59 60 67 61 60 62 62 63 68 64
REMARK SMILES IDX 61 65 63 66 64 67 65 68 66 69 5 70 6 71 7 72 8 73 9 74 10 75
REMARK SMILES IDX 14 76 11 77 13 78 12 79 15 80 16 81 17 82 18 84 19 85 30 86
REMARK SMILES IDX 20 87 22 88 31 89 21 90 23 91 24 92 28 93 25 94 27 95 29 96
REMARK SMILES IDX 26 97
REMARK H PARENT 88 22 56 33 17 83
REMARK Flexibility Score: inf
ROOT
ATOM      1  C   UNL A   1      31.824  30.846  26.551  1.00  0.00     0.275 C 
ENDROOT
BRANCH   1   2
ATOM      2  O   UNL A   1      32.960  30.617  27.411  1.00  0.00    -0.458 OA
BRANCH   2   3
ATOM      3  C   UNL A   1      33.750  31.673  27.688  1.00  0.00     0.338 C 
ATOM      4  O   UNL A   1      33.394  32.837  27.562  1.00  0.00    -0.246 OA
BRANCH   3   5
ATOM      5  C   UNL A   1      35.127  31.250  28.046  1.00  0.00     0.060 A 
ATOM      6  C   UNL A   1      36.163  32.190  28.115  1.00  0.00     0.016 A 
ATOM      7  C   UNL A   1      35.338  29.942  28.501  1.00  0.00     0.016 A 
ATOM      8  C   UNL A   1      37.375  31.843  28.689  1.00  0.00     0.010 A 
ATOM      9  C   UNL A   1      36.555  29.596  29.090  1.00  0.00     0.010 A 
ATOM     10  C   UNL A   1      37.571  30.551  29.189  1.00  0.00    -0.014 A 
BRANCH  10  11
ATOM     11  C   UNL A   1      38.924  30.230  29.675  1.00  0.00     0.031 A 
ATOM     12  C   UNL A   1      39.307  30.757  31.018  1.00  0.00     0.074 A 
ATOM     13  C   UNL A   1      39.681  29.334  29.018  1.00  0.00     0.049 A 
ATOM     14  N   UNL A   1      40.211  30.313  31.843  1.00  0.00    -0.248 NA
ATOM     15  C   UNL A   1      38.534  31.907  31.521  1.00  0.00     0.031 C 
ATOM     16  C   UNL A   1      39.384  28.787  27.694  1.00  0.00     0.029 A 
ATOM     17  N   UNL A   1      40.835  28.694  29.393  1.00  0.00    -0.354 N 
ATOM     18  C   UNL A   1      40.092  31.104  32.977  1.00  0.00     0.074 A 
ATOM     19  C   UNL A   1      39.058  32.079  32.725  1.00  0.00     0.031 C 
ATOM     20  C   UNL A   1      40.319  27.876  27.375  1.00  0.00     0.029 A 
ATOM     21  C   UNL A   1      41.268  27.761  28.479  1.00  0.00     0.049 A 
ATOM     22  H   UNL A   1      41.307  28.884  30.236  1.00  0.00     0.167 HD
ATOM     23  C   UNL A   1      40.771  30.994  34.138  1.00  0.00     0.034 A 
ATOM     24  C   UNL A   1      42.294  26.889  28.553  1.00  0.00     0.034 A 
ATOM     25  C   UNL A   1      41.816  30.037  34.347  1.00  0.00     0.049 A 
ATOM     26  C   UNL A   1      43.063  26.813  29.849  1.00  0.00     0.074 A 
ATOM     27  C   UNL A   1      42.595  29.845  35.470  1.00  0.00     0.029 A 
ATOM     28  N   UNL A   1      42.244  29.128  33.390  1.00  0.00    -0.354 N 
ATOM     29  N   UNL A   1      42.844  27.457  30.973  1.00  0.00    -0.248 NA
ATOM     30  C   UNL A   1      44.186  25.868  29.910  1.00  0.00     0.031 C 
ATOM     31  C   UNL A   1      43.515  28.833  35.180  1.00  0.00     0.029 A 
ATOM     32  C   UNL A   1      43.293  28.382  33.886  1.00  0.00     0.049 A 
ATOM     33  H   UNL A   1      41.856  29.030  32.490  1.00  0.00     0.167 HD
ATOM     34  C   UNL A   1      43.785  26.983  31.879  1.00  0.00     0.074 A 
ATOM     35  C   UNL A   1      44.562  25.978  31.179  1.00  0.00     0.031 C 
ATOM     36  C   UNL A   1      44.005  27.355  33.165  1.00  0.00     0.034 A 
BRANCH  23  37
ATOM     37  C   UNL A   1      40.378  31.922  35.249  1.00  0.00     0.023 A 
ATOM     38  C   UNL A   1      41.138  33.087  35.476  1.00  0.00     0.012 A 
ATOM     39  C   UNL A   1      39.273  31.640  36.071  1.00  0.00     0.148 A 
ATOM     40  C   UNL A   1      40.817  33.949  36.522  1.00  0.00     0.002 A 
ATOM     41  C   UNL A   1      38.942  32.518  37.095  1.00  0.00     0.091 A 
ATOM     42  F   UNL A   1      38.584  30.512  35.849  1.00  0.00    -0.205 F 
ATOM     43  C   UNL A   1      39.716  33.668  37.327  1.00  0.00     0.022 A 
BRANCH  41  44
ATOM     44  S   UNL A   1      37.531  32.264  38.176  1.00  0.00     0.127 S 
ATOM     45  O   UNL A   1      38.001  32.872  39.421  1.00  0.00    -0.237 OA
ATOM     46  O   UNL A   1      36.482  33.015  37.488  1.00  0.00    -0.237 OA
ATOM     47  O   UNL A   1      37.320  30.824  38.236  1.00  0.00    -0.744 OA
ENDBRANCH  41  44
ENDBRANCH  23  37
BRANCH  24  48
ATOM     48  C   UNL A   1      42.580  25.968  27.414  1.00  0.00     0.023 A 
ATOM     49  C   UNL A   1      43.397  26.397  26.351  1.00  0.00     0.012 A 
ATOM     50  C   UNL A   1      42.082  24.648  27.399  1.00  0.00     0.148 A 
ATOM     51  C   UNL A   1      43.699  25.540  25.289  1.00  0.00     0.002 A 
ATOM     52  C   UNL A   1      42.425  23.784  26.363  1.00  0.00     0.091 A 
ATOM     53  F   UNL A   1      41.283  24.259  28.402  1.00  0.00    -0.205 F 
ATOM     54  C   UNL A   1      43.224  24.231  25.301  1.00  0.00     0.022 A 
BRANCH  52  55
ATOM     55  S   UNL A   1      41.955  22.049  26.366  1.00  0.00     0.127 S 
ATOM     56  O   UNL A   1      40.514  22.128  26.147  1.00  0.00    -0.237 OA
ATOM     57  O   UNL A   1      42.721  21.520  25.236  1.00  0.00    -0.237 OA
ATOM     58  O   UNL A   1      42.376  21.536  27.663  1.00  0.00    -0.744 OA
ENDBRANCH  52  55
ENDBRANCH  24  48
BRANCH  36  59
ATOM     59  C   UNL A   1      45.133  26.693  33.908  1.00  0.00     0.023 A 
ATOM     60  C   UNL A   1      46.407  27.291  33.891  1.00  0.00     0.012 A 
ATOM     61  C   UNL A   1      44.883  25.602  34.763  1.00  0.00     0.148 A 
ATOM     62  C   UNL A   1      47.420  26.811  34.717  1.00  0.00     0.002 A 
ATOM     63  C   UNL A   1      45.882  25.161  35.618  1.00  0.00     0.091 A 
ATOM     64  F   UNL A   1      43.664  25.043  34.745  1.00  0.00    -0.205 F 
ATOM     65  C   UNL A   1      47.153  25.759  35.592  1.00  0.00     0.022 A 
BRANCH  63  66
ATOM     66  S   UNL A   1      45.590  23.900  36.865  1.00  0.00     0.127 S 
ATOM     67  O   UNL A   1      46.915  23.765  37.466  1.00  0.00    -0.237 OA
ATOM     68  O   UNL A   1      44.591  24.536  37.723  1.00  0.00    -0.237 OA
ATOM     69  O   UNL A   1      45.109  22.730  36.144  1.00  0.00    -0.744 OA
ENDBRANCH  63  66
ENDBRANCH  36  59
ENDBRANCH  10  11
ENDBRANCH   3   5
ENDBRANCH   2   3
ENDBRANCH   1   2
BRANCH   1  70
ATOM     70  C   UNL A   1      31.531  29.858  25.411  1.00  0.00     0.274 C 
BRANCH  70  71
ATOM     71  O   UNL A   1      32.642  29.001  25.099  1.00  0.00    -0.462 OA
BRANCH  71  72
ATOM     72  C   UNL A   1      32.698  28.661  23.779  1.00  0.00     0.310 C 
ATOM     73  O   UNL A   1      33.530  29.130  23.013  1.00  0.00    -0.252 OA
BRANCH  72  74
ATOM     74  C   UNL A   1      31.655  27.604  23.411  1.00  0.00     0.115 C 
ATOM     75  C   UNL A   1      31.839  27.225  21.922  1.00  0.00     0.043 C 
ATOM     76  C   UNL A   1      31.751  26.338  24.332  1.00  0.00     0.097 C 
ATOM     77  C   UNL A   1      32.892  26.173  21.694  1.00  0.00    -0.030 C 
ATOM     78  C   UNL A   1      33.134  25.714  24.132  1.00  0.00     0.041 C 
ATOM     79  C   UNL A   1      33.498  25.517  22.693  1.00  0.00    -0.030 C 
BRANCH  76  80
ATOM     80  C   UNL A   1      30.582  25.382  24.016  1.00  0.00     0.224 C 
ATOM     81  O   UNL A   1      29.484  25.833  23.669  1.00  0.00    -0.275 OA
ATOM     82  N   UNL A   1      30.655  24.023  24.057  1.00  0.00    -0.344 N 
ATOM     83  H   UNL A   1      30.438  23.595  23.199  1.00  0.00     0.164 HD
BRANCH  82  84
ATOM     84  C   UNL A   1      30.993  23.058  25.126  1.00  0.00     0.172 C 
ATOM     85  C   UNL A   1      30.898  23.690  26.519  1.00  0.00     0.037 C 
ATOM     86  C   UNL A   1      32.183  22.087  24.918  1.00  0.00     0.249 C 
ATOM     87  C   UNL A   1      31.844  23.009  27.491  1.00  0.00     0.025 C 
ATOM     88  N   UNL A   1      33.349  22.408  25.628  1.00  0.00    -0.308 N 
ATOM     89  O   UNL A   1      32.082  21.184  24.085  1.00  0.00    -0.272 OA
ATOM     90  C   UNL A   1      33.239  23.124  26.899  1.00  0.00     0.126 C 
BRANCH  88  91
ATOM     91  C   UNL A   1      34.663  22.177  25.081  1.00  0.00     0.080 A 
ATOM     92  C   UNL A   1      35.477  23.225  24.627  1.00  0.00     0.029 A 
ATOM     93  C   UNL A   1      35.234  20.892  25.079  1.00  0.00     0.146 A 
ATOM     94  C   UNL A   1      36.819  23.013  24.280  1.00  0.00     0.002 A 
ATOM     95  C   UNL A   1      36.580  20.681  24.778  1.00  0.00     0.041 A 
ATOM     96  F   UNL A   1      34.520  19.813  25.440  1.00  0.00    -0.205 F 
ATOM     97  C   UNL A   1      37.381  21.746  24.390  1.00  0.00     0.003 A 
ENDBRANCH  88  91
ENDBRANCH  82  84
ENDBRANCH  76  80
ENDBRANCH  72  74
ENDBRANCH  71  72
ENDBRANCH  70  71
ENDBRANCH   1  70
TORSDOF 17
ENDMDL
MODEL 2
REMARK VINA RESULT:     -12.6      4.991     10.164
REMARK SMILES O=C(OCCOC(=O)[C@H]1CC=CC[C@@H]1C(=O)N[C@@H]1CCCN(c2ccccc2F)C1=O)c1ccc(-c2c3nc(c(-c4cccc(S(=O)(=O)[O-])c4F)c4ccc([nH]4)c(-c4cccc(S(=O)(=O)[O-])c4F)c4nc(c(-c5cccc(S(=O)(=O)[O-])c5F)c5ccc2[nH]5)C=C4)C=C3)cc1
REMARK SMILES IDX 4 1 3 2 2 3 1 4 32 5 33 6 94 7 34 8 93 9 35 10 36 11 37 12
REMARK SMILES IDX 87 13 38 14 92 15 86 16 88 17 39 18 91 19 85 20 84 21 40 23
REMARK SMILES IDX 72 24 52 25 71 26 53 27 56 28 70 29 89 30 54 31 55 32 69 34
REMARK SMILES IDX 90 35 57 36 41 37 42 38 50 39 43 40 45 41 51 42 44 43 46 44
REMARK SMILES IDX 47 45 48 46 49 47 73 48 74 49 82 50 75 51 77 52 83 53 76 54
REMARK SMILES IDX 78 55 79 56 80 57 81 58 58 59 59 60 67 61 60 62 62 63 68 64
REMARK SMILES IDX 61 65 63 66 64 67 65 68 66 69 5 70 6 71 7 72 8 73 9 74 10 75
REMARK SMILES IDX 14 76 11 77 13 78 12 79 15 80 16 81 17 82 18 84 19 85 30 86
REMARK SMILES IDX 20 87 22 88 31 89 21 90 23 91 24 92 28 93 25 94 27 95 29 96
REMARK SMILES IDX 26 97
REMARK H PARENT 88 22 56 33 17 83
REMARK Flexibility Score: inf
ROOT
ATOM      1  C   UNL A   1      37.405  20.659  25.156  1.00  0.00     0.275 C 
ENDROOT
BRANCH   1   2
ATOM      2  O   UNL A   1      38.104  21.846  25.585  1.00  0.00    -0.458 OA
BRANCH   2   3
ATOM      3  C   UNL A   1      39.322  21.684  26.137  1.00  0.00     0.338 C 
ATOM      4  O   UNL A   1      39.930  20.621  26.138  1.00  0.00    -0.246 OA
BRANCH   3   5
ATOM      5  C   UNL A   1      39.776  22.910  26.840  1.00  0.00     0.060 A 
ATOM      6  C   UNL A   1      40.786  22.840  27.808  1.00  0.00     0.016 A 
ATOM      7  C   UNL A   1      39.324  24.157  26.388  1.00  0.00     0.016 A 
ATOM      8  C   UNL A   1      41.379  24.002  28.273  1.00  0.00     0.010 A 
ATOM      9  C   UNL A   1      39.930  25.326  26.847  1.00  0.00     0.010 A 
ATOM     10  C   UNL A   1      40.962  25.247  27.787  1.00  0.00    -0.014 A 
BRANCH  10  11
ATOM     11  C   UNL A   1      41.561  26.435  28.418  1.00  0.00     0.031 A 
ATOM     12  C   UNL A   1      42.977  26.751  28.067  1.00  0.00     0.074 A 
ATOM     13  C   UNL A   1      40.788  27.294  29.108  1.00  0.00     0.049 A 
ATOM     14  N   UNL A   1      43.598  27.894  28.125  1.00  0.00    -0.248 NA
ATOM     15  C   UNL A   1      43.788  25.643  27.532  1.00  0.00     0.031 C 
ATOM     16  C   UNL A   1      39.402  27.048  29.505  1.00  0.00     0.029 A 
ATOM     17  N   UNL A   1      41.047  28.562  29.560  1.00  0.00    -0.354 N 
ATOM     18  C   UNL A   1      44.859  27.653  27.601  1.00  0.00     0.074 A 
ATOM     19  C   UNL A   1      44.934  26.251  27.264  1.00  0.00     0.031 C 
ATOM     20  C   UNL A   1      38.923  28.141  30.124  1.00  0.00     0.029 A 
ATOM     21  C   UNL A   1      39.960  29.168  30.148  1.00  0.00     0.049 A 
ATOM     22  H   UNL A   1      41.926  28.997  29.472  1.00  0.00     0.167 HD
ATOM     23  C   UNL A   1      45.853  28.541  27.390  1.00  0.00     0.034 A 
ATOM     24  C   UNL A   1      39.819  30.426  30.613  1.00  0.00     0.034 A 
ATOM     25  C   UNL A   1      45.763  29.920  27.765  1.00  0.00     0.049 A 
ATOM     26  C   UNL A   1      40.960  31.389  30.401  1.00  0.00     0.074 A 
ATOM     27  C   UNL A   1      46.711  30.914  27.628  1.00  0.00     0.029 A 
ATOM     28  N   UNL A   1      44.658  30.490  28.381  1.00  0.00    -0.354 N 
ATOM     29  N   UNL A   1      42.092  31.195  29.763  1.00  0.00    -0.248 NA
ATOM     30  C   UNL A   1      40.796  32.752  30.926  1.00  0.00     0.031 C 
ATOM     31  C   UNL A   1      46.188  32.082  28.188  1.00  0.00     0.029 A 
ATOM     32  C   UNL A   1      44.905  31.820  28.653  1.00  0.00     0.049 A 
ATOM     33  H   UNL A   1      43.822  30.016  28.594  1.00  0.00     0.167 HD
ATOM     34  C   UNL A   1      42.765  32.410  29.793  1.00  0.00     0.074 A 
ATOM     35  C   UNL A   1      41.901  33.343  30.490  1.00  0.00     0.031 C 
ATOM     36  C   UNL A   1      43.992  32.725  29.307  1.00  0.00     0.034 A 
BRANCH  23  37
ATOM     37  C   UNL A   1      47.092  28.033  26.714  1.00  0.00     0.023 A 
ATOM     38  C   UNL A   1      48.181  27.605  27.501  1.00  0.00     0.012 A 
ATOM     39  C   UNL A   1      47.185  27.988  25.312  1.00  0.00     0.148 A 
ATOM     40  C   UNL A   1      49.357  27.160  26.900  1.00  0.00     0.002 A 
ATOM     41  C   UNL A   1      48.351  27.518  24.720  1.00  0.00     0.091 A 
ATOM     42  F   UNL A   1      46.145  28.425  24.589  1.00  0.00    -0.205 F 
ATOM     43  C   UNL A   1      49.439  27.111  25.511  1.00  0.00     0.022 A 
BRANCH  41  44
ATOM     44  S   UNL A   1      48.555  27.391  22.941  1.00  0.00     0.127 S 
ATOM     45  O   UNL A   1      47.404  28.155  22.457  1.00  0.00    -0.237 OA
ATOM     46  O   UNL A   1      49.848  28.041  22.736  1.00  0.00    -0.237 OA
ATOM     47  O   UNL A   1      48.523  25.969  22.630  1.00  0.00    -0.744 OA
ENDBRANCH  41  44
ENDBRANCH  23  37
BRANCH  24  48
ATOM     48  C   UNL A   1      38.529  30.857  31.228  1.00  0.00     0.023 A 
ATOM     49  C   UNL A   1      38.330  30.721  32.615  1.00  0.00     0.012 A 
ATOM     50  C   UNL A   1      37.510  31.446  30.450  1.00  0.00     0.148 A 
ATOM     51  C   UNL A   1      37.140  31.145  33.213  1.00  0.00     0.002 A 
ATOM     52  C   UNL A   1      36.347  31.910  31.057  1.00  0.00     0.091 A 
ATOM     53  F   UNL A   1      37.698  31.546  29.126  1.00  0.00    -0.205 F 
ATOM     54  C   UNL A   1      36.154  31.750  32.438  1.00  0.00     0.022 A 
BRANCH  52  55
ATOM     55  S   UNL A   1      35.084  32.810  30.148  1.00  0.00     0.127 S 
ATOM     56  O   UNL A   1      34.129  33.135  31.204  1.00  0.00    -0.237 OA
ATOM     57  O   UNL A   1      35.835  33.953  29.626  1.00  0.00    -0.237 OA
ATOM     58  O   UNL A   1      34.612  31.889  29.124  1.00  0.00    -0.744 OA
ENDBRANCH  52  55
ENDBRANCH  24  48
BRANCH  36  59
ATOM     59  C   UNL A   1      44.495  34.127  29.516  1.00  0.00     0.023 A 
ATOM     60  C   UNL A   1      45.284  34.409  30.647  1.00  0.00     0.012 A 
ATOM     61  C   UNL A   1      44.343  35.099  28.508  1.00  0.00     0.148 A 
ATOM     62  C   UNL A   1      45.919  35.643  30.772  1.00  0.00     0.002 A 
ATOM     63  C   UNL A   1      45.018  36.306  28.616  1.00  0.00     0.091 A 
ATOM     64  F   UNL A   1      43.572  34.808  27.451  1.00  0.00    -0.205 F 
ATOM     65  C   UNL A   1      45.800  36.583  29.749  1.00  0.00     0.022 A 
BRANCH  63  66
ATOM     66  S   UNL A   1      45.025  37.522  27.292  1.00  0.00     0.127 S 
ATOM     67  O   UNL A   1      45.578  38.694  27.968  1.00  0.00    -0.237 OA
ATOM     68  O   UNL A   1      45.917  36.907  26.309  1.00  0.00    -0.237 OA
ATOM     69  O   UNL A   1      43.641  37.647  26.857  1.00  0.00    -0.744 OA
ENDBRANCH  63  66
ENDBRANCH  36  59
ENDBRANCH  10  11
ENDBRANCH   3   5
ENDBRANCH   2   3
ENDBRANCH   1   2
BRANCH   1  70
ATOM     70  C   UNL A   1      35.881  20.708  24.966  1.00  0.00     0.274 C 
BRANCH  70  71
ATOM     71  O   UNL A   1      35.291  21.940  25.413  1.00  0.00    -0.462 OA
BRANCH  71  72
ATOM     72  C   UNL A   1      34.113  21.755  26.079  1.00  0.00     0.310 C 
ATOM     73  O   UNL A   1      34.063  21.559  27.286  1.00  0.00    -0.252 OA
BRANCH  72  74
ATOM     74  C   UNL A   1      32.902  21.883  25.153  1.00  0.00     0.115 C 
ATOM     75  C   UNL A   1      31.616  21.763  26.004  1.00  0.00     0.043 C 
ATOM     76  C   UNL A   1      32.921  23.226  24.342  1.00  0.00     0.097 C 
ATOM     77  C   UNL A   1      31.189  23.062  26.636  1.00  0.00    -0.030 C 
ATOM     78  C   UNL A   1      32.862  24.381  25.345  1.00  0.00     0.041 C 
ATOM     79  C   UNL A   1      31.774  24.235  26.363  1.00  0.00    -0.030 C 
BRANCH  76  80
ATOM     80  C   UNL A   1      31.765  23.226  23.321  1.00  0.00     0.224 C 
ATOM     81  O   UNL A   1      31.397  22.168  22.796  1.00  0.00    -0.275 OA
ATOM     82  N   UNL A   1      31.059  24.328  22.944  1.00  0.00    -0.344 N 
ATOM     83  H   UNL A   1      30.094  24.252  23.120  1.00  0.00     0.164 HD
BRANCH  82  84
ATOM     84  C   UNL A   1      31.444  25.615  22.324  1.00  0.00     0.172 C 
ATOM     85  C   UNL A   1      32.823  25.541  21.659  1.00  0.00     0.037 C 
ATOM     86  C   UNL A   1      31.140  26.936  23.076  1.00  0.00     0.249 C 
ATOM     87  C   UNL A   1      33.495  26.901  21.649  1.00  0.00     0.025 C 
ATOM     88  N   UNL A   1      32.246  27.551  23.679  1.00  0.00    -0.308 N 
ATOM     89  O   UNL A   1      29.969  27.302  23.196  1.00  0.00    -0.272 OA
ATOM     90  C   UNL A   1      33.575  27.363  23.095  1.00  0.00     0.126 C 
BRANCH  88  91
ATOM     91  C   UNL A   1      32.140  28.252  24.934  1.00  0.00     0.080 A 
ATOM     92  C   UNL A   1      32.729  27.767  26.111  1.00  0.00     0.029 A 
ATOM     93  C   UNL A   1      31.530  29.516  25.011  1.00  0.00     0.146 A 
ATOM     94  C   UNL A   1      32.786  28.545  27.276  1.00  0.00     0.002 A 
ATOM     95  C   UNL A   1      31.621  30.313  26.153  1.00  0.00     0.041 A 
ATOM     96  F   UNL A   1      30.888  30.044  23.956  1.00  0.00    -0.205 F 
ATOM     97  C   UNL A   1      32.264  29.833  27.286  1.00  0.00     0.003 A 
ENDBRANCH  88  91
ENDBRANCH  82  84
ENDBRANCH  76  80
ENDBRANCH  72  74
ENDBRANCH  71  72
ENDBRANCH  70  71
ENDBRANCH   1  70
TORSDOF 17
ENDMDL
MODEL 3
REMARK VINA RESULT:     -12.6      1.668      2.410
REMARK SMILES O=C(OCCOC(=O)[C@H]1CC=CC[C@@H]1C(=O)N[C@@H]1CCCN(c2ccccc2F)C1=O)c1ccc(-c2c3nc(c(-c4cccc(S(=O)(=O)[O-])c4F)c4ccc([nH]4)c(-c4cccc(S(=O)(=O)[O-])c4F)c4nc(c(-c5cccc(S(=O)(=O)[O-])c5F)c5ccc2[nH]5)C=C4)C=C3)cc1
REMARK SMILES IDX 4 1 3 2 2 3 1 4 32 5 33 6 94 7 34 8 93 9 35 10 36 11 37 12
REMARK SMILES IDX 87 13 38 14 92 15 86 16 88 17 39 18 91 19 85 20 84 21 40 23
REMARK SMILES IDX 72 24 52 25 71 26 53 27 56 28 70 29 89 30 54 31 55 32 69 34
REMARK SMILES IDX 90 35 57 36 41 37 42 38 50 39 43 40 45 41 51 42 44 43 46 44
REMARK SMILES IDX 47 45 48 46 49 47 73 48 74 49 82 50 75 51 77 52 83 53 76 54
REMARK SMILES IDX 78 55 79 56 80 57 81 58 58 59 59 60 67 61 60 62 62 63 68 64
REMARK SMILES IDX 61 65 63 66 64 67 65 68 66 69 5 70 6 71 7 72 8 73 9 74 10 75
REMARK SMILES IDX 14 76 11 77 13 78 12 79 15 80 16 81 17 82 18 84 19 85 30 86
REMARK SMILES IDX 20 87 22 88 31 89 21 90 23 91 24 92 28 93 25 94 27 95 29 96
REMARK SMILES IDX 26 97
REMARK H PARENT 88 22 56 33 17 83
REMARK Flexibility Score: inf
ROOT
ATOM      1  C   UNL A   1      32.230  30.049  25.551  1.00  0.00     0.275 C 
ENDROOT
BRANCH   1   2
ATOM      2  O   UNL A   1      32.725  30.118  26.905  1.00  0.00    -0.458 OA
BRANCH   2   3
ATOM      3  C   UNL A   1      33.200  31.305  27.330  1.00  0.00     0.338 C 
ATOM      4  O   UNL A   1      32.665  32.378  27.083  1.00  0.00    -0.246 OA
BRANCH   3   5
ATOM      5  C   UNL A   1      34.502  31.157  28.027  1.00  0.00     0.060 A 
ATOM      6  C   UNL A   1      34.897  29.915  28.538  1.00  0.00     0.016 A 
ATOM      7  C   UNL A   1      35.412  32.223  27.997  1.00  0.00     0.016 A 
ATOM      8  C   UNL A   1      36.204  29.723  28.956  1.00  0.00     0.010 A 
ATOM      9  C   UNL A   1      36.731  32.026  28.406  1.00  0.00     0.010 A 
ATOM     10  C   UNL A   1      37.127  30.772  28.881  1.00  0.00    -0.014 A 
BRANCH  10  11
ATOM     11  C   UNL A   1      38.460  30.520  29.454  1.00  0.00     0.031 A 
ATOM     12  C   UNL A   1      38.714  31.025  30.835  1.00  0.00     0.074 A 
ATOM     13  C   UNL A   1      39.318  29.694  28.828  1.00  0.00     0.049 A 
ATOM     14  N   UNL A   1      39.585  30.612  31.710  1.00  0.00    -0.248 NA
ATOM     15  C   UNL A   1      37.836  32.108  31.314  1.00  0.00     0.031 C 
ATOM     16  C   UNL A   1      39.149  29.174  27.471  1.00  0.00     0.029 A 
ATOM     17  N   UNL A   1      40.481  29.116  29.266  1.00  0.00    -0.354 N 
ATOM     18  C   UNL A   1      39.337  31.356  32.854  1.00  0.00     0.074 A 
ATOM     19  C   UNL A   1      38.263  32.273  32.557  1.00  0.00     0.031 C 
ATOM     20  C   UNL A   1      40.161  28.333  27.195  1.00  0.00     0.029 A 
ATOM     21  C   UNL A   1      41.036  28.242  28.359  1.00  0.00     0.049 A 
ATOM     22  H   UNL A   1      40.880  29.307  30.146  1.00  0.00     0.167 HD
ATOM     23  C   UNL A   1      39.940  31.251  34.057  1.00  0.00     0.034 A 
ATOM     24  C   UNL A   1      42.108  27.433  28.483  1.00  0.00     0.034 A 
ATOM     25  C   UNL A   1      41.026  30.355  34.314  1.00  0.00     0.049 A 
ATOM     26  C   UNL A   1      42.788  27.363  29.828  1.00  0.00     0.074 A 
ATOM     27  C   UNL A   1      41.736  30.174  35.483  1.00  0.00     0.029 A 
ATOM     28  N   UNL A   1      41.577  29.505  33.364  1.00  0.00    -0.354 N 
ATOM     29  N   UNL A   1      42.450  27.954  30.951  1.00  0.00    -0.248 NA
ATOM     30  C   UNL A   1      43.963  26.488  29.942  1.00  0.00     0.031 C 
ATOM     31  C   UNL A   1      42.737  29.232  35.232  1.00  0.00     0.029 A 
ATOM     32  C   UNL A   1      42.635  28.810  33.913  1.00  0.00     0.049 A 
ATOM     33  H   UNL A   1      41.260  29.413  32.436  1.00  0.00     0.167 HD
ATOM     34  C   UNL A   1      43.355  27.511  31.908  1.00  0.00     0.074 A 
ATOM     35  C   UNL A   1      44.241  26.579  31.237  1.00  0.00     0.031 C 
ATOM     36  C   UNL A   1      43.460  27.854  33.216  1.00  0.00     0.034 A 
BRANCH  23  37
ATOM     37  C   UNL A   1      39.411  32.116  35.163  1.00  0.00     0.023 A 
ATOM     38  C   UNL A   1      38.356  31.638  35.967  1.00  0.00     0.012 A 
ATOM     39  C   UNL A   1      39.943  33.395  35.400  1.00  0.00     0.148 A 
ATOM     40  C   UNL A   1      37.821  32.433  36.979  1.00  0.00     0.002 A 
ATOM     41  C   UNL A   1      39.423  34.172  36.428  1.00  0.00     0.091 A 
ATOM     42  F   UNL A   1      40.927  33.835  34.603  1.00  0.00    -0.205 F 
ATOM     43  C   UNL A   1      38.359  33.696  37.213  1.00  0.00     0.022 A 
BRANCH  41  44
ATOM     44  S   UNL A   1      40.056  35.802  36.830  1.00  0.00     0.127 S 
ATOM     45  O   UNL A   1      39.671  36.569  35.645  1.00  0.00    -0.237 OA
ATOM     46  O   UNL A   1      39.304  36.131  38.040  1.00  0.00    -0.237 OA
ATOM     47  O   UNL A   1      41.492  35.645  37.021  1.00  0.00    -0.744 OA
ENDBRANCH  41  44
ENDBRANCH  23  37
BRANCH  24  48
ATOM     48  C   UNL A   1      42.531  26.569  27.341  1.00  0.00     0.023 A 
ATOM     49  C   UNL A   1      43.394  27.082  26.354  1.00  0.00     0.012 A 
ATOM     50  C   UNL A   1      42.118  25.223  27.251  1.00  0.00     0.148 A 
ATOM     51  C   UNL A   1      43.823  26.280  25.292  1.00  0.00     0.002 A 
ATOM     52  C   UNL A   1      42.588  24.416  26.219  1.00  0.00     0.091 A 
ATOM     53  F   UNL A   1      41.276  24.753  28.182  1.00  0.00    -0.205 F 
ATOM     54  C   UNL A   1      43.432  24.945  25.232  1.00  0.00     0.022 A 
BRANCH  52  55
ATOM     55  S   UNL A   1      42.228  22.656  26.138  1.00  0.00     0.127 S 
ATOM     56  O   UNL A   1      42.943  22.260  24.929  1.00  0.00    -0.237 OA
ATOM     57  O   UNL A   1      42.812  22.164  27.387  1.00  0.00    -0.237 OA
ATOM     58  O   UNL A   1      40.775  22.560  26.082  1.00  0.00    -0.744 OA
ENDBRANCH  52  55
ENDBRANCH  24  48
BRANCH  36  59
ATOM     59  C   UNL A   1      44.574  27.239  34.019  1.00  0.00     0.023 A 
ATOM     60  C   UNL A   1      45.806  27.913  34.107  1.00  0.00     0.012 A 
ATOM     61  C   UNL A   1      44.335  26.109  34.826  1.00  0.00     0.148 A 
ATOM     62  C   UNL A   1      46.789  27.470  34.989  1.00  0.00     0.002 A 
ATOM     63  C   UNL A   1      45.299  25.705  35.737  1.00  0.00     0.091 A 
ATOM     64  F   UNL A   1      43.157  25.478  34.709  1.00  0.00    -0.205 F 
ATOM     65  C   UNL A   1      46.529  26.379  35.816  1.00  0.00     0.022 A 
BRANCH  63  66
ATOM     66  S   UNL A   1      45.001  24.391  36.928  1.00  0.00     0.127 S 
ATOM     67  O   UNL A   1      44.752  23.248  36.052  1.00  0.00    -0.237 OA
ATOM     68  O   UNL A   1      46.269  24.338  37.656  1.00  0.00    -0.237 OA
ATOM     69  O   UNL A   1      43.864  24.826  37.726  1.00  0.00    -0.744 OA
ENDBRANCH  63  66
ENDBRANCH  36  59
ENDBRANCH  10  11
ENDBRANCH   3   5
ENDBRANCH   2   3
ENDBRANCH   1   2
BRANCH   1  70
ATOM     70  C   UNL A   1      32.745  28.943  24.615  1.00  0.00     0.274 C 
BRANCH  70  71
ATOM     71  O   UNL A   1      32.084  28.924  23.339  1.00  0.00    -0.462 OA
BRANCH  71  72
ATOM     72  C   UNL A   1      31.350  27.791  23.137  1.00  0.00     0.310 C 
ATOM     73  O   UNL A   1      30.923  27.471  22.035  1.00  0.00    -0.252 OA
BRANCH  72  74
ATOM     74  C   UNL A   1      31.190  26.972  24.419  1.00  0.00     0.115 C 
ATOM     75  C   UNL A   1      29.843  26.214  24.356  1.00  0.00     0.043 C 
ATOM     76  C   UNL A   1      32.386  25.981  24.637  1.00  0.00     0.097 C 
ATOM     77  C   UNL A   1      29.920  24.909  23.608  1.00  0.00    -0.030 C 
ATOM     78  C   UNL A   1      32.406  25.003  23.461  1.00  0.00     0.041 C 
ATOM     79  C   UNL A   1      31.073  24.382  23.176  1.00  0.00    -0.030 C 
BRANCH  76  80
ATOM     80  C   UNL A   1      32.246  25.301  26.014  1.00  0.00     0.224 C 
ATOM     81  O   UNL A   1      31.602  25.848  26.918  1.00  0.00    -0.275 OA
ATOM     82  N   UNL A   1      32.766  24.084  26.338  1.00  0.00    -0.344 N 
ATOM     83  H   UNL A   1      32.086  23.434  26.626  1.00  0.00     0.164 HD
BRANCH  82  84
ATOM     84  C   UNL A   1      34.141  23.539  26.345  1.00  0.00     0.172 C 
ATOM     85  C   UNL A   1      35.052  24.268  25.351  1.00  0.00     0.037 C 
ATOM     86  C   UNL A   1      34.344  22.005  26.428  1.00  0.00     0.249 C 
ATOM     87  C   UNL A   1      36.158  23.355  24.856  1.00  0.00     0.025 C 
ATOM     88  N   UNL A   1      34.718  21.383  25.228  1.00  0.00    -0.308 N 
ATOM     89  O   UNL A   1      34.068  21.419  27.477  1.00  0.00    -0.272 OA
ATOM     90  C   UNL A   1      35.483  22.142  24.238  1.00  0.00     0.126 C 
BRANCH  88  91
ATOM     91  C   UNL A   1      34.256  20.063  24.876  1.00  0.00     0.080 A 
ATOM     92  C   UNL A   1      32.914  19.801  24.563  1.00  0.00     0.029 A 
ATOM     93  C   UNL A   1      35.157  18.995  24.724  1.00  0.00     0.146 A 
ATOM     94  C   UNL A   1      32.512  18.565  24.037  1.00  0.00     0.002 A 
ATOM     95  C   UNL A   1      34.773  17.778  24.159  1.00  0.00     0.041 A 
ATOM     96  F   UNL A   1      36.453  19.126  25.052  1.00  0.00    -0.205 F 
ATOM     97  C   UNL A   1      33.449  17.565  23.801  1.00  0.00     0.003 A 
ENDBRANCH  88  91
ENDBRANCH  82  84
ENDBRANCH  76  80
ENDBRANCH  72  74
ENDBRANCH  71  72
ENDBRANCH  70  71
ENDBRANCH   1  70
TORSDOF 17
ENDMDL
