MODEL 1
REMARK VINA RESULT:     -10.2      0.000      0.000
REMARK SMILES NS(=O)(=O)c1ccc(C#Cc2cc(Cl)cc3c2O[C@H](C(F)(F)F)C(C(=O)OCCOC(=O)c2ccc(-c4c5nc(c(-c6cccc(S(=O)(=O)[O-])c6F)c6ccc([nH]6)c(-c6cccc(S(=O)(=O)[O-])c6F)c6nc(c(-c7cccc(S(=O)(=O)[O-])c7F)c7ccc4[nH]7)C=C6)C=C5)cc2)=C3)cc1
REMARK SMILES IDX 28 1 27 2 25 3 26 4 24 5 11 6 12 7 17 8 13 9 16 10 18 11
REMARK SMILES IDX 14 12 15 13 96 14 19 15 10 16 9 17 8 18 5 19 6 20 98 21 7 22
REMARK SMILES IDX 97 23 2 24 3 25 4 26 1 27 20 30 21 31 22 32 23 33 29 34
REMARK SMILES IDX 30 35 31 36 32 37 33 38 34 39 95 40 35 41 94 42 36 43 37 44
REMARK SMILES IDX 38 45 88 46 39 47 93 48 87 49 89 50 40 51 92 52 86 53 85 54
REMARK SMILES IDX 41 56 73 57 53 58 72 59 54 60 57 61 71 62 90 63 55 64 56 65
REMARK SMILES IDX 70 67 91 68 58 69 42 70 43 71 51 72 44 73 46 74 52 75 45 76
REMARK SMILES IDX 47 77 48 78 49 79 50 80 74 81 75 82 83 83 76 84 78 85 84 86
REMARK SMILES IDX 77 87 79 88 80 89 81 90 82 91 59 92 60 93 68 94 61 95 63 96
REMARK SMILES IDX 69 97 62 98 64 99 65 100 66 101 67 102
REMARK H PARENT 1 28 1 29 89 55 57 66
REMARK Flexibility Score: inf
ROOT
ATOM      1  C   UNL A   1      33.572  34.046  28.800  1.00  0.00     0.275 C 
ENDROOT
BRANCH   1   2
ATOM      2  O   UNL A   1      34.404  34.558  29.862  1.00  0.00    -0.459 OA
BRANCH   2   3
ATOM      3  C   UNL A   1      34.748  33.665  30.822  1.00  0.00     0.338 C 
ATOM      4  O   UNL A   1      34.102  32.690  31.166  1.00  0.00    -0.246 OA
BRANCH   3   5
ATOM      5  C   UNL A   1      36.050  34.020  31.418  1.00  0.00     0.087 C 
ATOM      6  C   UNL A   1      39.767  34.630  33.235  1.00  0.00     0.069 A 
ATOM      7  C   UNL A   1      40.939  34.354  32.522  1.00  0.00     0.041 A 
ATOM      8  C   UNL A   1      38.513  34.486  32.630  1.00  0.00     0.143 A 
ATOM      9  C   UNL A   1      40.861  33.951  31.194  1.00  0.00     0.043 A 
ATOM     10  C   UNL A   1      38.449  34.064  31.304  1.00  0.00     0.020 A 
ATOM     11  O   UNL A   1      37.399  34.777  33.373  1.00  0.00    -0.474 OA
ATOM     12  Cl  UNL A   1      42.298  33.598  30.322  1.00  0.00    -0.084 Cl
ATOM     13  C   UNL A   1      39.622  33.811  30.579  1.00  0.00     0.032 A 
ATOM     14  C   UNL A   1      37.158  33.846  30.688  1.00  0.00     0.027 C 
ATOM     15  C   UNL A   1      36.086  34.425  32.860  1.00  0.00     0.316 C 
BRANCH   6  16
ATOM     16  C   UNL A   1      39.871  35.004  34.608  1.00  0.00    -0.058 C 
ATOM     17  C   UNL A   1      39.897  35.284  35.773  1.00  0.00    -0.062 C 
BRANCH  17  18
ATOM     18  C   UNL A   1      39.870  35.544  37.172  1.00  0.00     0.025 A 
ATOM     19  C   UNL A   1      39.668  36.144  39.872  1.00  0.00     0.082 A 
ATOM     20  C   UNL A   1      40.459  36.948  39.045  1.00  0.00     0.023 A 
ATOM     21  C   UNL A   1      38.995  35.029  39.363  1.00  0.00     0.023 A 
ATOM     22  C   UNL A   1      40.561  36.643  37.688  1.00  0.00     0.018 A 
ATOM     23  C   UNL A   1      39.098  34.732  38.006  1.00  0.00     0.018 A 
BRANCH  19  24
ATOM     24  S   UNL A   1      39.486  36.569  41.574  1.00  0.00     0.238 S 
ATOM     25  O   UNL A   1      38.425  35.783  42.160  1.00  0.00    -0.207 OA
ATOM     26  O   UNL A   1      39.556  38.004  41.708  1.00  0.00    -0.207 OA
BRANCH  24  27
ATOM     27  N   UNL A   1      40.900  35.968  42.256  1.00  0.00    -0.225 NA
ATOM     28  H   UNL A   1      41.106  35.051  41.860  1.00  0.00     0.137 HD
ATOM     29  H   UNL A   1      40.780  35.882  43.265  1.00  0.00     0.137 HD
ENDBRANCH  24  27
ENDBRANCH  19  24
ENDBRANCH  17  18
ENDBRANCH   6  16
BRANCH  15  30
ATOM     30  C   UNL A   1      35.477  33.336  33.759  1.00  0.00     0.430 C 
ATOM     31  F   UNL A   1      35.910  33.451  35.037  1.00  0.00    -0.167 F 
ATOM     32  F   UNL A   1      34.124  33.426  33.805  1.00  0.00    -0.167 F 
ATOM     33  F   UNL A   1      35.785  32.089  33.337  1.00  0.00    -0.167 F 
ENDBRANCH  15  30
ENDBRANCH   3   5
ENDBRANCH   2   3
ENDBRANCH   1   2
BRANCH   1  34
ATOM     34  C   UNL A   1      34.318  33.014  27.951  1.00  0.00     0.275 C 
BRANCH  34  35
ATOM     35  O   UNL A   1      33.872  31.681  28.257  1.00  0.00    -0.458 OA
BRANCH  35  36
ATOM     36  C   UNL A   1      34.513  30.698  27.585  1.00  0.00     0.338 C 
ATOM     37  O   UNL A   1      34.199  30.206  26.515  1.00  0.00    -0.246 OA
BRANCH  36  38
ATOM     38  C   UNL A   1      35.762  30.372  28.281  1.00  0.00     0.060 A 
ATOM     39  C   UNL A   1      35.772  29.716  29.505  1.00  0.00     0.016 A 
ATOM     40  C   UNL A   1      36.954  30.606  27.608  1.00  0.00     0.016 A 
ATOM     41  C   UNL A   1      37.001  29.313  30.044  1.00  0.00     0.010 A 
ATOM     42  C   UNL A   1      38.143  30.052  28.055  1.00  0.00     0.010 A 
ATOM     43  C   UNL A   1      38.198  29.441  29.307  1.00  0.00    -0.014 A 
BRANCH  43  44
ATOM     44  C   UNL A   1      39.507  28.959  29.829  1.00  0.00     0.031 A 
ATOM     45  C   UNL A   1      40.261  27.851  29.123  1.00  0.00     0.074 A 
ATOM     46  C   UNL A   1      39.994  29.472  30.977  1.00  0.00     0.049 A 
ATOM     47  N   UNL A   1      41.400  27.294  29.453  1.00  0.00    -0.248 NA
ATOM     48  C   UNL A   1      39.650  27.263  27.917  1.00  0.00     0.031 C 
ATOM     49  C   UNL A   1      39.314  30.458  31.821  1.00  0.00     0.029 A 
ATOM     50  N   UNL A   1      41.175  29.237  31.636  1.00  0.00    -0.354 N 
ATOM     51  C   UNL A   1      41.609  26.274  28.530  1.00  0.00     0.074 A 
ATOM     52  C   UNL A   1      40.463  26.249  27.655  1.00  0.00     0.031 C 
ATOM     53  C   UNL A   1      40.112  30.789  32.846  1.00  0.00     0.029 A 
ATOM     54  C   UNL A   1      41.340  30.008  32.763  1.00  0.00     0.049 A 
ATOM     55  H   UNL A   1      41.840  28.577  31.332  1.00  0.00     0.167 HD
ATOM     56  C   UNL A   1      42.682  25.461  28.389  1.00  0.00     0.034 A 
ATOM     57  C   UNL A   1      42.370  30.090  33.628  1.00  0.00     0.034 A 
ATOM     58  C   UNL A   1      43.862  25.545  29.201  1.00  0.00     0.049 A 
ATOM     59  C   UNL A   1      43.585  29.240  33.401  1.00  0.00     0.074 A 
ATOM     60  C   UNL A   1      45.043  24.837  29.071  1.00  0.00     0.029 A 
ATOM     61  N   UNL A   1      44.015  26.394  30.284  1.00  0.00    -0.354 N 
ATOM     62  N   UNL A   1      43.809  28.369  32.448  1.00  0.00    -0.248 NA
ATOM     63  C   UNL A   1      44.700  29.402  34.344  1.00  0.00     0.031 C 
ATOM     64  C   UNL A   1      45.911  25.253  30.084  1.00  0.00     0.029 A 
ATOM     65  C   UNL A   1      45.275  26.233  30.829  1.00  0.00     0.049 A 
ATOM     66  H   UNL A   1      43.330  27.019  30.615  1.00  0.00     0.167 HD
ATOM     67  C   UNL A   1      45.096  27.895  32.662  1.00  0.00     0.074 A 
ATOM     68  C   UNL A   1      45.609  28.585  33.827  1.00  0.00     0.031 C 
ATOM     69  C   UNL A   1      45.784  26.963  31.960  1.00  0.00     0.034 A 
BRANCH  56  70
ATOM     70  C   UNL A   1      42.681  24.468  27.257  1.00  0.00     0.023 A 
ATOM     71  C   UNL A   1      43.363  24.783  26.065  1.00  0.00     0.012 A 
ATOM     72  C   UNL A   1      42.106  23.191  27.411  1.00  0.00     0.148 A 
ATOM     73  C   UNL A   1      43.465  23.847  25.037  1.00  0.00     0.002 A 
ATOM     74  C   UNL A   1      42.242  22.251  26.396  1.00  0.00     0.091 A 
ATOM     75  F   UNL A   1      41.454  22.919  28.550  1.00  0.00    -0.205 F 
ATOM     76  C   UNL A   1      42.916  22.579  25.208  1.00  0.00     0.022 A 
BRANCH  74  77
ATOM     77  S   UNL A   1      41.624  20.569  26.532  1.00  0.00     0.127 S 
ATOM     78  O   UNL A   1      42.265  19.926  25.386  1.00  0.00    -0.237 OA
ATOM     79  O   UNL A   1      42.149  20.157  27.834  1.00  0.00    -0.237 OA
ATOM     80  O   UNL A   1      40.173  20.662  26.455  1.00  0.00    -0.744 OA
ENDBRANCH  74  77
ENDBRANCH  56  70
BRANCH  57  81
ATOM     81  C   UNL A   1      42.312  31.087  34.731  1.00  0.00     0.023 A 
ATOM     82  C   UNL A   1      41.645  30.752  35.926  1.00  0.00     0.012 A 
ATOM     83  C   UNL A   1      42.989  32.318  34.638  1.00  0.00     0.148 A 
ATOM     84  C   UNL A   1      41.649  31.629  37.010  1.00  0.00     0.002 A 
ATOM     85  C   UNL A   1      43.021  33.171  35.735  1.00  0.00     0.091 A 
ATOM     86  F   UNL A   1      43.617  32.608  33.492  1.00  0.00    -0.205 F 
ATOM     87  C   UNL A   1      42.346  32.832  36.918  1.00  0.00     0.022 A 
BRANCH  85  88
ATOM     88  S   UNL A   1      43.973  34.693  35.752  1.00  0.00     0.127 S 
ATOM     89  O   UNL A   1      45.324  34.203  35.497  1.00  0.00    -0.237 OA
ATOM     90  O   UNL A   1      43.367  35.435  34.646  1.00  0.00    -0.237 OA
ATOM     91  O   UNL A   1      43.759  35.282  37.067  1.00  0.00    -0.744 OA
ENDBRANCH  85  88
ENDBRANCH  57  81
BRANCH  69  92
ATOM     92  C   UNL A   1      47.184  26.642  32.398  1.00  0.00     0.023 A 
ATOM     93  C   UNL A   1      48.249  27.462  31.981  1.00  0.00     0.012 A 
ATOM     94  C   UNL A   1      47.419  25.607  33.324  1.00  0.00     0.148 A 
ATOM     95  C   UNL A   1      49.535  27.247  32.472  1.00  0.00     0.002 A 
ATOM     96  C   UNL A   1      48.696  25.422  33.835  1.00  0.00     0.091 A 
ATOM     97  F   UNL A   1      46.386  24.839  33.699  1.00  0.00    -0.205 F 
ATOM     98  C   UNL A   1      49.757  26.237  33.406  1.00  0.00     0.022 A 
BRANCH  96  99
ATOM     99  S   UNL A   1      49.064  24.197  35.096  1.00  0.00     0.127 S 
ATOM    100  O   UNL A   1      48.148  24.590  36.167  1.00  0.00    -0.237 OA
ATOM    101  O   UNL A   1      48.716  22.946  34.423  1.00  0.00    -0.237 OA
ATOM    102  O   UNL A   1      50.480  24.347  35.406  1.00  0.00    -0.744 OA
ENDBRANCH  96  99
ENDBRANCH  69  92
ENDBRANCH  43  44
ENDBRANCH  36  38
ENDBRANCH  35  36
ENDBRANCH  34  35
ENDBRANCH   1  34
TORSDOF 19
ENDMDL
MODEL 2
REMARK VINA RESULT:     -10.1      4.514     12.269
REMARK SMILES NS(=O)(=O)c1ccc(C#Cc2cc(Cl)cc3c2O[C@H](C(F)(F)F)C(C(=O)OCCOC(=O)c2ccc(-c4c5nc(c(-c6cccc(S(=O)(=O)[O-])c6F)c6ccc([nH]6)c(-c6cccc(S(=O)(=O)[O-])c6F)c6nc(c(-c7cccc(S(=O)(=O)[O-])c7F)c7ccc4[nH]7)C=C6)C=C5)cc2)=C3)cc1
REMARK SMILES IDX 28 1 27 2 25 3 26 4 24 5 11 6 12 7 17 8 13 9 16 10 18 11
REMARK SMILES IDX 14 12 15 13 96 14 19 15 10 16 9 17 8 18 5 19 6 20 98 21 7 22
REMARK SMILES IDX 97 23 2 24 3 25 4 26 1 27 20 30 21 31 22 32 23 33 29 34
REMARK SMILES IDX 30 35 31 36 32 37 33 38 34 39 95 40 35 41 94 42 36 43 37 44
REMARK SMILES IDX 38 45 88 46 39 47 93 48 87 49 89 50 40 51 92 52 86 53 85 54
REMARK SMILES IDX 41 56 73 57 53 58 72 59 54 60 57 61 71 62 90 63 55 64 56 65
REMARK SMILES IDX 70 67 91 68 58 69 42 70 43 71 51 72 44 73 46 74 52 75 45 76
REMARK SMILES IDX 47 77 48 78 49 79 50 80 74 81 75 82 83 83 76 84 78 85 84 86
REMARK SMILES IDX 77 87 79 88 80 89 81 90 82 91 59 92 60 93 68 94 61 95 63 96
REMARK SMILES IDX 69 97 62 98 64 99 65 100 66 101 67 102
REMARK H PARENT 1 28 1 29 89 55 57 66
REMARK Flexibility Score: inf
ROOT
ATOM      1  C   UNL A   1      41.088  21.311  25.877  1.00  0.00     0.275 C 
ENDROOT
BRANCH   1   2
ATOM      2  O   UNL A   1      42.220  22.117  25.485  1.00  0.00    -0.459 OA
BRANCH   2   3
ATOM      3  C   UNL A   1      43.428  21.507  25.556  1.00  0.00     0.338 C 
ATOM      4  O   UNL A   1      43.739  20.455  25.022  1.00  0.00    -0.246 OA
BRANCH   3   5
ATOM      5  C   UNL A   1      44.362  22.299  26.379  1.00  0.00     0.087 C 
ATOM      6  C   UNL A   1      46.862  24.881  28.516  1.00  0.00     0.069 A 
ATOM      7  C   UNL A   1      46.389  25.497  29.680  1.00  0.00     0.041 A 
ATOM      8  C   UNL A   1      46.064  23.971  27.814  1.00  0.00     0.143 A 
ATOM      9  C   UNL A   1      45.121  25.188  30.157  1.00  0.00     0.043 A 
ATOM     10  C   UNL A   1      44.787  23.685  28.294  1.00  0.00     0.020 A 
ATOM     11  O   UNL A   1      46.581  23.393  26.684  1.00  0.00    -0.474 OA
ATOM     12  Cl  UNL A   1      44.533  25.953  31.578  1.00  0.00    -0.084 Cl
ATOM     13  C   UNL A   1      44.319  24.280  29.473  1.00  0.00     0.032 A 
ATOM     14  C   UNL A   1      43.926  22.799  27.540  1.00  0.00     0.027 C 
ATOM     15  C   UNL A   1      45.709  22.626  25.810  1.00  0.00     0.316 C 
BRANCH   6  16
ATOM     16  C   UNL A   1      48.153  25.243  28.024  1.00  0.00    -0.058 C 
ATOM     17  C   UNL A   1      49.228  25.497  27.561  1.00  0.00    -0.062 C 
BRANCH  17  18
ATOM     18  C   UNL A   1      50.477  25.760  26.930  1.00  0.00     0.025 A 
ATOM     19  C   UNL A   1      52.886  26.445  25.740  1.00  0.00     0.082 A 
ATOM     20  C   UNL A   1      51.730  26.365  24.957  1.00  0.00     0.023 A 
ATOM     21  C   UNL A   1      52.850  26.162  27.109  1.00  0.00     0.023 A 
ATOM     22  C   UNL A   1      50.520  26.018  25.557  1.00  0.00     0.018 A 
ATOM     23  C   UNL A   1      51.637  25.820  27.703  1.00  0.00     0.018 A 
BRANCH  19  24
ATOM     24  S   UNL A   1      54.403  26.948  24.994  1.00  0.00     0.238 S 
ATOM     25  O   UNL A   1      55.305  27.439  26.010  1.00  0.00    -0.207 OA
ATOM     26  O   UNL A   1      54.109  27.689  23.791  1.00  0.00    -0.207 OA
BRANCH  24  27
ATOM     27  N   UNL A   1      55.067  25.489  24.492  1.00  0.00    -0.225 NA
ATOM     28  H   UNL A   1      55.983  25.657  24.074  1.00  0.00     0.137 HD
ATOM     29  H   UNL A   1      54.454  25.056  23.801  1.00  0.00     0.137 HD
ENDBRANCH  24  27
ENDBRANCH  19  24
ENDBRANCH  17  18
ENDBRANCH   6  16
BRANCH  15  30
ATOM     30  C   UNL A   1      45.582  23.361  24.466  1.00  0.00     0.430 C 
ATOM     31  F   UNL A   1      46.683  24.106  24.204  1.00  0.00    -0.167 F 
ATOM     32  F   UNL A   1      45.456  22.491  23.432  1.00  0.00    -0.167 F 
ATOM     33  F   UNL A   1      44.514  24.188  24.430  1.00  0.00    -0.167 F 
ENDBRANCH  15  30
ENDBRANCH   3   5
ENDBRANCH   2   3
ENDBRANCH   1   2
BRANCH   1  34
ATOM     34  C   UNL A   1      40.463  21.816  27.179  1.00  0.00     0.275 C 
BRANCH  34  35
ATOM     35  O   UNL A   1      39.043  21.988  27.032  1.00  0.00    -0.458 OA
BRANCH  35  36
ATOM     36  C   UNL A   1      38.673  23.053  26.284  1.00  0.00     0.338 C 
ATOM     37  O   UNL A   1      37.835  23.082  25.400  1.00  0.00    -0.246 OA
BRANCH  36  38
ATOM     38  C   UNL A   1      39.355  24.253  26.782  1.00  0.00     0.060 A 
ATOM     39  C   UNL A   1      40.063  25.099  25.941  1.00  0.00     0.016 A 
ATOM     40  C   UNL A   1      39.148  24.605  28.110  1.00  0.00     0.016 A 
ATOM     41  C   UNL A   1      40.568  26.298  26.460  1.00  0.00     0.010 A 
ATOM     42  C   UNL A   1      39.494  25.865  28.573  1.00  0.00     0.010 A 
ATOM     43  C   UNL A   1      40.257  26.714  27.772  1.00  0.00    -0.014 A 
BRANCH  43  44
ATOM     44  C   UNL A   1      40.726  28.015  28.326  1.00  0.00     0.031 A 
ATOM     45  C   UNL A   1      42.200  28.363  28.341  1.00  0.00     0.074 A 
ATOM     46  C   UNL A   1      39.833  28.863  28.876  1.00  0.00     0.049 A 
ATOM     47  N   UNL A   1      42.784  29.439  28.806  1.00  0.00    -0.248 NA
ATOM     48  C   UNL A   1      43.148  27.369  27.804  1.00  0.00     0.031 C 
ATOM     49  C   UNL A   1      38.401  28.602  29.033  1.00  0.00     0.029 A 
ATOM     50  N   UNL A   1      39.996  30.119  29.405  1.00  0.00    -0.354 N 
ATOM     51  C   UNL A   1      44.151  29.227  28.659  1.00  0.00     0.074 A 
ATOM     52  C   UNL A   1      44.321  27.905  28.109  1.00  0.00     0.031 C 
ATOM     53  C   UNL A   1      37.808  29.683  29.560  1.00  0.00     0.029 A 
ATOM     54  C   UNL A   1      38.821  30.699  29.820  1.00  0.00     0.049 A 
ATOM     55  H   UNL A   1      40.873  30.562  29.482  1.00  0.00     0.167 HD
ATOM     56  C   UNL A   1      45.175  30.075  28.911  1.00  0.00     0.034 A 
ATOM     57  C   UNL A   1      38.578  31.917  30.342  1.00  0.00     0.034 A 
ATOM     58  C   UNL A   1      45.004  31.423  29.371  1.00  0.00     0.049 A 
ATOM     59  C   UNL A   1      39.720  32.872  30.531  1.00  0.00     0.074 A 
ATOM     60  C   UNL A   1      45.971  32.394  29.557  1.00  0.00     0.029 A 
ATOM     61  N   UNL A   1      43.788  31.993  29.707  1.00  0.00    -0.354 N 
ATOM     62  N   UNL A   1      40.991  32.691  30.269  1.00  0.00    -0.248 NA
ATOM     63  C   UNL A   1      39.396  34.206  31.057  1.00  0.00     0.031 C 
ATOM     64  C   UNL A   1      45.339  33.553  30.015  1.00  0.00     0.029 A 
ATOM     65  C   UNL A   1      43.978  33.306  30.093  1.00  0.00     0.049 A 
ATOM     66  H   UNL A   1      42.918  31.532  29.675  1.00  0.00     0.167 HD
ATOM     67  C   UNL A   1      41.617  33.891  30.576  1.00  0.00     0.074 A 
ATOM     68  C   UNL A   1      40.583  34.799  31.031  1.00  0.00     0.031 C 
ATOM     69  C   UNL A   1      42.931  34.207  30.497  1.00  0.00     0.034 A 
BRANCH  56  70
ATOM     70  C   UNL A   1      46.576  29.613  28.605  1.00  0.00     0.023 A 
ATOM     71  C   UNL A   1      47.093  29.797  27.308  1.00  0.00     0.012 A 
ATOM     72  C   UNL A   1      47.411  29.104  29.620  1.00  0.00     0.148 A 
ATOM     73  C   UNL A   1      48.417  29.471  27.019  1.00  0.00     0.002 A 
ATOM     74  C   UNL A   1      48.740  28.814  29.333  1.00  0.00     0.091 A 
ATOM     75  F   UNL A   1      46.893  28.929  30.843  1.00  0.00    -0.205 F 
ATOM     76  C   UNL A   1      49.243  28.993  28.032  1.00  0.00     0.022 A 
BRANCH  74  77
ATOM     77  S   UNL A   1      49.907  28.248  30.576  1.00  0.00     0.127 S 
ATOM     78  O   UNL A   1      49.432  26.888  30.828  1.00  0.00    -0.237 OA
ATOM     79  O   UNL A   1      51.179  28.325  29.857  1.00  0.00    -0.237 OA
ATOM     80  O   UNL A   1      49.779  29.165  31.700  1.00  0.00    -0.744 OA
ENDBRANCH  74  77
ENDBRANCH  56  70
BRANCH  57  81
ATOM     81  C   UNL A   1      37.173  32.317  30.629  1.00  0.00     0.023 A 
ATOM     82  C   UNL A   1      36.690  32.229  31.949  1.00  0.00     0.012 A 
ATOM     83  C   UNL A   1      36.352  32.865  29.626  1.00  0.00     0.148 A 
ATOM     84  C   UNL A   1      35.409  32.678  32.266  1.00  0.00     0.002 A 
ATOM     85  C   UNL A   1      35.090  33.346  29.956  1.00  0.00     0.091 A 
ATOM     86  F   UNL A   1      36.838  32.940  28.380  1.00  0.00    -0.205 F 
ATOM     87  C   UNL A   1      34.614  33.247  31.273  1.00  0.00     0.022 A 
BRANCH  85  88
ATOM     88  S   UNL A   1      34.031  34.185  28.773  1.00  0.00     0.127 S 
ATOM     89  O   UNL A   1      33.717  33.108  27.838  1.00  0.00    -0.237 OA
ATOM     90  O   UNL A   1      32.917  34.610  29.621  1.00  0.00    -0.237 OA
ATOM     91  O   UNL A   1      34.829  35.275  28.228  1.00  0.00    -0.744 OA
ENDBRANCH  85  88
ENDBRANCH  57  81
BRANCH  69  92
ATOM     92  C   UNL A   1      43.346  35.599  30.878  1.00  0.00     0.023 A 
ATOM     93  C   UNL A   1      43.539  36.567  29.875  1.00  0.00     0.012 A 
ATOM     94  C   UNL A   1      43.416  35.974  32.234  1.00  0.00     0.148 A 
ATOM     95  C   UNL A   1      43.810  37.890  30.217  1.00  0.00     0.002 A 
ATOM     96  C   UNL A   1      43.651  37.301  32.567  1.00  0.00     0.091 A 
ATOM     97  F   UNL A   1      43.232  35.029  33.168  1.00  0.00    -0.205 F 
ATOM     98  C   UNL A   1      43.854  38.259  31.560  1.00  0.00     0.022 A 
BRANCH  96  99
ATOM     99  S   UNL A   1      43.651  37.885  34.265  1.00  0.00     0.127 S 
ATOM    100  O   UNL A   1      44.870  37.270  34.789  1.00  0.00    -0.237 OA
ATOM    101  O   UNL A   1      43.724  39.336  34.094  1.00  0.00    -0.237 OA
ATOM    102  O   UNL A   1      42.411  37.405  34.860  1.00  0.00    -0.744 OA
ENDBRANCH  96  99
ENDBRANCH  69  92
ENDBRANCH  43  44
ENDBRANCH  36  38
ENDBRANCH  35  36
ENDBRANCH  34  35
ENDBRANCH   1  34
TORSDOF 19
ENDMDL
MODEL 3
REMARK VINA RESULT:      -9.6      4.419     12.128
REMARK SMILES NS(=O)(=O)c1ccc(C#Cc2cc(Cl)cc3c2O[C@H](C(F)(F)F)C(C(=O)OCCOC(=O)c2ccc(-c4c5nc(c(-c6cccc(S(=O)(=O)[O-])c6F)c6ccc([nH]6)c(-c6cccc(S(=O)(=O)[O-])c6F)c6nc(c(-c7cccc(S(=O)(=O)[O-])c7F)c7ccc4[nH]7)C=C6)C=C5)cc2)=C3)cc1
REMARK SMILES IDX 28 1 27 2 25 3 26 4 24 5 11 6 12 7 17 8 13 9 16 10 18 11
REMARK SMILES IDX 14 12 15 13 96 14 19 15 10 16 9 17 8 18 5 19 6 20 98 21 7 22
REMARK SMILES IDX 97 23 2 24 3 25 4 26 1 27 20 30 21 31 22 32 23 33 29 34
REMARK SMILES IDX 30 35 31 36 32 37 33 38 34 39 95 40 35 41 94 42 36 43 37 44
REMARK SMILES IDX 38 45 88 46 39 47 93 48 87 49 89 50 40 51 92 52 86 53 85 54
REMARK SMILES IDX 41 56 73 57 53 58 72 59 54 60 57 61 71 62 90 63 55 64 56 65
REMARK SMILES IDX 70 67 91 68 58 69 42 70 43 71 51 72 44 73 46 74 52 75 45 76
REMARK SMILES IDX 47 77 48 78 49 79 50 80 74 81 75 82 83 83 76 84 78 85 84 86
REMARK SMILES IDX 77 87 79 88 80 89 81 90 82 91 59 92 60 93 68 94 61 95 63 96
REMARK SMILES IDX 69 97 62 98 64 99 65 100 66 101 67 102
REMARK H PARENT 1 28 1 29 89 55 57 66
REMARK Flexibility Score: inf
ROOT
ATOM      1  C   UNL A   1      46.020  22.149  25.218  1.00  0.00     0.275 C 
ENDROOT
BRANCH   1   2
ATOM      2  O   UNL A   1      44.819  21.931  25.990  1.00  0.00    -0.459 OA
BRANCH   2   3
ATOM      3  C   UNL A   1      44.652  22.746  27.059  1.00  0.00     0.338 C 
ATOM      4  O   UNL A   1      45.469  22.963  27.938  1.00  0.00    -0.246 OA
BRANCH   3   5
ATOM      5  C   UNL A   1      43.316  23.373  27.029  1.00  0.00     0.087 C 
ATOM      6  C   UNL A   1      39.455  24.956  27.306  1.00  0.00     0.069 A 
ATOM      7  C   UNL A   1      39.241  26.136  28.026  1.00  0.00     0.041 A 
ATOM      8  C   UNL A   1      40.746  24.436  27.153  1.00  0.00     0.143 A 
ATOM      9  C   UNL A   1      40.323  26.812  28.579  1.00  0.00     0.043 A 
ATOM     10  C   UNL A   1      41.818  25.115  27.729  1.00  0.00     0.020 A 
ATOM     11  O   UNL A   1      40.897  23.281  26.432  1.00  0.00    -0.474 OA
ATOM     12  Cl  UNL A   1      40.061  28.254  29.476  1.00  0.00    -0.084 Cl
ATOM     13  C   UNL A   1      41.611  26.311  28.429  1.00  0.00     0.032 A 
ATOM     14  C   UNL A   1      43.148  24.552  27.636  1.00  0.00     0.027 C 
ATOM     15  C   UNL A   1      42.178  22.594  26.443  1.00  0.00     0.316 C 
BRANCH   6  16
ATOM     16  C   UNL A   1      38.326  24.258  26.780  1.00  0.00    -0.058 C 
ATOM     17  C   UNL A   1      37.337  23.721  26.370  1.00  0.00    -0.062 C 
BRANCH  17  18
ATOM     18  C   UNL A   1      36.116  23.164  25.895  1.00  0.00     0.025 A 
ATOM     19  C   UNL A   1      33.815  22.060  24.809  1.00  0.00     0.082 A 
ATOM     20  C   UNL A   1      33.966  23.451  24.836  1.00  0.00     0.023 A 
ATOM     21  C   UNL A   1      34.796  21.220  25.343  1.00  0.00     0.023 A 
ATOM     22  C   UNL A   1      35.123  24.004  25.384  1.00  0.00     0.018 A 
ATOM     23  C   UNL A   1      35.952  21.778  25.886  1.00  0.00     0.018 A 
BRANCH  19  24
ATOM     24  S   UNL A   1      32.383  21.360  24.057  1.00  0.00     0.238 S 
ATOM     25  O   UNL A   1      32.704  20.058  23.520  1.00  0.00    -0.207 OA
ATOM     26  O   UNL A   1      31.717  22.379  23.280  1.00  0.00    -0.207 OA
BRANCH  24  27
ATOM     27  N   UNL A   1      31.387  21.054  25.375  1.00  0.00    -0.225 NA
ATOM     28  H   UNL A   1      31.300  20.046  25.509  1.00  0.00     0.137 HD
ATOM     29  H   UNL A   1      30.464  21.454  25.204  1.00  0.00     0.137 HD
ENDBRANCH  24  27
ENDBRANCH  19  24
ENDBRANCH  17  18
ENDBRANCH   6  16
BRANCH  15  30
ATOM     30  C   UNL A   1      42.008  21.239  27.151  1.00  0.00     0.430 C 
ATOM     31  F   UNL A   1      42.584  21.248  28.378  1.00  0.00    -0.167 F 
ATOM     32  F   UNL A   1      40.700  20.939  27.347  1.00  0.00    -0.167 F 
ATOM     33  F   UNL A   1      42.557  20.220  26.452  1.00  0.00    -0.167 F 
ENDBRANCH  15  30
ENDBRANCH   3   5
ENDBRANCH   2   3
ENDBRANCH   1   2
BRANCH   1  34
ATOM     34  C   UNL A   1      45.731  22.940  23.941  1.00  0.00     0.275 C 
BRANCH  34  35
ATOM     35  O   UNL A   1      45.369  24.297  24.250  1.00  0.00    -0.458 OA
BRANCH  35  36
ATOM     36  C   UNL A   1      46.409  25.111  24.540  1.00  0.00     0.338 C 
ATOM     37  O   UNL A   1      47.522  25.097  24.042  1.00  0.00    -0.246 OA
BRANCH  36  38
ATOM     38  C   UNL A   1      45.967  26.141  25.486  1.00  0.00     0.060 A 
ATOM     39  C   UNL A   1      44.703  26.710  25.417  1.00  0.00     0.016 A 
ATOM     40  C   UNL A   1      46.803  26.433  26.556  1.00  0.00     0.016 A 
ATOM     41  C   UNL A   1      44.299  27.583  26.435  1.00  0.00     0.010 A 
ATOM     42  C   UNL A   1      46.338  27.153  27.645  1.00  0.00     0.010 A 
ATOM     43  C   UNL A   1      45.096  27.785  27.582  1.00  0.00    -0.014 A 
BRANCH  43  44
ATOM     44  C   UNL A   1      44.661  28.656  28.709  1.00  0.00     0.031 A 
ATOM     45  C   UNL A   1      44.404  28.073  30.083  1.00  0.00     0.074 A 
ATOM     46  C   UNL A   1      44.433  29.966  28.485  1.00  0.00     0.049 A 
ATOM     47  N   UNL A   1      43.998  28.682  31.169  1.00  0.00    -0.248 NA
ATOM     48  C   UNL A   1      44.587  26.621  30.260  1.00  0.00     0.031 C 
ATOM     49  C   UNL A   1      44.527  30.634  27.185  1.00  0.00     0.029 A 
ATOM     50  N   UNL A   1      44.075  30.975  29.345  1.00  0.00    -0.354 N 
ATOM     51  C   UNL A   1      43.836  27.687  32.128  1.00  0.00     0.074 A 
ATOM     52  C   UNL A   1      44.138  26.429  31.491  1.00  0.00     0.031 C 
ATOM     53  C   UNL A   1      44.296  31.946  27.342  1.00  0.00     0.029 A 
ATOM     54  C   UNL A   1      43.994  32.209  28.744  1.00  0.00     0.049 A 
ATOM     55  H   UNL A   1      43.892  30.828  30.302  1.00  0.00     0.167 HD
ATOM     56  C   UNL A   1      43.515  27.811  33.437  1.00  0.00     0.034 A 
ATOM     57  C   UNL A   1      43.719  33.422  29.261  1.00  0.00     0.034 A 
ATOM     58  C   UNL A   1      43.304  29.068  34.093  1.00  0.00     0.049 A 
ATOM     59  C   UNL A   1      43.451  33.546  30.732  1.00  0.00     0.074 A 
ATOM     60  C   UNL A   1      43.077  29.306  35.437  1.00  0.00     0.029 A 
ATOM     61  N   UNL A   1      43.306  30.299  33.460  1.00  0.00    -0.354 N 
ATOM     62  N   UNL A   1      43.424  32.603  31.642  1.00  0.00    -0.248 NA
ATOM     63  C   UNL A   1      43.205  34.897  31.256  1.00  0.00     0.031 C 
ATOM     64  C   UNL A   1      42.932  30.683  35.616  1.00  0.00     0.029 A 
ATOM     65  C   UNL A   1      43.091  31.302  34.386  1.00  0.00     0.049 A 
ATOM     66  H   UNL A   1      43.442  30.439  32.494  1.00  0.00     0.167 HD
ATOM     67  C   UNL A   1      43.181  33.246  32.848  1.00  0.00     0.074 A 
ATOM     68  C   UNL A   1      43.082  34.661  32.556  1.00  0.00     0.031 C 
ATOM     69  C   UNL A   1      43.042  32.708  34.084  1.00  0.00     0.034 A 
BRANCH  56  70
ATOM     70  C   UNL A   1      43.462  26.564  34.279  1.00  0.00     0.023 A 
ATOM     71  C   UNL A   1      42.212  25.984  34.574  1.00  0.00     0.012 A 
ATOM     72  C   UNL A   1      44.643  25.908  34.682  1.00  0.00     0.148 A 
ATOM     73  C   UNL A   1      42.134  24.778  35.268  1.00  0.00     0.002 A 
ATOM     74  C   UNL A   1      44.558  24.687  35.342  1.00  0.00     0.091 A 
ATOM     75  F   UNL A   1      45.819  26.483  34.399  1.00  0.00    -0.205 F 
ATOM     76  C   UNL A   1      43.305  24.124  35.639  1.00  0.00     0.022 A 
BRANCH  74  77
ATOM     77  S   UNL A   1      46.003  23.730  35.816  1.00  0.00     0.127 S 
ATOM     78  O   UNL A   1      45.389  22.548  36.419  1.00  0.00    -0.237 OA
ATOM     79  O   UNL A   1      46.647  23.491  34.525  1.00  0.00    -0.237 OA
ATOM     80  O   UNL A   1      46.760  24.568  36.735  1.00  0.00    -0.744 OA
ENDBRANCH  74  77
ENDBRANCH  56  70
BRANCH  57  81
ATOM     81  C   UNL A   1      43.781  34.619  28.378  1.00  0.00     0.023 A 
ATOM     82  C   UNL A   1      42.594  35.103  27.794  1.00  0.00     0.012 A 
ATOM     83  C   UNL A   1      44.983  35.326  28.191  1.00  0.00     0.148 A 
ATOM     84  C   UNL A   1      42.604  36.272  27.034  1.00  0.00     0.002 A 
ATOM     85  C   UNL A   1      44.979  36.511  27.464  1.00  0.00     0.091 A 
ATOM     86  F   UNL A   1      46.095  34.844  28.761  1.00  0.00    -0.205 F 
ATOM     87  C   UNL A   1      43.793  36.981  26.879  1.00  0.00     0.022 A 
BRANCH  85  88
ATOM     88  S   UNL A   1      46.435  37.548  27.292  1.00  0.00     0.127 S 
ATOM     89  O   UNL A   1      46.008  38.493  26.263  1.00  0.00    -0.237 OA
ATOM     90  O   UNL A   1      46.557  38.113  28.636  1.00  0.00    -0.237 OA
ATOM     91  O   UNL A   1      47.518  36.653  26.909  1.00  0.00    -0.744 OA
ENDBRANCH  85  88
ENDBRANCH  57  81
BRANCH  69  92
ATOM     92  C   UNL A   1      42.799  33.641  35.235  1.00  0.00     0.023 A 
ATOM     93  C   UNL A   1      43.893  34.173  35.942  1.00  0.00     0.012 A 
ATOM     94  C   UNL A   1      41.494  34.084  35.526  1.00  0.00     0.148 A 
ATOM     95  C   UNL A   1      43.689  35.127  36.937  1.00  0.00     0.002 A 
ATOM     96  C   UNL A   1      41.303  35.061  36.493  1.00  0.00     0.091 A 
ATOM     97  F   UNL A   1      40.471  33.555  34.839  1.00  0.00    -0.205 F 
ATOM     98  C   UNL A   1      42.398  35.580  37.204  1.00  0.00     0.022 A 
BRANCH  96  99
ATOM     99  S   UNL A   1      39.688  35.759  36.855  1.00  0.00     0.127 S 
ATOM    100  O   UNL A   1      39.291  36.281  35.548  1.00  0.00    -0.237 OA
ATOM    101  O   UNL A   1      38.936  34.585  37.297  1.00  0.00    -0.237 OA
ATOM    102  O   UNL A   1      39.903  36.766  37.885  1.00  0.00    -0.744 OA
ENDBRANCH  96  99
ENDBRANCH  69  92
ENDBRANCH  43  44
ENDBRANCH  36  38
ENDBRANCH  35  36
ENDBRANCH  34  35
ENDBRANCH   1  34
TORSDOF 19
ENDMDL
