MODEL 1
REMARK VINA RESULT:     -11.6      0.000      0.000
REMARK SMILES C[C@H]1[C@H](C(=O)OCCOC(=O)c2ccc(-c3c4nc(c(-c5cccc(S(=O)(=O)[O-])c5F)c5ccc([nH]5)c(-c5cccc(S(=O)(=O)[O-])c5F)c5nc(c(-c6cccc(S(=O)(=O)[O-])c6F)c6ccc3[nH]6)C=C5)C=C4)cc2)CC[N@H+]1[C@@H]1CCCC1(C)C
REMARK SMILES IDX 8 1 7 2 6 3 4 4 5 5 3 6 1 7 2 8 77 9 75 10 76 11 78 13 79 14
REMARK SMILES IDX 82 15 80 16 81 17 83 18 84 19 9 20 10 21 11 22 12 23 13 24
REMARK SMILES IDX 74 25 14 26 73 27 15 28 16 29 17 30 67 31 18 32 72 33 66 34
REMARK SMILES IDX 68 35 19 36 71 37 65 38 64 39 20 41 52 42 32 43 51 44 33 45
REMARK SMILES IDX 36 46 50 47 69 48 34 49 35 50 49 52 70 53 37 54 21 55 22 56
REMARK SMILES IDX 30 57 23 58 25 59 31 60 24 61 26 62 27 63 28 64 29 65 53 66
REMARK SMILES IDX 54 67 62 68 55 69 57 70 63 71 56 72 58 73 59 74 60 75 61 76
REMARK SMILES IDX 38 77 39 78 47 79 40 80 42 81 48 82 41 83 43 84 44 85 45 86
REMARK SMILES IDX 46 87
REMARK H PARENT 77 12 68 40 36 51
REMARK Flexibility Score: inf
ROOT
ATOM      1  C   UNL A   1      36.417  20.874  24.636  1.00  0.00     0.275 C 
ENDROOT
BRANCH   1   2
ATOM      2  C   UNL A   1      35.012  20.413  25.019  1.00  0.00     0.274 C 
BRANCH   2   3
ATOM      3  O   UNL A   1      34.499  21.160  26.140  1.00  0.00    -0.462 OA
BRANCH   3   4
ATOM      4  C   UNL A   1      33.312  21.779  25.932  1.00  0.00     0.315 C 
ATOM      5  O   UNL A   1      32.292  21.216  25.545  1.00  0.00    -0.252 OA
BRANCH   4   6
ATOM      6  C   UNL A   1      33.343  23.272  26.151  1.00  0.00     0.162 C 
ATOM      7  C   UNL A   1      35.293  24.425  25.064  1.00  0.00     0.076 C 
ATOM      8  C   UNL A   1      33.782  24.188  24.998  1.00  0.00     0.195 C 
ATOM      9  N   UNL A   1      32.890  25.373  25.093  1.00  0.00    -0.329 N 
ATOM     10  C   UNL A   1      31.958  23.762  26.511  1.00  0.00     0.083 C 
ATOM     11  C   UNL A   1      32.087  25.255  26.305  1.00  0.00     0.263 C 
ATOM     12  H   UNL A   1      32.256  25.341  24.295  1.00  0.00     0.348 HD
BRANCH   9  13
ATOM     13  C   UNL A   1      33.419  26.687  24.732  1.00  0.00     0.189 C 
ATOM     14  C   UNL A   1      33.336  27.820  25.779  1.00  0.00     0.066 C 
ATOM     15  C   UNL A   1      32.895  27.358  23.419  1.00  0.00     0.017 C 
ATOM     16  C   UNL A   1      33.383  29.134  24.995  1.00  0.00     0.007 C 
ATOM     17  C   UNL A   1      33.564  28.744  23.533  1.00  0.00     0.013 C 
ATOM     18  C   UNL A   1      33.376  26.616  22.168  1.00  0.00     0.017 C 
ATOM     19  C   UNL A   1      31.370  27.551  23.325  1.00  0.00     0.017 C 
ENDBRANCH   9  13
ENDBRANCH   4   6
ENDBRANCH   3   4
ENDBRANCH   2   3
ENDBRANCH   1   2
BRANCH   1  20
ATOM     20  O   UNL A   1      37.074  21.488  25.757  1.00  0.00    -0.458 OA
BRANCH  20  21
ATOM     21  C   UNL A   1      38.404  21.253  25.839  1.00  0.00     0.338 C 
ATOM     22  O   UNL A   1      39.009  20.263  25.467  1.00  0.00    -0.246 OA
BRANCH  21  23
ATOM     23  C   UNL A   1      39.067  22.420  26.434  1.00  0.00     0.060 A 
ATOM     24  C   UNL A   1      38.646  23.708  26.088  1.00  0.00     0.016 A 
ATOM     25  C   UNL A   1      40.174  22.230  27.255  1.00  0.00     0.016 A 
ATOM     26  C   UNL A   1      39.357  24.818  26.536  1.00  0.00     0.010 A 
ATOM     27  C   UNL A   1      40.858  23.344  27.738  1.00  0.00     0.010 A 
ATOM     28  C   UNL A   1      40.468  24.644  27.369  1.00  0.00    -0.014 A 
BRANCH  28  29
ATOM     29  C   UNL A   1      41.257  25.800  27.856  1.00  0.00     0.031 A 
ATOM     30  C   UNL A   1      40.571  26.879  28.643  1.00  0.00     0.074 A 
ATOM     31  C   UNL A   1      42.552  25.923  27.510  1.00  0.00     0.049 A 
ATOM     32  N   UNL A   1      40.988  28.081  28.933  1.00  0.00    -0.248 NA
ATOM     33  C   UNL A   1      39.229  26.562  29.160  1.00  0.00     0.031 C 
ATOM     34  C   UNL A   1      43.329  24.926  26.772  1.00  0.00     0.029 A 
ATOM     35  N   UNL A   1      43.428  26.964  27.692  1.00  0.00    -0.354 N 
ATOM     36  C   UNL A   1      39.937  28.693  29.605  1.00  0.00     0.074 A 
ATOM     37  C   UNL A   1      38.870  27.720  29.699  1.00  0.00     0.031 C 
ATOM     38  C   UNL A   1      44.554  25.418  26.530  1.00  0.00     0.029 A 
ATOM     39  C   UNL A   1      44.625  26.783  27.039  1.00  0.00     0.049 A 
ATOM     40  H   UNL A   1      43.220  27.760  28.232  1.00  0.00     0.167 HD
ATOM     41  C   UNL A   1      39.873  29.951  30.098  1.00  0.00     0.034 A 
ATOM     42  C   UNL A   1      45.644  27.641  26.828  1.00  0.00     0.034 A 
ATOM     43  C   UNL A   1      40.961  30.890  30.039  1.00  0.00     0.049 A 
ATOM     44  C   UNL A   1      45.544  29.039  27.376  1.00  0.00     0.074 A 
ATOM     45  C   UNL A   1      41.014  32.178  30.541  1.00  0.00     0.029 A 
ATOM     46  N   UNL A   1      42.187  30.640  29.442  1.00  0.00    -0.354 N 
ATOM     47  N   UNL A   1      44.573  29.585  28.066  1.00  0.00    -0.248 NA
ATOM     48  C   UNL A   1      46.685  29.933  27.133  1.00  0.00     0.031 C 
ATOM     49  C   UNL A   1      42.271  32.710  30.240  1.00  0.00     0.029 A 
ATOM     50  C   UNL A   1      43.006  31.748  29.563  1.00  0.00     0.049 A 
ATOM     51  H   UNL A   1      42.438  29.798  28.997  1.00  0.00     0.167 HD
ATOM     52  C   UNL A   1      44.998  30.873  28.371  1.00  0.00     0.074 A 
ATOM     53  C   UNL A   1      46.321  31.021  27.799  1.00  0.00     0.031 C 
ATOM     54  C   UNL A   1      44.348  31.847  29.051  1.00  0.00     0.034 A 
BRANCH  41  55
ATOM     55  C   UNL A   1      38.596  30.382  30.764  1.00  0.00     0.023 A 
ATOM     56  C   UNL A   1      38.411  30.142  32.140  1.00  0.00     0.012 A 
ATOM     57  C   UNL A   1      37.606  31.079  30.043  1.00  0.00     0.148 A 
ATOM     58  C   UNL A   1      37.249  30.567  32.784  1.00  0.00     0.002 A 
ATOM     59  C   UNL A   1      36.467  31.532  30.700  1.00  0.00     0.091 A 
ATOM     60  F   UNL A   1      37.788  31.275  28.730  1.00  0.00    -0.205 F 
ATOM     61  C   UNL A   1      36.283  31.270  32.067  1.00  0.00     0.022 A 
BRANCH  59  62
ATOM     62  S   UNL A   1      35.203  32.508  29.875  1.00  0.00     0.127 S 
ATOM     63  O   UNL A   1      34.274  32.774  30.971  1.00  0.00    -0.237 OA
ATOM     64  O   UNL A   1      35.960  33.675  29.420  1.00  0.00    -0.237 OA
ATOM     65  O   UNL A   1      34.689  31.667  28.803  1.00  0.00    -0.744 OA
ENDBRANCH  59  62
ENDBRANCH  41  55
BRANCH  42  66
ATOM     66  C   UNL A   1      46.849  27.188  26.077  1.00  0.00     0.023 A 
ATOM     67  C   UNL A   1      46.921  27.421  24.691  1.00  0.00     0.012 A 
ATOM     68  C   UNL A   1      47.937  26.573  26.729  1.00  0.00     0.148 A 
ATOM     69  C   UNL A   1      48.046  27.034  23.963  1.00  0.00     0.002 A 
ATOM     70  C   UNL A   1      49.077  26.240  26.007  1.00  0.00     0.091 A 
ATOM     71  F   UNL A   1      47.841  26.340  28.045  1.00  0.00    -0.205 F 
ATOM     72  C   UNL A   1      49.129  26.456  24.622  1.00  0.00     0.022 A 
BRANCH  70  73
ATOM     73  S   UNL A   1      50.565  25.616  26.800  1.00  0.00     0.127 S 
ATOM     74  O   UNL A   1      50.936  26.735  27.663  1.00  0.00    -0.237 OA
ATOM     75  O   UNL A   1      50.065  24.435  27.504  1.00  0.00    -0.237 OA
ATOM     76  O   UNL A   1      51.488  25.318  25.713  1.00  0.00    -0.744 OA
ENDBRANCH  70  73
ENDBRANCH  42  66
BRANCH  54  77
ATOM     77  C   UNL A   1      45.065  33.151  29.269  1.00  0.00     0.023 A 
ATOM     78  C   UNL A   1      45.947  33.290  30.358  1.00  0.00     0.012 A 
ATOM     79  C   UNL A   1      44.952  34.193  28.328  1.00  0.00     0.148 A 
ATOM     80  C   UNL A   1      46.697  34.455  30.514  1.00  0.00     0.002 A 
ATOM     81  C   UNL A   1      45.734  35.333  28.467  1.00  0.00     0.091 A 
ATOM     82  F   UNL A   1      44.092  34.043  27.310  1.00  0.00    -0.205 F 
ATOM     83  C   UNL A   1      46.601  35.468  29.563  1.00  0.00     0.022 A 
BRANCH  81  84
ATOM     84  S   UNL A   1      45.748  36.647  27.241  1.00  0.00     0.127 S 
ATOM     85  O   UNL A   1      44.320  36.917  27.079  1.00  0.00    -0.237 OA
ATOM     86  O   UNL A   1      46.494  37.702  27.927  1.00  0.00    -0.237 OA
ATOM     87  O   UNL A   1      46.416  36.098  26.068  1.00  0.00    -0.744 OA
ENDBRANCH  81  84
ENDBRANCH  54  77
ENDBRANCH  28  29
ENDBRANCH  21  23
ENDBRANCH  20  21
ENDBRANCH   1  20
TORSDOF 15
ENDMDL
MODEL 2
REMARK VINA RESULT:     -11.6      4.920     10.081
REMARK SMILES C[C@H]1[C@H](C(=O)OCCOC(=O)c2ccc(-c3c4nc(c(-c5cccc(S(=O)(=O)[O-])c5F)c5ccc([nH]5)c(-c5cccc(S(=O)(=O)[O-])c5F)c5nc(c(-c6cccc(S(=O)(=O)[O-])c6F)c6ccc3[nH]6)C=C5)C=C4)cc2)CC[N@H+]1[C@@H]1CCCC1(C)C
REMARK SMILES IDX 8 1 7 2 6 3 4 4 5 5 3 6 1 7 2 8 77 9 75 10 76 11 78 13 79 14
REMARK SMILES IDX 82 15 80 16 81 17 83 18 84 19 9 20 10 21 11 22 12 23 13 24
REMARK SMILES IDX 74 25 14 26 73 27 15 28 16 29 17 30 67 31 18 32 72 33 66 34
REMARK SMILES IDX 68 35 19 36 71 37 65 38 64 39 20 41 52 42 32 43 51 44 33 45
REMARK SMILES IDX 36 46 50 47 69 48 34 49 35 50 49 52 70 53 37 54 21 55 22 56
REMARK SMILES IDX 30 57 23 58 25 59 31 60 24 61 26 62 27 63 28 64 29 65 53 66
REMARK SMILES IDX 54 67 62 68 55 69 57 70 63 71 56 72 58 73 59 74 60 75 61 76
REMARK SMILES IDX 38 77 39 78 47 79 40 80 42 81 48 82 41 83 43 84 44 85 45 86
REMARK SMILES IDX 46 87
REMARK H PARENT 77 12 68 40 36 51
REMARK Flexibility Score: inf
ROOT
ATOM      1  C   UNL A   1      31.487  30.352  25.610  1.00  0.00     0.275 C 
ENDROOT
BRANCH   1   2
ATOM      2  C   UNL A   1      31.689  29.482  24.371  1.00  0.00     0.274 C 
BRANCH   2   3
ATOM      3  O   UNL A   1      33.089  29.262  24.103  1.00  0.00    -0.462 OA
BRANCH   3   4
ATOM      4  C   UNL A   1      33.369  28.192  23.319  1.00  0.00     0.315 C 
ATOM      5  O   UNL A   1      33.651  28.259  22.126  1.00  0.00    -0.252 OA
BRANCH   4   6
ATOM      6  C   UNL A   1      33.244  26.861  24.017  1.00  0.00     0.162 C 
ATOM      7  C   UNL A   1      32.985  24.908  22.457  1.00  0.00     0.076 C 
ATOM      8  C   UNL A   1      33.939  25.631  23.411  1.00  0.00     0.195 C 
ATOM      9  N   UNL A   1      34.454  24.872  24.580  1.00  0.00    -0.329 N 
ATOM     10  C   UNL A   1      33.815  26.963  25.414  1.00  0.00     0.083 C 
ATOM     11  C   UNL A   1      33.969  25.509  25.800  1.00  0.00     0.263 C 
ATOM     12  H   UNL A   1      35.471  24.952  24.570  1.00  0.00     0.348 HD
BRANCH   9  13
ATOM     13  C   UNL A   1      34.482  23.412  24.520  1.00  0.00     0.189 C 
ATOM     14  C   UNL A   1      33.663  22.622  25.565  1.00  0.00     0.066 C 
ATOM     15  C   UNL A   1      35.875  22.699  24.527  1.00  0.00     0.017 C 
ATOM     16  C   UNL A   1      34.308  21.237  25.659  1.00  0.00     0.007 C 
ATOM     17  C   UNL A   1      35.430  21.225  24.627  1.00  0.00     0.013 C 
ATOM     18  C   UNL A   1      36.652  22.952  23.231  1.00  0.00     0.017 C 
ATOM     19  C   UNL A   1      36.789  23.022  25.723  1.00  0.00     0.017 C 
ENDBRANCH   9  13
ENDBRANCH   4   6
ENDBRANCH   3   4
ENDBRANCH   2   3
ENDBRANCH   1   2
BRANCH   1  20
ATOM     20  O   UNL A   1      32.567  30.171  26.540  1.00  0.00    -0.458 OA
BRANCH  20  21
ATOM     21  C   UNL A   1      33.061  31.312  27.073  1.00  0.00     0.338 C 
ATOM     22  O   UNL A   1      32.518  32.401  27.133  1.00  0.00    -0.246 OA
BRANCH  21  23
ATOM     23  C   UNL A   1      34.393  31.050  27.632  1.00  0.00     0.060 A 
ATOM     24  C   UNL A   1      34.758  29.745  27.973  1.00  0.00     0.016 A 
ATOM     25  C   UNL A   1      35.237  32.121  27.913  1.00  0.00     0.016 A 
ATOM     26  C   UNL A   1      35.961  29.505  28.632  1.00  0.00     0.010 A 
ATOM     27  C   UNL A   1      36.461  31.874  28.533  1.00  0.00     0.010 A 
ATOM     28  C   UNL A   1      36.825  30.570  28.913  1.00  0.00    -0.014 A 
BRANCH  28  29
ATOM     29  C   UNL A   1      38.107  30.357  29.624  1.00  0.00     0.031 A 
ATOM     30  C   UNL A   1      39.130  29.432  29.032  1.00  0.00     0.074 A 
ATOM     31  C   UNL A   1      38.306  30.914  30.833  1.00  0.00     0.049 A 
ATOM     32  N   UNL A   1      40.182  28.898  29.591  1.00  0.00    -0.248 NA
ATOM     33  C   UNL A   1      38.932  29.046  27.625  1.00  0.00     0.031 C 
ATOM     34  C   UNL A   1      37.395  31.850  31.494  1.00  0.00     0.029 A 
ATOM     35  N   UNL A   1      39.317  30.732  31.743  1.00  0.00    -0.354 N 
ATOM     36  C   UNL A   1      40.734  28.059  28.631  1.00  0.00     0.074 A 
ATOM     37  C   UNL A   1      39.913  28.171  27.445  1.00  0.00     0.031 C 
ATOM     38  C   UNL A   1      37.868  32.132  32.718  1.00  0.00     0.029 A 
ATOM     39  C   UNL A   1      39.078  31.349  32.949  1.00  0.00     0.049 A 
ATOM     40  H   UNL A   1      40.131  30.212  31.552  1.00  0.00     0.167 HD
ATOM     41  C   UNL A   1      41.828  27.269  28.734  1.00  0.00     0.034 A 
ATOM     42  C   UNL A   1      39.730  31.252  34.125  1.00  0.00     0.034 A 
ATOM     43  C   UNL A   1      42.662  27.205  29.903  1.00  0.00     0.049 A 
ATOM     44  C   UNL A   1      40.936  30.357  34.217  1.00  0.00     0.074 A 
ATOM     45  C   UNL A   1      43.815  26.466  30.098  1.00  0.00     0.029 A 
ATOM     46  N   UNL A   1      42.432  27.908  31.075  1.00  0.00    -0.354 N 
ATOM     47  N   UNL A   1      41.487  29.619  33.284  1.00  0.00    -0.248 NA
ATOM     48  C   UNL A   1      41.622  30.294  35.516  1.00  0.00     0.031 C 
ATOM     49  C   UNL A   1      44.278  26.717  31.393  1.00  0.00     0.029 A 
ATOM     50  C   UNL A   1      43.421  27.623  31.999  1.00  0.00     0.049 A 
ATOM     51  H   UNL A   1      41.676  28.520  31.228  1.00  0.00     0.167 HD
ATOM     52  C   UNL A   1      42.604  29.034  33.870  1.00  0.00     0.074 A 
ATOM     53  C   UNL A   1      42.656  29.511  35.237  1.00  0.00     0.031 C 
ATOM     54  C   UNL A   1      43.495  28.169  33.330  1.00  0.00     0.034 A 
BRANCH  41  55
ATOM     55  C   UNL A   1      42.202  26.426  27.545  1.00  0.00     0.023 A 
ATOM     56  C   UNL A   1      42.963  26.989  26.502  1.00  0.00     0.012 A 
ATOM     57  C   UNL A   1      41.853  25.063  27.490  1.00  0.00     0.148 A 
ATOM     58  C   UNL A   1      43.351  26.215  25.409  1.00  0.00     0.002 A 
ATOM     59  C   UNL A   1      42.275  24.287  26.415  1.00  0.00     0.091 A 
ATOM     60  F   UNL A   1      41.107  24.552  28.479  1.00  0.00    -0.205 F 
ATOM     61  C   UNL A   1      43.016  24.863  25.371  1.00  0.00     0.022 A 
BRANCH  59  62
ATOM     62  S   UNL A   1      41.953  22.522  26.315  1.00  0.00     0.127 S 
ATOM     63  O   UNL A   1      42.618  22.171  25.063  1.00  0.00    -0.237 OA
ATOM     64  O   UNL A   1      42.614  22.017  27.519  1.00  0.00    -0.237 OA
ATOM     65  O   UNL A   1      40.503  22.382  26.320  1.00  0.00    -0.744 OA
ENDBRANCH  59  62
ENDBRANCH  41  55
BRANCH  42  66
ATOM     66  C   UNL A   1      39.258  32.038  35.299  1.00  0.00     0.023 A 
ATOM     67  C   UNL A   1      38.365  31.444  36.210  1.00  0.00     0.012 A 
ATOM     68  C   UNL A   1      39.720  33.347  35.545  1.00  0.00     0.148 A 
ATOM     69  C   UNL A   1      37.924  32.143  37.333  1.00  0.00     0.002 A 
ATOM     70  C   UNL A   1      39.321  34.018  36.695  1.00  0.00     0.091 A 
ATOM     71  F   UNL A   1      40.554  33.905  34.656  1.00  0.00    -0.205 F 
ATOM     72  C   UNL A   1      38.412  33.424  37.584  1.00  0.00     0.022 A 
BRANCH  70  73
ATOM     73  S   UNL A   1      40.003  35.613  37.161  1.00  0.00     0.127 S 
ATOM     74  O   UNL A   1      41.426  35.306  37.284  1.00  0.00    -0.237 OA
ATOM     75  O   UNL A   1      39.652  36.445  36.009  1.00  0.00    -0.237 OA
ATOM     76  O   UNL A   1      39.322  35.983  38.394  1.00  0.00    -0.744 OA
ENDBRANCH  70  73
ENDBRANCH  42  66
BRANCH  54  77
ATOM     77  C   UNL A   1      44.643  27.713  34.189  1.00  0.00     0.023 A 
ATOM     78  C   UNL A   1      45.823  28.479  34.242  1.00  0.00     0.012 A 
ATOM     79  C   UNL A   1      44.502  26.592  35.030  1.00  0.00     0.148 A 
ATOM     80  C   UNL A   1      46.854  28.127  35.112  1.00  0.00     0.002 A 
ATOM     81  C   UNL A   1      45.515  26.273  35.925  1.00  0.00     0.091 A 
ATOM     82  F   UNL A   1      43.375  25.870  34.949  1.00  0.00    -0.205 F 
ATOM     83  C   UNL A   1      46.695  27.034  35.962  1.00  0.00     0.022 A 
BRANCH  81  84
ATOM     84  S   UNL A   1      45.360  24.942  37.123  1.00  0.00     0.127 S 
ATOM     85  O   UNL A   1      44.084  25.265  37.760  1.00  0.00    -0.237 OA
ATOM     86  O   UNL A   1      45.332  23.756  36.267  1.00  0.00    -0.237 OA
ATOM     87  O   UNL A   1      46.529  25.038  37.987  1.00  0.00    -0.744 OA
ENDBRANCH  81  84
ENDBRANCH  54  77
ENDBRANCH  28  29
ENDBRANCH  21  23
ENDBRANCH  20  21
ENDBRANCH   1  20
TORSDOF 15
ENDMDL
MODEL 3
REMARK VINA RESULT:     -11.5      1.575      2.099
REMARK SMILES C[C@H]1[C@H](C(=O)OCCOC(=O)c2ccc(-c3c4nc(c(-c5cccc(S(=O)(=O)[O-])c5F)c5ccc([nH]5)c(-c5cccc(S(=O)(=O)[O-])c5F)c5nc(c(-c6cccc(S(=O)(=O)[O-])c6F)c6ccc3[nH]6)C=C5)C=C4)cc2)CC[N@H+]1[C@@H]1CCCC1(C)C
REMARK SMILES IDX 8 1 7 2 6 3 4 4 5 5 3 6 1 7 2 8 77 9 75 10 76 11 78 13 79 14
REMARK SMILES IDX 82 15 80 16 81 17 83 18 84 19 9 20 10 21 11 22 12 23 13 24
REMARK SMILES IDX 74 25 14 26 73 27 15 28 16 29 17 30 67 31 18 32 72 33 66 34
REMARK SMILES IDX 68 35 19 36 71 37 65 38 64 39 20 41 52 42 32 43 51 44 33 45
REMARK SMILES IDX 36 46 50 47 69 48 34 49 35 50 49 52 70 53 37 54 21 55 22 56
REMARK SMILES IDX 30 57 23 58 25 59 31 60 24 61 26 62 27 63 28 64 29 65 53 66
REMARK SMILES IDX 54 67 62 68 55 69 57 70 63 71 56 72 58 73 59 74 60 75 61 76
REMARK SMILES IDX 38 77 39 78 47 79 40 80 42 81 48 82 41 83 43 84 44 85 45 86
REMARK SMILES IDX 46 87
REMARK H PARENT 77 12 68 40 36 51
REMARK Flexibility Score: inf
ROOT
ATOM      1  C   UNL A   1      36.406  20.849  24.917  1.00  0.00     0.275 C 
ENDROOT
BRANCH   1   2
ATOM      2  C   UNL A   1      34.955  20.682  25.363  1.00  0.00     0.274 C 
BRANCH   2   3
ATOM      3  O   UNL A   1      34.096  20.357  24.251  1.00  0.00    -0.462 OA
BRANCH   3   4
ATOM      4  C   UNL A   1      32.768  20.358  24.524  1.00  0.00     0.315 C 
ATOM      5  O   UNL A   1      32.156  19.407  25.002  1.00  0.00    -0.252 OA
BRANCH   4   6
ATOM      6  C   UNL A   1      32.053  21.625  24.126  1.00  0.00     0.162 C 
ATOM      7  C   UNL A   1      30.821  22.740  26.011  1.00  0.00     0.076 C 
ATOM      8  C   UNL A   1      32.047  22.816  25.097  1.00  0.00     0.195 C 
ATOM      9  N   UNL A   1      32.190  24.014  24.230  1.00  0.00    -0.329 N 
ATOM     10  C   UNL A   1      32.667  22.179  22.860  1.00  0.00     0.083 C 
ATOM     11  C   UNL A   1      32.125  23.590  22.835  1.00  0.00     0.263 C 
ATOM     12  H   UNL A   1      33.120  24.400  24.395  1.00  0.00     0.348 HD
BRANCH   9  13
ATOM     13  C   UNL A   1      31.513  25.252  24.615  1.00  0.00     0.189 C 
ATOM     14  C   UNL A   1      30.355  25.757  23.727  1.00  0.00     0.066 C 
ATOM     15  C   UNL A   1      32.386  26.530  24.846  1.00  0.00     0.017 C 
ATOM     16  C   UNL A   1      30.245  27.263  23.979  1.00  0.00     0.007 C 
ATOM     17  C   UNL A   1      31.280  27.585  25.050  1.00  0.00     0.013 C 
ATOM     18  C   UNL A   1      33.264  26.403  26.095  1.00  0.00     0.017 C 
ATOM     19  C   UNL A   1      33.270  26.963  23.661  1.00  0.00     0.017 C 
ENDBRANCH   9  13
ENDBRANCH   4   6
ENDBRANCH   3   4
ENDBRANCH   2   3
ENDBRANCH   1   2
BRANCH   1  20
ATOM     20  O   UNL A   1      37.131  21.678  25.840  1.00  0.00    -0.458 OA
BRANCH  20  21
ATOM     21  C   UNL A   1      38.460  21.434  25.907  1.00  0.00     0.338 C 
ATOM     22  O   UNL A   1      39.053  20.440  25.528  1.00  0.00    -0.246 OA
BRANCH  21  23
ATOM     23  C   UNL A   1      39.138  22.597  26.492  1.00  0.00     0.060 A 
ATOM     24  C   UNL A   1      38.721  23.887  26.150  1.00  0.00     0.016 A 
ATOM     25  C   UNL A   1      40.255  22.401  27.298  1.00  0.00     0.016 A 
ATOM     26  C   UNL A   1      39.445  24.994  26.588  1.00  0.00     0.010 A 
ATOM     27  C   UNL A   1      40.952  23.511  27.772  1.00  0.00     0.010 A 
ATOM     28  C   UNL A   1      40.565  24.813  27.407  1.00  0.00    -0.014 A 
BRANCH  28  29
ATOM     29  C   UNL A   1      41.368  25.964  27.883  1.00  0.00     0.031 A 
ATOM     30  C   UNL A   1      40.700  27.045  28.682  1.00  0.00     0.074 A 
ATOM     31  C   UNL A   1      42.658  26.080  27.516  1.00  0.00     0.049 A 
ATOM     32  N   UNL A   1      41.128  28.245  28.966  1.00  0.00    -0.248 NA
ATOM     33  C   UNL A   1      39.365  26.736  29.219  1.00  0.00     0.031 C 
ATOM     34  C   UNL A   1      43.418  25.081  26.765  1.00  0.00     0.029 A 
ATOM     35  N   UNL A   1      43.542  27.116  27.685  1.00  0.00    -0.354 N 
ATOM     36  C   UNL A   1      40.091  28.862  29.655  1.00  0.00     0.074 A 
ATOM     37  C   UNL A   1      39.020  27.895  29.765  1.00  0.00     0.031 C 
ATOM     38  C   UNL A   1      44.642  25.566  26.504  1.00  0.00     0.029 A 
ATOM     39  C   UNL A   1      44.728  26.930  27.014  1.00  0.00     0.049 A 
ATOM     40  H   UNL A   1      43.347  27.913  28.230  1.00  0.00     0.167 HD
ATOM     41  C   UNL A   1      40.042  30.120  30.150  1.00  0.00     0.034 A 
ATOM     42  C   UNL A   1      45.748  27.783  26.788  1.00  0.00     0.034 A 
ATOM     43  C   UNL A   1      41.133  31.053  30.075  1.00  0.00     0.049 A 
ATOM     44  C   UNL A   1      45.664  29.181  27.338  1.00  0.00     0.074 A 
ATOM     45  C   UNL A   1      41.201  32.340  30.578  1.00  0.00     0.029 A 
ATOM     46  N   UNL A   1      42.348  30.798  29.459  1.00  0.00    -0.354 N 
ATOM     47  N   UNL A   1      44.707  29.731  28.044  1.00  0.00    -0.248 NA
ATOM     48  C   UNL A   1      46.805  30.070  27.078  1.00  0.00     0.031 C 
ATOM     49  C   UNL A   1      42.456  32.866  30.258  1.00  0.00     0.029 A 
ATOM     50  C   UNL A   1      43.175  31.901  29.568  1.00  0.00     0.049 A 
ATOM     51  H   UNL A   1      42.588  29.955  29.009  1.00  0.00     0.167 HD
ATOM     52  C   UNL A   1      45.144  31.016  28.344  1.00  0.00     0.074 A 
ATOM     53  C   UNL A   1      46.458  31.159  27.751  1.00  0.00     0.031 C 
ATOM     54  C   UNL A   1      44.510  31.994  29.035  1.00  0.00     0.034 A 
BRANCH  41  55
ATOM     55  C   UNL A   1      38.777  30.557  30.837  1.00  0.00     0.023 A 
ATOM     56  C   UNL A   1      38.644  30.387  32.229  1.00  0.00     0.012 A 
ATOM     57  C   UNL A   1      37.747  31.192  30.116  1.00  0.00     0.148 A 
ATOM     58  C   UNL A   1      37.494  30.819  32.890  1.00  0.00     0.002 A 
ATOM     59  C   UNL A   1      36.620  31.653  30.787  1.00  0.00     0.091 A 
ATOM     60  F   UNL A   1      37.880  31.321  28.788  1.00  0.00    -0.205 F 
ATOM     61  C   UNL A   1      36.489  31.461  32.171  1.00  0.00     0.022 A 
BRANCH  59  62
ATOM     62  S   UNL A   1      35.306  32.554  29.956  1.00  0.00     0.127 S 
ATOM     63  O   UNL A   1      36.025  33.719  29.444  1.00  0.00    -0.237 OA
ATOM     64  O   UNL A   1      34.878  31.604  28.929  1.00  0.00    -0.237 OA
ATOM     65  O   UNL A   1      34.305  32.830  30.977  1.00  0.00    -0.744 OA
ENDBRANCH  59  62
ENDBRANCH  41  55
BRANCH  42  66
ATOM     66  C   UNL A   1      46.938  27.325  26.017  1.00  0.00     0.023 A 
ATOM     67  C   UNL A   1      47.842  26.429  26.617  1.00  0.00     0.012 A 
ATOM     68  C   UNL A   1      47.155  27.731  24.685  1.00  0.00     0.148 A 
ATOM     69  C   UNL A   1      48.952  25.960  25.914  1.00  0.00     0.002 A 
ATOM     70  C   UNL A   1      48.232  27.217  23.971  1.00  0.00     0.091 A 
ATOM     71  F   UNL A   1      46.295  28.600  24.136  1.00  0.00    -0.205 F 
ATOM     72  C   UNL A   1      49.140  26.343  24.588  1.00  0.00     0.022 A 
BRANCH  70  73
ATOM     73  S   UNL A   1      48.471  27.552  22.222  1.00  0.00     0.127 S 
ATOM     74  O   UNL A   1      48.707  26.212  21.690  1.00  0.00    -0.237 OA
ATOM     75  O   UNL A   1      47.187  28.146  21.846  1.00  0.00    -0.237 OA
ATOM     76  O   UNL A   1      49.598  28.472  22.153  1.00  0.00    -0.744 OA
ENDBRANCH  70  73
ENDBRANCH  42  66
BRANCH  54  77
ATOM     77  C   UNL A   1      45.237  33.293  29.244  1.00  0.00     0.023 A 
ATOM     78  C   UNL A   1      46.082  33.450  30.358  1.00  0.00     0.012 A 
ATOM     79  C   UNL A   1      45.171  34.311  28.271  1.00  0.00     0.148 A 
ATOM     80  C   UNL A   1      46.842  34.609  30.510  1.00  0.00     0.002 A 
ATOM     81  C   UNL A   1      45.964  35.443  28.407  1.00  0.00     0.091 A 
ATOM     82  F   UNL A   1      44.345  34.145  27.227  1.00  0.00    -0.205 F 
ATOM     83  C   UNL A   1      46.794  35.598  29.529  1.00  0.00     0.022 A 
BRANCH  81  84
ATOM     84  S   UNL A   1      46.039  36.724  27.148  1.00  0.00     0.127 S 
ATOM     85  O   UNL A   1      44.637  37.128  27.052  1.00  0.00    -0.237 OA
ATOM     86  O   UNL A   1      46.919  37.715  27.767  1.00  0.00    -0.237 OA
ATOM     87  O   UNL A   1      46.587  36.087  25.957  1.00  0.00    -0.744 OA
ENDBRANCH  81  84
ENDBRANCH  54  77
ENDBRANCH  28  29
ENDBRANCH  21  23
ENDBRANCH  20  21
ENDBRANCH   1  20
TORSDOF 15
ENDMDL
