MODEL 1
REMARK VINA RESULT:     -10.2      0.000      0.000
REMARK SMILES Cc1nsc(N(C)C(=O)[C@@H](C)CCC[C@H](C)[NH3+])c1C(=O)OCCOC(=O)c1ccc(-c2c3nc(c(-c4cccc(S(=O)(=O)[O-])c4F)c4ccc([nH]4)c(-c4cccc(S(=O)(=O)[O-])c4F)c4nc(c(-c5cccc(S(=O)(=O)[O-])c5F)c5ccc2[nH]5)C=C4)C=C3)cc1
REMARK SMILES IDX 19 1 20 2 18 3 1 4 2 5 3 6 4 7 5 8 6 9 7 10 8 11 9 12 10 13
REMARK SMILES IDX 11 14 12 15 13 16 14 17 15 18 16 19 17 20 21 24 22 25 23 26
REMARK SMILES IDX 24 27 25 28 26 29 27 30 28 31 89 32 29 33 88 34 30 35 31 36
REMARK SMILES IDX 32 37 82 38 33 39 87 40 81 41 83 42 34 43 86 44 80 45 79 46
REMARK SMILES IDX 35 48 67 49 47 50 66 51 48 52 51 53 65 54 84 55 49 56 50 57
REMARK SMILES IDX 64 59 85 60 52 61 36 62 37 63 45 64 38 65 40 66 46 67 39 68
REMARK SMILES IDX 41 69 42 70 43 71 44 72 68 73 69 74 77 75 70 76 72 77 78 78
REMARK SMILES IDX 71 79 73 80 74 81 75 82 76 83 53 84 54 85 62 86 55 87 57 88
REMARK SMILES IDX 63 89 56 90 58 91 59 92 60 93 61 94
REMARK H PARENT 17 21 17 22 17 23 83 47 51 58
REMARK Flexibility Score: inf
ROOT
ATOM      1  C   UNL A   1      35.487  22.268  25.704  1.00  0.00     0.343 C 
ATOM      2  O   UNL A   1      35.106  21.445  26.527  1.00  0.00    -0.246 OA
ENDROOT
BRANCH   1   3
ATOM      3  C   UNL A   1      34.682  22.746  24.583  1.00  0.00     0.117 A 
ATOM      4  C   UNL A   1      36.713  23.187  22.961  1.00  0.00     0.069 C 
ATOM      5  C   UNL A   1      35.260  23.116  23.298  1.00  0.00     0.068 A 
ATOM      6  N   UNL A   1      34.403  23.390  22.319  1.00  0.00    -0.195 NA
ATOM      7  S   UNL A   1      32.883  23.341  22.922  1.00  0.00    -0.017 S 
ATOM      8  C   UNL A   1      33.294  22.932  24.551  1.00  0.00     0.133 A 
BRANCH   8   9
ATOM      9  N   UNL A   1      32.214  22.914  25.491  1.00  0.00    -0.305 N 
ATOM     10  C   UNL A   1      31.251  21.806  25.490  1.00  0.00     0.154 C 
BRANCH   9  11
ATOM     11  C   UNL A   1      31.980  24.074  26.241  1.00  0.00     0.230 C 
ATOM     12  O   UNL A   1      31.754  24.050  27.456  1.00  0.00    -0.274 OA
BRANCH  11  13
ATOM     13  C   UNL A   1      32.021  25.482  25.603  1.00  0.00     0.076 C 
ATOM     14  C   UNL A   1      30.775  25.868  24.804  1.00  0.00     0.018 C 
BRANCH  13  15
ATOM     15  C   UNL A   1      32.499  26.604  26.540  1.00  0.00     0.013 C 
BRANCH  15  16
ATOM     16  C   UNL A   1      31.548  27.797  26.645  1.00  0.00     0.007 C 
BRANCH  16  17
ATOM     17  C   UNL A   1      32.100  29.084  27.272  1.00  0.00     0.064 C 
BRANCH  17  18
ATOM     18  C   UNL A   1      33.465  29.547  26.721  1.00  0.00     0.177 C 
ATOM     19  C   UNL A   1      34.016  30.780  27.438  1.00  0.00     0.075 C 
BRANCH  18  20
ATOM     20  N   UNL A   1      33.326  29.897  25.302  1.00  0.00    -0.355 N 
ATOM     21  H   UNL A   1      32.397  30.284  25.137  1.00  0.00     0.344 HD
ATOM     22  H   UNL A   1      33.453  29.061  24.731  1.00  0.00     0.344 HD
ATOM     23  H   UNL A   1      34.032  30.589  25.052  1.00  0.00     0.344 HD
ENDBRANCH  18  20
ENDBRANCH  17  18
ENDBRANCH  16  17
ENDBRANCH  15  16
ENDBRANCH  13  15
ENDBRANCH  11  13
ENDBRANCH   9  11
ENDBRANCH   8   9
ENDBRANCH   1   3
BRANCH   1  24
ATOM     24  O   UNL A   1      36.754  22.771  25.658  1.00  0.00    -0.458 OA
BRANCH  24  25
ATOM     25  C   UNL A   1      37.846  21.843  25.603  1.00  0.00     0.275 C 
BRANCH  25  26
ATOM     26  C   UNL A   1      39.003  22.424  26.409  1.00  0.00     0.275 C 
BRANCH  26  27
ATOM     27  O   UNL A   1      38.996  23.849  26.317  1.00  0.00    -0.458 OA
BRANCH  27  28
ATOM     28  C   UNL A   1      40.135  24.485  26.682  1.00  0.00     0.338 C 
ATOM     29  O   UNL A   1      41.276  24.071  26.575  1.00  0.00    -0.246 OA
BRANCH  28  30
ATOM     30  C   UNL A   1      39.782  25.755  27.342  1.00  0.00     0.060 A 
ATOM     31  C   UNL A   1      40.249  26.950  26.778  1.00  0.00     0.016 A 
ATOM     32  C   UNL A   1      39.118  25.743  28.575  1.00  0.00     0.016 A 
ATOM     33  C   UNL A   1      40.173  28.119  27.517  1.00  0.00     0.010 A 
ATOM     34  C   UNL A   1      39.053  26.900  29.316  1.00  0.00     0.010 A 
ATOM     35  C   UNL A   1      39.636  28.062  28.804  1.00  0.00    -0.014 A 
BRANCH  35  36
ATOM     36  C   UNL A   1      39.840  29.180  29.707  1.00  0.00     0.031 A 
ATOM     37  C   UNL A   1      38.729  30.150  29.881  1.00  0.00     0.074 A 
ATOM     38  C   UNL A   1      40.909  29.147  30.529  1.00  0.00     0.049 A 
ATOM     39  N   UNL A   1      38.782  31.441  29.808  1.00  0.00    -0.248 NA
ATOM     40  C   UNL A   1      37.377  29.624  30.119  1.00  0.00     0.031 C 
ATOM     41  C   UNL A   1      41.853  28.034  30.703  1.00  0.00     0.029 A 
ATOM     42  N   UNL A   1      41.253  30.007  31.526  1.00  0.00    -0.354 N 
ATOM     43  C   UNL A   1      37.514  31.902  30.169  1.00  0.00     0.074 A 
ATOM     44  C   UNL A   1      36.662  30.745  30.223  1.00  0.00     0.031 C 
ATOM     45  C   UNL A   1      42.463  28.161  31.900  1.00  0.00     0.029 A 
ATOM     46  C   UNL A   1      42.043  29.413  32.502  1.00  0.00     0.049 A 
ATOM     47  H   UNL A   1      40.971  30.950  31.553  1.00  0.00     0.167 HD
ATOM     48  C   UNL A   1      37.293  33.184  30.572  1.00  0.00     0.034 A 
ATOM     49  C   UNL A   1      42.231  29.859  33.765  1.00  0.00     0.034 A 
ATOM     50  C   UNL A   1      38.395  34.045  30.239  1.00  0.00     0.049 A 
ATOM     51  C   UNL A   1      41.852  31.290  33.801  1.00  0.00     0.074 A 
ATOM     52  C   UNL A   1      39.015  34.433  29.069  1.00  0.00     0.029 A 
ATOM     53  N   UNL A   1      39.238  34.422  31.256  1.00  0.00    -0.354 N 
ATOM     54  N   UNL A   1      42.491  32.229  33.156  1.00  0.00    -0.248 NA
ATOM     55  C   UNL A   1      40.503  31.632  34.224  1.00  0.00     0.031 C 
ATOM     56  C   UNL A   1      40.389  34.580  29.416  1.00  0.00     0.029 A 
ATOM     57  C   UNL A   1      40.512  34.293  30.777  1.00  0.00     0.049 A 
ATOM     58  H   UNL A   1      38.975  34.726  32.154  1.00  0.00     0.167 HD
ATOM     59  C   UNL A   1      41.497  33.099  32.724  1.00  0.00     0.074 A 
ATOM     60  C   UNL A   1      40.319  32.748  33.513  1.00  0.00     0.031 C 
ATOM     61  C   UNL A   1      41.629  33.816  31.567  1.00  0.00     0.034 A 
BRANCH  48  62
ATOM     62  C   UNL A   1      36.216  33.642  31.527  1.00  0.00     0.023 A 
ATOM     63  C   UNL A   1      36.186  33.032  32.805  1.00  0.00     0.012 A 
ATOM     64  C   UNL A   1      35.091  34.413  31.163  1.00  0.00     0.148 A 
ATOM     65  C   UNL A   1      35.069  33.124  33.643  1.00  0.00     0.002 A 
ATOM     66  C   UNL A   1      34.016  34.567  32.035  1.00  0.00     0.091 A 
ATOM     67  F   UNL A   1      34.982  34.900  29.923  1.00  0.00    -0.205 F 
ATOM     68  C   UNL A   1      33.984  33.899  33.260  1.00  0.00     0.022 A 
BRANCH  66  69
ATOM     69  S   UNL A   1      32.624  35.617  31.601  1.00  0.00     0.127 S 
ATOM     70  O   UNL A   1      33.203  36.949  31.742  1.00  0.00    -0.237 OA
ATOM     71  O   UNL A   1      32.342  35.207  30.224  1.00  0.00    -0.237 OA
ATOM     72  O   UNL A   1      31.578  35.254  32.551  1.00  0.00    -0.744 OA
ENDBRANCH  66  69
ENDBRANCH  48  62
BRANCH  49  73
ATOM     73  C   UNL A   1      42.445  29.038  34.978  1.00  0.00     0.023 A 
ATOM     74  C   UNL A   1      41.724  27.845  35.163  1.00  0.00     0.012 A 
ATOM     75  C   UNL A   1      43.503  29.323  35.875  1.00  0.00     0.148 A 
ATOM     76  C   UNL A   1      42.039  26.971  36.212  1.00  0.00     0.002 A 
ATOM     77  C   UNL A   1      43.792  28.467  36.933  1.00  0.00     0.091 A 
ATOM     78  F   UNL A   1      44.284  30.386  35.642  1.00  0.00    -0.205 F 
ATOM     79  C   UNL A   1      43.066  27.284  37.101  1.00  0.00     0.022 A 
BRANCH  77  80
ATOM     80  S   UNL A   1      45.086  28.844  38.124  1.00  0.00     0.127 S 
ATOM     81  O   UNL A   1      46.280  28.896  37.278  1.00  0.00    -0.237 OA
ATOM     82  O   UNL A   1      44.653  30.133  38.650  1.00  0.00    -0.237 OA
ATOM     83  O   UNL A   1      45.081  27.731  39.068  1.00  0.00    -0.744 OA
ENDBRANCH  77  80
ENDBRANCH  49  73
BRANCH  61  84
ATOM     84  C   UNL A   1      42.963  33.821  30.859  1.00  0.00     0.023 A 
ATOM     85  C   UNL A   1      43.998  34.690  31.263  1.00  0.00     0.012 A 
ATOM     86  C   UNL A   1      43.270  32.776  29.969  1.00  0.00     0.148 A 
ATOM     87  C   UNL A   1      45.302  34.530  30.788  1.00  0.00     0.002 A 
ATOM     88  C   UNL A   1      44.579  32.589  29.537  1.00  0.00     0.091 A 
ATOM     89  F   UNL A   1      42.282  31.946  29.598  1.00  0.00    -0.205 F 
ATOM     90  C   UNL A   1      45.596  33.469  29.939  1.00  0.00     0.022 A 
BRANCH  88  91
ATOM     91  S   UNL A   1      45.050  31.148  28.574  1.00  0.00     0.127 S 
ATOM     92  O   UNL A   1      43.955  31.048  27.614  1.00  0.00    -0.237 OA
ATOM     93  O   UNL A   1      46.334  31.554  27.997  1.00  0.00    -0.237 OA
ATOM     94  O   UNL A   1      45.155  30.052  29.530  1.00  0.00    -0.744 OA
ENDBRANCH  88  91
ENDBRANCH  61  84
ENDBRANCH  35  36
ENDBRANCH  28  30
ENDBRANCH  27  28
ENDBRANCH  26  27
ENDBRANCH  25  26
ENDBRANCH  24  25
ENDBRANCH   1  24
TORSDOF 22
ENDMDL
MODEL 2
REMARK VINA RESULT:     -10.2      3.705      8.736
REMARK SMILES Cc1nsc(N(C)C(=O)[C@@H](C)CCC[C@H](C)[NH3+])c1C(=O)OCCOC(=O)c1ccc(-c2c3nc(c(-c4cccc(S(=O)(=O)[O-])c4F)c4ccc([nH]4)c(-c4cccc(S(=O)(=O)[O-])c4F)c4nc(c(-c5cccc(S(=O)(=O)[O-])c5F)c5ccc2[nH]5)C=C4)C=C3)cc1
REMARK SMILES IDX 19 1 20 2 18 3 1 4 2 5 3 6 4 7 5 8 6 9 7 10 8 11 9 12 10 13
REMARK SMILES IDX 11 14 12 15 13 16 14 17 15 18 16 19 17 20 21 24 22 25 23 26
REMARK SMILES IDX 24 27 25 28 26 29 27 30 28 31 89 32 29 33 88 34 30 35 31 36
REMARK SMILES IDX 32 37 82 38 33 39 87 40 81 41 83 42 34 43 86 44 80 45 79 46
REMARK SMILES IDX 35 48 67 49 47 50 66 51 48 52 51 53 65 54 84 55 49 56 50 57
REMARK SMILES IDX 64 59 85 60 52 61 36 62 37 63 45 64 38 65 40 66 46 67 39 68
REMARK SMILES IDX 41 69 42 70 43 71 44 72 68 73 69 74 77 75 70 76 72 77 78 78
REMARK SMILES IDX 71 79 73 80 74 81 75 82 76 83 53 84 54 85 62 86 55 87 57 88
REMARK SMILES IDX 63 89 56 90 58 91 59 92 60 93 61 94
REMARK H PARENT 17 21 17 22 17 23 83 47 51 58
REMARK Flexibility Score: inf
ROOT
ATOM      1  C   UNL A   1      30.846  30.534  25.022  1.00  0.00     0.343 C 
ATOM      2  O   UNL A   1      30.359  31.657  24.986  1.00  0.00    -0.246 OA
ENDROOT
BRANCH   1   3
ATOM      3  C   UNL A   1      30.641  29.515  23.996  1.00  0.00     0.117 A 
ATOM      4  C   UNL A   1      28.215  30.298  23.321  1.00  0.00     0.069 C 
ATOM      5  C   UNL A   1      29.438  29.452  23.176  1.00  0.00     0.068 A 
ATOM      6  N   UNL A   1      29.443  28.570  22.181  1.00  0.00    -0.195 NA
ATOM      7  S   UNL A   1      30.824  27.698  22.260  1.00  0.00    -0.017 S 
ATOM      8  C   UNL A   1      31.509  28.473  23.646  1.00  0.00     0.133 A 
BRANCH   8   9
ATOM      9  N   UNL A   1      32.719  27.903  24.156  1.00  0.00    -0.305 N 
ATOM     10  C   UNL A   1      33.959  28.689  24.169  1.00  0.00     0.154 C 
BRANCH   9  11
ATOM     11  C   UNL A   1      32.732  26.528  24.426  1.00  0.00     0.230 C 
ATOM     12  O   UNL A   1      33.087  25.687  23.592  1.00  0.00    -0.274 OA
BRANCH  11  13
ATOM     13  C   UNL A   1      32.333  25.963  25.808  1.00  0.00     0.076 C 
ATOM     14  C   UNL A   1      30.831  25.962  26.098  1.00  0.00     0.018 C 
BRANCH  13  15
ATOM     15  C   UNL A   1      33.013  24.636  26.186  1.00  0.00     0.013 C 
BRANCH  15  16
ATOM     16  C   UNL A   1      32.098  23.411  26.134  1.00  0.00     0.007 C 
BRANCH  16  17
ATOM     17  C   UNL A   1      32.769  22.031  26.133  1.00  0.00     0.064 C 
BRANCH  17  18
ATOM     18  C   UNL A   1      32.182  21.020  25.127  1.00  0.00     0.177 C 
ATOM     19  C   UNL A   1      32.735  19.606  25.304  1.00  0.00     0.075 C 
BRANCH  18  20
ATOM     20  N   UNL A   1      32.509  21.445  23.759  1.00  0.00    -0.355 N 
ATOM     21  H   UNL A   1      32.769  22.430  23.763  1.00  0.00     0.344 HD
ATOM     22  H   UNL A   1      31.696  21.310  23.158  1.00  0.00     0.344 HD
ATOM     23  H   UNL A   1      33.288  20.888  23.408  1.00  0.00     0.344 HD
ENDBRANCH  18  20
ENDBRANCH  17  18
ENDBRANCH  16  17
ENDBRANCH  15  16
ENDBRANCH  13  15
ENDBRANCH  11  13
ENDBRANCH   9  11
ENDBRANCH   8   9
ENDBRANCH   1   3
BRANCH   1  24
ATOM     24  O   UNL A   1      31.560  30.044  26.076  1.00  0.00    -0.458 OA
BRANCH  24  25
ATOM     25  C   UNL A   1      32.286  30.976  26.889  1.00  0.00     0.275 C 
BRANCH  25  26
ATOM     26  C   UNL A   1      33.407  30.218  27.593  1.00  0.00     0.275 C 
BRANCH  26  27
ATOM     27  O   UNL A   1      34.622  30.962  27.520  1.00  0.00    -0.458 OA
BRANCH  27  28
ATOM     28  C   UNL A   1      35.254  31.209  28.692  1.00  0.00     0.338 C 
ATOM     29  O   UNL A   1      34.772  31.700  29.698  1.00  0.00    -0.246 OA
BRANCH  28  30
ATOM     30  C   UNL A   1      36.683  30.880  28.545  1.00  0.00     0.060 A 
ATOM     31  C   UNL A   1      37.027  29.689  27.892  1.00  0.00     0.016 A 
ATOM     32  C   UNL A   1      37.653  31.675  29.170  1.00  0.00     0.016 A 
ATOM     33  C   UNL A   1      38.328  29.221  27.985  1.00  0.00     0.010 A 
ATOM     34  C   UNL A   1      38.942  31.207  29.273  1.00  0.00     0.010 A 
ATOM     35  C   UNL A   1      39.251  29.956  28.732  1.00  0.00    -0.014 A 
BRANCH  35  36
ATOM     36  C   UNL A   1      40.507  29.337  29.112  1.00  0.00     0.031 A 
ATOM     37  C   UNL A   1      40.731  29.034  30.549  1.00  0.00     0.074 A 
ATOM     38  C   UNL A   1      41.292  28.838  28.135  1.00  0.00     0.049 A 
ATOM     39  N   UNL A   1      41.762  29.330  31.272  1.00  0.00    -0.248 NA
ATOM     40  C   UNL A   1      39.656  28.360  31.292  1.00  0.00     0.031 C 
ATOM     41  C   UNL A   1      40.965  28.743  26.704  1.00  0.00     0.029 A 
ATOM     42  N   UNL A   1      42.445  28.124  28.240  1.00  0.00    -0.354 N 
ATOM     43  C   UNL A   1      41.551  28.723  32.513  1.00  0.00     0.074 A 
ATOM     44  C   UNL A   1      40.192  28.254  32.509  1.00  0.00     0.031 C 
ATOM     45  C   UNL A   1      41.738  27.790  26.143  1.00  0.00     0.029 A 
ATOM     46  C   UNL A   1      42.680  27.312  27.138  1.00  0.00     0.049 A 
ATOM     47  H   UNL A   1      43.050  28.177  29.015  1.00  0.00     0.167 HD
ATOM     48  C   UNL A   1      42.566  28.492  33.391  1.00  0.00     0.034 A 
ATOM     49  C   UNL A   1      43.499  26.236  27.092  1.00  0.00     0.034 A 
ATOM     50  C   UNL A   1      43.744  29.244  33.056  1.00  0.00     0.049 A 
ATOM     51  C   UNL A   1      44.441  26.336  28.231  1.00  0.00     0.074 A 
ATOM     52  C   UNL A   1      44.047  30.584  32.933  1.00  0.00     0.029 A 
ATOM     53  N   UNL A   1      44.788  28.566  32.476  1.00  0.00    -0.354 N 
ATOM     54  N   UNL A   1      45.342  27.273  28.350  1.00  0.00    -0.248 NA
ATOM     55  C   UNL A   1      44.110  25.629  29.458  1.00  0.00     0.031 C 
ATOM     56  C   UNL A   1      45.000  30.647  31.876  1.00  0.00     0.029 A 
ATOM     57  C   UNL A   1      45.232  29.340  31.440  1.00  0.00     0.049 A 
ATOM     58  H   UNL A   1      45.147  27.692  32.754  1.00  0.00     0.167 HD
ATOM     59  C   UNL A   1      45.374  27.560  29.709  1.00  0.00     0.074 A 
ATOM     60  C   UNL A   1      44.692  26.437  30.348  1.00  0.00     0.031 C 
ATOM     61  C   UNL A   1      45.680  28.812  30.168  1.00  0.00     0.034 A 
BRANCH  48  62
ATOM     62  C   UNL A   1      42.626  27.371  34.403  1.00  0.00     0.023 A 
ATOM     63  C   UNL A   1      42.227  27.677  35.727  1.00  0.00     0.012 A 
ATOM     64  C   UNL A   1      43.294  26.143  34.207  1.00  0.00     0.148 A 
ATOM     65  C   UNL A   1      42.539  26.842  36.805  1.00  0.00     0.002 A 
ATOM     66  C   UNL A   1      43.531  25.279  35.272  1.00  0.00     0.091 A 
ATOM     67  F   UNL A   1      43.827  25.850  33.016  1.00  0.00    -0.205 F 
ATOM     68  C   UNL A   1      43.187  25.637  36.577  1.00  0.00     0.022 A 
BRANCH  66  69
ATOM     69  S   UNL A   1      44.306  23.681  35.004  1.00  0.00     0.127 S 
ATOM     70  O   UNL A   1      45.545  24.062  34.335  1.00  0.00    -0.237 OA
ATOM     71  O   UNL A   1      44.470  23.181  36.371  1.00  0.00    -0.237 OA
ATOM     72  O   UNL A   1      43.339  22.929  34.212  1.00  0.00    -0.744 OA
ENDBRANCH  66  69
ENDBRANCH  48  62
BRANCH  49  73
ATOM     73  C   UNL A   1      43.312  25.007  26.288  1.00  0.00     0.023 A 
ATOM     74  C   UNL A   1      44.189  24.712  25.230  1.00  0.00     0.012 A 
ATOM     75  C   UNL A   1      42.381  24.014  26.678  1.00  0.00     0.148 A 
ATOM     76  C   UNL A   1      44.134  23.474  24.575  1.00  0.00     0.002 A 
ATOM     77  C   UNL A   1      42.309  22.799  26.006  1.00  0.00     0.091 A 
ATOM     78  F   UNL A   1      41.625  24.223  27.765  1.00  0.00    -0.205 F 
ATOM     79  C   UNL A   1      43.191  22.521  24.957  1.00  0.00     0.022 A 
BRANCH  77  80
ATOM     80  S   UNL A   1      41.090  21.550  26.441  1.00  0.00     0.127 S 
ATOM     81  O   UNL A   1      41.163  21.541  27.903  1.00  0.00    -0.237 OA
ATOM     82  O   UNL A   1      39.863  22.117  25.893  1.00  0.00    -0.237 OA
ATOM     83  O   UNL A   1      41.559  20.316  25.820  1.00  0.00    -0.744 OA
ENDBRANCH  77  80
ENDBRANCH  49  73
BRANCH  61  84
ATOM     84  C   UNL A   1      46.196  29.841  29.191  1.00  0.00     0.023 A 
ATOM     85  C   UNL A   1      47.541  29.832  28.766  1.00  0.00     0.012 A 
ATOM     86  C   UNL A   1      45.276  30.648  28.499  1.00  0.00     0.148 A 
ATOM     87  C   UNL A   1      47.962  30.611  27.686  1.00  0.00     0.002 A 
ATOM     88  C   UNL A   1      45.689  31.385  27.392  1.00  0.00     0.091 A 
ATOM     89  F   UNL A   1      43.995  30.643  28.902  1.00  0.00    -0.205 F 
ATOM     90  C   UNL A   1      47.032  31.374  26.988  1.00  0.00     0.022 A 
BRANCH  88  91
ATOM     91  S   UNL A   1      44.509  32.258  26.357  1.00  0.00     0.127 S 
ATOM     92  O   UNL A   1      43.552  31.205  26.026  1.00  0.00    -0.237 OA
ATOM     93  O   UNL A   1      43.994  33.291  27.259  1.00  0.00    -0.237 OA
ATOM     94  O   UNL A   1      45.281  32.785  25.238  1.00  0.00    -0.744 OA
ENDBRANCH  88  91
ENDBRANCH  61  84
ENDBRANCH  35  36
ENDBRANCH  28  30
ENDBRANCH  27  28
ENDBRANCH  26  27
ENDBRANCH  25  26
ENDBRANCH  24  25
ENDBRANCH   1  24
TORSDOF 22
ENDMDL
MODEL 3
REMARK VINA RESULT:     -10.1      1.883      2.186
REMARK SMILES Cc1nsc(N(C)C(=O)[C@@H](C)CCC[C@H](C)[NH3+])c1C(=O)OCCOC(=O)c1ccc(-c2c3nc(c(-c4cccc(S(=O)(=O)[O-])c4F)c4ccc([nH]4)c(-c4cccc(S(=O)(=O)[O-])c4F)c4nc(c(-c5cccc(S(=O)(=O)[O-])c5F)c5ccc2[nH]5)C=C4)C=C3)cc1
REMARK SMILES IDX 19 1 20 2 18 3 1 4 2 5 3 6 4 7 5 8 6 9 7 10 8 11 9 12 10 13
REMARK SMILES IDX 11 14 12 15 13 16 14 17 15 18 16 19 17 20 21 24 22 25 23 26
REMARK SMILES IDX 24 27 25 28 26 29 27 30 28 31 89 32 29 33 88 34 30 35 31 36
REMARK SMILES IDX 32 37 82 38 33 39 87 40 81 41 83 42 34 43 86 44 80 45 79 46
REMARK SMILES IDX 35 48 67 49 47 50 66 51 48 52 51 53 65 54 84 55 49 56 50 57
REMARK SMILES IDX 64 59 85 60 52 61 36 62 37 63 45 64 38 65 40 66 46 67 39 68
REMARK SMILES IDX 41 69 42 70 43 71 44 72 68 73 69 74 77 75 70 76 72 77 78 78
REMARK SMILES IDX 71 79 73 80 74 81 75 82 76 83 53 84 54 85 62 86 55 87 57 88
REMARK SMILES IDX 63 89 56 90 58 91 59 92 60 93 61 94
REMARK H PARENT 17 21 17 22 17 23 83 47 51 58
REMARK Flexibility Score: inf
ROOT
ATOM      1  C   UNL A   1      35.587  21.857  25.483  1.00  0.00     0.343 C 
ATOM      2  O   UNL A   1      35.290  20.804  26.035  1.00  0.00    -0.246 OA
ENDROOT
BRANCH   1   3
ATOM      3  C   UNL A   1      34.762  22.522  24.479  1.00  0.00     0.117 A 
ATOM      4  C   UNL A   1      36.723  22.970  22.774  1.00  0.00     0.069 C 
ATOM      5  C   UNL A   1      35.292  22.983  23.202  1.00  0.00     0.068 A 
ATOM      6  N   UNL A   1      34.406  23.436  22.320  1.00  0.00    -0.195 NA
ATOM      7  S   UNL A   1      32.928  23.447  23.020  1.00  0.00    -0.017 S 
ATOM      8  C   UNL A   1      33.397  22.826  24.564  1.00  0.00     0.133 A 
BRANCH   8   9
ATOM      9  N   UNL A   1      32.379  22.794  25.570  1.00  0.00    -0.305 N 
ATOM     10  C   UNL A   1      31.097  22.131  25.304  1.00  0.00     0.154 C 
BRANCH   9  11
ATOM     11  C   UNL A   1      32.557  23.593  26.707  1.00  0.00     0.230 C 
ATOM     12  O   UNL A   1      32.720  23.121  27.838  1.00  0.00    -0.274 OA
BRANCH  11  13
ATOM     13  C   UNL A   1      32.595  25.136  26.622  1.00  0.00     0.076 C 
ATOM     14  C   UNL A   1      33.719  25.711  25.758  1.00  0.00     0.018 C 
BRANCH  13  15
ATOM     15  C   UNL A   1      31.236  25.804  26.352  1.00  0.00     0.013 C 
BRANCH  15  16
ATOM     16  C   UNL A   1      31.314  27.286  25.984  1.00  0.00     0.007 C 
BRANCH  16  17
ATOM     17  C   UNL A   1      31.642  28.275  27.110  1.00  0.00     0.064 C 
BRANCH  17  18
ATOM     18  C   UNL A   1      32.326  29.581  26.655  1.00  0.00     0.177 C 
ATOM     19  C   UNL A   1      33.242  29.390  25.446  1.00  0.00     0.075 C 
BRANCH  18  20
ATOM     20  N   UNL A   1      33.155  30.107  27.747  1.00  0.00    -0.355 N 
ATOM     21  H   UNL A   1      32.644  30.033  28.627  1.00  0.00     0.344 HD
ATOM     22  H   UNL A   1      33.378  31.085  27.565  1.00  0.00     0.344 HD
ATOM     23  H   UNL A   1      34.018  29.567  27.809  1.00  0.00     0.344 HD
ENDBRANCH  18  20
ENDBRANCH  17  18
ENDBRANCH  16  17
ENDBRANCH  15  16
ENDBRANCH  13  15
ENDBRANCH  11  13
ENDBRANCH   9  11
ENDBRANCH   8   9
ENDBRANCH   1   3
BRANCH   1  24
ATOM     24  O   UNL A   1      36.780  22.497  25.653  1.00  0.00    -0.458 OA
BRANCH  24  25
ATOM     25  C   UNL A   1      37.981  21.775  25.348  1.00  0.00     0.275 C 
BRANCH  25  26
ATOM     26  C   UNL A   1      39.059  22.210  26.336  1.00  0.00     0.275 C 
BRANCH  26  27
ATOM     27  O   UNL A   1      38.943  23.607  26.602  1.00  0.00    -0.458 OA
BRANCH  27  28
ATOM     28  C   UNL A   1      40.101  24.289  26.777  1.00  0.00     0.338 C 
ATOM     29  O   UNL A   1      41.232  23.878  26.589  1.00  0.00    -0.246 OA
BRANCH  28  30
ATOM     30  C   UNL A   1      39.794  25.615  27.341  1.00  0.00     0.060 A 
ATOM     31  C   UNL A   1      40.320  26.748  26.704  1.00  0.00     0.016 A 
ATOM     32  C   UNL A   1      39.113  25.717  28.561  1.00  0.00     0.016 A 
ATOM     33  C   UNL A   1      40.284  27.967  27.359  1.00  0.00     0.010 A 
ATOM     34  C   UNL A   1      39.087  26.925  29.218  1.00  0.00     0.010 A 
ATOM     35  C   UNL A   1      39.726  28.023  28.638  1.00  0.00    -0.014 A 
BRANCH  35  36
ATOM     36  C   UNL A   1      39.966  29.192  29.464  1.00  0.00     0.031 A 
ATOM     37  C   UNL A   1      38.827  30.107  29.727  1.00  0.00     0.074 A 
ATOM     38  C   UNL A   1      41.122  29.255  30.156  1.00  0.00     0.049 A 
ATOM     39  N   UNL A   1      38.794  31.394  29.596  1.00  0.00    -0.248 NA
ATOM     40  C   UNL A   1      37.545  29.520  30.143  1.00  0.00     0.031 C 
ATOM     41  C   UNL A   1      42.145  28.204  30.263  1.00  0.00     0.029 A 
ATOM     42  N   UNL A   1      41.527  30.178  31.070  1.00  0.00    -0.354 N 
ATOM     43  C   UNL A   1      37.551  31.802  30.085  1.00  0.00     0.074 A 
ATOM     44  C   UNL A   1      36.781  30.604  30.285  1.00  0.00     0.031 C 
ATOM     45  C   UNL A   1      42.879  28.421  31.374  1.00  0.00     0.029 A 
ATOM     46  C   UNL A   1      42.457  29.675  31.970  1.00  0.00     0.049 A 
ATOM     47  H   UNL A   1      41.194  31.105  31.092  1.00  0.00     0.167 HD
ATOM     48  C   UNL A   1      37.303  33.088  30.458  1.00  0.00     0.034 A 
ATOM     49  C   UNL A   1      42.763  30.189  33.184  1.00  0.00     0.034 A 
ATOM     50  C   UNL A   1      38.306  33.991  29.964  1.00  0.00     0.049 A 
ATOM     51  C   UNL A   1      42.306  31.599  33.205  1.00  0.00     0.074 A 
ATOM     52  C   UNL A   1      38.763  34.356  28.715  1.00  0.00     0.029 A 
ATOM     53  N   UNL A   1      39.235  34.460  30.859  1.00  0.00    -0.354 N 
ATOM     54  N   UNL A   1      42.809  32.539  32.452  1.00  0.00    -0.248 NA
ATOM     55  C   UNL A   1      40.996  31.886  33.770  1.00  0.00     0.031 C 
ATOM     56  C   UNL A   1      40.156  34.593  28.892  1.00  0.00     0.029 A 
ATOM     57  C   UNL A   1      40.452  34.378  30.240  1.00  0.00     0.049 A 
ATOM     58  H   UNL A   1      39.060  34.792  31.769  1.00  0.00     0.167 HD
ATOM     59  C   UNL A   1      41.723  33.332  32.105  1.00  0.00     0.074 A 
ATOM     60  C   UNL A   1      40.666  32.956  33.041  1.00  0.00     0.031 C 
ATOM     61  C   UNL A   1      41.679  34.000  30.912  1.00  0.00     0.034 A 
BRANCH  48  62
ATOM     62  C   UNL A   1      36.316  33.531  31.514  1.00  0.00     0.023 A 
ATOM     63  C   UNL A   1      36.380  32.879  32.770  1.00  0.00     0.012 A 
ATOM     64  C   UNL A   1      35.181  34.332  31.269  1.00  0.00     0.148 A 
ATOM     65  C   UNL A   1      35.339  32.962  33.700  1.00  0.00     0.002 A 
ATOM     66  C   UNL A   1      34.184  34.475  32.232  1.00  0.00     0.091 A 
ATOM     67  F   UNL A   1      34.978  34.862  30.059  1.00  0.00    -0.205 F 
ATOM     68  C   UNL A   1      34.241  33.766  33.434  1.00  0.00     0.022 A 
BRANCH  66  69
ATOM     69  S   UNL A   1      32.781  35.560  31.949  1.00  0.00     0.127 S 
ATOM     70  O   UNL A   1      33.398  36.877  32.064  1.00  0.00    -0.237 OA
ATOM     71  O   UNL A   1      32.367  35.187  30.595  1.00  0.00    -0.237 OA
ATOM     72  O   UNL A   1      31.818  35.196  32.982  1.00  0.00    -0.744 OA
ENDBRANCH  66  69
ENDBRANCH  48  62
BRANCH  49  73
ATOM     73  C   UNL A   1      43.163  29.439  34.395  1.00  0.00     0.023 A 
ATOM     74  C   UNL A   1      44.253  29.873  35.169  1.00  0.00     0.012 A 
ATOM     75  C   UNL A   1      42.354  28.396  34.908  1.00  0.00     0.148 A 
ATOM     76  C   UNL A   1      44.535  29.281  36.408  1.00  0.00     0.002 A 
ATOM     77  C   UNL A   1      42.656  27.791  36.123  1.00  0.00     0.091 A 
ATOM     78  F   UNL A   1      41.238  28.056  34.250  1.00  0.00    -0.205 F 
ATOM     79  C   UNL A   1      43.743  28.236  36.882  1.00  0.00     0.022 A 
BRANCH  77  80
ATOM     80  S   UNL A   1      41.682  26.420  36.761  1.00  0.00     0.127 S 
ATOM     81  O   UNL A   1      41.401  25.648  35.549  1.00  0.00    -0.237 OA
ATOM     82  O   UNL A   1      42.615  25.787  37.687  1.00  0.00    -0.237 OA
ATOM     83  O   UNL A   1      40.499  27.029  37.360  1.00  0.00    -0.744 OA
ENDBRANCH  77  80
ENDBRANCH  49  73
BRANCH  61  84
ATOM     84  C   UNL A   1      42.920  34.044  30.053  1.00  0.00     0.023 A 
ATOM     85  C   UNL A   1      43.281  32.950  29.240  1.00  0.00     0.012 A 
ATOM     86  C   UNL A   1      43.574  35.274  29.858  1.00  0.00     0.148 A 
ATOM     87  C   UNL A   1      44.273  33.072  28.264  1.00  0.00     0.002 A 
ATOM     88  C   UNL A   1      44.526  35.405  28.852  1.00  0.00     0.091 A 
ATOM     89  F   UNL A   1      43.217  36.314  30.629  1.00  0.00    -0.205 F 
ATOM     90  C   UNL A   1      44.883  34.305  28.058  1.00  0.00     0.022 A 
BRANCH  88  91
ATOM     91  S   UNL A   1      45.229  37.004  28.432  1.00  0.00     0.127 S 
ATOM     92  O   UNL A   1      45.924  37.368  29.664  1.00  0.00    -0.237 OA
ATOM     93  O   UNL A   1      46.109  36.682  27.306  1.00  0.00    -0.237 OA
ATOM     94  O   UNL A   1      44.097  37.850  28.071  1.00  0.00    -0.744 OA
ENDBRANCH  88  91
ENDBRANCH  61  84
ENDBRANCH  35  36
ENDBRANCH  28  30
ENDBRANCH  27  28
ENDBRANCH  26  27
ENDBRANCH  25  26
ENDBRANCH  24  25
ENDBRANCH   1  24
TORSDOF 22
ENDMDL
