MODEL 1
REMARK VINA RESULT:     -12.7      0.000      0.000
REMARK SMILES Cc1ccc(S(=O)(=O)n2cc(C(=O)C(=O)N[C@@H](Cc3c[nH]c4ccccc34)C(=O)NCC(=O)OCCOC(=O)c3ccc(-c4c5nc(c(-c6cccc(S(=O)(=O)[O-])c6F)c6ccc([nH]6)c(-c6cccc(S(=O)(=O)[O-])c6F)c6nc(c(-c7cccc(S(=O)(=O)[O-])c7F)c7ccc4[nH]7)C=C6)C=C5)cc3)c3ccccc32)cc1
REMARK SMILES IDX 32 1 33 2 31 3 30 4 28 5 29 6 17 8 16 9 14 10 15 11 12 13
REMARK SMILES IDX 13 14 11 15 9 16 10 17 108 18 103 19 107 20 104 21 106 22
REMARK SMILES IDX 105 23 6 24 7 25 8 26 5 27 1 28 2 29 3 30 110 31 4 32 109 33
REMARK SMILES IDX 18 34 19 35 20 36 27 37 21 38 22 39 26 40 23 42 25 43 24 44
REMARK SMILES IDX 34 45 35 46 36 47 37 48 38 49 39 50 40 51 41 52 102 53 42 54
REMARK SMILES IDX 101 55 43 56 44 57 45 58 95 59 46 60 100 61 94 62 96 63
REMARK SMILES IDX 47 64 99 65 93 66 92 67 48 69 80 70 60 71 79 72 61 73 64 74
REMARK SMILES IDX 78 75 97 76 62 77 63 78 77 80 98 81 65 82 49 83 50 84 58 85
REMARK SMILES IDX 51 86 53 87 59 88 52 89 54 90 55 91 56 92 57 93 81 94 82 95
REMARK SMILES IDX 90 96 83 97 85 98 91 99 84 100 86 101 87 102 88 103 89 104
REMARK SMILES IDX 66 105 67 106 75 107 68 108 70 109 76 110 69 111 71 112
REMARK SMILES IDX 72 113 73 114 74 115
REMARK H PARENT 30 7 16 12 21 41 96 68 64 79
REMARK Flexibility Score: inf
ROOT
ATOM      1  C   UNL A   1      34.552  30.553  27.419  1.00  0.00     0.325 C 
ATOM      2  O   UNL A   1      35.598  31.139  27.654  1.00  0.00    -0.250 OA
ENDROOT
BRANCH   1   3
ATOM      3  C   UNL A   1      34.448  29.186  26.702  1.00  0.00     0.238 C 
BRANCH   3   4
ATOM      4  N   UNL A   1      34.256  29.280  25.249  1.00  0.00    -0.343 N 
ATOM      5  C   UNL A   1      33.154  29.216  24.436  1.00  0.00     0.243 C 
ATOM      6  O   UNL A   1      33.387  29.204  23.219  1.00  0.00    -0.273 OA
ATOM      7  H   UNL A   1      35.097  29.419  24.755  1.00  0.00     0.164 HD
BRANCH   5   8
ATOM      8  C   UNL A   1      31.691  28.995  24.949  1.00  0.00     0.176 C 
BRANCH   8   9
ATOM      9  N   UNL A   1      31.599  28.623  26.353  1.00  0.00    -0.337 N 
ATOM     10  C   UNL A   1      31.456  27.425  27.006  1.00  0.00     0.293 C 
ATOM     11  O   UNL A   1      31.487  27.364  28.229  1.00  0.00    -0.265 OA
ATOM     12  H   UNL A   1      31.650  29.394  26.963  1.00  0.00     0.164 HD
BRANCH  10  13
ATOM     13  C   UNL A   1      31.460  26.152  26.191  1.00  0.00     0.252 C 
ATOM     14  O   UNL A   1      30.341  25.757  25.848  1.00  0.00    -0.283 OA
BRANCH  13  15
ATOM     15  C   UNL A   1      32.672  25.401  25.892  1.00  0.00     0.054 A 
ATOM     16  N   UNL A   1      34.531  24.538  24.953  1.00  0.00    -0.240 N 
ATOM     17  C   UNL A   1      33.675  25.646  24.958  1.00  0.00     0.117 A 
ATOM     18  C   UNL A   1      34.323  23.873  26.172  1.00  0.00     0.065 A 
ATOM     19  C   UNL A   1      33.015  24.178  26.542  1.00  0.00     0.012 A 
ATOM     20  C   UNL A   1      35.055  22.858  26.810  1.00  0.00     0.028 A 
ATOM     21  C   UNL A   1      32.345  23.324  27.442  1.00  0.00     0.011 A 
ATOM     22  C   UNL A   1      34.362  22.016  27.687  1.00  0.00     0.002 A 
ATOM     23  C   UNL A   1      33.015  22.217  27.964  1.00  0.00     0.001 A 
BRANCH  16  24
ATOM     24  S   UNL A   1      34.513  23.430  23.566  1.00  0.00     0.268 S 
ATOM     25  O   UNL A   1      35.907  23.296  23.168  1.00  0.00    -0.201 OA
ATOM     26  O   UNL A   1      33.560  24.034  22.637  1.00  0.00    -0.201 OA
BRANCH  24  27
ATOM     27  C   UNL A   1      33.888  21.795  23.787  1.00  0.00     0.088 A 
ATOM     28  C   UNL A   1      32.846  17.787  25.019  1.00  0.00     0.044 C 
ATOM     29  C   UNL A   1      33.184  19.183  24.582  1.00  0.00    -0.051 A 
ATOM     30  C   UNL A   1      34.504  19.606  24.697  1.00  0.00     0.005 A 
ATOM     31  C   UNL A   1      32.231  20.066  24.035  1.00  0.00     0.005 A 
ATOM     32  C   UNL A   1      34.845  20.895  24.310  1.00  0.00     0.022 A 
ATOM     33  C   UNL A   1      32.574  21.379  23.642  1.00  0.00     0.022 A 
ENDBRANCH  24  27
ENDBRANCH  16  24
ENDBRANCH  13  15
ENDBRANCH  10  13
ENDBRANCH   8   9
BRANCH   8  34
ATOM     34  C   UNL A   1      30.765  30.222  24.638  1.00  0.00     0.072 C 
BRANCH  34  35
ATOM     35  C   UNL A   1      29.625  30.023  23.650  1.00  0.00    -0.020 A 
ATOM     36  C   UNL A   1      29.229  28.761  23.165  1.00  0.00     0.087 A 
ATOM     37  C   UNL A   1      28.842  31.018  22.960  1.00  0.00     0.003 A 
ATOM     38  N   UNL A   1      28.374  28.765  22.061  1.00  0.00    -0.361 N 
ATOM     39  C   UNL A   1      28.172  30.051  21.627  1.00  0.00     0.046 A 
ATOM     40  C   UNL A   1      28.660  32.852  22.905  1.00  0.00     0.010 A 
ATOM     41  H   UNL A   1      27.974  27.963  21.652  1.00  0.00     0.166 HD
ATOM     42  C   UNL A   1      27.694  30.870  20.062  1.00  0.00     0.026 A 
ATOM     43  C   UNL A   1      27.909  33.698  21.457  1.00  0.00     0.001 A 
ATOM     44  C   UNL A   1      27.593  32.713  19.966  1.00  0.00     0.002 A 
ENDBRANCH  34  35
ENDBRANCH   8  34
ENDBRANCH   5   8
ENDBRANCH   3   4
ENDBRANCH   1   3
BRANCH   1  45
ATOM     45  O   UNL A   1      33.315  31.013  27.761  1.00  0.00    -0.461 OA
BRANCH  45  46
ATOM     46  C   UNL A   1      32.562  31.992  26.988  1.00  0.00     0.274 C 
BRANCH  46  47
ATOM     47  C   UNL A   1      32.419  33.456  27.482  1.00  0.00     0.275 C 
BRANCH  47  48
ATOM     48  O   UNL A   1      33.611  34.008  28.071  1.00  0.00    -0.458 OA
BRANCH  48  49
ATOM     49  C   UNL A   1      33.421  34.731  29.212  1.00  0.00     0.338 C 
ATOM     50  O   UNL A   1      32.647  35.662  29.326  1.00  0.00    -0.246 OA
BRANCH  49  51
ATOM     51  C   UNL A   1      34.303  34.181  30.263  1.00  0.00     0.060 A 
ATOM     52  C   UNL A   1      34.903  34.918  31.243  1.00  0.00     0.016 A 
ATOM     53  C   UNL A   1      34.398  32.819  30.384  1.00  0.00     0.016 A 
ATOM     54  C   UNL A   1      35.808  34.229  32.094  1.00  0.00     0.010 A 
ATOM     55  C   UNL A   1      34.938  32.225  31.513  1.00  0.00     0.010 A 
ATOM     56  C   UNL A   1      36.193  32.712  32.078  1.00  0.00    -0.014 A 
BRANCH  56  57
ATOM     57  C   UNL A   1      38.034  31.661  32.384  1.00  0.00     0.031 A 
ATOM     58  C   UNL A   1      38.510  30.091  31.786  1.00  0.00     0.074 A 
ATOM     59  C   UNL A   1      39.386  32.007  32.855  1.00  0.00     0.049 A 
ATOM     60  N   UNL A   1      39.104  29.846  30.636  1.00  0.00    -0.248 NA
ATOM     61  C   UNL A   1      38.206  28.855  32.538  1.00  0.00     0.031 C 
ATOM     62  C   UNL A   1      40.696  31.521  32.365  1.00  0.00     0.029 A 
ATOM     63  N   UNL A   1      39.858  33.051  33.700  1.00  0.00    -0.354 N 
ATOM     64  C   UNL A   1      39.215  28.466  30.480  1.00  0.00     0.074 A 
ATOM     65  C   UNL A   1      38.515  27.916  31.640  1.00  0.00     0.031 C 
ATOM     66  C   UNL A   1      41.699  32.072  33.074  1.00  0.00     0.029 A 
ATOM     67  C   UNL A   1      41.113  32.796  34.174  1.00  0.00     0.049 A 
ATOM     68  H   UNL A   1      39.341  33.861  33.916  1.00  0.00     0.167 HD
ATOM     69  C   UNL A   1      40.408  27.882  30.169  1.00  0.00     0.034 A 
ATOM     70  C   UNL A   1      41.331  32.693  35.516  1.00  0.00     0.034 A 
ATOM     71  C   UNL A   1      41.515  28.233  31.047  1.00  0.00     0.049 A 
ATOM     72  C   UNL A   1      41.870  31.324  35.803  1.00  0.00     0.074 A 
ATOM     73  C   UNL A   1      42.680  28.957  30.880  1.00  0.00     0.029 A 
ATOM     74  N   UNL A   1      41.470  27.870  32.389  1.00  0.00    -0.354 N 
ATOM     75  N   UNL A   1      41.834  30.377  34.912  1.00  0.00    -0.248 NA
ATOM     76  C   UNL A   1      42.526  30.896  37.029  1.00  0.00     0.031 C 
ATOM     77  C   UNL A   1      43.282  29.111  32.161  1.00  0.00     0.029 A 
ATOM     78  C   UNL A   1      42.504  28.449  33.098  1.00  0.00     0.049 A 
ATOM     79  H   UNL A   1      40.790  27.276  32.782  1.00  0.00     0.167 HD
ATOM     80  C   UNL A   1      42.501  29.287  35.349  1.00  0.00     0.074 A 
ATOM     81  C   UNL A   1      42.884  29.637  36.705  1.00  0.00     0.031 C 
ATOM     82  C   UNL A   1      42.665  28.210  34.532  1.00  0.00     0.034 A 
BRANCH  69  83
ATOM     83  C   UNL A   1      40.524  27.158  28.839  1.00  0.00     0.023 A 
ATOM     84  C   UNL A   1      39.566  26.168  28.530  1.00  0.00     0.012 A 
ATOM     85  C   UNL A   1      41.520  27.419  27.854  1.00  0.00     0.148 A 
ATOM     86  C   UNL A   1      39.602  25.447  27.331  1.00  0.00     0.002 A 
ATOM     87  C   UNL A   1      41.550  26.697  26.652  1.00  0.00     0.091 A 
ATOM     88  F   UNL A   1      42.426  28.381  28.077  1.00  0.00    -0.205 F 
ATOM     89  C   UNL A   1      40.593  25.707  26.395  1.00  0.00     0.022 A 
BRANCH  87  90
ATOM     90  S   UNL A   1      42.782  26.954  25.361  1.00  0.00     0.127 S 
ATOM     91  O   UNL A   1      44.011  27.159  26.131  1.00  0.00    -0.237 OA
ATOM     92  O   UNL A   1      42.740  25.695  24.619  1.00  0.00    -0.237 OA
ATOM     93  O   UNL A   1      42.371  28.122  24.590  1.00  0.00    -0.744 OA
ENDBRANCH  87  90
ENDBRANCH  69  83
BRANCH  70  94
ATOM     94  C   UNL A   1      40.428  33.555  36.360  1.00  0.00     0.023 A 
ATOM     95  C   UNL A   1      39.351  32.874  36.991  1.00  0.00     0.012 A 
ATOM     96  C   UNL A   1      40.818  34.805  36.889  1.00  0.00     0.148 A 
ATOM     97  C   UNL A   1      38.745  33.366  38.152  1.00  0.00     0.002 A 
ATOM     98  C   UNL A   1      40.212  35.288  38.060  1.00  0.00     0.091 A 
ATOM     99  F   UNL A   1      41.845  35.449  36.320  1.00  0.00    -0.205 F 
ATOM    100  C   UNL A   1      39.189  34.563  38.697  1.00  0.00     0.022 A 
BRANCH  98 101
ATOM    101  S   UNL A   1      40.856  36.714  38.972  1.00  0.00     0.127 S 
ATOM    102  O   UNL A   1      41.957  37.140  38.113  1.00  0.00    -0.237 OA
ATOM    103  O   UNL A   1      39.705  37.615  38.991  1.00  0.00    -0.237 OA
ATOM    104  O   UNL A   1      41.222  36.203  40.289  1.00  0.00    -0.744 OA
ENDBRANCH  98 101
ENDBRANCH  70  94
BRANCH  82 105
ATOM    105  C   UNL A   1      43.033  26.848  35.035  1.00  0.00     0.023 A 
ATOM    106  C   UNL A   1      42.045  25.947  35.478  1.00  0.00     0.012 A 
ATOM    107  C   UNL A   1      44.348  26.355  34.891  1.00  0.00     0.148 A 
ATOM    108  C   UNL A   1      42.354  24.631  35.818  1.00  0.00     0.002 A 
ATOM    109  C   UNL A   1      44.630  25.016  35.134  1.00  0.00     0.091 A 
ATOM    110  F   UNL A   1      45.337  27.176  34.508  1.00  0.00    -0.205 F 
ATOM    111  C   UNL A   1      43.645  24.157  35.626  1.00  0.00     0.022 A 
BRANCH 109 112
ATOM    112  S   UNL A   1      46.225  24.347  34.654  1.00  0.00     0.127 S 
ATOM    113  O   UNL A   1      47.121  24.949  35.638  1.00  0.00    -0.237 OA
ATOM    114  O   UNL A   1      46.030  22.905  34.809  1.00  0.00    -0.237 OA
ATOM    115  O   UNL A   1      46.387  24.780  33.271  1.00  0.00    -0.744 OA
ENDBRANCH 109 112
ENDBRANCH  82 105
ENDBRANCH  56  57
ENDBRANCH  49  51
ENDBRANCH  48  49
ENDBRANCH  47  48
ENDBRANCH  46  47
ENDBRANCH  45  46
ENDBRANCH   1  45
TORSDOF 23
ENDMDL
MODEL 2
REMARK VINA RESULT:     -11.5      1.675      2.033
REMARK SMILES Cc1ccc(S(=O)(=O)n2cc(C(=O)C(=O)N[C@@H](Cc3c[nH]c4ccccc34)C(=O)NCC(=O)OCCOC(=O)c3ccc(-c4c5nc(c(-c6cccc(S(=O)(=O)[O-])c6F)c6ccc([nH]6)c(-c6cccc(S(=O)(=O)[O-])c6F)c6nc(c(-c7cccc(S(=O)(=O)[O-])c7F)c7ccc4[nH]7)C=C6)C=C5)cc3)c3ccccc32)cc1
REMARK SMILES IDX 32 1 33 2 31 3 30 4 28 5 29 6 17 8 16 9 14 10 15 11 12 13
REMARK SMILES IDX 13 14 11 15 9 16 10 17 108 18 103 19 107 20 104 21 106 22
REMARK SMILES IDX 105 23 6 24 7 25 8 26 5 27 1 28 2 29 3 30 110 31 4 32 109 33
REMARK SMILES IDX 18 34 19 35 20 36 27 37 21 38 22 39 26 40 23 42 25 43 24 44
REMARK SMILES IDX 34 45 35 46 36 47 37 48 38 49 39 50 40 51 41 52 102 53 42 54
REMARK SMILES IDX 101 55 43 56 44 57 45 58 95 59 46 60 100 61 94 62 96 63
REMARK SMILES IDX 47 64 99 65 93 66 92 67 48 69 80 70 60 71 79 72 61 73 64 74
REMARK SMILES IDX 78 75 97 76 62 77 63 78 77 80 98 81 65 82 49 83 50 84 58 85
REMARK SMILES IDX 51 86 53 87 59 88 52 89 54 90 55 91 56 92 57 93 81 94 82 95
REMARK SMILES IDX 90 96 83 97 85 98 91 99 84 100 86 101 87 102 88 103 89 104
REMARK SMILES IDX 66 105 67 106 75 107 68 108 70 109 76 110 69 111 71 112
REMARK SMILES IDX 72 113 73 114 74 115
REMARK H PARENT 30 7 16 12 21 41 96 68 64 79
REMARK Flexibility Score: inf
ROOT
ATOM      1  C   UNL A   1      35.309  30.030  27.547  1.00  0.00     0.325 C 
ATOM      2  O   UNL A   1      36.520  30.183  27.486  1.00  0.00    -0.250 OA
ENDROOT
BRANCH   1   3
ATOM      3  C   UNL A   1      34.519  28.930  26.801  1.00  0.00     0.238 C 
BRANCH   3   4
ATOM      4  N   UNL A   1      34.398  29.150  25.354  1.00  0.00    -0.343 N 
ATOM      5  C   UNL A   1      33.332  29.198  24.492  1.00  0.00     0.243 C 
ATOM      6  O   UNL A   1      33.620  29.275  23.290  1.00  0.00    -0.273 OA
ATOM      7  H   UNL A   1      35.265  29.295  24.910  1.00  0.00     0.164 HD
BRANCH   5   8
ATOM      8  C   UNL A   1      31.840  28.995  24.922  1.00  0.00     0.176 C 
BRANCH   8   9
ATOM      9  N   UNL A   1      31.667  28.591  26.309  1.00  0.00    -0.337 N 
ATOM     10  C   UNL A   1      31.477  27.378  26.923  1.00  0.00     0.293 C 
ATOM     11  O   UNL A   1      31.439  27.288  28.145  1.00  0.00    -0.265 OA
ATOM     12  H   UNL A   1      31.691  29.346  26.939  1.00  0.00     0.164 HD
BRANCH  10  13
ATOM     13  C   UNL A   1      31.515  26.126  26.079  1.00  0.00     0.252 C 
ATOM     14  O   UNL A   1      30.411  25.740  25.679  1.00  0.00    -0.283 OA
BRANCH  13  15
ATOM     15  C   UNL A   1      32.738  25.380  25.814  1.00  0.00     0.054 A 
ATOM     16  N   UNL A   1      34.626  24.526  24.927  1.00  0.00    -0.240 N 
ATOM     17  C   UNL A   1      33.765  25.629  24.908  1.00  0.00     0.117 A 
ATOM     18  C   UNL A   1      34.389  23.860  26.140  1.00  0.00     0.065 A 
ATOM     19  C   UNL A   1      33.069  24.159  26.474  1.00  0.00     0.012 A 
ATOM     20  C   UNL A   1      35.107  22.849  26.799  1.00  0.00     0.028 A 
ATOM     21  C   UNL A   1      32.379  23.303  27.357  1.00  0.00     0.011 A 
ATOM     22  C   UNL A   1      34.395  22.004  27.657  1.00  0.00     0.002 A 
ATOM     23  C   UNL A   1      33.039  22.199  27.897  1.00  0.00     0.001 A 
BRANCH  16  24
ATOM     24  S   UNL A   1      34.652  23.416  23.541  1.00  0.00     0.268 S 
ATOM     25  O   UNL A   1      36.062  23.214  23.242  1.00  0.00    -0.201 OA
ATOM     26  O   UNL A   1      33.797  24.063  22.549  1.00  0.00    -0.201 OA
BRANCH  24  27
ATOM     27  C   UNL A   1      33.934  21.813  23.716  1.00  0.00     0.088 A 
ATOM     28  C   UNL A   1      32.616  17.864  24.868  1.00  0.00     0.044 C 
ATOM     29  C   UNL A   1      33.051  19.240  24.457  1.00  0.00    -0.051 A 
ATOM     30  C   UNL A   1      34.379  19.599  24.664  1.00  0.00     0.005 A 
ATOM     31  C   UNL A   1      32.183  20.167  23.846  1.00  0.00     0.005 A 
ATOM     32  C   UNL A   1      34.808  20.869  24.303  1.00  0.00     0.022 A 
ATOM     33  C   UNL A   1      32.615  21.462  23.480  1.00  0.00     0.022 A 
ENDBRANCH  24  27
ENDBRANCH  16  24
ENDBRANCH  13  15
ENDBRANCH  10  13
ENDBRANCH   8   9
BRANCH   8  34
ATOM     34  C   UNL A   1      30.957  30.249  24.595  1.00  0.00     0.072 C 
BRANCH  34  35
ATOM     35  C   UNL A   1      29.771  30.061  23.660  1.00  0.00    -0.020 A 
ATOM     36  C   UNL A   1      29.362  28.807  23.165  1.00  0.00     0.087 A 
ATOM     37  C   UNL A   1      28.946  31.064  23.033  1.00  0.00     0.003 A 
ATOM     38  N   UNL A   1      28.453  28.828  22.105  1.00  0.00    -0.361 N 
ATOM     39  C   UNL A   1      28.219  30.122  21.713  1.00  0.00     0.046 A 
ATOM     40  C   UNL A   1      28.746  32.898  23.031  1.00  0.00     0.010 A 
ATOM     41  H   UNL A   1      28.041  28.032  21.698  1.00  0.00     0.166 HD
ATOM     42  C   UNL A   1      27.656  30.973  20.193  1.00  0.00     0.026 A 
ATOM     43  C   UNL A   1      27.916  33.769  21.642  1.00  0.00     0.001 A 
ATOM     44  C   UNL A   1      27.535  32.816  20.146  1.00  0.00     0.002 A 
ENDBRANCH  34  35
ENDBRANCH   8  34
ENDBRANCH   5   8
ENDBRANCH   3   4
ENDBRANCH   1   3
BRANCH   1  45
ATOM     45  O   UNL A   1      34.470  30.805  28.292  1.00  0.00    -0.461 OA
BRANCH  45  46
ATOM     46  C   UNL A   1      33.663  31.893  27.753  1.00  0.00     0.274 C 
BRANCH  46  47
ATOM     47  C   UNL A   1      33.687  33.299  28.408  1.00  0.00     0.275 C 
BRANCH  47  48
ATOM     48  O   UNL A   1      34.873  33.585  29.172  1.00  0.00    -0.458 OA
BRANCH  48  49
ATOM     49  C   UNL A   1      34.660  33.979  30.459  1.00  0.00     0.338 C 
ATOM     50  O   UNL A   1      33.628  34.469  30.876  1.00  0.00    -0.246 OA
BRANCH  49  51
ATOM     51  C   UNL A   1      35.885  33.701  31.239  1.00  0.00     0.060 A 
ATOM     52  C   UNL A   1      36.900  34.591  31.444  1.00  0.00     0.016 A 
ATOM     53  C   UNL A   1      35.945  32.536  31.960  1.00  0.00     0.016 A 
ATOM     54  C   UNL A   1      38.048  34.102  32.123  1.00  0.00     0.010 A 
ATOM     55  C   UNL A   1      36.896  32.340  32.947  1.00  0.00     0.010 A 
ATOM     56  C   UNL A   1      38.297  32.671  32.703  1.00  0.00    -0.014 A 
BRANCH  56  57
ATOM     57  C   UNL A   1      40.017  31.397  32.783  1.00  0.00     0.031 A 
ATOM     58  C   UNL A   1      40.291  29.874  31.974  1.00  0.00     0.074 A 
ATOM     59  C   UNL A   1      41.416  31.534  33.224  1.00  0.00     0.049 A 
ATOM     60  N   UNL A   1      40.810  29.716  30.773  1.00  0.00    -0.248 NA
ATOM     61  C   UNL A   1      39.877  28.592  32.583  1.00  0.00     0.031 C 
ATOM     62  C   UNL A   1      42.644  30.977  32.611  1.00  0.00     0.029 A 
ATOM     63  N   UNL A   1      42.034  32.405  34.165  1.00  0.00    -0.354 N 
ATOM     64  C   UNL A   1      40.758  28.364  30.444  1.00  0.00     0.074 A 
ATOM     65  C   UNL A   1      40.045  27.749  31.561  1.00  0.00     0.031 C 
ATOM     66  C   UNL A   1      43.728  31.321  33.330  1.00  0.00     0.029 A 
ATOM     67  C   UNL A   1      43.269  31.958  34.539  1.00  0.00     0.049 A 
ATOM     68  H   UNL A   1      41.621  33.231  34.505  1.00  0.00     0.167 HD
ATOM     69  C   UNL A   1      41.866  27.700  30.002  1.00  0.00     0.034 A 
ATOM     70  C   UNL A   1      43.524  31.662  35.845  1.00  0.00     0.034 A 
ATOM     71  C   UNL A   1      43.037  27.815  30.859  1.00  0.00     0.049 A 
ATOM     72  C   UNL A   1      43.916  30.218  35.934  1.00  0.00     0.074 A 
ATOM     73  C   UNL A   1      44.270  28.425  30.723  1.00  0.00     0.029 A 
ATOM     74  N   UNL A   1      43.002  27.290  32.147  1.00  0.00    -0.354 N 
ATOM     75  N   UNL A   1      43.740  29.401  34.937  1.00  0.00    -0.248 NA
ATOM     76  C   UNL A   1      44.565  29.569  37.063  1.00  0.00     0.031 C 
ATOM     77  C   UNL A   1      44.933  28.349  31.980  1.00  0.00     0.029 A 
ATOM     78  C   UNL A   1      44.120  27.660  32.867  1.00  0.00     0.049 A 
ATOM     79  H   UNL A   1      42.275  26.728  32.498  1.00  0.00     0.167 HD
ATOM     80  C   UNL A   1      44.296  28.200  35.201  1.00  0.00     0.074 A 
ATOM     81  C   UNL A   1      44.766  28.330  36.569  1.00  0.00     0.031 C 
ATOM     82  C   UNL A   1      44.307  27.224  34.252  1.00  0.00     0.034 A 
BRANCH  69  83
ATOM     83  C   UNL A   1      41.850  27.143  28.589  1.00  0.00     0.023 A 
ATOM     84  C   UNL A   1      41.335  27.956  27.555  1.00  0.00     0.012 A 
ATOM     85  C   UNL A   1      42.343  25.861  28.213  1.00  0.00     0.148 A 
ATOM     86  C   UNL A   1      41.276  27.521  26.226  1.00  0.00     0.002 A 
ATOM     87  C   UNL A   1      42.285  25.429  26.880  1.00  0.00     0.091 A 
ATOM     88  F   UNL A   1      42.885  25.067  29.148  1.00  0.00    -0.205 F 
ATOM     89  C   UNL A   1      41.745  26.259  25.889  1.00  0.00     0.022 A 
BRANCH  87  90
ATOM     90  S   UNL A   1      42.873  23.818  26.323  1.00  0.00     0.127 S 
ATOM     91  O   UNL A   1      44.218  23.754  26.901  1.00  0.00    -0.237 OA
ATOM     92  O   UNL A   1      41.913  22.897  26.930  1.00  0.00    -0.237 OA
ATOM     93  O   UNL A   1      42.861  23.828  24.865  1.00  0.00    -0.744 OA
ENDBRANCH  87  90
ENDBRANCH  69  83
BRANCH  70  94
ATOM     94  C   UNL A   1      42.756  32.500  36.833  1.00  0.00     0.023 A 
ATOM     95  C   UNL A   1      43.308  33.783  37.102  1.00  0.00     0.012 A 
ATOM     96  C   UNL A   1      41.392  32.293  37.136  1.00  0.00     0.148 A 
ATOM     97  C   UNL A   1      42.522  34.843  37.567  1.00  0.00     0.002 A 
ATOM     98  C   UNL A   1      40.606  33.364  37.592  1.00  0.00     0.091 A 
ATOM     99  F   UNL A   1      40.851  31.098  36.868  1.00  0.00    -0.205 F 
ATOM    100  C   UNL A   1      41.167  34.639  37.791  1.00  0.00     0.022 A 
BRANCH  98 101
ATOM    101  S   UNL A   1      38.801  33.268  37.705  1.00  0.00     0.127 S 
ATOM    102  O   UNL A   1      38.625  32.251  38.736  1.00  0.00    -0.237 OA
ATOM    103  O   UNL A   1      38.444  34.626  38.111  1.00  0.00    -0.237 OA
ATOM    104  O   UNL A   1      38.344  32.917  36.364  1.00  0.00    -0.744 OA
ENDBRANCH  98 101
ENDBRANCH  70  94
BRANCH  82 105
ATOM    105  C   UNL A   1      44.537  25.777  34.564  1.00  0.00     0.023 A 
ATOM    106  C   UNL A   1      43.534  24.816  34.330  1.00  0.00     0.012 A 
ATOM    107  C   UNL A   1      45.823  25.307  34.906  1.00  0.00     0.148 A 
ATOM    108  C   UNL A   1      43.777  23.452  34.484  1.00  0.00     0.002 A 
ATOM    109  C   UNL A   1      46.085  23.944  34.959  1.00  0.00     0.091 A 
ATOM    110  F   UNL A   1      46.808  26.177  35.176  1.00  0.00    -0.205 F 
ATOM    111  C   UNL A   1      45.061  23.012  34.779  1.00  0.00     0.022 A 
BRANCH 109 112
ATOM    112  S   UNL A   1      47.783  23.375  35.093  1.00  0.00     0.127 S 
ATOM    113  O   UNL A   1      48.175  23.879  36.406  1.00  0.00    -0.237 OA
ATOM    114  O   UNL A   1      47.642  21.920  35.016  1.00  0.00    -0.237 OA
ATOM    115  O   UNL A   1      48.446  23.969  33.939  1.00  0.00    -0.744 OA
ENDBRANCH 109 112
ENDBRANCH  82 105
ENDBRANCH  56  57
ENDBRANCH  49  51
ENDBRANCH  48  49
ENDBRANCH  47  48
ENDBRANCH  46  47
ENDBRANCH  45  46
ENDBRANCH   1  45
TORSDOF 23
ENDMDL
MODEL 3
REMARK VINA RESULT:     -10.6      4.778      7.138
REMARK SMILES Cc1ccc(S(=O)(=O)n2cc(C(=O)C(=O)N[C@@H](Cc3c[nH]c4ccccc34)C(=O)NCC(=O)OCCOC(=O)c3ccc(-c4c5nc(c(-c6cccc(S(=O)(=O)[O-])c6F)c6ccc([nH]6)c(-c6cccc(S(=O)(=O)[O-])c6F)c6nc(c(-c7cccc(S(=O)(=O)[O-])c7F)c7ccc4[nH]7)C=C6)C=C5)cc3)c3ccccc32)cc1
REMARK SMILES IDX 32 1 33 2 31 3 30 4 28 5 29 6 17 8 16 9 14 10 15 11 12 13
REMARK SMILES IDX 13 14 11 15 9 16 10 17 108 18 103 19 107 20 104 21 106 22
REMARK SMILES IDX 105 23 6 24 7 25 8 26 5 27 1 28 2 29 3 30 110 31 4 32 109 33
REMARK SMILES IDX 18 34 19 35 20 36 27 37 21 38 22 39 26 40 23 42 25 43 24 44
REMARK SMILES IDX 34 45 35 46 36 47 37 48 38 49 39 50 40 51 41 52 102 53 42 54
REMARK SMILES IDX 101 55 43 56 44 57 45 58 95 59 46 60 100 61 94 62 96 63
REMARK SMILES IDX 47 64 99 65 93 66 92 67 48 69 80 70 60 71 79 72 61 73 64 74
REMARK SMILES IDX 78 75 97 76 62 77 63 78 77 80 98 81 65 82 49 83 50 84 58 85
REMARK SMILES IDX 51 86 53 87 59 88 52 89 54 90 55 91 56 92 57 93 81 94 82 95
REMARK SMILES IDX 90 96 83 97 85 98 91 99 84 100 86 101 87 102 88 103 89 104
REMARK SMILES IDX 66 105 67 106 75 107 68 108 70 109 76 110 69 111 71 112
REMARK SMILES IDX 72 113 73 114 74 115
REMARK H PARENT 30 7 16 12 21 41 96 68 64 79
REMARK Flexibility Score: inf
ROOT
ATOM      1  C   UNL A   1      35.700  30.008  27.592  1.00  0.00     0.325 C 
ATOM      2  O   UNL A   1      36.853  29.814  27.235  1.00  0.00    -0.250 OA
ENDROOT
BRANCH   1   3
ATOM      3  C   UNL A   1      34.464  29.276  27.020  1.00  0.00     0.238 C 
BRANCH   3   4
ATOM      4  N   UNL A   1      34.570  28.935  25.595  1.00  0.00    -0.343 N 
ATOM      5  C   UNL A   1      33.683  28.440  24.674  1.00  0.00     0.243 C 
ATOM      6  O   UNL A   1      34.165  28.146  23.571  1.00  0.00    -0.273 OA
ATOM      7  H   UNL A   1      35.467  29.099  25.223  1.00  0.00     0.164 HD
BRANCH   5   8
ATOM      8  C   UNL A   1      32.192  28.082  24.990  1.00  0.00     0.176 C 
BRANCH   8   9
ATOM      9  N   UNL A   1      32.005  27.334  26.224  1.00  0.00    -0.337 N 
ATOM     10  C   UNL A   1      31.304  26.197  26.543  1.00  0.00     0.293 C 
ATOM     11  O   UNL A   1      31.371  25.708  27.664  1.00  0.00    -0.265 OA
ATOM     12  H   UNL A   1      32.480  27.725  26.991  1.00  0.00     0.164 HD
BRANCH  10  13
ATOM     13  C   UNL A   1      30.606  25.443  25.435  1.00  0.00     0.252 C 
ATOM     14  O   UNL A   1      29.549  25.954  25.051  1.00  0.00    -0.283 OA
BRANCH  13  15
ATOM     15  C   UNL A   1      31.089  24.175  24.907  1.00  0.00     0.054 A 
ATOM     16  N   UNL A   1      31.679  22.022  24.594  1.00  0.00    -0.240 N 
ATOM     17  C   UNL A   1      30.849  22.872  25.334  1.00  0.00     0.117 A 
ATOM     18  C   UNL A   1      32.047  22.734  23.441  1.00  0.00     0.065 A 
ATOM     19  C   UNL A   1      31.988  24.078  23.803  1.00  0.00     0.012 A 
ATOM     20  C   UNL A   1      32.660  22.315  22.249  1.00  0.00     0.028 A 
ATOM     21  C   UNL A   1      32.725  25.018  23.054  1.00  0.00     0.011 A 
ATOM     22  C   UNL A   1      33.398  23.264  21.533  1.00  0.00     0.002 A 
ATOM     23  C   UNL A   1      33.469  24.587  21.954  1.00  0.00     0.001 A 
BRANCH  16  24
ATOM     24  S   UNL A   1      33.069  21.254  25.388  1.00  0.00     0.268 S 
ATOM     25  O   UNL A   1      33.193  19.948  24.757  1.00  0.00    -0.201 OA
ATOM     26  O   UNL A   1      32.756  21.332  26.812  1.00  0.00    -0.201 OA
BRANCH  24  27
ATOM     27  C   UNL A   1      34.652  22.026  25.274  1.00  0.00     0.088 A 
ATOM     28  C   UNL A   1      38.437  24.034  25.825  1.00  0.00     0.044 C 
ATOM     29  C   UNL A   1      37.133  23.321  25.615  1.00  0.00    -0.051 A 
ATOM     30  C   UNL A   1      36.013  23.785  26.299  1.00  0.00     0.005 A 
ATOM     31  C   UNL A   1      36.989  22.229  24.736  1.00  0.00     0.005 A 
ATOM     32  C   UNL A   1      34.795  23.140  26.132  1.00  0.00     0.022 A 
ATOM     33  C   UNL A   1      35.751  21.569  24.566  1.00  0.00     0.022 A 
ENDBRANCH  24  27
ENDBRANCH  16  24
ENDBRANCH  13  15
ENDBRANCH  10  13
ENDBRANCH   8   9
BRANCH   8  34
ATOM     34  C   UNL A   1      31.263  29.346  24.961  1.00  0.00     0.072 C 
BRANCH  34  35
ATOM     35  C   UNL A   1      30.100  29.353  23.980  1.00  0.00    -0.020 A 
ATOM     36  C   UNL A   1      29.699  28.222  23.242  1.00  0.00     0.087 A 
ATOM     37  C   UNL A   1      29.294  30.465  23.541  1.00  0.00     0.003 A 
ATOM     38  N   UNL A   1      28.816  28.455  22.185  1.00  0.00    -0.361 N 
ATOM     39  C   UNL A   1      28.596  29.803  22.046  1.00  0.00     0.046 A 
ATOM     40  C   UNL A   1      29.100  32.265  23.890  1.00  0.00     0.010 A 
ATOM     41  H   UNL A   1      28.410  27.757  21.622  1.00  0.00     0.166 HD
ATOM     42  C   UNL A   1      28.073  30.937  20.708  1.00  0.00     0.026 A 
ATOM     43  C   UNL A   1      28.308  33.397  22.678  1.00  0.00     0.001 A 
ATOM     44  C   UNL A   1      27.959  32.756  21.017  1.00  0.00     0.002 A 
ENDBRANCH  34  35
ENDBRANCH   8  34
ENDBRANCH   5   8
ENDBRANCH   3   4
ENDBRANCH   1   3
BRANCH   1  45
ATOM     45  O   UNL A   1      35.330  30.898  28.555  1.00  0.00    -0.461 OA
BRANCH  45  46
ATOM     46  C   UNL A   1      35.209  32.336  28.343  1.00  0.00     0.274 C 
BRANCH  46  47
ATOM     47  C   UNL A   1      35.680  33.341  29.426  1.00  0.00     0.275 C 
BRANCH  47  48
ATOM     48  O   UNL A   1      36.075  32.738  30.672  1.00  0.00    -0.458 OA
BRANCH  48  49
ATOM     49  C   UNL A   1      35.131  32.752  31.656  1.00  0.00     0.338 C 
ATOM     50  O   UNL A   1      33.942  32.564  31.483  1.00  0.00    -0.246 OA
BRANCH  49  51
ATOM     51  C   UNL A   1      35.805  33.023  32.943  1.00  0.00     0.060 A 
ATOM     52  C   UNL A   1      35.293  33.794  33.946  1.00  0.00     0.016 A 
ATOM     53  C   UNL A   1      36.945  32.320  33.241  1.00  0.00     0.016 A 
ATOM     54  C   UNL A   1      36.139  34.032  35.062  1.00  0.00     0.010 A 
ATOM     55  C   UNL A   1      37.458  32.276  34.526  1.00  0.00     0.010 A 
ATOM     56  C   UNL A   1      37.588  33.499  35.313  1.00  0.00    -0.014 A 
BRANCH  56  57
ATOM     57  C   UNL A   1      39.347  34.371  36.169  1.00  0.00     0.031 A 
ATOM     58  C   UNL A   1      40.916  34.611  35.440  1.00  0.00     0.074 A 
ATOM     59  C   UNL A   1      39.652  35.201  37.347  1.00  0.00     0.049 A 
ATOM     60  N   UNL A   1      41.297  35.666  34.748  1.00  0.00    -0.248 NA
ATOM     61  C   UNL A   1      41.960  33.566  35.495  1.00  0.00     0.031 C 
ATOM     62  C   UNL A   1      40.610  36.323  37.473  1.00  0.00     0.029 A 
ATOM     63  N   UNL A   1      38.983  35.363  38.593  1.00  0.00    -0.354 N 
ATOM     64  C   UNL A   1      42.573  35.427  34.245  1.00  0.00     0.074 A 
ATOM     65  C   UNL A   1      42.863  34.050  34.640  1.00  0.00     0.031 C 
ATOM     66  C   UNL A   1      40.601  36.813  38.727  1.00  0.00     0.029 A 
ATOM     67  C   UNL A   1      39.788  35.938  39.534  1.00  0.00     0.049 A 
ATOM     68  H   UNL A   1      38.051  35.092  38.757  1.00  0.00     0.167 HD
ATOM     69  C   UNL A   1      43.584  36.326  34.424  1.00  0.00     0.034 A 
ATOM     70  C   UNL A   1      40.083  35.270  40.685  1.00  0.00     0.034 A 
ATOM     71  C   UNL A   1      43.813  36.732  35.803  1.00  0.00     0.049 A 
ATOM     72  C   UNL A   1      41.569  35.089  40.759  1.00  0.00     0.074 A 
ATOM     73  C   UNL A   1      43.647  37.917  36.495  1.00  0.00     0.029 A 
ATOM     74  N   UNL A   1      44.231  35.790  36.737  1.00  0.00    -0.354 N 
ATOM     75  N   UNL A   1      42.334  35.309  39.730  1.00  0.00    -0.248 NA
ATOM     76  C   UNL A   1      42.335  34.719  41.939  1.00  0.00     0.031 C 
ATOM     77  C   UNL A   1      43.870  37.648  37.874  1.00  0.00     0.029 A 
ATOM     78  C   UNL A   1      44.209  36.311  38.015  1.00  0.00     0.049 A 
ATOM     79  H   UNL A   1      44.506  34.871  36.516  1.00  0.00     0.167 HD
ATOM     80  C   UNL A   1      43.636  35.219  40.076  1.00  0.00     0.074 A 
ATOM     81  C   UNL A   1      43.596  34.800  41.467  1.00  0.00     0.031 C 
ATOM     82  C   UNL A   1      44.610  35.505  39.169  1.00  0.00     0.034 A 
BRANCH  69  83
ATOM     83  C   UNL A   1      44.178  36.988  33.192  1.00  0.00     0.023 A 
ATOM     84  C   UNL A   1      45.117  38.026  33.377  1.00  0.00     0.012 A 
ATOM     85  C   UNL A   1      43.878  36.625  31.848  1.00  0.00     0.148 A 
ATOM     86  C   UNL A   1      45.708  38.696  32.299  1.00  0.00     0.002 A 
ATOM     87  C   UNL A   1      44.475  37.295  30.770  1.00  0.00     0.091 A 
ATOM     88  F   UNL A   1      43.027  35.615  31.616  1.00  0.00    -0.205 F 
ATOM     89  C   UNL A   1      45.385  38.335  30.998  1.00  0.00     0.022 A 
BRANCH  87  90
ATOM     90  S   UNL A   1      44.141  36.908  29.041  1.00  0.00     0.127 S 
ATOM     91  O   UNL A   1      44.310  35.453  29.004  1.00  0.00    -0.237 OA
ATOM     92  O   UNL A   1      42.760  37.357  28.871  1.00  0.00    -0.237 OA
ATOM     93  O   UNL A   1      45.115  37.633  28.234  1.00  0.00    -0.744 OA
ENDBRANCH  87  90
ENDBRANCH  69  83
BRANCH  70  94
ATOM     94  C   UNL A   1      38.990  34.353  41.169  1.00  0.00     0.023 A 
ATOM     95  C   UNL A   1      38.027  34.953  42.026  1.00  0.00     0.012 A 
ATOM     96  C   UNL A   1      38.632  33.154  40.512  1.00  0.00     0.148 A 
ATOM     97  C   UNL A   1      36.733  34.437  42.159  1.00  0.00     0.002 A 
ATOM     98  C   UNL A   1      37.329  32.648  40.642  1.00  0.00     0.091 A 
ATOM     99  F   UNL A   1      39.519  32.588  39.684  1.00  0.00    -0.205 F 
ATOM    100  C   UNL A   1      36.379  33.296  41.451  1.00  0.00     0.022 A 
BRANCH  98 101
ATOM    101  S   UNL A   1      36.699  31.306  39.602  1.00  0.00     0.127 S 
ATOM    102  O   UNL A   1      37.399  30.151  40.155  1.00  0.00    -0.237 OA
ATOM    103  O   UNL A   1      35.263  31.348  39.880  1.00  0.00    -0.237 OA
ATOM    104  O   UNL A   1      37.042  31.678  38.233  1.00  0.00    -0.744 OA
ENDBRANCH  98 101
ENDBRANCH  70  94
BRANCH  82 105
ATOM    105  C   UNL A   1      46.034  35.070  39.329  1.00  0.00     0.023 A 
ATOM    106  C   UNL A   1      46.411  33.729  39.119  1.00  0.00     0.012 A 
ATOM    107  C   UNL A   1      47.066  36.020  39.492  1.00  0.00     0.148 A 
ATOM    108  C   UNL A   1      47.748  33.334  39.129  1.00  0.00     0.002 A 
ATOM    109  C   UNL A   1      48.398  35.637  39.400  1.00  0.00     0.091 A 
ATOM    110  F   UNL A   1      46.766  37.305  39.731  1.00  0.00    -0.205 F 
ATOM    111  C   UNL A   1      48.746  34.293  39.248  1.00  0.00     0.022 A 
BRANCH 109 112
ATOM    112  S   UNL A   1      49.675  36.896  39.304  1.00  0.00     0.127 S 
ATOM    113  O   UNL A   1      49.550  37.561  40.598  1.00  0.00    -0.237 OA
ATOM    114  O   UNL A   1      50.895  36.106  39.140  1.00  0.00    -0.237 OA
ATOM    115  O   UNL A   1      49.311  37.679  38.129  1.00  0.00    -0.744 OA
ENDBRANCH 109 112
ENDBRANCH  82 105
ENDBRANCH  56  57
ENDBRANCH  49  51
ENDBRANCH  48  49
ENDBRANCH  47  48
ENDBRANCH  46  47
ENDBRANCH  45  46
ENDBRANCH   1  45
TORSDOF 23
ENDMDL
