MODEL 1
REMARK VINA RESULT:     -10.9      0.000      0.000
REMARK SMILES Cc1c(CC(=O)N[C@@H](CCO)C(=O)OCCOC(=O)c2ccc(-c3c4nc(c(-c5cccc(S(=O)(=O)[O-])c5F)c5ccc([nH]5)c(-c5cccc(S(=O)(=O)[O-])c5F)c5nc(c(-c6cccc(S(=O)(=O)[O-])c6F)c6ccc3[nH]6)C=C5)C=C4)cc2)cc(-c2ccc(S(C)(=O)=O)cc2)n1-c1ccc(F)cc1
REMARK SMILES IDX 15 1 14 2 12 3 13 4 8 5 7 6 5 7 6 8 4 10 3 11 1 12 2 13
REMARK SMILES IDX 95 14 83 15 84 16 96 17 97 18 102 19 98 20 101 21 99 22
REMARK SMILES IDX 100 23 85 24 86 25 94 26 87 27 93 28 88 29 89 30 90 31 91 32
REMARK SMILES IDX 92 33 9 34 10 35 11 36 16 38 17 39 18 40 19 41 20 42 21 43
REMARK SMILES IDX 82 44 22 45 81 46 23 47 24 48 25 49 75 50 26 51 80 52 74 53
REMARK SMILES IDX 76 54 27 55 79 56 73 57 72 58 28 60 60 61 40 62 59 63 41 64
REMARK SMILES IDX 44 65 58 66 77 67 42 68 43 69 57 71 78 72 45 73 29 74 30 75
REMARK SMILES IDX 38 76 31 77 33 78 39 79 32 80 34 81 35 82 36 83 37 84 61 85
REMARK SMILES IDX 62 86 70 87 63 88 65 89 71 90 64 91 66 92 67 93 68 94 69 95
REMARK SMILES IDX 46 96 47 97 55 98 48 99 50 100 56 101 49 102 51 103 52 104
REMARK SMILES IDX 53 105 54 106
REMARK H PARENT 7 9 11 37 76 59 44 70
REMARK Flexibility Score: inf
ROOT
ATOM      1  C   UNL A   1      45.481  24.013  25.125  1.00  0.00     0.274 C 
ENDROOT
BRANCH   1   2
ATOM      2  O   UNL A   1      45.357  22.676  24.564  1.00  0.00    -0.461 OA
BRANCH   2   3
ATOM      3  C   UNL A   1      44.198  22.001  24.825  1.00  0.00     0.328 C 
ATOM      4  O   UNL A   1      43.078  22.406  24.535  1.00  0.00    -0.250 OA
BRANCH   3   5
ATOM      5  C   UNL A   1      44.461  20.604  25.437  1.00  0.00     0.194 C 
BRANCH   5   6
ATOM      6  N   UNL A   1      43.426  19.592  25.204  1.00  0.00    -0.342 N 
ATOM      7  C   UNL A   1      42.398  19.206  26.016  1.00  0.00     0.225 C 
ATOM      8  O   UNL A   1      41.713  18.249  25.645  1.00  0.00    -0.275 OA
ATOM      9  H   UNL A   1      43.481  19.123  24.340  1.00  0.00     0.164 HD
BRANCH   7  10
ATOM     10  C   UNL A   1      42.113  19.941  27.320  1.00  0.00     0.137 C 
BRANCH  10  11
ATOM     11  C   UNL A   1      41.207  21.131  27.148  1.00  0.00    -0.017 A 
ATOM     12  C   UNL A   1      42.596  22.969  28.311  1.00  0.00     0.065 C 
ATOM     13  C   UNL A   1      41.448  22.451  27.505  1.00  0.00     0.024 A 
ATOM     14  N   UNL A   1      40.371  23.222  27.079  1.00  0.00    -0.314 N 
ATOM     15  C   UNL A   1      39.896  21.091  26.600  1.00  0.00     0.033 A 
ATOM     16  C   UNL A   1      39.418  22.382  26.493  1.00  0.00     0.053 A 
BRANCH  14  17
ATOM     17  C   UNL A   1      40.251  24.633  27.190  1.00  0.00     0.046 A 
ATOM     18  C   UNL A   1      39.498  25.183  28.239  1.00  0.00     0.029 A 
ATOM     19  C   UNL A   1      40.813  25.457  26.205  1.00  0.00     0.029 A 
ATOM     20  C   UNL A   1      39.310  26.562  28.300  1.00  0.00     0.041 A 
ATOM     21  C   UNL A   1      40.608  26.836  26.271  1.00  0.00     0.041 A 
ATOM     22  C   UNL A   1      39.861  27.374  27.314  1.00  0.00     0.123 A 
ATOM     23  F   UNL A   1      39.659  28.696  27.365  1.00  0.00    -0.207 F 
ENDBRANCH  14  17
BRANCH  16  24
ATOM     24  C   UNL A   1      38.190  22.827  25.819  1.00  0.00    -0.001 A 
ATOM     25  C   UNL A   1      37.392  23.843  26.370  1.00  0.00     0.011 A 
ATOM     26  C   UNL A   1      37.794  22.233  24.614  1.00  0.00     0.011 A 
ATOM     27  C   UNL A   1      36.181  24.203  25.775  1.00  0.00     0.021 A 
ATOM     28  C   UNL A   1      36.586  22.592  24.007  1.00  0.00     0.021 A 
ATOM     29  C   UNL A   1      35.773  23.554  24.609  1.00  0.00     0.067 A 
BRANCH  29  30
ATOM     30  S   UNL A   1      34.200  23.965  23.895  1.00  0.00     0.175 S 
ATOM     31  C   UNL A   1      33.075  23.852  25.262  1.00  0.00     0.163 C 
ATOM     32  O   UNL A   1      34.266  25.360  23.484  1.00  0.00    -0.224 OA
ATOM     33  O   UNL A   1      33.844  22.926  22.954  1.00  0.00    -0.224 OA
ENDBRANCH  29  30
ENDBRANCH  16  24
ENDBRANCH  10  11
ENDBRANCH   7  10
ENDBRANCH   5   6
BRANCH   5  34
ATOM     34  C   UNL A   1      45.858  20.026  25.131  1.00  0.00     0.065 C 
BRANCH  34  35
ATOM     35  C   UNL A   1      46.044  18.539  25.418  1.00  0.00     0.159 C 
BRANCH  35  36
ATOM     36  O   UNL A   1      47.211  18.292  26.180  1.00  0.00    -0.396 OA
ATOM     37  H   UNL A   1      46.967  18.169  27.112  1.00  0.00     0.210 HD
ENDBRANCH  35  36
ENDBRANCH  34  35
ENDBRANCH   5  34
ENDBRANCH   3   5
ENDBRANCH   2   3
ENDBRANCH   1   2
BRANCH   1  38
ATOM     38  C   UNL A   1      46.546  24.056  26.255  1.00  0.00     0.275 C 
BRANCH  38  39
ATOM     39  O   UNL A   1      46.110  23.820  27.639  1.00  0.00    -0.458 OA
BRANCH  39  40
ATOM     40  C   UNL A   1      46.359  24.817  28.548  1.00  0.00     0.338 C 
ATOM     41  O   UNL A   1      47.496  25.146  28.860  1.00  0.00    -0.246 OA
BRANCH  40  42
ATOM     42  C   UNL A   1      45.115  25.579  29.024  1.00  0.00     0.060 A 
ATOM     43  C   UNL A   1      44.387  26.266  28.069  1.00  0.00     0.016 A 
ATOM     44  C   UNL A   1      44.707  25.813  30.357  1.00  0.00     0.016 A 
ATOM     45  C   UNL A   1      43.278  27.094  28.438  1.00  0.00     0.010 A 
ATOM     46  C   UNL A   1      43.622  26.752  30.730  1.00  0.00     0.010 A 
ATOM     47  C   UNL A   1      42.859  27.449  29.780  1.00  0.00    -0.014 A 
BRANCH  47  48
ATOM     48  C   UNL A   1      41.888  28.778  29.927  1.00  0.00     0.031 A 
ATOM     49  C   UNL A   1      42.821  29.891  29.597  1.00  0.00     0.074 A 
ATOM     50  C   UNL A   1      40.642  29.281  30.351  1.00  0.00     0.049 A 
ATOM     51  N   UNL A   1      43.953  29.989  30.236  1.00  0.00    -0.248 NA
ATOM     52  C   UNL A   1      42.779  30.647  28.342  1.00  0.00     0.031 C 
ATOM     53  C   UNL A   1      39.546  28.573  31.037  1.00  0.00     0.029 A 
ATOM     54  N   UNL A   1      40.037  30.597  30.273  1.00  0.00    -0.354 N 
ATOM     55  C   UNL A   1      44.582  31.079  29.726  1.00  0.00     0.074 A 
ATOM     56  C   UNL A   1      43.970  31.255  28.417  1.00  0.00     0.031 C 
ATOM     57  C   UNL A   1      38.426  29.351  31.168  1.00  0.00     0.029 A 
ATOM     58  C   UNL A   1      38.636  30.700  30.638  1.00  0.00     0.049 A 
ATOM     59  H   UNL A   1      40.553  31.385  29.985  1.00  0.00     0.167 HD
ATOM     60  C   UNL A   1      44.969  32.008  30.644  1.00  0.00     0.034 A 
ATOM     61  C   UNL A   1      37.736  31.774  30.616  1.00  0.00     0.034 A 
ATOM     62  C   UNL A   1      44.224  33.228  30.534  1.00  0.00     0.049 A 
ATOM     63  C   UNL A   1      38.551  32.992  30.744  1.00  0.00     0.074 A 
ATOM     64  C   UNL A   1      43.743  33.952  29.459  1.00  0.00     0.029 A 
ATOM     65  N   UNL A   1      43.457  33.578  31.622  1.00  0.00    -0.354 N 
ATOM     66  N   UNL A   1      38.987  33.379  31.905  1.00  0.00    -0.248 NA
ATOM     67  C   UNL A   1      38.743  33.942  29.654  1.00  0.00     0.031 C 
ATOM     68  C   UNL A   1      42.414  34.279  29.810  1.00  0.00     0.029 A 
ATOM     69  C   UNL A   1      42.257  34.098  31.176  1.00  0.00     0.049 A 
ATOM     70  H   UNL A   1      43.721  33.474  32.565  1.00  0.00     0.167 HD
ATOM     71  C   UNL A   1      39.917  34.320  31.590  1.00  0.00     0.074 A 
ATOM     72  C   UNL A   1      39.537  34.813  30.281  1.00  0.00     0.031 C 
ATOM     73  C   UNL A   1      41.152  34.121  32.102  1.00  0.00     0.034 A 
BRANCH  60  74
ATOM     74  C   UNL A   1      45.520  31.422  31.931  1.00  0.00     0.023 A 
ATOM     75  C   UNL A   1      44.640  30.657  32.715  1.00  0.00     0.012 A 
ATOM     76  C   UNL A   1      46.778  31.785  32.483  1.00  0.00     0.148 A 
ATOM     77  C   UNL A   1      44.968  30.328  34.034  1.00  0.00     0.002 A 
ATOM     78  C   UNL A   1      47.041  31.567  33.832  1.00  0.00     0.091 A 
ATOM     79  F   UNL A   1      47.700  32.357  31.691  1.00  0.00    -0.205 F 
ATOM     80  C   UNL A   1      46.142  30.822  34.605  1.00  0.00     0.022 A 
BRANCH  78  81
ATOM     81  S   UNL A   1      48.377  32.426  34.694  1.00  0.00     0.127 S 
ATOM     82  O   UNL A   1      47.907  32.433  36.084  1.00  0.00    -0.237 OA
ATOM     83  O   UNL A   1      49.529  31.563  34.457  1.00  0.00    -0.237 OA
ATOM     84  O   UNL A   1      48.455  33.760  34.106  1.00  0.00    -0.744 OA
ENDBRANCH  78  81
ENDBRANCH  60  74
BRANCH  61  85
ATOM     85  C   UNL A   1      36.232  32.246  30.773  1.00  0.00     0.023 A 
ATOM     86  C   UNL A   1      35.723  32.463  32.107  1.00  0.00     0.012 A 
ATOM     87  C   UNL A   1      35.509  32.929  29.765  1.00  0.00     0.148 A 
ATOM     88  C   UNL A   1      34.696  33.372  32.434  1.00  0.00     0.002 A 
ATOM     89  C   UNL A   1      34.439  33.813  30.096  1.00  0.00     0.091 A 
ATOM     90  F   UNL A   1      35.925  32.808  28.498  1.00  0.00    -0.205 F 
ATOM     91  C   UNL A   1      34.060  34.060  31.424  1.00  0.00     0.022 A 
BRANCH  89  92
ATOM     92  S   UNL A   1      33.512  34.780  28.878  1.00  0.00     0.127 S 
ATOM     93  O   UNL A   1      32.728  35.688  29.718  1.00  0.00    -0.237 OA
ATOM     94  O   UNL A   1      34.584  35.430  28.127  1.00  0.00    -0.237 OA
ATOM     95  O   UNL A   1      32.720  33.809  28.138  1.00  0.00    -0.744 OA
ENDBRANCH  89  92
ENDBRANCH  61  85
BRANCH  73  96
ATOM     96  C   UNL A   1      41.255  33.662  33.541  1.00  0.00     0.023 A 
ATOM     97  C   UNL A   1      41.284  32.318  33.973  1.00  0.00     0.012 A 
ATOM     98  C   UNL A   1      41.347  34.664  34.518  1.00  0.00     0.148 A 
ATOM     99  C   UNL A   1      41.379  31.990  35.331  1.00  0.00     0.002 A 
ATOM    100  C   UNL A   1      41.505  34.340  35.861  1.00  0.00     0.091 A 
ATOM    101  F   UNL A   1      41.279  35.942  34.114  1.00  0.00    -0.205 F 
ATOM    102  C   UNL A   1      41.510  33.003  36.276  1.00  0.00     0.022 A 
BRANCH 100 103
ATOM    103  S   UNL A   1      41.765  35.636  37.071  1.00  0.00     0.127 S 
ATOM    104  O   UNL A   1      42.099  34.870  38.269  1.00  0.00    -0.237 OA
ATOM    105  O   UNL A   1      42.871  36.407  36.508  1.00  0.00    -0.237 OA
ATOM    106  O   UNL A   1      40.500  36.363  37.124  1.00  0.00    -0.744 OA
ENDBRANCH 100 103
ENDBRANCH  73  96
ENDBRANCH  47  48
ENDBRANCH  40  42
ENDBRANCH  39  40
ENDBRANCH  38  39
ENDBRANCH   1  38
TORSDOF 23
ENDMDL
MODEL 2
REMARK VINA RESULT:     -10.3      3.638      5.423
REMARK SMILES Cc1c(CC(=O)N[C@@H](CCO)C(=O)OCCOC(=O)c2ccc(-c3c4nc(c(-c5cccc(S(=O)(=O)[O-])c5F)c5ccc([nH]5)c(-c5cccc(S(=O)(=O)[O-])c5F)c5nc(c(-c6cccc(S(=O)(=O)[O-])c6F)c6ccc3[nH]6)C=C5)C=C4)cc2)cc(-c2ccc(S(C)(=O)=O)cc2)n1-c1ccc(F)cc1
REMARK SMILES IDX 15 1 14 2 12 3 13 4 8 5 7 6 5 7 6 8 4 10 3 11 1 12 2 13
REMARK SMILES IDX 95 14 83 15 84 16 96 17 97 18 102 19 98 20 101 21 99 22
REMARK SMILES IDX 100 23 85 24 86 25 94 26 87 27 93 28 88 29 89 30 90 31 91 32
REMARK SMILES IDX 92 33 9 34 10 35 11 36 16 38 17 39 18 40 19 41 20 42 21 43
REMARK SMILES IDX 82 44 22 45 81 46 23 47 24 48 25 49 75 50 26 51 80 52 74 53
REMARK SMILES IDX 76 54 27 55 79 56 73 57 72 58 28 60 60 61 40 62 59 63 41 64
REMARK SMILES IDX 44 65 58 66 77 67 42 68 43 69 57 71 78 72 45 73 29 74 30 75
REMARK SMILES IDX 38 76 31 77 33 78 39 79 32 80 34 81 35 82 36 83 37 84 61 85
REMARK SMILES IDX 62 86 70 87 63 88 65 89 71 90 64 91 66 92 67 93 68 94 69 95
REMARK SMILES IDX 46 96 47 97 55 98 48 99 50 100 56 101 49 102 51 103 52 104
REMARK SMILES IDX 53 105 54 106
REMARK H PARENT 7 9 11 37 76 59 44 70
REMARK Flexibility Score: inf
ROOT
ATOM      1  C   UNL A   1      45.105  24.403  24.946  1.00  0.00     0.274 C 
ENDROOT
BRANCH   1   2
ATOM      2  O   UNL A   1      44.777  23.241  25.758  1.00  0.00    -0.461 OA
BRANCH   2   3
ATOM      3  C   UNL A   1      43.983  22.289  25.183  1.00  0.00     0.328 C 
ATOM      4  O   UNL A   1      43.126  22.518  24.337  1.00  0.00    -0.250 OA
BRANCH   3   5
ATOM      5  C   UNL A   1      44.359  20.860  25.642  1.00  0.00     0.194 C 
BRANCH   5   6
ATOM      6  N   UNL A   1      43.378  19.810  25.355  1.00  0.00    -0.342 N 
ATOM      7  C   UNL A   1      42.346  19.359  26.128  1.00  0.00     0.225 C 
ATOM      8  O   UNL A   1      41.713  18.383  25.714  1.00  0.00    -0.275 OA
ATOM      9  H   UNL A   1      43.477  19.366  24.482  1.00  0.00     0.164 HD
BRANCH   7  10
ATOM     10  C   UNL A   1      41.991  20.047  27.441  1.00  0.00     0.137 C 
BRANCH  10  11
ATOM     11  C   UNL A   1      41.117  21.259  27.261  1.00  0.00    -0.017 A 
ATOM     12  C   UNL A   1      42.524  23.054  28.472  1.00  0.00     0.065 C 
ATOM     13  C   UNL A   1      41.381  22.570  27.637  1.00  0.00     0.024 A 
ATOM     14  N   UNL A   1      40.331  23.370  27.195  1.00  0.00    -0.314 N 
ATOM     15  C   UNL A   1      39.818  21.255  26.685  1.00  0.00     0.033 A 
ATOM     16  C   UNL A   1      39.372  22.558  26.582  1.00  0.00     0.053 A 
BRANCH  14  17
ATOM     17  C   UNL A   1      40.242  24.782  27.319  1.00  0.00     0.046 A 
ATOM     18  C   UNL A   1      39.549  25.339  28.404  1.00  0.00     0.029 A 
ATOM     19  C   UNL A   1      40.772  25.602  26.313  1.00  0.00     0.029 A 
ATOM     20  C   UNL A   1      39.387  26.721  28.480  1.00  0.00     0.041 A 
ATOM     21  C   UNL A   1      40.595  26.983  26.393  1.00  0.00     0.041 A 
ATOM     22  C   UNL A   1      39.906  27.529  27.473  1.00  0.00     0.123 A 
ATOM     23  F   UNL A   1      39.730  28.854  27.539  1.00  0.00    -0.207 F 
ENDBRANCH  14  17
BRANCH  16  24
ATOM     24  C   UNL A   1      38.169  23.038  25.886  1.00  0.00    -0.001 A 
ATOM     25  C   UNL A   1      37.332  24.001  26.474  1.00  0.00     0.011 A 
ATOM     26  C   UNL A   1      37.838  22.532  24.623  1.00  0.00     0.011 A 
ATOM     27  C   UNL A   1      36.144  24.390  25.852  1.00  0.00     0.021 A 
ATOM     28  C   UNL A   1      36.653  22.922  23.989  1.00  0.00     0.021 A 
ATOM     29  C   UNL A   1      35.799  23.826  24.623  1.00  0.00     0.067 A 
BRANCH  29  30
ATOM     30  S   UNL A   1      34.254  24.271  23.869  1.00  0.00     0.175 S 
ATOM     31  C   UNL A   1      33.081  23.187  24.643  1.00  0.00     0.163 C 
ATOM     32  O   UNL A   1      33.948  25.632  24.286  1.00  0.00    -0.224 OA
ATOM     33  O   UNL A   1      34.314  23.916  22.469  1.00  0.00    -0.224 OA
ENDBRANCH  29  30
ENDBRANCH  16  24
ENDBRANCH  10  11
ENDBRANCH   7  10
ENDBRANCH   5   6
BRANCH   5  34
ATOM     34  C   UNL A   1      45.772  20.406  25.222  1.00  0.00     0.065 C 
BRANCH  34  35
ATOM     35  C   UNL A   1      45.870  19.016  24.601  1.00  0.00     0.159 C 
BRANCH  35  36
ATOM     36  O   UNL A   1      45.695  17.995  25.566  1.00  0.00    -0.396 OA
ATOM     37  H   UNL A   1      46.353  18.101  26.272  1.00  0.00     0.210 HD
ENDBRANCH  35  36
ENDBRANCH  34  35
ENDBRANCH   5  34
ENDBRANCH   3   5
ENDBRANCH   2   3
ENDBRANCH   1   2
BRANCH   1  38
ATOM     38  C   UNL A   1      46.620  24.445  24.605  1.00  0.00     0.275 C 
BRANCH  38  39
ATOM     39  O   UNL A   1      47.488  25.349  25.374  1.00  0.00    -0.458 OA
BRANCH  39  40
ATOM     40  C   UNL A   1      47.513  25.180  26.735  1.00  0.00     0.338 C 
ATOM     41  O   UNL A   1      47.932  24.155  27.257  1.00  0.00    -0.246 OA
BRANCH  40  42
ATOM     42  C   UNL A   1      47.118  26.422  27.545  1.00  0.00     0.060 A 
ATOM     43  C   UNL A   1      45.876  26.975  27.293  1.00  0.00     0.016 A 
ATOM     44  C   UNL A   1      47.940  27.185  28.405  1.00  0.00     0.016 A 
ATOM     45  C   UNL A   1      45.469  28.197  27.919  1.00  0.00     0.010 A 
ATOM     46  C   UNL A   1      47.543  28.499  28.965  1.00  0.00     0.010 A 
ATOM     47  C   UNL A   1      46.284  29.075  28.737  1.00  0.00    -0.014 A 
BRANCH  47  48
ATOM     48  C   UNL A   1      45.746  30.627  28.924  1.00  0.00     0.031 A 
ATOM     49  C   UNL A   1      45.894  30.839  30.390  1.00  0.00     0.074 A 
ATOM     50  C   UNL A   1      45.106  31.728  28.323  1.00  0.00     0.049 A 
ATOM     51  N   UNL A   1      45.355  29.988  31.219  1.00  0.00    -0.248 NA
ATOM     52  C   UNL A   1      46.931  31.681  30.993  1.00  0.00     0.031 C 
ATOM     53  C   UNL A   1      44.505  31.826  26.980  1.00  0.00     0.029 A 
ATOM     54  N   UNL A   1      44.823  33.072  28.788  1.00  0.00    -0.354 N 
ATOM     55  C   UNL A   1      45.655  30.434  32.466  1.00  0.00     0.074 A 
ATOM     56  C   UNL A   1      46.827  31.274  32.265  1.00  0.00     0.031 C 
ATOM     57  C   UNL A   1      44.098  33.100  26.684  1.00  0.00     0.029 A 
ATOM     58  C   UNL A   1      44.318  34.016  27.806  1.00  0.00     0.049 A 
ATOM     59  H   UNL A   1      44.967  33.334  29.726  1.00  0.00     0.167 HD
ATOM     60  C   UNL A   1      44.586  30.605  33.294  1.00  0.00     0.034 A 
ATOM     61  C   UNL A   1      44.010  35.380  27.887  1.00  0.00     0.034 A 
ATOM     62  C   UNL A   1      44.343  31.985  33.594  1.00  0.00     0.049 A 
ATOM     63  C   UNL A   1      43.679  35.641  29.297  1.00  0.00     0.074 A 
ATOM     64  C   UNL A   1      45.174  33.063  33.840  1.00  0.00     0.029 A 
ATOM     65  N   UNL A   1      43.139  32.502  33.173  1.00  0.00    -0.354 N 
ATOM     66  N   UNL A   1      42.504  35.346  29.767  1.00  0.00    -0.248 NA
ATOM     67  C   UNL A   1      44.533  36.420  30.186  1.00  0.00     0.031 C 
ATOM     68  C   UNL A   1      44.638  34.115  33.065  1.00  0.00     0.029 A 
ATOM     69  C   UNL A   1      43.342  33.784  32.699  1.00  0.00     0.049 A 
ATOM     70  H   UNL A   1      42.273  32.033  33.206  1.00  0.00     0.167 HD
ATOM     71  C   UNL A   1      42.676  35.437  31.113  1.00  0.00     0.074 A 
ATOM     72  C   UNL A   1      43.797  36.340  31.296  1.00  0.00     0.031 C 
ATOM     73  C   UNL A   1      42.338  34.340  31.825  1.00  0.00     0.034 A 
BRANCH  60  74
ATOM     74  C   UNL A   1      43.524  29.526  33.173  1.00  0.00     0.023 A 
ATOM     75  C   UNL A   1      42.355  29.855  32.468  1.00  0.00     0.012 A 
ATOM     76  C   UNL A   1      43.553  28.311  33.910  1.00  0.00     0.148 A 
ATOM     77  C   UNL A   1      41.222  29.040  32.553  1.00  0.00     0.002 A 
ATOM     78  C   UNL A   1      42.386  27.576  34.094  1.00  0.00     0.091 A 
ATOM     79  F   UNL A   1      44.716  27.894  34.438  1.00  0.00    -0.205 F 
ATOM     80  C   UNL A   1      41.223  27.931  33.401  1.00  0.00     0.022 A 
BRANCH  78  81
ATOM     81  S   UNL A   1      42.242  26.328  35.394  1.00  0.00     0.127 S 
ATOM     82  O   UNL A   1      42.674  27.063  36.589  1.00  0.00    -0.237 OA
ATOM     83  O   UNL A   1      40.821  25.999  35.376  1.00  0.00    -0.237 OA
ATOM     84  O   UNL A   1      43.148  25.245  35.026  1.00  0.00    -0.744 OA
ENDBRANCH  78  81
ENDBRANCH  60  74
BRANCH  61  85
ATOM     85  C   UNL A   1      43.612  36.697  27.102  1.00  0.00     0.023 A 
ATOM     86  C   UNL A   1      42.225  37.098  27.106  1.00  0.00     0.012 A 
ATOM     87  C   UNL A   1      44.513  37.752  26.822  1.00  0.00     0.148 A 
ATOM     88  C   UNL A   1      41.776  38.430  26.987  1.00  0.00     0.002 A 
ATOM     89  C   UNL A   1      44.051  39.092  26.656  1.00  0.00     0.091 A 
ATOM     90  F   UNL A   1      45.824  37.480  26.823  1.00  0.00    -0.205 F 
ATOM     91  C   UNL A   1      42.695  39.433  26.775  1.00  0.00     0.022 A 
BRANCH  89  92
ATOM     92  S   UNL A   1      45.140  40.510  26.370  1.00  0.00     0.127 S 
ATOM     93  O   UNL A   1      44.202  41.634  26.335  1.00  0.00    -0.237 OA
ATOM     94  O   UNL A   1      45.998  40.479  27.553  1.00  0.00    -0.237 OA
ATOM     95  O   UNL A   1      45.801  40.238  25.102  1.00  0.00    -0.744 OA
ENDBRANCH  89  92
ENDBRANCH  61  85
BRANCH  73  96
ATOM     96  C   UNL A   1      41.060  33.621  31.451  1.00  0.00     0.023 A 
ATOM     97  C   UNL A   1      40.928  32.667  30.418  1.00  0.00     0.012 A 
ATOM     98  C   UNL A   1      39.921  33.920  32.214  1.00  0.00     0.148 A 
ATOM     99  C   UNL A   1      39.699  32.055  30.144  1.00  0.00     0.002 A 
ATOM    100  C   UNL A   1      38.716  33.267  31.984  1.00  0.00     0.091 A 
ATOM    101  F   UNL A   1      40.035  34.855  33.170  1.00  0.00    -0.205 F 
ATOM    102  C   UNL A   1      38.594  32.339  30.942  1.00  0.00     0.022 A 
BRANCH 100 103
ATOM    103  S   UNL A   1      37.317  33.562  33.064  1.00  0.00     0.127 S 
ATOM    104  O   UNL A   1      37.141  35.008  32.945  1.00  0.00    -0.237 OA
ATOM    105  O   UNL A   1      36.251  32.764  32.463  1.00  0.00    -0.237 OA
ATOM    106  O   UNL A   1      37.746  33.089  34.377  1.00  0.00    -0.744 OA
ENDBRANCH 100 103
ENDBRANCH  73  96
ENDBRANCH  47  48
ENDBRANCH  40  42
ENDBRANCH  39  40
ENDBRANCH  38  39
ENDBRANCH   1  38
TORSDOF 23
ENDMDL
MODEL 3
REMARK VINA RESULT:      -9.9      3.563      7.857
REMARK SMILES Cc1c(CC(=O)N[C@@H](CCO)C(=O)OCCOC(=O)c2ccc(-c3c4nc(c(-c5cccc(S(=O)(=O)[O-])c5F)c5ccc([nH]5)c(-c5cccc(S(=O)(=O)[O-])c5F)c5nc(c(-c6cccc(S(=O)(=O)[O-])c6F)c6ccc3[nH]6)C=C5)C=C4)cc2)cc(-c2ccc(S(C)(=O)=O)cc2)n1-c1ccc(F)cc1
REMARK SMILES IDX 15 1 14 2 12 3 13 4 8 5 7 6 5 7 6 8 4 10 3 11 1 12 2 13
REMARK SMILES IDX 95 14 83 15 84 16 96 17 97 18 102 19 98 20 101 21 99 22
REMARK SMILES IDX 100 23 85 24 86 25 94 26 87 27 93 28 88 29 89 30 90 31 91 32
REMARK SMILES IDX 92 33 9 34 10 35 11 36 16 38 17 39 18 40 19 41 20 42 21 43
REMARK SMILES IDX 82 44 22 45 81 46 23 47 24 48 25 49 75 50 26 51 80 52 74 53
REMARK SMILES IDX 76 54 27 55 79 56 73 57 72 58 28 60 60 61 40 62 59 63 41 64
REMARK SMILES IDX 44 65 58 66 77 67 42 68 43 69 57 71 78 72 45 73 29 74 30 75
REMARK SMILES IDX 38 76 31 77 33 78 39 79 32 80 34 81 35 82 36 83 37 84 61 85
REMARK SMILES IDX 62 86 70 87 63 88 65 89 71 90 64 91 66 92 67 93 68 94 69 95
REMARK SMILES IDX 46 96 47 97 55 98 48 99 50 100 56 101 49 102 51 103 52 104
REMARK SMILES IDX 53 105 54 106
REMARK H PARENT 7 9 11 37 76 59 44 70
REMARK Flexibility Score: inf
ROOT
ATOM      1  C   UNL A   1      35.921  20.740  25.041  1.00  0.00     0.274 C 
ENDROOT
BRANCH   1   2
ATOM      2  O   UNL A   1      35.154  21.553  24.108  1.00  0.00    -0.461 OA
BRANCH   2   3
ATOM      3  C   UNL A   1      33.794  21.423  24.147  1.00  0.00     0.328 C 
ATOM      4  O   UNL A   1      33.050  21.627  23.195  1.00  0.00    -0.250 OA
BRANCH   3   5
ATOM      5  C   UNL A   1      33.299  20.878  25.508  1.00  0.00     0.194 C 
BRANCH   5   6
ATOM      6  N   UNL A   1      32.377  21.741  26.252  1.00  0.00    -0.342 N 
ATOM      7  C   UNL A   1      32.557  23.024  26.686  1.00  0.00     0.225 C 
ATOM      8  O   UNL A   1      31.670  23.511  27.392  1.00  0.00    -0.275 OA
ATOM      9  H   UNL A   1      31.506  21.339  26.470  1.00  0.00     0.164 HD
BRANCH   7  10
ATOM     10  C   UNL A   1      33.801  23.814  26.300  1.00  0.00     0.137 C 
BRANCH  10  11
ATOM     11  C   UNL A   1      33.504  25.233  25.896  1.00  0.00    -0.017 A 
ATOM     12  C   UNL A   1      32.067  24.845  23.787  1.00  0.00     0.065 C 
ATOM     13  C   UNL A   1      32.694  25.678  24.859  1.00  0.00     0.024 A 
ATOM     14  N   UNL A   1      32.643  27.068  24.912  1.00  0.00    -0.314 N 
ATOM     15  C   UNL A   1      34.050  26.393  26.512  1.00  0.00     0.033 A 
ATOM     16  C   UNL A   1      33.463  27.511  25.953  1.00  0.00     0.053 A 
BRANCH  14  17
ATOM     17  C   UNL A   1      31.872  27.912  24.069  1.00  0.00     0.046 A 
ATOM     18  C   UNL A   1      30.478  27.952  24.218  1.00  0.00     0.029 A 
ATOM     19  C   UNL A   1      32.501  28.630  23.042  1.00  0.00     0.029 A 
ATOM     20  C   UNL A   1      29.713  28.714  23.336  1.00  0.00     0.041 A 
ATOM     21  C   UNL A   1      31.725  29.380  22.158  1.00  0.00     0.041 A 
ATOM     22  C   UNL A   1      30.343  29.415  22.313  1.00  0.00     0.123 A 
ATOM     23  F   UNL A   1      29.603  30.129  21.455  1.00  0.00    -0.207 F 
ENDBRANCH  14  17
BRANCH  16  24
ATOM     24  C   UNL A   1      33.590  28.905  26.404  1.00  0.00    -0.001 A 
ATOM     25  C   UNL A   1      34.822  29.409  26.850  1.00  0.00     0.011 A 
ATOM     26  C   UNL A   1      32.472  29.749  26.401  1.00  0.00     0.011 A 
ATOM     27  C   UNL A   1      34.921  30.706  27.360  1.00  0.00     0.021 A 
ATOM     28  C   UNL A   1      32.564  31.052  26.904  1.00  0.00     0.021 A 
ATOM     29  C   UNL A   1      33.782  31.510  27.408  1.00  0.00     0.067 A 
BRANCH  29  30
ATOM     30  S   UNL A   1      33.897  33.132  28.123  1.00  0.00     0.175 S 
ATOM     31  C   UNL A   1      34.320  32.816  29.817  1.00  0.00     0.163 C 
ATOM     32  O   UNL A   1      35.029  33.799  27.496  1.00  0.00    -0.224 OA
ATOM     33  O   UNL A   1      32.580  33.728  28.109  1.00  0.00    -0.224 OA
ENDBRANCH  29  30
ENDBRANCH  16  24
ENDBRANCH  10  11
ENDBRANCH   7  10
ENDBRANCH   5   6
BRANCH   5  34
ATOM     34  C   UNL A   1      32.763  19.433  25.460  1.00  0.00     0.065 C 
BRANCH  34  35
ATOM     35  C   UNL A   1      33.204  18.595  24.264  1.00  0.00     0.159 C 
BRANCH  35  36
ATOM     36  O   UNL A   1      32.244  18.619  23.223  1.00  0.00    -0.396 OA
ATOM     37  H   UNL A   1      32.286  17.786  22.726  1.00  0.00     0.210 HD
ENDBRANCH  35  36
ENDBRANCH  34  35
ENDBRANCH   5  34
ENDBRANCH   3   5
ENDBRANCH   2   3
ENDBRANCH   1   2
BRANCH   1  38
ATOM     38  C   UNL A   1      37.386  21.243  25.157  1.00  0.00     0.275 C 
BRANCH  38  39
ATOM     39  O   UNL A   1      38.303  20.531  26.058  1.00  0.00    -0.458 OA
BRANCH  39  40
ATOM     40  C   UNL A   1      39.557  21.065  26.216  1.00  0.00     0.338 C 
ATOM     41  O   UNL A   1      40.574  20.415  26.008  1.00  0.00    -0.246 OA
BRANCH  40  42
ATOM     42  C   UNL A   1      39.582  22.568  26.527  1.00  0.00     0.060 A 
ATOM     43  C   UNL A   1      40.634  23.041  27.290  1.00  0.00     0.016 A 
ATOM     44  C   UNL A   1      38.563  23.515  26.275  1.00  0.00     0.016 A 
ATOM     45  C   UNL A   1      40.680  24.406  27.723  1.00  0.00     0.010 A 
ATOM     46  C   UNL A   1      38.576  24.896  26.814  1.00  0.00     0.010 A 
ATOM     47  C   UNL A   1      39.638  25.405  27.578  1.00  0.00    -0.014 A 
BRANCH  47  48
ATOM     48  C   UNL A   1      39.731  26.723  28.571  1.00  0.00     0.031 A 
ATOM     49  C   UNL A   1      40.757  27.560  27.891  1.00  0.00     0.074 A 
ATOM     50  C   UNL A   1      39.363  27.290  29.807  1.00  0.00     0.049 A 
ATOM     51  N   UNL A   1      41.914  27.040  27.592  1.00  0.00    -0.248 NA
ATOM     52  C   UNL A   1      40.449  28.790  27.155  1.00  0.00     0.031 C 
ATOM     53  C   UNL A   1      38.620  26.673  30.921  1.00  0.00     0.029 A 
ATOM     54  N   UNL A   1      39.580  28.601  30.388  1.00  0.00    -0.354 N 
ATOM     55  C   UNL A   1      42.626  28.025  26.987  1.00  0.00     0.074 A 
ATOM     56  C   UNL A   1      41.608  28.945  26.501  1.00  0.00     0.031 C 
ATOM     57  C   UNL A   1      38.322  27.573  31.910  1.00  0.00     0.029 A 
ATOM     58  C   UNL A   1      38.871  28.900  31.620  1.00  0.00     0.049 A 
ATOM     59  H   UNL A   1      40.179  29.259  29.967  1.00  0.00     0.167 HD
ATOM     60  C   UNL A   1      43.847  28.279  27.536  1.00  0.00     0.034 A 
ATOM     61  C   UNL A   1      38.794  30.061  32.400  1.00  0.00     0.034 A 
ATOM     62  C   UNL A   1      43.903  29.562  28.173  1.00  0.00     0.049 A 
ATOM     63  C   UNL A   1      40.036  30.809  32.145  1.00  0.00     0.074 A 
ATOM     64  C   UNL A   1      43.376  30.801  27.859  1.00  0.00     0.029 A 
ATOM     65  N   UNL A   1      44.133  29.563  29.530  1.00  0.00    -0.354 N 
ATOM     66  N   UNL A   1      41.142  30.480  32.741  1.00  0.00    -0.248 NA
ATOM     67  C   UNL A   1      40.073  32.062  31.400  1.00  0.00     0.031 C 
ATOM     68  C   UNL A   1      42.823  31.276  29.069  1.00  0.00     0.029 A 
ATOM     69  C   UNL A   1      43.346  30.535  30.118  1.00  0.00     0.049 A 
ATOM     70  H   UNL A   1      44.758  28.968  30.004  1.00  0.00     0.167 HD
ATOM     71  C   UNL A   1      42.087  31.166  32.044  1.00  0.00     0.074 A 
ATOM     72  C   UNL A   1      41.387  32.292  31.455  1.00  0.00     0.031 C 
ATOM     73  C   UNL A   1      43.096  30.426  31.534  1.00  0.00     0.034 A 
BRANCH  60  74
ATOM     74  C   UNL A   1      44.604  27.039  27.978  1.00  0.00     0.023 A 
ATOM     75  C   UNL A   1      44.577  26.727  29.347  1.00  0.00     0.012 A 
ATOM     76  C   UNL A   1      45.501  26.327  27.137  1.00  0.00     0.148 A 
ATOM     77  C   UNL A   1      45.468  25.788  29.877  1.00  0.00     0.002 A 
ATOM     78  C   UNL A   1      46.468  25.493  27.690  1.00  0.00     0.091 A 
ATOM     79  F   UNL A   1      45.413  26.482  25.805  1.00  0.00    -0.205 F 
ATOM     80  C   UNL A   1      46.441  25.210  29.061  1.00  0.00     0.022 A 
BRANCH  78  81
ATOM     81  S   UNL A   1      47.918  24.962  26.751  1.00  0.00     0.127 S 
ATOM     82  O   UNL A   1      48.397  26.220  26.167  1.00  0.00    -0.237 OA
ATOM     83  O   UNL A   1      48.791  24.410  27.781  1.00  0.00    -0.237 OA
ATOM     84  O   UNL A   1      47.436  24.011  25.754  1.00  0.00    -0.744 OA
ENDBRANCH  78  81
ENDBRANCH  60  74
BRANCH  61  85
ATOM     85  C   UNL A   1      38.094  30.796  33.616  1.00  0.00     0.023 A 
ATOM     86  C   UNL A   1      38.829  30.915  34.854  1.00  0.00     0.012 A 
ATOM     87  C   UNL A   1      37.056  31.748  33.473  1.00  0.00     0.148 A 
ATOM     88  C   UNL A   1      38.656  31.953  35.792  1.00  0.00     0.002 A 
ATOM     89  C   UNL A   1      36.853  32.770  34.447  1.00  0.00     0.091 A 
ATOM     90  F   UNL A   1      36.336  31.732  32.345  1.00  0.00    -0.205 F 
ATOM     91  C   UNL A   1      37.672  32.893  35.581  1.00  0.00     0.022 A 
BRANCH  89  92
ATOM     92  S   UNL A   1      35.599  34.069  34.306  1.00  0.00     0.127 S 
ATOM     93  O   UNL A   1      36.238  35.037  33.413  1.00  0.00    -0.237 OA
ATOM     94  O   UNL A   1      34.479  33.345  33.707  1.00  0.00    -0.237 OA
ATOM     95  O   UNL A   1      35.388  34.549  35.664  1.00  0.00    -0.744 OA
ENDBRANCH  89  92
ENDBRANCH  61  85
BRANCH  73  96
ATOM     96  C   UNL A   1      43.692  29.345  32.411  1.00  0.00     0.023 A 
ATOM     97  C   UNL A   1      43.182  28.037  32.560  1.00  0.00     0.012 A 
ATOM     98  C   UNL A   1      44.860  29.676  33.114  1.00  0.00     0.148 A 
ATOM     99  C   UNL A   1      43.804  27.104  33.399  1.00  0.00     0.002 A 
ATOM    100  C   UNL A   1      45.513  28.731  33.898  1.00  0.00     0.091 A 
ATOM    101  F   UNL A   1      45.324  30.930  33.005  1.00  0.00    -0.205 F 
ATOM    102  C   UNL A   1      44.984  27.445  34.054  1.00  0.00     0.022 A 
BRANCH 100 103
ATOM    103  S   UNL A   1      47.079  29.136  34.669  1.00  0.00     0.127 S 
ATOM    104  O   UNL A   1      47.366  27.921  35.428  1.00  0.00    -0.237 OA
ATOM    105  O   UNL A   1      47.965  29.372  33.532  1.00  0.00    -0.237 OA
ATOM    106  O   UNL A   1      46.809  30.327  35.471  1.00  0.00    -0.744 OA
ENDBRANCH 100 103
ENDBRANCH  73  96
ENDBRANCH  47  48
ENDBRANCH  40  42
ENDBRANCH  39  40
ENDBRANCH  38  39
ENDBRANCH   1  38
TORSDOF 23
ENDMDL
