MODEL 1
REMARK VINA RESULT:     -14.1      0.000      0.000
REMARK SMILES Cc1cc(/C=C2/C(=O)NC(=S)N=C2OCCOC(=O)c2ccc(-c3c4nc(c(-c5cccc(S(=O)(=O)[O-])c5F)c5ccc([nH]5)c(-c5cccc(S(=O)(=O)[O-])c5F)c5nc(c(-c6cccc(S(=O)(=O)[O-])c6F)c6ccc3[nH]6)C=C5)C=C4)cc2)c(C)n1-c1cccc(C(=O)[O-])c1
REMARK SMILES IDX 16 1 15 2 14 3 13 4 5 5 6 6 7 7 8 8 9 9 12 10 10 11 11 13
REMARK SMILES IDX 4 14 1 15 2 16 3 17 85 18 83 19 84 20 86 21 87 22 94 23
REMARK SMILES IDX 88 24 90 25 89 26 91 27 92 28 93 29 17 30 18 31 19 32 20 33
REMARK SMILES IDX 21 34 82 35 22 36 81 37 23 38 24 39 25 40 75 41 26 42 80 43
REMARK SMILES IDX 74 44 76 45 27 46 79 47 73 48 72 49 28 51 60 52 40 53 59 54
REMARK SMILES IDX 41 55 44 56 58 57 77 58 42 59 43 60 57 62 78 63 45 64 29 65
REMARK SMILES IDX 30 66 38 67 31 68 33 69 39 70 32 71 34 72 35 73 36 74 37 75
REMARK SMILES IDX 61 76 62 77 70 78 63 79 65 80 71 81 64 82 66 83 67 84 68 85
REMARK SMILES IDX 69 86 46 87 47 88 55 89 48 90 50 91 56 92 49 93 51 94 52 95
REMARK SMILES IDX 53 96 54 97
REMARK H PARENT 9 12 76 50 44 61
REMARK Flexibility Score: inf
ROOT
ATOM      1  C   UNL A   1      37.814  23.479  26.013  1.00  0.00     0.274 C 
ENDROOT
BRANCH   1   2
ATOM      2  C   UNL A   1      36.848  23.420  24.752  1.00  0.00     0.273 C 
BRANCH   2   3
ATOM      3  O   UNL A   1      35.542  24.051  24.930  1.00  0.00    -0.473 OA
BRANCH   3   4
ATOM      4  C   UNL A   1      34.555  23.180  25.209  1.00  0.00     0.229 C 
ATOM      5  C   UNL A   1      32.858  24.836  26.291  1.00  0.00     0.029 C 
ATOM      6  C   UNL A   1      33.509  23.655  26.137  1.00  0.00     0.103 C 
ATOM      7  C   UNL A   1      33.001  22.531  26.988  1.00  0.00     0.262 C 
ATOM      8  O   UNL A   1      32.295  22.683  27.979  1.00  0.00    -0.269 OA
ATOM      9  N   UNL A   1      33.300  21.277  26.516  1.00  0.00    -0.297 N 
ATOM     10  N   UNL A   1      34.667  21.979  24.762  1.00  0.00    -0.184 NA
ATOM     11  C   UNL A   1      33.992  20.982  25.374  1.00  0.00     0.203 C 
ATOM     12  H   UNL A   1      32.985  20.515  27.053  1.00  0.00     0.172 HD
ATOM     13  S   UNL A   1      34.081  19.389  24.865  1.00  0.00    -0.038 S 
BRANCH   5  14
ATOM     14  C   UNL A   1      32.884  26.112  25.616  1.00  0.00    -0.003 A 
ATOM     15  C   UNL A   1      34.145  28.480  22.993  1.00  0.00     0.065 C 
ATOM     16  C   UNL A   1      33.483  27.704  24.088  1.00  0.00     0.020 A 
ATOM     17  C   UNL A   1      33.744  26.415  24.519  1.00  0.00     0.031 A 
ATOM     18  N   UNL A   1      32.463  28.204  24.887  1.00  0.00    -0.318 N 
ATOM     19  C   UNL A   1      32.243  27.298  25.940  1.00  0.00     0.027 A 
ATOM     20  C   UNL A   1      31.351  27.597  27.096  1.00  0.00     0.065 C 
BRANCH  18  21
ATOM     21  C   UNL A   1      31.637  29.332  24.593  1.00  0.00     0.046 A 
ATOM     22  C   UNL A   1      31.681  30.470  25.405  1.00  0.00     0.026 A 
ATOM     23  C   UNL A   1      30.632  29.208  23.622  1.00  0.00     0.036 A 
ATOM     24  C   UNL A   1      30.636  31.390  25.384  1.00  0.00     0.003 A 
ATOM     25  C   UNL A   1      29.605  30.163  23.570  1.00  0.00    -0.001 A 
ATOM     26  C   UNL A   1      29.586  31.221  24.489  1.00  0.00     0.010 A 
BRANCH  25  27
ATOM     27  C   UNL A   1      28.495  30.079  22.598  1.00  0.00     0.072 C 
ATOM     28  O   UNL A   1      28.610  29.788  21.407  1.00  0.00    -0.545 OA
ATOM     29  O   UNL A   1      27.292  30.312  23.137  1.00  0.00    -0.545 OA
ENDBRANCH  25  27
ENDBRANCH  18  21
ENDBRANCH   5  14
ENDBRANCH   3   4
ENDBRANCH   2   3
ENDBRANCH   1   2
BRANCH   1  30
ATOM     30  O   UNL A   1      38.386  24.734  26.698  1.00  0.00    -0.458 OA
BRANCH  30  31
ATOM     31  C   UNL A   1      39.459  24.762  27.612  1.00  0.00     0.338 C 
ATOM     32  O   UNL A   1      40.320  23.887  27.556  1.00  0.00    -0.246 OA
BRANCH  31  33
ATOM     33  C   UNL A   1      39.549  25.945  28.756  1.00  0.00     0.060 A 
ATOM     34  C   UNL A   1      38.563  26.519  29.650  1.00  0.00     0.016 A 
ATOM     35  C   UNL A   1      40.682  26.652  28.954  1.00  0.00     0.016 A 
ATOM     36  C   UNL A   1      38.727  27.720  30.782  1.00  0.00     0.010 A 
ATOM     37  C   UNL A   1      40.764  27.733  30.033  1.00  0.00     0.010 A 
ATOM     38  C   UNL A   1      39.906  28.478  31.103  1.00  0.00    -0.014 A 
BRANCH  38  39
ATOM     39  C   UNL A   1      40.484  29.106  32.841  1.00  0.00     0.031 A 
ATOM     40  C   UNL A   1      41.935  29.016  32.484  1.00  0.00     0.074 A 
ATOM     41  C   UNL A   1      40.297  29.991  34.191  1.00  0.00     0.049 A 
ATOM     42  N   UNL A   1      42.078  29.232  31.189  1.00  0.00    -0.248 NA
ATOM     43  C   UNL A   1      43.033  29.660  33.168  1.00  0.00     0.031 C 
ATOM     44  C   UNL A   1      39.072  30.641  34.784  1.00  0.00     0.029 A 
ATOM     45  N   UNL A   1      41.268  30.652  35.419  1.00  0.00    -0.354 N 
ATOM     46  C   UNL A   1      42.006  30.601  31.275  1.00  0.00     0.074 A 
ATOM     47  C   UNL A   1      43.187  30.607  32.209  1.00  0.00     0.031 C 
ATOM     48  C   UNL A   1      39.220  31.587  35.784  1.00  0.00     0.029 A 
ATOM     49  C   UNL A   1      40.610  31.865  36.306  1.00  0.00     0.049 A 
ATOM     50  H   UNL A   1      42.180  30.322  35.591  1.00  0.00     0.167 HD
ATOM     51  C   UNL A   1      40.864  31.494  31.270  1.00  0.00     0.034 A 
ATOM     52  C   UNL A   1      40.858  32.997  37.351  1.00  0.00     0.034 A 
ATOM     53  C   UNL A   1      41.345  32.830  31.471  1.00  0.00     0.049 A 
ATOM     54  C   UNL A   1      40.644  34.098  36.375  1.00  0.00     0.074 A 
ATOM     55  C   UNL A   1      42.374  33.242  32.291  1.00  0.00     0.029 A 
ATOM     56  N   UNL A   1      40.404  33.808  31.716  1.00  0.00    -0.354 N 
ATOM     57  N   UNL A   1      39.578  34.765  36.071  1.00  0.00    -0.248 NA
ATOM     58  C   UNL A   1      41.895  34.536  35.720  1.00  0.00     0.031 C 
ATOM     59  C   UNL A   1      41.554  33.159  33.423  1.00  0.00     0.029 A 
ATOM     60  C   UNL A   1      40.376  33.838  33.078  1.00  0.00     0.049 A 
ATOM     61  H   UNL A   1      39.886  34.345  31.074  1.00  0.00     0.167 HD
ATOM     62  C   UNL A   1      39.963  35.264  34.835  1.00  0.00     0.074 A 
ATOM     63  C   UNL A   1      41.411  35.454  34.890  1.00  0.00     0.031 C 
ATOM     64  C   UNL A   1      39.393  34.593  33.786  1.00  0.00     0.034 A 
BRANCH  51  65
ATOM     65  C   UNL A   1      39.070  31.400  31.142  1.00  0.00     0.023 A 
ATOM     66  C   UNL A   1      38.084  31.205  32.186  1.00  0.00     0.012 A 
ATOM     67  C   UNL A   1      38.483  31.154  29.869  1.00  0.00     0.148 A 
ATOM     68  C   UNL A   1      36.840  30.531  32.044  1.00  0.00     0.002 A 
ATOM     69  C   UNL A   1      37.181  30.601  29.712  1.00  0.00     0.091 A 
ATOM     70  F   UNL A   1      39.239  31.353  28.782  1.00  0.00    -0.205 F 
ATOM     71  C   UNL A   1      36.410  30.183  30.795  1.00  0.00     0.022 A 
BRANCH  69  72
ATOM     72  S   UNL A   1      36.414  30.391  28.104  1.00  0.00     0.127 S 
ATOM     73  O   UNL A   1      37.497  29.786  27.328  1.00  0.00    -0.237 OA
ATOM     74  O   UNL A   1      35.292  29.496  28.377  1.00  0.00    -0.237 OA
ATOM     75  O   UNL A   1      36.027  31.737  27.695  1.00  0.00    -0.744 OA
ENDBRANCH  69  72
ENDBRANCH  51  65
BRANCH  52  76
ATOM     76  C   UNL A   1      41.577  34.136  38.583  1.00  0.00     0.023 A 
ATOM     77  C   UNL A   1      42.794  33.833  39.273  1.00  0.00     0.012 A 
ATOM     78  C   UNL A   1      40.922  35.240  39.394  1.00  0.00     0.148 A 
ATOM     79  C   UNL A   1      43.331  34.604  40.420  1.00  0.00     0.002 A 
ATOM     80  C   UNL A   1      41.492  36.059  40.429  1.00  0.00     0.091 A 
ATOM     81  F   UNL A   1      39.607  35.417  39.405  1.00  0.00    -0.205 F 
ATOM     82  C   UNL A   1      42.718  35.740  40.954  1.00  0.00     0.022 A 
BRANCH  80  83
ATOM     83  S   UNL A   1      40.604  37.510  41.174  1.00  0.00     0.127 S 
ATOM     84  O   UNL A   1      41.594  38.090  42.085  1.00  0.00    -0.237 OA
ATOM     85  O   UNL A   1      40.337  38.325  39.989  1.00  0.00    -0.237 OA
ATOM     86  O   UNL A   1      39.418  36.987  41.840  1.00  0.00    -0.744 OA
ENDBRANCH  80  83
ENDBRANCH  52  76
BRANCH  64  87
ATOM     87  C   UNL A   1      37.891  34.468  33.852  1.00  0.00     0.023 A 
ATOM     88  C   UNL A   1      37.368  34.091  35.101  1.00  0.00     0.012 A 
ATOM     89  C   UNL A   1      36.972  34.553  32.791  1.00  0.00     0.148 A 
ATOM     90  C   UNL A   1      36.022  33.767  35.268  1.00  0.00     0.002 A 
ATOM     91  C   UNL A   1      35.645  34.128  32.919  1.00  0.00     0.091 A 
ATOM     92  F   UNL A   1      37.377  35.080  31.649  1.00  0.00    -0.205 F 
ATOM     93  C   UNL A   1      35.168  33.754  34.174  1.00  0.00     0.022 A 
BRANCH  91  94
ATOM     94  S   UNL A   1      34.559  33.785  31.505  1.00  0.00     0.127 S 
ATOM     95  O   UNL A   1      34.008  32.468  31.843  1.00  0.00    -0.237 OA
ATOM     96  O   UNL A   1      33.584  34.868  31.544  1.00  0.00    -0.237 OA
ATOM     97  O   UNL A   1      35.413  33.755  30.323  1.00  0.00    -0.744 OA
ENDBRANCH  91  94
ENDBRANCH  64  87
ENDBRANCH  38  39
ENDBRANCH  31  33
ENDBRANCH  30  31
ENDBRANCH   1  30
TORSDOF 16
ENDMDL
MODEL 2
REMARK VINA RESULT:     -13.9      4.414      7.063
REMARK SMILES Cc1cc(/C=C2/C(=O)NC(=S)N=C2OCCOC(=O)c2ccc(-c3c4nc(c(-c5cccc(S(=O)(=O)[O-])c5F)c5ccc([nH]5)c(-c5cccc(S(=O)(=O)[O-])c5F)c5nc(c(-c6cccc(S(=O)(=O)[O-])c6F)c6ccc3[nH]6)C=C5)C=C4)cc2)c(C)n1-c1cccc(C(=O)[O-])c1
REMARK SMILES IDX 16 1 15 2 14 3 13 4 5 5 6 6 7 7 8 8 9 9 12 10 10 11 11 13
REMARK SMILES IDX 4 14 1 15 2 16 3 17 85 18 83 19 84 20 86 21 87 22 94 23
REMARK SMILES IDX 88 24 90 25 89 26 91 27 92 28 93 29 17 30 18 31 19 32 20 33
REMARK SMILES IDX 21 34 82 35 22 36 81 37 23 38 24 39 25 40 75 41 26 42 80 43
REMARK SMILES IDX 74 44 76 45 27 46 79 47 73 48 72 49 28 51 60 52 40 53 59 54
REMARK SMILES IDX 41 55 44 56 58 57 77 58 42 59 43 60 57 62 78 63 45 64 29 65
REMARK SMILES IDX 30 66 38 67 31 68 33 69 39 70 32 71 34 72 35 73 36 74 37 75
REMARK SMILES IDX 61 76 62 77 70 78 63 79 65 80 71 81 64 82 66 83 67 84 68 85
REMARK SMILES IDX 69 86 46 87 47 88 55 89 48 90 50 91 56 92 49 93 51 94 52 95
REMARK SMILES IDX 53 96 54 97
REMARK H PARENT 9 12 76 50 44 61
REMARK Flexibility Score: inf
ROOT
ATOM      1  C   UNL A   1      42.040  24.428  25.921  1.00  0.00     0.274 C 
ENDROOT
BRANCH   1   2
ATOM      2  C   UNL A   1      42.142  22.858  25.701  1.00  0.00     0.273 C 
BRANCH   2   3
ATOM      3  O   UNL A   1      43.182  22.419  24.774  1.00  0.00    -0.473 OA
BRANCH   3   4
ATOM      4  C   UNL A   1      43.819  21.300  25.166  1.00  0.00     0.229 C 
ATOM      5  C   UNL A   1      46.266  22.031  24.647  1.00  0.00     0.029 C 
ATOM      6  C   UNL A   1      45.225  21.165  24.737  1.00  0.00     0.103 C 
ATOM      7  C   UNL A   1      45.565  19.730  24.470  1.00  0.00     0.262 C 
ATOM      8  O   UNL A   1      46.587  19.359  23.901  1.00  0.00    -0.269 OA
ATOM      9  N   UNL A   1      44.686  18.825  25.010  1.00  0.00    -0.297 N 
ATOM     10  N   UNL A   1      43.128  20.390  25.758  1.00  0.00    -0.184 NA
ATOM     11  C   UNL A   1      43.571  19.114  25.746  1.00  0.00     0.203 C 
ATOM     12  H   UNL A   1      44.877  17.873  24.850  1.00  0.00     0.172 HD
ATOM     13  S   UNL A   1      42.737  17.865  26.486  1.00  0.00    -0.038 S 
BRANCH   5  14
ATOM     14  C   UNL A   1      46.458  23.430  24.948  1.00  0.00    -0.003 A 
ATOM     15  C   UNL A   1      47.910  26.824  24.276  1.00  0.00     0.065 C 
ATOM     16  C   UNL A   1      47.207  25.578  24.714  1.00  0.00     0.020 A 
ATOM     17  C   UNL A   1      47.277  24.306  24.174  1.00  0.00     0.031 A 
ATOM     18  N   UNL A   1      46.346  25.514  25.802  1.00  0.00    -0.318 N 
ATOM     19  C   UNL A   1      46.052  24.162  26.054  1.00  0.00     0.027 A 
ATOM     20  C   UNL A   1      45.309  23.704  27.260  1.00  0.00     0.065 C 
BRANCH  18  21
ATOM     21  C   UNL A   1      45.704  26.623  26.436  1.00  0.00     0.046 A 
ATOM     22  C   UNL A   1      46.062  26.997  27.735  1.00  0.00     0.026 A 
ATOM     23  C   UNL A   1      44.571  27.191  25.834  1.00  0.00     0.036 A 
ATOM     24  C   UNL A   1      45.206  27.784  28.501  1.00  0.00     0.003 A 
ATOM     25  C   UNL A   1      43.734  28.024  26.593  1.00  0.00    -0.001 A 
ATOM     26  C   UNL A   1      44.031  28.272  27.941  1.00  0.00     0.010 A 
BRANCH  25  27
ATOM     27  C   UNL A   1      42.506  28.628  26.038  1.00  0.00     0.072 C 
ATOM     28  O   UNL A   1      41.749  29.390  26.640  1.00  0.00    -0.545 OA
ATOM     29  O   UNL A   1      42.283  28.308  24.757  1.00  0.00    -0.545 OA
ENDBRANCH  25  27
ENDBRANCH  18  21
ENDBRANCH   5  14
ENDBRANCH   3   4
ENDBRANCH   2   3
ENDBRANCH   1   2
BRANCH   1  30
ATOM     30  O   UNL A   1      40.807  25.235  26.368  1.00  0.00    -0.458 OA
BRANCH  30  31
ATOM     31  C   UNL A   1      40.034  24.991  27.522  1.00  0.00     0.338 C 
ATOM     32  O   UNL A   1      39.402  23.942  27.614  1.00  0.00    -0.246 OA
BRANCH  31  33
ATOM     33  C   UNL A   1      39.962  26.113  28.729  1.00  0.00     0.060 A 
ATOM     34  C   UNL A   1      38.912  26.490  29.653  1.00  0.00     0.016 A 
ATOM     35  C   UNL A   1      40.983  26.964  28.964  1.00  0.00     0.016 A 
ATOM     36  C   UNL A   1      38.911  27.641  30.848  1.00  0.00     0.010 A 
ATOM     37  C   UNL A   1      40.919  27.986  30.099  1.00  0.00     0.010 A 
ATOM     38  C   UNL A   1      39.971  28.542  31.208  1.00  0.00    -0.014 A 
BRANCH  38  39
ATOM     39  C   UNL A   1      40.467  29.153  32.977  1.00  0.00     0.031 A 
ATOM     40  C   UNL A   1      41.932  29.077  32.684  1.00  0.00     0.074 A 
ATOM     41  C   UNL A   1      40.214  30.021  34.328  1.00  0.00     0.049 A 
ATOM     42  N   UNL A   1      42.131  29.310  31.400  1.00  0.00    -0.248 NA
ATOM     43  C   UNL A   1      42.995  29.721  33.424  1.00  0.00     0.031 C 
ATOM     44  C   UNL A   1      38.959  30.655  34.873  1.00  0.00     0.029 A 
ATOM     45  N   UNL A   1      41.124  30.673  35.606  1.00  0.00    -0.354 N 
ATOM     46  C   UNL A   1      42.046  30.677  31.498  1.00  0.00     0.074 A 
ATOM     47  C   UNL A   1      43.184  30.680  32.484  1.00  0.00     0.031 C 
ATOM     48  C   UNL A   1      39.056  31.589  35.891  1.00  0.00     0.029 A 
ATOM     49  C   UNL A   1      40.420  31.871  36.476  1.00  0.00     0.049 A 
ATOM     50  H   UNL A   1      42.030  30.347  35.814  1.00  0.00     0.167 HD
ATOM     51  C   UNL A   1      40.898  31.562  31.453  1.00  0.00     0.034 A 
ATOM     52  C   UNL A   1      40.612  32.992  37.544  1.00  0.00     0.034 A 
ATOM     53  C   UNL A   1      41.361  32.899  31.690  1.00  0.00     0.049 A 
ATOM     54  C   UNL A   1      40.434  34.104  36.573  1.00  0.00     0.074 A 
ATOM     55  C   UNL A   1      42.349  33.308  32.560  1.00  0.00     0.029 A 
ATOM     56  N   UNL A   1      40.402  33.868  31.905  1.00  0.00    -0.354 N 
ATOM     57  N   UNL A   1      39.377  34.766  36.230  1.00  0.00    -0.248 NA
ATOM     58  C   UNL A   1      41.709  34.558  35.980  1.00  0.00     0.031 C 
ATOM     59  C   UNL A   1      41.480  33.206  33.654  1.00  0.00     0.029 A 
ATOM     60  C   UNL A   1      40.314  33.881  33.265  1.00  0.00     0.049 A 
ATOM     61  H   UNL A   1      39.909  34.408  31.247  1.00  0.00     0.167 HD
ATOM     62  C   UNL A   1      39.813  35.283  35.018  1.00  0.00     0.074 A 
ATOM     63  C   UNL A   1      41.256  35.482  35.139  1.00  0.00     0.031 C 
ATOM     64  C   UNL A   1      39.295  34.620  33.938  1.00  0.00     0.034 A 
BRANCH  51  65
ATOM     65  C   UNL A   1      39.113  31.457  31.245  1.00  0.00     0.023 A 
ATOM     66  C   UNL A   1      38.080  31.277  32.246  1.00  0.00     0.012 A 
ATOM     67  C   UNL A   1      38.585  31.186  29.950  1.00  0.00     0.148 A 
ATOM     68  C   UNL A   1      36.847  30.594  32.059  1.00  0.00     0.002 A 
ATOM     69  C   UNL A   1      37.295  30.624  29.744  1.00  0.00     0.091 A 
ATOM     70  F   UNL A   1      39.390  31.368  28.896  1.00  0.00    -0.205 F 
ATOM     71  C   UNL A   1      36.476  30.222  30.798  1.00  0.00     0.022 A 
BRANCH  69  72
ATOM     72  S   UNL A   1      36.603  30.381  28.107  1.00  0.00     0.127 S 
ATOM     73  O   UNL A   1      37.738  29.811  27.380  1.00  0.00    -0.237 OA
ATOM     74  O   UNL A   1      35.502  29.448  28.338  1.00  0.00    -0.237 OA
ATOM     75  O   UNL A   1      36.186  31.710  27.675  1.00  0.00    -0.744 OA
ENDBRANCH  69  72
ENDBRANCH  51  65
BRANCH  52  76
ATOM     76  C   UNL A   1      41.268  34.121  38.820  1.00  0.00     0.023 A 
ATOM     77  C   UNL A   1      42.514  33.874  39.480  1.00  0.00     0.012 A 
ATOM     78  C   UNL A   1      40.549  35.136  39.691  1.00  0.00     0.148 A 
ATOM     79  C   UNL A   1      43.013  34.628  40.656  1.00  0.00     0.002 A 
ATOM     80  C   UNL A   1      41.075  35.945  40.757  1.00  0.00     0.091 A 
ATOM     81  F   UNL A   1      39.225  35.218  39.727  1.00  0.00    -0.205 F 
ATOM     82  C   UNL A   1      42.329  35.690  41.251  1.00  0.00     0.022 A 
BRANCH  80  83
ATOM     83  S   UNL A   1      40.098  37.292  41.581  1.00  0.00     0.127 S 
ATOM     84  O   UNL A   1      39.130  36.563  42.404  1.00  0.00    -0.237 OA
ATOM     85  O   UNL A   1      41.139  37.974  42.351  1.00  0.00    -0.237 OA
ATOM     86  O   UNL A   1      39.496  38.091  40.521  1.00  0.00    -0.744 OA
ENDBRANCH  80  83
ENDBRANCH  52  76
BRANCH  64  87
ATOM     87  C   UNL A   1      37.793  34.484  33.936  1.00  0.00     0.023 A 
ATOM     88  C   UNL A   1      37.214  34.124  35.164  1.00  0.00     0.012 A 
ATOM     89  C   UNL A   1      36.923  34.545  32.831  1.00  0.00     0.148 A 
ATOM     90  C   UNL A   1      35.865  33.791  35.274  1.00  0.00     0.002 A 
ATOM     91  C   UNL A   1      35.595  34.112  32.905  1.00  0.00     0.091 A 
ATOM     92  F   UNL A   1      37.378  35.056  31.701  1.00  0.00    -0.205 F 
ATOM     93  C   UNL A   1      35.063  33.754  34.141  1.00  0.00     0.022 A 
BRANCH  91  94
ATOM     94  S   UNL A   1      34.579  33.737  31.446  1.00  0.00     0.127 S 
ATOM     95  O   UNL A   1      33.963  32.457  31.813  1.00  0.00    -0.237 OA
ATOM     96  O   UNL A   1      33.643  34.852  31.379  1.00  0.00    -0.237 OA
ATOM     97  O   UNL A   1      35.497  33.621  30.319  1.00  0.00    -0.744 OA
ENDBRANCH  91  94
ENDBRANCH  64  87
ENDBRANCH  38  39
ENDBRANCH  31  33
ENDBRANCH  30  31
ENDBRANCH   1  30
TORSDOF 16
ENDMDL
MODEL 3
REMARK VINA RESULT:     -13.2      3.594      5.235
REMARK SMILES Cc1cc(/C=C2/C(=O)NC(=S)N=C2OCCOC(=O)c2ccc(-c3c4nc(c(-c5cccc(S(=O)(=O)[O-])c5F)c5ccc([nH]5)c(-c5cccc(S(=O)(=O)[O-])c5F)c5nc(c(-c6cccc(S(=O)(=O)[O-])c6F)c6ccc3[nH]6)C=C5)C=C4)cc2)c(C)n1-c1cccc(C(=O)[O-])c1
REMARK SMILES IDX 16 1 15 2 14 3 13 4 5 5 6 6 7 7 8 8 9 9 12 10 10 11 11 13
REMARK SMILES IDX 4 14 1 15 2 16 3 17 85 18 83 19 84 20 86 21 87 22 94 23
REMARK SMILES IDX 88 24 90 25 89 26 91 27 92 28 93 29 17 30 18 31 19 32 20 33
REMARK SMILES IDX 21 34 82 35 22 36 81 37 23 38 24 39 25 40 75 41 26 42 80 43
REMARK SMILES IDX 74 44 76 45 27 46 79 47 73 48 72 49 28 51 60 52 40 53 59 54
REMARK SMILES IDX 41 55 44 56 58 57 77 58 42 59 43 60 57 62 78 63 45 64 29 65
REMARK SMILES IDX 30 66 38 67 31 68 33 69 39 70 32 71 34 72 35 73 36 74 37 75
REMARK SMILES IDX 61 76 62 77 70 78 63 79 65 80 71 81 64 82 66 83 67 84 68 85
REMARK SMILES IDX 69 86 46 87 47 88 55 89 48 90 50 91 56 92 49 93 51 94 52 95
REMARK SMILES IDX 53 96 54 97
REMARK H PARENT 9 12 76 50 44 61
REMARK Flexibility Score: inf
ROOT
ATOM      1  C   UNL A   1      42.167  23.230  28.638  1.00  0.00     0.274 C 
ENDROOT
BRANCH   1   2
ATOM      2  C   UNL A   1      43.164  22.519  27.625  1.00  0.00     0.273 C 
BRANCH   2   3
ATOM      3  O   UNL A   1      42.653  22.327  26.270  1.00  0.00    -0.473 OA
BRANCH   3   4
ATOM      4  C   UNL A   1      43.020  21.159  25.713  1.00  0.00     0.229 C 
ATOM      5  C   UNL A   1      40.820  19.820  26.108  1.00  0.00     0.029 C 
ATOM      6  C   UNL A   1      42.162  19.995  26.012  1.00  0.00     0.103 C 
ATOM      7  C   UNL A   1      42.977  18.741  26.099  1.00  0.00     0.262 C 
ATOM      8  O   UNL A   1      42.557  17.677  26.543  1.00  0.00    -0.269 OA
ATOM      9  N   UNL A   1      44.227  18.832  25.539  1.00  0.00    -0.297 N 
ATOM     10  N   UNL A   1      44.143  21.117  25.087  1.00  0.00    -0.184 NA
ATOM     11  C   UNL A   1      44.766  19.929  24.929  1.00  0.00     0.203 C 
ATOM     12  H   UNL A   1      44.791  18.027  25.583  1.00  0.00     0.172 HD
ATOM     13  S   UNL A   1      46.232  19.780  24.132  1.00  0.00    -0.038 S 
BRANCH   5  14
ATOM     14  C   UNL A   1      39.665  20.670  25.941  1.00  0.00    -0.003 A 
ATOM     15  C   UNL A   1      37.801  23.899  26.366  1.00  0.00     0.065 C 
ATOM     16  C   UNL A   1      38.361  22.545  26.061  1.00  0.00     0.020 A 
ATOM     17  C   UNL A   1      39.584  22.009  26.428  1.00  0.00     0.031 A 
ATOM     18  N   UNL A   1      37.685  21.569  25.341  1.00  0.00    -0.318 N 
ATOM     19  C   UNL A   1      38.406  20.366  25.443  1.00  0.00     0.027 A 
ATOM     20  C   UNL A   1      37.883  19.061  24.951  1.00  0.00     0.065 C 
BRANCH  18  21
ATOM     21  C   UNL A   1      36.566  21.781  24.478  1.00  0.00     0.046 A 
ATOM     22  C   UNL A   1      36.674  22.642  23.381  1.00  0.00     0.026 A 
ATOM     23  C   UNL A   1      35.307  21.297  24.862  1.00  0.00     0.036 A 
ATOM     24  C   UNL A   1      35.531  23.165  22.782  1.00  0.00     0.003 A 
ATOM     25  C   UNL A   1      34.157  21.789  24.224  1.00  0.00    -0.001 A 
ATOM     26  C   UNL A   1      34.276  22.762  23.221  1.00  0.00     0.010 A 
BRANCH  25  27
ATOM     27  C   UNL A   1      32.797  21.351  24.598  1.00  0.00     0.072 C 
ATOM     28  O   UNL A   1      32.108  21.844  25.492  1.00  0.00    -0.545 OA
ATOM     29  O   UNL A   1      32.324  20.359  23.833  1.00  0.00    -0.545 OA
ENDBRANCH  25  27
ENDBRANCH  18  21
ENDBRANCH   5  14
ENDBRANCH   3   4
ENDBRANCH   2   3
ENDBRANCH   1   2
BRANCH   1  30
ATOM     30  O   UNL A   1      40.848  23.951  28.305  1.00  0.00    -0.458 OA
BRANCH  30  31
ATOM     31  C   UNL A   1      40.712  25.312  27.965  1.00  0.00     0.338 C 
ATOM     32  O   UNL A   1      40.685  25.638  26.781  1.00  0.00    -0.246 OA
BRANCH  31  33
ATOM     33  C   UNL A   1      40.610  26.460  29.145  1.00  0.00     0.060 A 
ATOM     34  C   UNL A   1      39.537  26.857  30.033  1.00  0.00     0.016 A 
ATOM     35  C   UNL A   1      41.626  27.316  29.388  1.00  0.00     0.016 A 
ATOM     36  C   UNL A   1      39.506  28.034  31.202  1.00  0.00     0.010 A 
ATOM     37  C   UNL A   1      41.532  28.363  30.498  1.00  0.00     0.010 A 
ATOM     38  C   UNL A   1      40.557  28.942  31.570  1.00  0.00    -0.014 A 
BRANCH  38  39
ATOM     39  C   UNL A   1      41.008  29.592  33.338  1.00  0.00     0.031 A 
ATOM     40  C   UNL A   1      42.473  29.641  33.038  1.00  0.00     0.074 A 
ATOM     41  C   UNL A   1      40.688  30.435  34.690  1.00  0.00     0.049 A 
ATOM     42  N   UNL A   1      42.645  29.891  31.752  1.00  0.00    -0.248 NA
ATOM     43  C   UNL A   1      43.480  30.372  33.773  1.00  0.00     0.031 C 
ATOM     44  C   UNL A   1      39.387  30.960  35.242  1.00  0.00     0.029 A 
ATOM     45  N   UNL A   1      41.546  31.161  35.964  1.00  0.00    -0.354 N 
ATOM     46  C   UNL A   1      42.445  31.246  31.852  1.00  0.00     0.074 A 
ATOM     47  C   UNL A   1      43.583  31.344  32.833  1.00  0.00     0.031 C 
ATOM     48  C   UNL A   1      39.409  31.899  36.260  1.00  0.00     0.029 A 
ATOM     49  C   UNL A   1      40.746  32.294  36.839  1.00  0.00     0.049 A 
ATOM     50  H   UNL A   1      42.477  30.913  36.168  1.00  0.00     0.167 HD
ATOM     51  C   UNL A   1      41.226  32.031  31.814  1.00  0.00     0.034 A 
ATOM     52  C   UNL A   1      40.848  33.427  37.908  1.00  0.00     0.034 A 
ATOM     53  C   UNL A   1      41.575  33.402  32.050  1.00  0.00     0.049 A 
ATOM     54  C   UNL A   1      40.572  34.520  36.939  1.00  0.00     0.074 A 
ATOM     55  C   UNL A   1      42.529  33.892  32.916  1.00  0.00     0.029 A 
ATOM     56  N   UNL A   1      40.539  34.286  32.271  1.00  0.00    -0.354 N 
ATOM     57  N   UNL A   1      39.461  35.091  36.602  1.00  0.00    -0.248 NA
ATOM     58  C   UNL A   1      41.801  35.081  36.340  1.00  0.00     0.031 C 
ATOM     59  C   UNL A   1      41.677  33.717  34.013  1.00  0.00     0.029 A 
ATOM     60  C   UNL A   1      40.456  34.290  33.631  1.00  0.00     0.049 A 
ATOM     61  H   UNL A   1      39.998  34.783  31.615  1.00  0.00     0.167 HD
ATOM     62  C   UNL A   1      39.846  35.644  35.388  1.00  0.00     0.074 A 
ATOM     63  C   UNL A   1      41.267  35.964  35.502  1.00  0.00     0.031 C 
ATOM     64  C   UNL A   1      39.381  34.940  34.309  1.00  0.00     0.034 A 
BRANCH  51  65
ATOM     65  C   UNL A   1      39.455  31.775  31.614  1.00  0.00     0.023 A 
ATOM     66  C   UNL A   1      38.440  31.543  32.623  1.00  0.00     0.012 A 
ATOM     67  C   UNL A   1      38.951  31.421  30.330  1.00  0.00     0.148 A 
ATOM     68  C   UNL A   1      37.266  30.758  32.461  1.00  0.00     0.002 A 
ATOM     69  C   UNL A   1      37.710  30.750  30.145  1.00  0.00     0.091 A 
ATOM     70  F   UNL A   1      39.738  31.634  29.268  1.00  0.00    -0.205 F 
ATOM     71  C   UNL A   1      36.926  30.316  31.213  1.00  0.00     0.022 A 
BRANCH  69  72
ATOM     72  S   UNL A   1      37.041  30.400  28.518  1.00  0.00     0.127 S 
ATOM     73  O   UNL A   1      36.769  31.743  28.007  1.00  0.00    -0.237 OA
ATOM     74  O   UNL A   1      38.134  29.705  27.842  1.00  0.00    -0.237 OA
ATOM     75  O   UNL A   1      35.864  29.574  28.767  1.00  0.00    -0.744 OA
ENDBRANCH  69  72
ENDBRANCH  51  65
BRANCH  52  76
ATOM     76  C   UNL A   1      41.412  34.606  39.182  1.00  0.00     0.023 A 
ATOM     77  C   UNL A   1      42.698  34.493  39.802  1.00  0.00     0.012 A 
ATOM     78  C   UNL A   1      40.611  35.524  40.089  1.00  0.00     0.148 A 
ATOM     79  C   UNL A   1      43.144  35.283  40.974  1.00  0.00     0.002 A 
ATOM     80  C   UNL A   1      41.076  36.374  41.152  1.00  0.00     0.091 A 
ATOM     81  F   UNL A   1      39.287  35.456  40.164  1.00  0.00    -0.205 F 
ATOM     82  C   UNL A   1      42.364  36.255  41.606  1.00  0.00     0.022 A 
BRANCH  80  83
ATOM     83  S   UNL A   1      39.979  37.593  42.024  1.00  0.00     0.127 S 
ATOM     84  O   UNL A   1      39.150  38.143  40.950  1.00  0.00    -0.237 OA
ATOM     85  O   UNL A   1      39.254  36.719  42.947  1.00  0.00    -0.237 OA
ATOM     86  O   UNL A   1      40.852  38.570  42.662  1.00  0.00    -0.744 OA
ENDBRANCH  80  83
ENDBRANCH  52  76
BRANCH  64  87
ATOM     87  C   UNL A   1      37.896  34.677  34.314  1.00  0.00     0.023 A 
ATOM     88  C   UNL A   1      37.367  34.206  35.527  1.00  0.00     0.012 A 
ATOM     89  C   UNL A   1      37.009  34.721  33.222  1.00  0.00     0.148 A 
ATOM     90  C   UNL A   1      36.052  33.755  35.631  1.00  0.00     0.002 A 
ATOM     91  C   UNL A   1      35.723  34.173  33.285  1.00  0.00     0.091 A 
ATOM     92  F   UNL A   1      37.404  35.327  32.116  1.00  0.00    -0.205 F 
ATOM     93  C   UNL A   1      35.240  33.708  34.506  1.00  0.00     0.022 A 
BRANCH  91  94
ATOM     94  S   UNL A   1      34.722  33.790  31.819  1.00  0.00     0.127 S 
ATOM     95  O   UNL A   1      33.991  32.591  32.242  1.00  0.00    -0.237 OA
ATOM     96  O   UNL A   1      33.885  34.971  31.650  1.00  0.00    -0.237 OA
ATOM     97  O   UNL A   1      35.660  33.527  30.733  1.00  0.00    -0.744 OA
ENDBRANCH  91  94
ENDBRANCH  64  87
ENDBRANCH  38  39
ENDBRANCH  31  33
ENDBRANCH  30  31
ENDBRANCH   1  30
TORSDOF 16
ENDMDL
