MODEL 1
REMARK VINA RESULT:     -11.7      0.000      0.000
REMARK SMILES N#C/C(=C/c1cc(Br)ccc1OCC(=O)OCCOC(=O)c1ccc(-c2c3nc(c(-c4cccc(S(=O)(=O)[O-])c4F)c4ccc([nH]4)c(-c4cccc(S(=O)(=O)[O-])c4F)c4nc(c(-c5cccc(S(=O)(=O)[O-])c5F)c5ccc2[nH]5)C=C4)C=C3)cc1)c1ccc(F)cc1
REMARK SMILES IDX 17 1 16 2 14 3 15 4 13 5 12 6 11 7 5 8 6 9 7 10 10 11 8 12
REMARK SMILES IDX 9 13 4 14 3 15 2 16 1 17 85 18 86 19 91 20 87 21 90 22 88 23
REMARK SMILES IDX 89 24 18 25 19 26 20 27 21 28 22 29 23 30 84 31 24 32 83 33
REMARK SMILES IDX 25 34 26 35 27 36 77 37 28 38 82 39 76 40 78 41 29 42 81 43
REMARK SMILES IDX 75 44 74 45 30 47 62 48 42 49 61 50 43 51 46 52 60 53 79 54
REMARK SMILES IDX 44 55 45 56 59 58 80 59 47 60 31 61 32 62 40 63 33 64 35 65
REMARK SMILES IDX 41 66 34 67 36 68 37 69 38 70 39 71 63 72 64 73 72 74 65 75
REMARK SMILES IDX 67 76 73 77 66 78 68 79 69 80 70 81 71 82 48 83 49 84 57 85
REMARK SMILES IDX 50 86 52 87 58 88 51 89 53 90 54 91 55 92 56 93
REMARK H PARENT 78 46 46 57
REMARK Flexibility Score: inf
ROOT
ATOM      1  C   UNL A   1      34.404  28.896  26.716  1.00  0.00     0.274 C 
ENDROOT
BRANCH   1   2
ATOM      2  O   UNL A   1      33.545  29.540  25.756  1.00  0.00    -0.460 OA
BRANCH   2   3
ATOM      3  C   UNL A   1      32.274  29.706  26.195  1.00  0.00     0.344 C 
ATOM      4  O   UNL A   1      31.850  30.738  26.693  1.00  0.00    -0.248 OA
BRANCH   3   5
ATOM      5  C   UNL A   1      31.377  28.493  25.949  1.00  0.00     0.352 C 
BRANCH   5   6
ATOM      6  O   UNL A   1      30.827  28.169  24.702  1.00  0.00    -0.481 OA
BRANCH   6   7
ATOM      7  C   UNL A   1      31.263  27.171  23.884  1.00  0.00     0.127 A 
ATOM      8  C   UNL A   1      31.060  25.776  23.909  1.00  0.00     0.019 A 
ATOM      9  C   UNL A   1      31.460  25.066  22.751  1.00  0.00     0.027 A 
ATOM     10  C   UNL A   1      32.226  25.649  21.736  1.00  0.00     0.018 A 
ATOM     11  C   UNL A   1      32.037  27.744  22.844  1.00  0.00     0.048 A 
ATOM     12  Br  UNL A   1      32.858  24.594  20.302  1.00  0.00    -0.051 Br
ATOM     13  C   UNL A   1      32.550  26.989  21.795  1.00  0.00     0.019 A 
BRANCH   8  14
ATOM     14  C   UNL A   1      30.490  24.957  25.035  1.00  0.00     0.032 C 
ATOM     15  C   UNL A   1      31.115  24.049  25.851  1.00  0.00     0.060 C 
BRANCH  15  16
ATOM     16  C   UNL A   1      30.227  23.338  26.859  1.00  0.00     0.100 C 
ATOM     17  N   UNL A   1      29.490  22.747  27.694  1.00  0.00    -0.192 NA
ENDBRANCH  15  16
BRANCH  15  18
ATOM     18  C   UNL A   1      32.555  23.811  25.654  1.00  0.00    -0.008 A 
ATOM     19  C   UNL A   1      33.468  24.834  26.002  1.00  0.00     0.012 A 
ATOM     20  C   UNL A   1      33.010  22.726  24.887  1.00  0.00     0.012 A 
ATOM     21  C   UNL A   1      34.782  24.807  25.534  1.00  0.00     0.040 A 
ATOM     22  C   UNL A   1      34.331  22.705  24.422  1.00  0.00     0.040 A 
ATOM     23  C   UNL A   1      35.194  23.753  24.732  1.00  0.00     0.123 A 
ATOM     24  F   UNL A   1      36.443  23.754  24.248  1.00  0.00    -0.207 F 
ENDBRANCH  15  18
ENDBRANCH   8  14
ENDBRANCH   6   7
ENDBRANCH   5   6
ENDBRANCH   3   5
ENDBRANCH   2   3
ENDBRANCH   1   2
BRANCH   1  25
ATOM     25  C   UNL A   1      35.204  29.919  27.612  1.00  0.00     0.275 C 
BRANCH  25  26
ATOM     26  O   UNL A   1      35.147  31.442  27.356  1.00  0.00    -0.458 OA
BRANCH  26  27
ATOM     27  C   UNL A   1      34.939  32.267  28.501  1.00  0.00     0.338 C 
ATOM     28  O   UNL A   1      33.759  32.588  28.704  1.00  0.00    -0.246 OA
BRANCH  27  29
ATOM     29  C   UNL A   1      36.099  32.768  29.718  1.00  0.00     0.060 A 
ATOM     30  C   UNL A   1      37.283  33.576  29.408  1.00  0.00     0.016 A 
ATOM     31  C   UNL A   1      36.471  31.601  30.580  1.00  0.00     0.016 A 
ATOM     32  C   UNL A   1      38.754  32.966  29.597  1.00  0.00     0.010 A 
ATOM     33  C   UNL A   1      37.898  30.975  30.727  1.00  0.00     0.010 A 
ATOM     34  C   UNL A   1      39.058  31.519  30.076  1.00  0.00    -0.014 A 
BRANCH  34  35
ATOM     35  C   UNL A   1      40.447  30.599  29.570  1.00  0.00     0.031 A 
ATOM     36  C   UNL A   1      40.866  29.096  28.833  1.00  0.00     0.074 A 
ATOM     37  C   UNL A   1      41.446  30.932  30.411  1.00  0.00     0.049 A 
ATOM     38  N   UNL A   1      41.423  27.967  29.322  1.00  0.00    -0.248 NA
ATOM     39  C   UNL A   1      40.996  29.039  27.348  1.00  0.00     0.031 C 
ATOM     40  C   UNL A   1      41.346  32.154  31.188  1.00  0.00     0.029 A 
ATOM     41  N   UNL A   1      42.020  30.010  31.267  1.00  0.00    -0.354 N 
ATOM     42  C   UNL A   1      41.771  27.051  28.239  1.00  0.00     0.074 A 
ATOM     43  C   UNL A   1      41.447  27.803  27.050  1.00  0.00     0.031 C 
ATOM     44  C   UNL A   1      41.235  31.766  32.456  1.00  0.00     0.029 A 
ATOM     45  C   UNL A   1      41.723  30.394  32.560  1.00  0.00     0.049 A 
ATOM     46  H   UNL A   1      42.547  29.222  31.002  1.00  0.00     0.167 HD
ATOM     47  C   UNL A   1      42.400  25.798  28.214  1.00  0.00     0.034 A 
ATOM     48  C   UNL A   1      41.856  29.772  33.744  1.00  0.00     0.034 A 
ATOM     49  C   UNL A   1      43.166  25.310  29.362  1.00  0.00     0.049 A 
ATOM     50  C   UNL A   1      42.712  28.570  33.770  1.00  0.00     0.074 A 
ATOM     51  C   UNL A   1      44.005  24.200  29.478  1.00  0.00     0.029 A 
ATOM     52  N   UNL A   1      43.270  25.988  30.558  1.00  0.00    -0.354 N 
ATOM     53  N   UNL A   1      42.937  27.703  32.819  1.00  0.00    -0.248 NA
ATOM     54  C   UNL A   1      43.505  28.382  34.985  1.00  0.00     0.031 C 
ATOM     55  C   UNL A   1      44.617  24.225  30.738  1.00  0.00     0.029 A 
ATOM     56  C   UNL A   1      44.174  25.357  31.394  1.00  0.00     0.049 A 
ATOM     57  H   UNL A   1      42.771  26.806  30.786  1.00  0.00     0.167 HD
ATOM     58  C   UNL A   1      43.953  26.896  33.298  1.00  0.00     0.074 A 
ATOM     59  C   UNL A   1      44.296  27.381  34.619  1.00  0.00     0.031 C 
ATOM     60  C   UNL A   1      44.550  25.848  32.686  1.00  0.00     0.034 A 
BRANCH  47  61
ATOM     61  C   UNL A   1      42.537  24.796  26.969  1.00  0.00     0.023 A 
ATOM     62  C   UNL A   1      43.471  25.011  25.931  1.00  0.00     0.012 A 
ATOM     63  C   UNL A   1      41.979  23.464  27.028  1.00  0.00     0.148 A 
ATOM     64  C   UNL A   1      43.792  24.003  24.985  1.00  0.00     0.002 A 
ATOM     65  C   UNL A   1      42.339  22.451  26.109  1.00  0.00     0.091 A 
ATOM     66  F   UNL A   1      41.137  23.176  28.031  1.00  0.00    -0.205 F 
ATOM     67  C   UNL A   1      43.235  22.729  25.074  1.00  0.00     0.022 A 
BRANCH  65  68
ATOM     68  S   UNL A   1      41.803  20.717  26.241  1.00  0.00     0.127 S 
ATOM     69  O   UNL A   1      42.141  20.394  27.625  1.00  0.00    -0.237 OA
ATOM     70  O   UNL A   1      40.365  20.794  25.979  1.00  0.00    -0.237 OA
ATOM     71  O   UNL A   1      42.555  19.991  25.221  1.00  0.00    -0.744 OA
ENDBRANCH  65  68
ENDBRANCH  47  61
BRANCH  48  72
ATOM     72  C   UNL A   1      41.517  30.606  34.920  1.00  0.00     0.023 A 
ATOM     73  C   UNL A   1      42.433  31.629  35.254  1.00  0.00     0.012 A 
ATOM     74  C   UNL A   1      40.189  30.669  35.382  1.00  0.00     0.148 A 
ATOM     75  C   UNL A   1      42.021  32.724  36.004  1.00  0.00     0.002 A 
ATOM     76  C   UNL A   1      39.785  31.771  36.125  1.00  0.00     0.091 A 
ATOM     77  F   UNL A   1      39.328  29.719  34.988  1.00  0.00    -0.205 F 
ATOM     78  C   UNL A   1      40.699  32.798  36.433  1.00  0.00     0.022 A 
BRANCH  76  79
ATOM     79  S   UNL A   1      38.069  32.034  36.587  1.00  0.00     0.127 S 
ATOM     80  O   UNL A   1      38.142  33.310  37.280  1.00  0.00    -0.237 OA
ATOM     81  O   UNL A   1      37.392  32.065  35.295  1.00  0.00    -0.237 OA
ATOM     82  O   UNL A   1      37.712  30.875  37.416  1.00  0.00    -0.744 OA
ENDBRANCH  76  79
ENDBRANCH  48  72
BRANCH  60  83
ATOM     83  C   UNL A   1      45.636  25.148  33.441  1.00  0.00     0.023 A 
ATOM     84  C   UNL A   1      46.949  25.646  33.360  1.00  0.00     0.012 A 
ATOM     85  C   UNL A   1      45.362  24.014  34.227  1.00  0.00     0.148 A 
ATOM     86  C   UNL A   1      47.989  25.001  34.022  1.00  0.00     0.002 A 
ATOM     87  C   UNL A   1      46.399  23.398  34.915  1.00  0.00     0.091 A 
ATOM     88  F   UNL A   1      44.106  23.546  34.265  1.00  0.00    -0.205 F 
ATOM     89  C   UNL A   1      47.713  23.884  34.805  1.00  0.00     0.022 A 
BRANCH  87  90
ATOM     90  S   UNL A   1      46.136  21.990  35.998  1.00  0.00     0.127 S 
ATOM     91  O   UNL A   1      47.498  21.478  36.156  1.00  0.00    -0.237 OA
ATOM     92  O   UNL A   1      45.582  22.623  37.197  1.00  0.00    -0.237 OA
ATOM     93  O   UNL A   1      45.216  21.106  35.300  1.00  0.00    -0.744 OA
ENDBRANCH  87  90
ENDBRANCH  60  83
ENDBRANCH  34  35
ENDBRANCH  27  29
ENDBRANCH  26  27
ENDBRANCH  25  26
ENDBRANCH   1  25
TORSDOF 19
ENDMDL
MODEL 2
REMARK VINA RESULT:     -11.2      3.278      8.792
REMARK SMILES N#C/C(=C/c1cc(Br)ccc1OCC(=O)OCCOC(=O)c1ccc(-c2c3nc(c(-c4cccc(S(=O)(=O)[O-])c4F)c4ccc([nH]4)c(-c4cccc(S(=O)(=O)[O-])c4F)c4nc(c(-c5cccc(S(=O)(=O)[O-])c5F)c5ccc2[nH]5)C=C4)C=C3)cc1)c1ccc(F)cc1
REMARK SMILES IDX 17 1 16 2 14 3 15 4 13 5 12 6 11 7 5 8 6 9 7 10 10 11 8 12
REMARK SMILES IDX 9 13 4 14 3 15 2 16 1 17 85 18 86 19 91 20 87 21 90 22 88 23
REMARK SMILES IDX 89 24 18 25 19 26 20 27 21 28 22 29 23 30 84 31 24 32 83 33
REMARK SMILES IDX 25 34 26 35 27 36 77 37 28 38 82 39 76 40 78 41 29 42 81 43
REMARK SMILES IDX 75 44 74 45 30 47 62 48 42 49 61 50 43 51 46 52 60 53 79 54
REMARK SMILES IDX 44 55 45 56 59 58 80 59 47 60 31 61 32 62 40 63 33 64 35 65
REMARK SMILES IDX 41 66 34 67 36 68 37 69 38 70 39 71 63 72 64 73 72 74 65 75
REMARK SMILES IDX 67 76 73 77 66 78 68 79 69 80 70 81 71 82 48 83 49 84 57 85
REMARK SMILES IDX 50 86 52 87 58 88 51 89 53 90 54 91 55 92 56 93
REMARK H PARENT 78 46 46 57
REMARK Flexibility Score: inf
ROOT
ATOM      1  C   UNL A   1      31.608  27.548  26.358  1.00  0.00     0.274 C 
ENDROOT
BRANCH   1   2
ATOM      2  O   UNL A   1      30.517  26.645  26.620  1.00  0.00    -0.460 OA
BRANCH   2   3
ATOM      3  C   UNL A   1      30.213  25.845  25.569  1.00  0.00     0.344 C 
ATOM      4  O   UNL A   1      29.455  26.160  24.664  1.00  0.00    -0.248 OA
BRANCH   3   5
ATOM      5  C   UNL A   1      30.965  24.514  25.574  1.00  0.00     0.352 C 
BRANCH   5   6
ATOM      6  O   UNL A   1      31.343  23.827  24.413  1.00  0.00    -0.481 OA
BRANCH   6   7
ATOM      7  C   UNL A   1      32.601  23.386  24.134  1.00  0.00     0.127 A 
ATOM      8  C   UNL A   1      33.416  23.525  22.992  1.00  0.00     0.019 A 
ATOM      9  C   UNL A   1      34.774  23.150  23.145  1.00  0.00     0.027 A 
ATOM     10  C   UNL A   1      35.244  22.462  24.268  1.00  0.00     0.018 A 
ATOM     11  C   UNL A   1      33.098  22.691  25.265  1.00  0.00     0.048 A 
ATOM     12  Br  UNL A   1      37.031  21.853  24.326  1.00  0.00    -0.051 Br
ATOM     13  C   UNL A   1      34.396  22.196  25.323  1.00  0.00     0.019 A 
BRANCH   8  14
ATOM     14  C   UNL A   1      33.001  24.002  21.628  1.00  0.00     0.032 C 
ATOM     15  C   UNL A   1      32.666  25.265  21.213  1.00  0.00     0.060 C 
BRANCH  15  16
ATOM     16  C   UNL A   1      32.223  25.395  19.765  1.00  0.00     0.100 C 
ATOM     17  N   UNL A   1      31.855  25.504  18.564  1.00  0.00    -0.192 NA
ENDBRANCH  15  16
BRANCH  15  18
ATOM     18  C   UNL A   1      32.718  26.358  22.199  1.00  0.00    -0.008 A 
ATOM     19  C   UNL A   1      31.573  27.169  22.378  1.00  0.00     0.012 A 
ATOM     20  C   UNL A   1      33.941  26.777  22.750  1.00  0.00     0.012 A 
ATOM     21  C   UNL A   1      31.665  28.399  23.028  1.00  0.00     0.040 A 
ATOM     22  C   UNL A   1      34.025  28.014  23.402  1.00  0.00     0.040 A 
ATOM     23  C   UNL A   1      32.895  28.819  23.516  1.00  0.00     0.123 A 
ATOM     24  F   UNL A   1      32.987  30.021  24.099  1.00  0.00    -0.207 F 
ENDBRANCH  15  18
ENDBRANCH   8  14
ENDBRANCH   6   7
ENDBRANCH   5   6
ENDBRANCH   3   5
ENDBRANCH   2   3
ENDBRANCH   1   2
BRANCH   1  25
ATOM     25  C   UNL A   1      31.678  28.743  27.386  1.00  0.00     0.275 C 
BRANCH  25  26
ATOM     26  O   UNL A   1      32.252  30.123  26.990  1.00  0.00    -0.458 OA
BRANCH  26  27
ATOM     27  C   UNL A   1      33.643  30.321  27.236  1.00  0.00     0.338 C 
ATOM     28  O   UNL A   1      34.355  29.327  27.031  1.00  0.00    -0.246 OA
BRANCH  27  29
ATOM     29  C   UNL A   1      34.483  31.803  27.655  1.00  0.00     0.060 A 
ATOM     30  C   UNL A   1      35.940  31.884  27.797  1.00  0.00     0.016 A 
ATOM     31  C   UNL A   1      33.805  32.464  28.815  1.00  0.00     0.016 A 
ATOM     32  C   UNL A   1      36.599  32.208  29.223  1.00  0.00     0.010 A 
ATOM     33  C   UNL A   1      34.433  32.737  30.222  1.00  0.00     0.010 A 
ATOM     34  C   UNL A   1      35.801  32.430  30.538  1.00  0.00    -0.014 A 
BRANCH  34  35
ATOM     35  C   UNL A   1      36.396  32.008  32.119  1.00  0.00     0.031 A 
ATOM     36  C   UNL A   1      37.187  32.706  33.485  1.00  0.00     0.074 A 
ATOM     37  C   UNL A   1      36.771  30.716  32.047  1.00  0.00     0.049 A 
ATOM     38  N   UNL A   1      38.442  32.585  33.969  1.00  0.00    -0.248 NA
ATOM     39  C   UNL A   1      36.351  33.284  34.577  1.00  0.00     0.031 C 
ATOM     40  C   UNL A   1      36.267  29.886  30.969  1.00  0.00     0.029 A 
ATOM     41  N   UNL A   1      38.087  30.325  32.215  1.00  0.00    -0.354 N 
ATOM     42  C   UNL A   1      38.552  33.216  35.282  1.00  0.00     0.074 A 
ATOM     43  C   UNL A   1      37.201  33.639  35.562  1.00  0.00     0.031 C 
ATOM     44  C   UNL A   1      37.324  29.594  30.214  1.00  0.00     0.029 A 
ATOM     45  C   UNL A   1      38.529  29.808  31.012  1.00  0.00     0.049 A 
ATOM     46  H   UNL A   1      38.614  30.401  33.042  1.00  0.00     0.167 HD
ATOM     47  C   UNL A   1      39.603  33.323  36.204  1.00  0.00     0.034 A 
ATOM     48  C   UNL A   1      39.749  29.474  30.562  1.00  0.00     0.034 A 
ATOM     49  C   UNL A   1      40.779  32.455  36.120  1.00  0.00     0.049 A 
ATOM     50  C   UNL A   1      40.820  29.359  31.572  1.00  0.00     0.074 A 
ATOM     51  C   UNL A   1      41.829  32.272  37.020  1.00  0.00     0.029 A 
ATOM     52  N   UNL A   1      40.982  31.535  35.111  1.00  0.00    -0.354 N 
ATOM     53  N   UNL A   1      40.957  30.005  32.699  1.00  0.00    -0.248 NA
ATOM     54  C   UNL A   1      41.804  28.302  31.336  1.00  0.00     0.031 C 
ATOM     55  C   UNL A   1      42.649  31.236  36.555  1.00  0.00     0.029 A 
ATOM     56  C   UNL A   1      42.099  30.765  35.380  1.00  0.00     0.049 A 
ATOM     57  H   UNL A   1      40.412  31.441  34.314  1.00  0.00     0.167 HD
ATOM     58  C   UNL A   1      42.011  29.386  33.346  1.00  0.00     0.074 A 
ATOM     59  C   UNL A   1      42.472  28.318  32.484  1.00  0.00     0.031 C 
ATOM     60  C   UNL A   1      42.542  29.680  34.554  1.00  0.00     0.034 A 
BRANCH  47  61
ATOM     61  C   UNL A   1      39.657  34.228  37.528  1.00  0.00     0.023 A 
ATOM     62  C   UNL A   1      39.958  35.608  37.483  1.00  0.00     0.012 A 
ATOM     63  C   UNL A   1      39.060  33.767  38.761  1.00  0.00     0.148 A 
ATOM     64  C   UNL A   1      39.737  36.463  38.593  1.00  0.00     0.002 A 
ATOM     65  C   UNL A   1      38.800  34.637  39.846  1.00  0.00     0.091 A 
ATOM     66  F   UNL A   1      38.688  32.481  38.841  1.00  0.00    -0.205 F 
ATOM     67  C   UNL A   1      39.156  35.985  39.766  1.00  0.00     0.022 A 
BRANCH  65  68
ATOM     68  S   UNL A   1      37.895  34.150  41.348  1.00  0.00     0.127 S 
ATOM     69  O   UNL A   1      37.731  35.427  42.037  1.00  0.00    -0.237 OA
ATOM     70  O   UNL A   1      36.649  33.592  40.818  1.00  0.00    -0.237 OA
ATOM     71  O   UNL A   1      38.744  33.173  42.023  1.00  0.00    -0.744 OA
ENDBRANCH  65  68
ENDBRANCH  47  61
BRANCH  48  72
ATOM     72  C   UNL A   1      39.761  28.832  29.227  1.00  0.00     0.023 A 
ATOM     73  C   UNL A   1      40.284  29.599  28.162  1.00  0.00     0.012 A 
ATOM     74  C   UNL A   1      39.683  27.431  29.117  1.00  0.00     0.148 A 
ATOM     75  C   UNL A   1      40.764  28.976  27.017  1.00  0.00     0.002 A 
ATOM     76  C   UNL A   1      40.171  26.817  27.970  1.00  0.00     0.091 A 
ATOM     77  F   UNL A   1      39.248  26.729  30.173  1.00  0.00    -0.205 F 
ATOM     78  C   UNL A   1      40.714  27.588  26.924  1.00  0.00     0.022 A 
BRANCH  76  79
ATOM     79  S   UNL A   1      40.297  25.030  27.823  1.00  0.00     0.127 S 
ATOM     80  O   UNL A   1      41.301  24.722  28.827  1.00  0.00    -0.237 OA
ATOM     81  O   UNL A   1      38.943  24.589  28.141  1.00  0.00    -0.237 OA
ATOM     82  O   UNL A   1      40.689  24.787  26.429  1.00  0.00    -0.744 OA
ENDBRANCH  76  79
ENDBRANCH  48  72
BRANCH  60  83
ATOM     83  C   UNL A   1      43.688  28.837  35.017  1.00  0.00     0.023 A 
ATOM     84  C   UNL A   1      44.981  29.132  34.549  1.00  0.00     0.012 A 
ATOM     85  C   UNL A   1      43.491  27.767  35.910  1.00  0.00     0.148 A 
ATOM     86  C   UNL A   1      46.065  28.348  34.932  1.00  0.00     0.002 A 
ATOM     87  C   UNL A   1      44.583  27.013  36.318  1.00  0.00     0.091 A 
ATOM     88  F   UNL A   1      42.244  27.493  36.319  1.00  0.00    -0.205 F 
ATOM     89  C   UNL A   1      45.867  27.296  35.822  1.00  0.00     0.022 A 
BRANCH  87  90
ATOM     90  S   UNL A   1      44.442  25.676  37.508  1.00  0.00     0.127 S 
ATOM     91  O   UNL A   1      45.843  25.300  37.699  1.00  0.00    -0.237 OA
ATOM     92  O   UNL A   1      43.831  26.348  38.656  1.00  0.00    -0.237 OA
ATOM     93  O   UNL A   1      43.606  24.663  36.883  1.00  0.00    -0.744 OA
ENDBRANCH  87  90
ENDBRANCH  60  83
ENDBRANCH  34  35
ENDBRANCH  27  29
ENDBRANCH  26  27
ENDBRANCH  25  26
ENDBRANCH   1  25
TORSDOF 19
ENDMDL
MODEL 3
REMARK VINA RESULT:     -10.9      1.851      2.345
REMARK SMILES N#C/C(=C/c1cc(Br)ccc1OCC(=O)OCCOC(=O)c1ccc(-c2c3nc(c(-c4cccc(S(=O)(=O)[O-])c4F)c4ccc([nH]4)c(-c4cccc(S(=O)(=O)[O-])c4F)c4nc(c(-c5cccc(S(=O)(=O)[O-])c5F)c5ccc2[nH]5)C=C4)C=C3)cc1)c1ccc(F)cc1
REMARK SMILES IDX 17 1 16 2 14 3 15 4 13 5 12 6 11 7 5 8 6 9 7 10 10 11 8 12
REMARK SMILES IDX 9 13 4 14 3 15 2 16 1 17 85 18 86 19 91 20 87 21 90 22 88 23
REMARK SMILES IDX 89 24 18 25 19 26 20 27 21 28 22 29 23 30 84 31 24 32 83 33
REMARK SMILES IDX 25 34 26 35 27 36 77 37 28 38 82 39 76 40 78 41 29 42 81 43
REMARK SMILES IDX 75 44 74 45 30 47 62 48 42 49 61 50 43 51 46 52 60 53 79 54
REMARK SMILES IDX 44 55 45 56 59 58 80 59 47 60 31 61 32 62 40 63 33 64 35 65
REMARK SMILES IDX 41 66 34 67 36 68 37 69 38 70 39 71 63 72 64 73 72 74 65 75
REMARK SMILES IDX 67 76 73 77 66 78 68 79 69 80 70 81 71 82 48 83 49 84 57 85
REMARK SMILES IDX 50 86 52 87 58 88 51 89 53 90 54 91 55 92 56 93
REMARK H PARENT 78 46 46 57
REMARK Flexibility Score: inf
ROOT
ATOM      1  C   UNL A   1      33.866  29.670  26.952  1.00  0.00     0.274 C 
ENDROOT
BRANCH   1   2
ATOM      2  O   UNL A   1      32.943  29.103  27.900  1.00  0.00    -0.460 OA
BRANCH   2   3
ATOM      3  C   UNL A   1      32.152  28.137  27.372  1.00  0.00     0.344 C 
ATOM      4  O   UNL A   1      31.038  27.857  27.792  1.00  0.00    -0.248 OA
BRANCH   3   5
ATOM      5  C   UNL A   1      32.752  27.456  26.143  1.00  0.00     0.352 C 
BRANCH   5   6
ATOM      6  O   UNL A   1      32.049  26.564  25.323  1.00  0.00    -0.481 OA
BRANCH   6   7
ATOM      7  C   UNL A   1      32.374  26.252  24.038  1.00  0.00     0.127 A 
ATOM      8  C   UNL A   1      33.432  25.497  23.491  1.00  0.00     0.019 A 
ATOM      9  C   UNL A   1      33.318  25.168  22.117  1.00  0.00     0.027 A 
ATOM     10  C   UNL A   1      32.354  25.741  21.282  1.00  0.00     0.018 A 
ATOM     11  C   UNL A   1      31.403  26.819  23.175  1.00  0.00     0.048 A 
ATOM     12  Br  UNL A   1      32.370  25.375  19.429  1.00  0.00    -0.051 Br
ATOM     13  C   UNL A   1      31.410  26.602  21.801  1.00  0.00     0.019 A 
BRANCH   8  14
ATOM     14  C   UNL A   1      34.675  25.026  24.193  1.00  0.00     0.032 C 
ATOM     15  C   UNL A   1      34.815  24.062  25.158  1.00  0.00     0.060 C 
BRANCH  15  16
ATOM     16  C   UNL A   1      36.217  23.874  25.714  1.00  0.00     0.100 C 
ATOM     17  N   UNL A   1      37.381  23.719  26.176  1.00  0.00    -0.192 NA
ENDBRANCH  15  16
BRANCH  15  18
ATOM     18  C   UNL A   1      33.610  23.337  25.598  1.00  0.00    -0.008 A 
ATOM     19  C   UNL A   1      32.929  22.520  24.666  1.00  0.00     0.012 A 
ATOM     20  C   UNL A   1      32.982  23.652  26.814  1.00  0.00     0.012 A 
ATOM     21  C   UNL A   1      31.626  22.090  24.914  1.00  0.00     0.040 A 
ATOM     22  C   UNL A   1      31.672  23.215  27.056  1.00  0.00     0.040 A 
ATOM     23  C   UNL A   1      31.003  22.459  26.098  1.00  0.00     0.123 A 
ATOM     24  F   UNL A   1      29.736  22.082  26.312  1.00  0.00    -0.207 F 
ENDBRANCH  15  18
ENDBRANCH   8  14
ENDBRANCH   6   7
ENDBRANCH   5   6
ENDBRANCH   3   5
ENDBRANCH   2   3
ENDBRANCH   1   2
BRANCH   1  25
ATOM     25  C   UNL A   1      35.175  30.236  27.628  1.00  0.00     0.275 C 
BRANCH  25  26
ATOM     26  O   UNL A   1      35.515  31.743  27.606  1.00  0.00    -0.458 OA
BRANCH  26  27
ATOM     27  C   UNL A   1      35.280  32.461  28.816  1.00  0.00     0.338 C 
ATOM     28  O   UNL A   1      34.091  32.529  29.159  1.00  0.00    -0.246 OA
BRANCH  27  29
ATOM     29  C   UNL A   1      36.451  33.135  29.936  1.00  0.00     0.060 A 
ATOM     30  C   UNL A   1      37.601  33.935  29.504  1.00  0.00     0.016 A 
ATOM     31  C   UNL A   1      36.878  32.089  30.919  1.00  0.00     0.016 A 
ATOM     32  C   UNL A   1      39.094  33.394  29.726  1.00  0.00     0.010 A 
ATOM     33  C   UNL A   1      38.327  31.527  31.102  1.00  0.00     0.010 A 
ATOM     34  C   UNL A   1      39.454  32.023  30.363  1.00  0.00    -0.014 A 
BRANCH  34  35
ATOM     35  C   UNL A   1      40.861  31.091  29.932  1.00  0.00     0.031 A 
ATOM     36  C   UNL A   1      41.306  29.601  29.184  1.00  0.00     0.074 A 
ATOM     37  C   UNL A   1      41.801  31.381  30.854  1.00  0.00     0.049 A 
ATOM     38  N   UNL A   1      41.806  28.448  29.679  1.00  0.00    -0.248 NA
ATOM     39  C   UNL A   1      41.544  29.583  27.712  1.00  0.00     0.031 C 
ATOM     40  C   UNL A   1      41.665  32.582  31.657  1.00  0.00     0.029 A 
ATOM     41  N   UNL A   1      42.295  30.424  31.721  1.00  0.00    -0.354 N 
ATOM     42  C   UNL A   1      42.217  27.556  28.598  1.00  0.00     0.074 A 
ATOM     43  C   UNL A   1      41.994  28.348  27.411  1.00  0.00     0.031 C 
ATOM     44  C   UNL A   1      41.455  32.162  32.902  1.00  0.00     0.029 A 
ATOM     45  C   UNL A   1      41.910  30.778  33.001  1.00  0.00     0.049 A 
ATOM     46  H   UNL A   1      42.825  29.634  31.473  1.00  0.00     0.167 HD
ATOM     47  C   UNL A   1      42.824  26.292  28.582  1.00  0.00     0.034 A 
ATOM     48  C   UNL A   1      41.945  30.121  34.172  1.00  0.00     0.034 A 
ATOM     49  C   UNL A   1      43.495  25.758  29.768  1.00  0.00     0.049 A 
ATOM     50  C   UNL A   1      42.776  28.902  34.225  1.00  0.00     0.074 A 
ATOM     51  C   UNL A   1      44.304  24.630  29.912  1.00  0.00     0.029 A 
ATOM     52  N   UNL A   1      43.523  26.401  30.988  1.00  0.00    -0.354 N 
ATOM     53  N   UNL A   1      43.055  28.057  33.268  1.00  0.00    -0.248 NA
ATOM     54  C   UNL A   1      43.474  28.665  35.489  1.00  0.00     0.031 C 
ATOM     55  C   UNL A   1      44.822  24.607  31.214  1.00  0.00     0.029 A 
ATOM     56  C   UNL A   1      44.352  25.728  31.868  1.00  0.00     0.049 A 
ATOM     57  H   UNL A   1      43.023  27.221  31.203  1.00  0.00     0.167 HD
ATOM     58  C   UNL A   1      44.019  27.217  33.796  1.00  0.00     0.074 A 
ATOM     59  C   UNL A   1      44.272  27.658  35.152  1.00  0.00     0.031 C 
ATOM     60  C   UNL A   1      44.641  26.176  33.199  1.00  0.00     0.034 A 
BRANCH  47  61
ATOM     61  C   UNL A   1      43.035  25.323  27.321  1.00  0.00     0.023 A 
ATOM     62  C   UNL A   1      44.119  25.478  26.428  1.00  0.00     0.012 A 
ATOM     63  C   UNL A   1      42.349  24.054  27.244  1.00  0.00     0.148 A 
ATOM     64  C   UNL A   1      44.469  24.475  25.488  1.00  0.00     0.002 A 
ATOM     65  C   UNL A   1      42.735  23.040  26.335  1.00  0.00     0.091 A 
ATOM     66  F   UNL A   1      41.355  23.819  28.112  1.00  0.00    -0.205 F 
ATOM     67  C   UNL A   1      43.787  23.261  25.443  1.00  0.00     0.022 A 
BRANCH  65  68
ATOM     68  S   UNL A   1      42.023  21.365  26.314  1.00  0.00     0.127 S 
ATOM     69  O   UNL A   1      42.175  20.948  27.705  1.00  0.00    -0.237 OA
ATOM     70  O   UNL A   1      40.636  21.600  25.908  1.00  0.00    -0.237 OA
ATOM     71  O   UNL A   1      42.808  20.614  25.340  1.00  0.00    -0.744 OA
ENDBRANCH  65  68
ENDBRANCH  47  61
BRANCH  48  72
ATOM     72  C   UNL A   1      41.535  30.928  35.344  1.00  0.00     0.023 A 
ATOM     73  C   UNL A   1      42.414  31.962  35.737  1.00  0.00     0.012 A 
ATOM     74  C   UNL A   1      40.187  30.957  35.745  1.00  0.00     0.148 A 
ATOM     75  C   UNL A   1      41.945  33.036  36.484  1.00  0.00     0.002 A 
ATOM     76  C   UNL A   1      39.726  32.037  36.487  1.00  0.00     0.091 A 
ATOM     77  F   UNL A   1      39.364  29.996  35.296  1.00  0.00    -0.205 F 
ATOM     78  C   UNL A   1      40.604  33.077  36.852  1.00  0.00     0.022 A 
BRANCH  76  79
ATOM     79  S   UNL A   1      37.985  32.259  36.872  1.00  0.00     0.127 S 
ATOM     80  O   UNL A   1      38.000  33.526  37.584  1.00  0.00    -0.237 OA
ATOM     81  O   UNL A   1      37.368  32.293  35.551  1.00  0.00    -0.237 OA
ATOM     82  O   UNL A   1      37.616  31.081  37.669  1.00  0.00    -0.744 OA
ENDBRANCH  76  79
ENDBRANCH  48  72
BRANCH  60  83
ATOM     83  C   UNL A   1      45.656  25.434  34.010  1.00  0.00     0.023 A 
ATOM     84  C   UNL A   1      45.220  24.415  34.877  1.00  0.00     0.012 A 
ATOM     85  C   UNL A   1      47.027  25.736  33.913  1.00  0.00     0.148 A 
ATOM     86  C   UNL A   1      46.133  23.727  35.671  1.00  0.00     0.002 A 
ATOM     87  C   UNL A   1      47.936  25.019  34.680  1.00  0.00     0.091 A 
ATOM     88  F   UNL A   1      47.411  26.729  33.099  1.00  0.00    -0.205 F 
ATOM     89  C   UNL A   1      47.489  24.023  35.566  1.00  0.00     0.022 A 
BRANCH  87  90
ATOM     90  S   UNL A   1      49.708  25.282  34.573  1.00  0.00     0.127 S 
ATOM     91  O   UNL A   1      49.999  24.804  33.221  1.00  0.00    -0.237 OA
ATOM     92  O   UNL A   1      49.815  26.733  34.741  1.00  0.00    -0.237 OA
ATOM     93  O   UNL A   1      50.300  24.503  35.650  1.00  0.00    -0.744 OA
ENDBRANCH  87  90
ENDBRANCH  60  83
ENDBRANCH  34  35
ENDBRANCH  27  29
ENDBRANCH  26  27
ENDBRANCH  25  26
ENDBRANCH   1  25
TORSDOF 19
ENDMDL
