MODEL 1
REMARK VINA RESULT:     -10.9      0.000      0.000
REMARK SMILES CC(C)OCCS(=O)(=O)N1CCC[C@H](C(=O)OCCOC(=O)c2ccc(-c3c4nc(c(-c5cccc(S(=O)(=O)[O-])c5F)c5ccc([nH]5)c(-c5cccc(S(=O)(=O)[O-])c5F)c5nc(c(-c6cccc(S(=O)(=O)[O-])c6F)c6ccc3[nH]6)C=C5)C=C4)cc2)C1
REMARK SMILES IDX 18 1 17 2 15 3 16 4 14 5 10 6 11 7 86 8 12 9 13 10 7 11 8 12
REMARK SMILES IDX 9 13 6 14 5 15 4 16 2 17 1 18 3 19 19 20 20 21 21 22 22 23
REMARK SMILES IDX 23 24 24 25 85 26 25 27 84 28 26 29 27 30 28 31 78 32 29 33
REMARK SMILES IDX 83 34 77 35 79 36 30 37 82 38 76 39 75 40 31 42 63 43 43 44
REMARK SMILES IDX 62 45 44 46 47 47 61 48 80 49 45 50 46 51 60 53 81 54 48 55
REMARK SMILES IDX 32 56 33 57 41 58 34 59 36 60 42 61 35 62 37 63 38 64 39 65
REMARK SMILES IDX 40 66 64 67 65 68 73 69 66 70 68 71 74 72 67 73 69 74 70 75
REMARK SMILES IDX 71 76 72 77 49 78 50 79 58 80 51 81 53 82 59 83 52 84 54 85
REMARK SMILES IDX 55 86 56 87 57 88
REMARK H PARENT 79 41 47 52
REMARK Flexibility Score: inf
ROOT
ATOM      1  C   UNL A   1      31.230  28.912  25.088  1.00  0.00     0.274 C 
ENDROOT
BRANCH   1   2
ATOM      2  O   UNL A   1      32.013  27.786  24.626  1.00  0.00    -0.462 OA
BRANCH   2   3
ATOM      3  C   UNL A   1      31.346  26.615  24.440  1.00  0.00     0.310 C 
ATOM      4  O   UNL A   1      30.224  26.385  24.878  1.00  0.00    -0.252 OA
BRANCH   3   5
ATOM      5  C   UNL A   1      32.108  25.585  23.611  1.00  0.00     0.114 C 
ATOM      6  N   UNL A   1      32.535  23.867  25.332  1.00  0.00    -0.201 NA
ATOM      7  C   UNL A   1      33.990  23.828  25.048  1.00  0.00     0.102 C 
ATOM      8  C   UNL A   1      31.755  24.182  24.105  1.00  0.00     0.117 C 
ATOM      9  C   UNL A   1      34.432  25.234  24.640  1.00  0.00     0.018 C 
ATOM     10  C   UNL A   1      33.624  25.779  23.464  1.00  0.00     0.018 C 
BRANCH   6  11
ATOM     11  S   UNL A   1      31.913  22.628  26.316  1.00  0.00     0.216 S 
ATOM     12  O   UNL A   1      30.546  22.388  25.919  1.00  0.00    -0.212 OA
ATOM     13  O   UNL A   1      32.216  22.995  27.689  1.00  0.00    -0.212 OA
BRANCH  11  14
ATOM     14  C   UNL A   1      32.932  21.216  25.848  1.00  0.00     0.182 C 
BRANCH  14  15
ATOM     15  C   UNL A   1      32.239  20.251  24.891  1.00  0.00     0.178 C 
BRANCH  15  16
ATOM     16  O   UNL A   1      32.426  18.876  25.250  1.00  0.00    -0.378 OA
BRANCH  16  17
ATOM     17  C   UNL A   1      32.739  17.940  24.215  1.00  0.00     0.112 C 
ATOM     18  C   UNL A   1      32.318  18.409  22.828  1.00  0.00     0.038 C 
ATOM     19  C   UNL A   1      34.190  17.520  24.218  1.00  0.00     0.038 C 
ENDBRANCH  16  17
ENDBRANCH  15  16
ENDBRANCH  14  15
ENDBRANCH  11  14
ENDBRANCH   6  11
ENDBRANCH   3   5
ENDBRANCH   2   3
ENDBRANCH   1   2
BRANCH   1  20
ATOM     20  C   UNL A   1      31.787  29.482  26.393  1.00  0.00     0.275 C 
BRANCH  20  21
ATOM     21  O   UNL A   1      33.040  30.134  26.147  1.00  0.00    -0.458 OA
BRANCH  21  22
ATOM     22  C   UNL A   1      33.282  31.203  26.935  1.00  0.00     0.338 C 
ATOM     23  O   UNL A   1      32.503  32.090  27.257  1.00  0.00    -0.246 OA
BRANCH  22  24
ATOM     24  C   UNL A   1      34.587  31.007  27.566  1.00  0.00     0.060 A 
ATOM     25  C   UNL A   1      34.917  29.705  27.944  1.00  0.00     0.016 A 
ATOM     26  C   UNL A   1      35.456  32.067  27.806  1.00  0.00     0.016 A 
ATOM     27  C   UNL A   1      36.121  29.439  28.574  1.00  0.00     0.010 A 
ATOM     28  C   UNL A   1      36.668  31.804  28.443  1.00  0.00     0.010 A 
ATOM     29  C   UNL A   1      36.997  30.493  28.839  1.00  0.00    -0.014 A 
BRANCH  29  30
ATOM     30  C   UNL A   1      38.229  30.237  29.611  1.00  0.00     0.031 A 
ATOM     31  C   UNL A   1      39.259  29.313  29.039  1.00  0.00     0.074 A 
ATOM     32  C   UNL A   1      38.398  30.816  30.813  1.00  0.00     0.049 A 
ATOM     33  N   UNL A   1      40.323  28.813  29.605  1.00  0.00    -0.248 NA
ATOM     34  C   UNL A   1      39.058  28.888  27.643  1.00  0.00     0.031 C 
ATOM     35  C   UNL A   1      37.467  31.763  31.431  1.00  0.00     0.029 A 
ATOM     36  N   UNL A   1      39.394  30.666  31.741  1.00  0.00    -0.354 N 
ATOM     37  C   UNL A   1      40.885  27.965  28.659  1.00  0.00     0.074 A 
ATOM     38  C   UNL A   1      40.055  28.031  27.477  1.00  0.00     0.031 C 
ATOM     39  C   UNL A   1      37.920  32.083  32.653  1.00  0.00     0.029 A 
ATOM     40  C   UNL A   1      39.138  31.325  32.920  1.00  0.00     0.049 A 
ATOM     41  H   UNL A   1      40.210  30.140  31.579  1.00  0.00     0.167 HD
ATOM     42  C   UNL A   1      41.996  27.203  28.775  1.00  0.00     0.034 A 
ATOM     43  C   UNL A   1      39.791  31.279  34.097  1.00  0.00     0.034 A 
ATOM     44  C   UNL A   1      42.828  27.185  29.946  1.00  0.00     0.049 A 
ATOM     45  C   UNL A   1      41.015  30.410  34.205  1.00  0.00     0.074 A 
ATOM     46  C   UNL A   1      44.001  26.485  30.161  1.00  0.00     0.029 A 
ATOM     47  N   UNL A   1      42.568  27.902  31.106  1.00  0.00    -0.354 N 
ATOM     48  N   UNL A   1      41.579  29.665  33.285  1.00  0.00    -0.248 NA
ATOM     49  C   UNL A   1      41.700  30.387  35.503  1.00  0.00     0.031 C 
ATOM     50  C   UNL A   1      44.443  26.768  31.459  1.00  0.00     0.029 A 
ATOM     51  C   UNL A   1      43.552  27.655  32.047  1.00  0.00     0.049 A 
ATOM     52  H   UNL A   1      41.796  28.497  31.240  1.00  0.00     0.167 HD
ATOM     53  C   UNL A   1      42.696  29.096  33.885  1.00  0.00     0.074 A 
ATOM     54  C   UNL A   1      42.742  29.608  35.241  1.00  0.00     0.031 C 
ATOM     55  C   UNL A   1      43.591  28.214  33.374  1.00  0.00     0.034 A 
BRANCH  42  56
ATOM     56  C   UNL A   1      42.374  26.340  27.601  1.00  0.00     0.023 A 
ATOM     57  C   UNL A   1      43.142  26.882  26.551  1.00  0.00     0.012 A 
ATOM     58  C   UNL A   1      41.989  24.987  27.550  1.00  0.00     0.148 A 
ATOM     59  C   UNL A   1      43.496  26.098  25.453  1.00  0.00     0.002 A 
ATOM     60  C   UNL A   1      42.379  24.200  26.472  1.00  0.00     0.091 A 
ATOM     61  F   UNL A   1      41.232  24.498  28.543  1.00  0.00    -0.205 F 
ATOM     62  C   UNL A   1      43.124  24.756  25.418  1.00  0.00     0.022 A 
BRANCH  60  63
ATOM     63  S   UNL A   1      42.000  22.448  26.367  1.00  0.00     0.127 S 
ATOM     64  O   UNL A   1      40.541  22.465  26.282  1.00  0.00    -0.237 OA
ATOM     65  O   UNL A   1      42.679  22.058  25.131  1.00  0.00    -0.237 OA
ATOM     66  O   UNL A   1      42.551  21.848  27.575  1.00  0.00    -0.744 OA
ENDBRANCH  60  63
ENDBRANCH  42  56
BRANCH  43  67
ATOM     67  C   UNL A   1      39.297  32.082  35.251  1.00  0.00     0.023 A 
ATOM     68  C   UNL A   1      38.398  31.500  36.164  1.00  0.00     0.012 A 
ATOM     69  C   UNL A   1      39.756  33.395  35.480  1.00  0.00     0.148 A 
ATOM     70  C   UNL A   1      37.952  32.217  37.276  1.00  0.00     0.002 A 
ATOM     71  C   UNL A   1      39.352  34.083  36.618  1.00  0.00     0.091 A 
ATOM     72  F   UNL A   1      40.594  33.941  34.586  1.00  0.00    -0.205 F 
ATOM     73  C   UNL A   1      38.439  33.501  37.511  1.00  0.00     0.022 A 
BRANCH  71  74
ATOM     74  S   UNL A   1      40.037  35.683  37.066  1.00  0.00     0.127 S 
ATOM     75  O   UNL A   1      39.390  35.936  38.351  1.00  0.00    -0.237 OA
ATOM     76  O   UNL A   1      41.468  35.391  37.143  1.00  0.00    -0.237 OA
ATOM     77  O   UNL A   1      39.668  36.581  35.980  1.00  0.00    -0.744 OA
ENDBRANCH  71  74
ENDBRANCH  43  67
BRANCH  55  78
ATOM     78  C   UNL A   1      44.701  27.757  34.280  1.00  0.00     0.023 A 
ATOM     79  C   UNL A   1      45.888  28.511  34.356  1.00  0.00     0.012 A 
ATOM     80  C   UNL A   1      44.538  26.630  35.108  1.00  0.00     0.148 A 
ATOM     81  C   UNL A   1      46.910  28.134  35.226  1.00  0.00     0.002 A 
ATOM     82  C   UNL A   1      45.542  26.286  36.005  1.00  0.00     0.091 A 
ATOM     83  F   UNL A   1      43.408  25.915  35.003  1.00  0.00    -0.205 F 
ATOM     84  C   UNL A   1      46.732  27.031  36.058  1.00  0.00     0.022 A 
BRANCH  82  85
ATOM     85  S   UNL A   1      45.357  24.938  37.176  1.00  0.00     0.127 S 
ATOM     86  O   UNL A   1      46.583  25.056  37.963  1.00  0.00    -0.237 OA
ATOM     87  O   UNL A   1      44.134  25.310  37.890  1.00  0.00    -0.237 OA
ATOM     88  O   UNL A   1      45.238  23.727  36.374  1.00  0.00    -0.744 OA
ENDBRANCH  82  85
ENDBRANCH  55  78
ENDBRANCH  29  30
ENDBRANCH  22  24
ENDBRANCH  21  22
ENDBRANCH  20  21
ENDBRANCH   1  20
TORSDOF 19
ENDMDL
MODEL 2
REMARK VINA RESULT:     -10.9      4.906     10.197
REMARK SMILES CC(C)OCCS(=O)(=O)N1CCC[C@H](C(=O)OCCOC(=O)c2ccc(-c3c4nc(c(-c5cccc(S(=O)(=O)[O-])c5F)c5ccc([nH]5)c(-c5cccc(S(=O)(=O)[O-])c5F)c5nc(c(-c6cccc(S(=O)(=O)[O-])c6F)c6ccc3[nH]6)C=C5)C=C4)cc2)C1
REMARK SMILES IDX 18 1 17 2 15 3 16 4 14 5 10 6 11 7 86 8 12 9 13 10 7 11 8 12
REMARK SMILES IDX 9 13 6 14 5 15 4 16 2 17 1 18 3 19 19 20 20 21 21 22 22 23
REMARK SMILES IDX 23 24 24 25 85 26 25 27 84 28 26 29 27 30 28 31 78 32 29 33
REMARK SMILES IDX 83 34 77 35 79 36 30 37 82 38 76 39 75 40 31 42 63 43 43 44
REMARK SMILES IDX 62 45 44 46 47 47 61 48 80 49 45 50 46 51 60 53 81 54 48 55
REMARK SMILES IDX 32 56 33 57 41 58 34 59 36 60 42 61 35 62 37 63 38 64 39 65
REMARK SMILES IDX 40 66 64 67 65 68 73 69 66 70 68 71 74 72 67 73 69 74 70 75
REMARK SMILES IDX 71 76 72 77 49 78 50 79 58 80 51 81 53 82 59 83 52 84 54 85
REMARK SMILES IDX 55 86 56 87 57 88
REMARK H PARENT 79 41 47 52
REMARK Flexibility Score: inf
ROOT
ATOM      1  C   UNL A   1      35.087  21.105  25.791  1.00  0.00     0.274 C 
ENDROOT
BRANCH   1   2
ATOM      2  O   UNL A   1      34.087  21.752  24.969  1.00  0.00    -0.462 OA
BRANCH   2   3
ATOM      3  C   UNL A   1      33.354  22.734  25.560  1.00  0.00     0.310 C 
ATOM      4  O   UNL A   1      32.241  22.564  26.046  1.00  0.00    -0.252 OA
BRANCH   3   5
ATOM      5  C   UNL A   1      34.042  24.095  25.590  1.00  0.00     0.114 C 
ATOM      6  N   UNL A   1      32.183  25.542  24.849  1.00  0.00    -0.201 NA
ATOM      7  C   UNL A   1      32.993  26.173  23.779  1.00  0.00     0.102 C 
ATOM      8  C   UNL A   1      33.029  25.161  26.012  1.00  0.00     0.117 C 
ATOM      9  C   UNL A   1      33.968  25.125  23.242  1.00  0.00     0.018 C 
ATOM     10  C   UNL A   1      34.833  24.514  24.343  1.00  0.00     0.018 C 
BRANCH   6  11
ATOM     11  S   UNL A   1      30.694  26.274  25.217  1.00  0.00     0.216 S 
ATOM     12  O   UNL A   1      30.554  26.305  26.653  1.00  0.00    -0.212 OA
ATOM     13  O   UNL A   1      29.690  25.609  24.404  1.00  0.00    -0.212 OA
BRANCH  11  14
ATOM     14  C   UNL A   1      30.928  27.953  24.599  1.00  0.00     0.182 C 
BRANCH  14  15
ATOM     15  C   UNL A   1      29.869  28.387  23.591  1.00  0.00     0.178 C 
BRANCH  15  16
ATOM     16  O   UNL A   1      29.699  29.809  23.536  1.00  0.00    -0.378 OA
BRANCH  16  17
ATOM     17  C   UNL A   1      28.605  30.333  22.778  1.00  0.00     0.112 C 
ATOM     18  C   UNL A   1      27.657  31.194  23.603  1.00  0.00     0.038 C 
ATOM     19  C   UNL A   1      29.047  31.069  21.534  1.00  0.00     0.038 C 
ENDBRANCH  16  17
ENDBRANCH  15  16
ENDBRANCH  14  15
ENDBRANCH  11  14
ENDBRANCH   6  11
ENDBRANCH   3   5
ENDBRANCH   2   3
ENDBRANCH   1   2
BRANCH   1  20
ATOM     20  C   UNL A   1      36.374  20.846  25.006  1.00  0.00     0.275 C 
BRANCH  20  21
ATOM     21  O   UNL A   1      37.343  21.858  25.310  1.00  0.00    -0.458 OA
BRANCH  21  22
ATOM     22  C   UNL A   1      38.496  21.392  25.837  1.00  0.00     0.338 C 
ATOM     23  O   UNL A   1      38.989  20.281  25.700  1.00  0.00    -0.246 OA
BRANCH  22  24
ATOM     24  C   UNL A   1      39.213  22.528  26.416  1.00  0.00     0.060 A 
ATOM     25  C   UNL A   1      38.803  23.802  26.024  1.00  0.00     0.016 A 
ATOM     26  C   UNL A   1      40.275  22.355  27.299  1.00  0.00     0.016 A 
ATOM     27  C   UNL A   1      39.449  24.928  26.505  1.00  0.00     0.010 A 
ATOM     28  C   UNL A   1      40.931  23.486  27.782  1.00  0.00     0.010 A 
ATOM     29  C   UNL A   1      40.528  24.774  27.376  1.00  0.00    -0.014 A 
BRANCH  29  30
ATOM     30  C   UNL A   1      41.295  25.961  27.802  1.00  0.00     0.031 A 
ATOM     31  C   UNL A   1      40.598  27.023  28.594  1.00  0.00     0.074 A 
ATOM     32  C   UNL A   1      42.590  26.079  27.459  1.00  0.00     0.049 A 
ATOM     33  N   UNL A   1      41.016  28.214  28.923  1.00  0.00    -0.248 NA
ATOM     34  C   UNL A   1      39.241  26.703  29.071  1.00  0.00     0.031 C 
ATOM     35  C   UNL A   1      43.363  25.076  26.725  1.00  0.00     0.029 A 
ATOM     36  N   UNL A   1      43.472  27.109  27.653  1.00  0.00    -0.354 N 
ATOM     37  C   UNL A   1      39.954  28.811  29.591  1.00  0.00     0.074 A 
ATOM     38  C   UNL A   1      38.879  27.846  29.636  1.00  0.00     0.031 C 
ATOM     39  C   UNL A   1      44.596  25.555  26.500  1.00  0.00     0.029 A 
ATOM     40  C   UNL A   1      44.679  26.913  27.027  1.00  0.00     0.049 A 
ATOM     41  H   UNL A   1      43.261  27.908  28.189  1.00  0.00     0.167 HD
ATOM     42  C   UNL A   1      39.892  30.055  30.119  1.00  0.00     0.034 A 
ATOM     43  C   UNL A   1      45.714  27.759  26.856  1.00  0.00     0.034 A 
ATOM     44  C   UNL A   1      40.989  30.983  30.097  1.00  0.00     0.049 A 
ATOM     45  C   UNL A   1      45.612  29.142  27.438  1.00  0.00     0.074 A 
ATOM     46  C   UNL A   1      41.055  32.253  30.638  1.00  0.00     0.029 A 
ATOM     47  N   UNL A   1      42.216  30.735  29.497  1.00  0.00    -0.354 N 
ATOM     48  N   UNL A   1      44.632  29.676  28.128  1.00  0.00    -0.248 NA
ATOM     49  C   UNL A   1      46.760  30.035  27.234  1.00  0.00     0.031 C 
ATOM     50  C   UNL A   1      42.320  32.781  30.350  1.00  0.00     0.029 A 
ATOM     51  C   UNL A   1      43.045  31.833  29.644  1.00  0.00     0.049 A 
ATOM     52  H   UNL A   1      42.460  29.902  29.034  1.00  0.00     0.167 HD
ATOM     53  C   UNL A   1      45.050  30.960  28.456  1.00  0.00     0.074 A 
ATOM     54  C   UNL A   1      46.386  31.112  27.912  1.00  0.00     0.031 C 
ATOM     55  C   UNL A   1      44.386  31.935  29.126  1.00  0.00     0.034 A 
BRANCH  42  56
ATOM     56  C   UNL A   1      38.600  30.472  30.768  1.00  0.00     0.023 A 
ATOM     57  C   UNL A   1      38.380  30.199  32.132  1.00  0.00     0.012 A 
ATOM     58  C   UNL A   1      37.613  31.154  30.031  1.00  0.00     0.148 A 
ATOM     59  C   UNL A   1      37.187  30.574  32.748  1.00  0.00     0.002 A 
ATOM     60  C   UNL A   1      36.441  31.559  30.660  1.00  0.00     0.091 A 
ATOM     61  F   UNL A   1      37.826  31.375  28.725  1.00  0.00    -0.205 F 
ATOM     62  C   UNL A   1      36.222  31.262  32.015  1.00  0.00     0.022 A 
BRANCH  60  63
ATOM     63  S   UNL A   1      35.168  32.505  29.816  1.00  0.00     0.127 S 
ATOM     64  O   UNL A   1      34.223  32.762  30.902  1.00  0.00    -0.237 OA
ATOM     65  O   UNL A   1      35.908  33.681  29.360  1.00  0.00    -0.237 OA
ATOM     66  O   UNL A   1      34.676  31.646  28.747  1.00  0.00    -0.744 OA
ENDBRANCH  60  63
ENDBRANCH  42  56
BRANCH  43  67
ATOM     67  C   UNL A   1      46.923  27.311  26.111  1.00  0.00     0.023 A 
ATOM     68  C   UNL A   1      47.058  27.640  24.749  1.00  0.00     0.012 A 
ATOM     69  C   UNL A   1      47.963  26.611  26.754  1.00  0.00     0.148 A 
ATOM     70  C   UNL A   1      48.199  27.267  24.038  1.00  0.00     0.002 A 
ATOM     71  C   UNL A   1      49.121  26.291  26.055  1.00  0.00     0.091 A 
ATOM     72  F   UNL A   1      47.807  26.284  28.046  1.00  0.00    -0.205 F 
ATOM     73  C   UNL A   1      49.236  26.607  24.692  1.00  0.00     0.022 A 
BRANCH  71  74
ATOM     74  S   UNL A   1      50.557  25.565  26.856  1.00  0.00     0.127 S 
ATOM     75  O   UNL A   1      51.469  25.383  25.729  1.00  0.00    -0.237 OA
ATOM     76  O   UNL A   1      50.944  26.615  27.798  1.00  0.00    -0.237 OA
ATOM     77  O   UNL A   1      50.074  24.345  27.488  1.00  0.00    -0.744 OA
ENDBRANCH  71  74
ENDBRANCH  43  67
BRANCH  55  78
ATOM     78  C   UNL A   1      45.098  33.246  29.316  1.00  0.00     0.023 A 
ATOM     79  C   UNL A   1      45.919  33.430  30.445  1.00  0.00     0.012 A 
ATOM     80  C   UNL A   1      45.013  34.261  28.344  1.00  0.00     0.148 A 
ATOM     81  C   UNL A   1      46.628  34.619  30.617  1.00  0.00     0.002 A 
ATOM     82  C   UNL A   1      45.757  35.424  28.499  1.00  0.00     0.091 A 
ATOM     83  F   UNL A   1      44.208  34.072  27.288  1.00  0.00    -0.205 F 
ATOM     84  C   UNL A   1      46.557  35.608  29.639  1.00  0.00     0.022 A 
BRANCH  82  85
ATOM     85  S   UNL A   1      45.796  36.708  27.245  1.00  0.00     0.127 S 
ATOM     86  O   UNL A   1      46.271  35.970  26.076  1.00  0.00    -0.237 OA
ATOM     87  O   UNL A   1      44.394  37.123  27.178  1.00  0.00    -0.237 OA
ATOM     88  O   UNL A   1      46.701  37.733  27.751  1.00  0.00    -0.744 OA
ENDBRANCH  82  85
ENDBRANCH  55  78
ENDBRANCH  29  30
ENDBRANCH  22  24
ENDBRANCH  21  22
ENDBRANCH  20  21
ENDBRANCH   1  20
TORSDOF 19
ENDMDL
MODEL 3
REMARK VINA RESULT:     -10.6      5.328     10.266
REMARK SMILES CC(C)OCCS(=O)(=O)N1CCC[C@H](C(=O)OCCOC(=O)c2ccc(-c3c4nc(c(-c5cccc(S(=O)(=O)[O-])c5F)c5ccc([nH]5)c(-c5cccc(S(=O)(=O)[O-])c5F)c5nc(c(-c6cccc(S(=O)(=O)[O-])c6F)c6ccc3[nH]6)C=C5)C=C4)cc2)C1
REMARK SMILES IDX 18 1 17 2 15 3 16 4 14 5 10 6 11 7 86 8 12 9 13 10 7 11 8 12
REMARK SMILES IDX 9 13 6 14 5 15 4 16 2 17 1 18 3 19 19 20 20 21 21 22 22 23
REMARK SMILES IDX 23 24 24 25 85 26 25 27 84 28 26 29 27 30 28 31 78 32 29 33
REMARK SMILES IDX 83 34 77 35 79 36 30 37 82 38 76 39 75 40 31 42 63 43 43 44
REMARK SMILES IDX 62 45 44 46 47 47 61 48 80 49 45 50 46 51 60 53 81 54 48 55
REMARK SMILES IDX 32 56 33 57 41 58 34 59 36 60 42 61 35 62 37 63 38 64 39 65
REMARK SMILES IDX 40 66 64 67 65 68 73 69 66 70 68 71 74 72 67 73 69 74 70 75
REMARK SMILES IDX 71 76 72 77 49 78 50 79 58 80 51 81 53 82 59 83 52 84 54 85
REMARK SMILES IDX 55 86 56 87 57 88
REMARK H PARENT 79 41 47 52
REMARK Flexibility Score: inf
ROOT
ATOM      1  C   UNL A   1      35.845  21.204  25.410  1.00  0.00     0.274 C 
ENDROOT
BRANCH   1   2
ATOM      2  O   UNL A   1      35.087  21.342  24.185  1.00  0.00    -0.462 OA
BRANCH   2   3
ATOM      3  C   UNL A   1      34.685  22.599  23.856  1.00  0.00     0.310 C 
ATOM      4  O   UNL A   1      35.393  23.420  23.284  1.00  0.00    -0.252 OA
BRANCH   3   5
ATOM      5  C   UNL A   1      33.244  22.917  24.245  1.00  0.00     0.114 C 
ATOM      6  N   UNL A   1      33.138  25.303  23.617  1.00  0.00    -0.201 NA
ATOM      7  C   UNL A   1      32.627  25.714  24.947  1.00  0.00     0.102 C 
ATOM      8  C   UNL A   1      32.671  23.937  23.259  1.00  0.00     0.117 C 
ATOM      9  C   UNL A   1      33.243  24.790  25.998  1.00  0.00     0.018 C 
ATOM     10  C   UNL A   1      32.978  23.314  25.703  1.00  0.00     0.018 C 
BRANCH   6  11
ATOM     11  S   UNL A   1      33.070  26.464  22.377  1.00  0.00     0.216 S 
ATOM     12  O   UNL A   1      33.477  25.828  21.147  1.00  0.00    -0.212 OA
ATOM     13  O   UNL A   1      33.785  27.633  22.861  1.00  0.00    -0.212 OA
BRANCH  11  14
ATOM     14  C   UNL A   1      31.308  26.845  22.303  1.00  0.00     0.182 C 
BRANCH  14  15
ATOM     15  C   UNL A   1      30.997  28.331  22.450  1.00  0.00     0.178 C 
BRANCH  15  16
ATOM     16  O   UNL A   1      29.643  28.655  22.113  1.00  0.00    -0.378 OA
BRANCH  16  17
ATOM     17  C   UNL A   1      28.844  29.334  23.086  1.00  0.00     0.112 C 
ATOM     18  C   UNL A   1      29.163  30.819  23.200  1.00  0.00     0.038 C 
ATOM     19  C   UNL A   1      27.361  29.121  22.886  1.00  0.00     0.038 C 
ENDBRANCH  16  17
ENDBRANCH  15  16
ENDBRANCH  14  15
ENDBRANCH  11  14
ENDBRANCH   6  11
ENDBRANCH   3   5
ENDBRANCH   2   3
ENDBRANCH   1   2
BRANCH   1  20
ATOM     20  C   UNL A   1      37.338  21.033  25.126  1.00  0.00     0.275 C 
BRANCH  20  21
ATOM     21  O   UNL A   1      38.074  22.119  25.707  1.00  0.00    -0.458 OA
BRANCH  21  22
ATOM     22  C   UNL A   1      39.277  21.775  26.214  1.00  0.00     0.338 C 
ATOM     23  O   UNL A   1      39.889  20.728  26.052  1.00  0.00    -0.246 OA
BRANCH  22  24
ATOM     24  C   UNL A   1      39.871  22.973  26.807  1.00  0.00     0.060 A 
ATOM     25  C   UNL A   1      39.443  24.204  26.309  1.00  0.00     0.016 A 
ATOM     26  C   UNL A   1      40.837  22.899  27.805  1.00  0.00     0.016 A 
ATOM     27  C   UNL A   1      39.977  25.385  26.796  1.00  0.00     0.010 A 
ATOM     28  C   UNL A   1      41.381  24.086  28.295  1.00  0.00     0.010 A 
ATOM     29  C   UNL A   1      40.962  25.329  27.784  1.00  0.00    -0.014 A 
BRANCH  29  30
ATOM     30  C   UNL A   1      41.618  26.575  28.227  1.00  0.00     0.031 A 
ATOM     31  C   UNL A   1      40.794  27.620  28.913  1.00  0.00     0.074 A 
ATOM     32  C   UNL A   1      42.929  26.760  27.992  1.00  0.00     0.049 A 
ATOM     33  N   UNL A   1      41.112  28.844  29.230  1.00  0.00    -0.248 NA
ATOM     34  C   UNL A   1      39.421  27.234  29.284  1.00  0.00     0.031 C 
ATOM     35  C   UNL A   1      43.820  25.780  27.367  1.00  0.00     0.029 A 
ATOM     36  N   UNL A   1      43.730  27.847  28.221  1.00  0.00    -0.354 N 
ATOM     37  C   UNL A   1      39.963  29.398  29.779  1.00  0.00     0.074 A 
ATOM     38  C   UNL A   1      38.945  28.372  29.770  1.00  0.00     0.031 C 
ATOM     39  C   UNL A   1      45.039  26.326  27.231  1.00  0.00     0.029 A 
ATOM     40  C   UNL A   1      44.997  27.704  27.709  1.00  0.00     0.049 A 
ATOM     41  H   UNL A   1      43.427  28.650  28.704  1.00  0.00     0.167 HD
ATOM     42  C   UNL A   1      39.783  30.653  30.251  1.00  0.00     0.034 A 
ATOM     43  C   UNL A   1      45.992  28.604  27.594  1.00  0.00     0.034 A 
ATOM     44  C   UNL A   1      40.823  31.645  30.287  1.00  0.00     0.049 A 
ATOM     45  C   UNL A   1      45.760  29.998  28.110  1.00  0.00     0.074 A 
ATOM     46  C   UNL A   1      40.768  32.935  30.781  1.00  0.00     0.029 A 
ATOM     47  N   UNL A   1      42.110  31.451  29.805  1.00  0.00    -0.354 N 
ATOM     48  N   UNL A   1      44.695  30.495  28.692  1.00  0.00    -0.248 NA
ATOM     49  C   UNL A   1      46.869  30.951  27.970  1.00  0.00     0.031 C 
ATOM     50  C   UNL A   1      42.021  33.528  30.582  1.00  0.00     0.029 A 
ATOM     51  C   UNL A   1      42.859  32.602  29.979  1.00  0.00     0.049 A 
ATOM     52  H   UNL A   1      42.442  30.619  29.398  1.00  0.00     0.167 HD
ATOM     53  C   UNL A   1      45.007  31.812  29.003  1.00  0.00     0.074 A 
ATOM     54  C   UNL A   1      46.375  32.026  28.571  1.00  0.00     0.031 C 
ATOM     55  C   UNL A   1      44.232  32.768  29.574  1.00  0.00     0.034 A 
BRANCH  42  56
ATOM     56  C   UNL A   1      38.417  31.013  30.769  1.00  0.00     0.023 A 
ATOM     57  C   UNL A   1      38.059  30.683  32.091  1.00  0.00     0.012 A 
ATOM     58  C   UNL A   1      37.496  31.699  29.953  1.00  0.00     0.148 A 
ATOM     59  C   UNL A   1      36.796  31.004  32.585  1.00  0.00     0.002 A 
ATOM     60  C   UNL A   1      36.252  32.051  30.464  1.00  0.00     0.091 A 
ATOM     61  F   UNL A   1      37.843  31.975  28.687  1.00  0.00    -0.205 F 
ATOM     62  C   UNL A   1      35.896  31.696  31.777  1.00  0.00     0.022 A 
BRANCH  60  63
ATOM     63  S   UNL A   1      35.052  32.996  29.521  1.00  0.00     0.127 S 
ATOM     64  O   UNL A   1      34.636  32.022  28.512  1.00  0.00    -0.237 OA
ATOM     65  O   UNL A   1      34.037  33.301  30.529  1.00  0.00    -0.237 OA
ATOM     66  O   UNL A   1      35.769  34.158  29.013  1.00  0.00    -0.744 OA
ENDBRANCH  60  63
ENDBRANCH  42  56
BRANCH  43  67
ATOM     67  C   UNL A   1      47.286  28.205  26.974  1.00  0.00     0.023 A 
ATOM     68  C   UNL A   1      48.398  27.944  27.797  1.00  0.00     0.012 A 
ATOM     69  C   UNL A   1      47.407  28.027  25.581  1.00  0.00     0.148 A 
ATOM     70  C   UNL A   1      49.610  27.530  27.244  1.00  0.00     0.002 A 
ATOM     71  C   UNL A   1      48.600  27.560  25.042  1.00  0.00     0.091 A 
ATOM     72  F   UNL A   1      46.345  28.302  24.810  1.00  0.00    -0.205 F 
ATOM     73  C   UNL A   1      49.708  27.324  25.870  1.00  0.00     0.022 A 
BRANCH  71  74
ATOM     74  S   UNL A   1      48.767  27.137  23.302  1.00  0.00     0.127 S 
ATOM     75  O   UNL A   1      50.210  26.946  23.178  1.00  0.00    -0.237 OA
ATOM     76  O   UNL A   1      47.973  25.912  23.209  1.00  0.00    -0.237 OA
ATOM     77  O   UNL A   1      48.209  28.267  22.573  1.00  0.00    -0.744 OA
ENDBRANCH  71  74
ENDBRANCH  43  67
BRANCH  55  78
ATOM     78  C   UNL A   1      44.848  34.126  29.773  1.00  0.00     0.023 A 
ATOM     79  C   UNL A   1      45.521  34.411  30.977  1.00  0.00     0.012 A 
ATOM     80  C   UNL A   1      44.825  35.086  28.744  1.00  0.00     0.148 A 
ATOM     81  C   UNL A   1      46.142  35.645  31.163  1.00  0.00     0.002 A 
ATOM     82  C   UNL A   1      45.484  36.296  28.919  1.00  0.00     0.091 A 
ATOM     83  F   UNL A   1      44.160  34.800  27.615  1.00  0.00    -0.205 F 
ATOM     84  C   UNL A   1      46.134  36.581  30.132  1.00  0.00     0.022 A 
BRANCH  82  85
ATOM     85  S   UNL A   1      45.603  37.519  27.610  1.00  0.00     0.127 S 
ATOM     86  O   UNL A   1      46.074  36.710  26.487  1.00  0.00    -0.237 OA
ATOM     87  O   UNL A   1      44.220  37.984  27.490  1.00  0.00    -0.237 OA
ATOM     88  O   UNL A   1      46.536  38.530  28.092  1.00  0.00    -0.744 OA
ENDBRANCH  82  85
ENDBRANCH  55  78
ENDBRANCH  29  30
ENDBRANCH  22  24
ENDBRANCH  21  22
ENDBRANCH  20  21
ENDBRANCH   1  20
TORSDOF 19
ENDMDL
