MODEL 1
REMARK VINA RESULT:     -13.8      0.000      0.000
REMARK SMILES O=C(OCCOC(=O)[C@H]1[C@@H](C(=O)NN2CCOCC2)[C@H]2C=C[C@@H]1CC2)c1ccc(-c2c3nc(c(-c4cccc(S(=O)(=O)[O-])c4F)c4ccc([nH]4)c(-c4cccc(S(=O)(=O)[O-])c4F)c4nc(c(-c5cccc(S(=O)(=O)[O-])c5F)c5ccc2[nH]5)C=C4)C=C3)cc1
REMARK SMILES IDX 4 1 3 2 2 3 1 4 26 5 27 6 88 7 28 8 87 9 29 10 30 11 31 12
REMARK SMILES IDX 81 13 32 14 86 15 80 16 82 17 33 18 85 19 79 20 78 21 34 23
REMARK SMILES IDX 66 24 46 25 65 26 47 27 50 28 64 29 83 30 48 31 49 32 63 34
REMARK SMILES IDX 84 35 51 36 35 37 36 38 44 39 37 40 39 41 45 42 38 43 40 44
REMARK SMILES IDX 41 45 42 46 43 47 67 48 68 49 76 50 69 51 71 52 77 53 70 54
REMARK SMILES IDX 72 55 73 56 74 57 75 58 52 59 53 60 61 61 54 62 56 63 62 64
REMARK SMILES IDX 55 65 57 66 58 67 59 68 60 69 5 70 6 71 7 72 8 73 9 74 10 75
REMARK SMILES IDX 23 76 20 77 22 78 24 79 21 80 25 81 11 82 12 83 13 84 14 86
REMARK SMILES IDX 15 87 19 88 16 89 18 90 17 91
REMARK H PARENT 82 22 50 33 13 85
REMARK Flexibility Score: inf
ROOT
ATOM      1  C   UNL A   1      30.317  25.419  25.734  1.00  0.00     0.275 C 
ENDROOT
BRANCH   1   2
ATOM      2  O   UNL A   1      31.093  26.598  26.010  1.00  0.00    -0.458 OA
BRANCH   2   3
ATOM      3  C   UNL A   1      31.090  27.791  25.372  1.00  0.00     0.338 C 
ATOM      4  O   UNL A   1      30.263  27.988  24.483  1.00  0.00    -0.246 OA
BRANCH   3   5
ATOM      5  C   UNL A   1      32.156  28.815  25.579  1.00  0.00     0.060 A 
ATOM      6  C   UNL A   1      32.274  29.602  26.681  1.00  0.00     0.016 A 
ATOM      7  C   UNL A   1      33.304  28.668  24.845  1.00  0.00     0.016 A 
ATOM      8  C   UNL A   1      33.474  29.528  27.408  1.00  0.00     0.010 A 
ATOM      9  C   UNL A   1      34.564  28.806  25.484  1.00  0.00     0.010 A 
ATOM     10  C   UNL A   1      34.932  28.940  27.034  1.00  0.00    -0.014 A 
BRANCH  10  11
ATOM     11  C   UNL A   1      36.786  29.431  28.045  1.00  0.00     0.031 A 
ATOM     12  C   UNL A   1      36.856  30.623  29.528  1.00  0.00     0.074 A 
ATOM     13  C   UNL A   1      38.004  28.786  28.680  1.00  0.00     0.049 A 
ATOM     14  N   UNL A   1      37.663  31.631  29.853  1.00  0.00    -0.248 NA
ATOM     15  C   UNL A   1      35.724  30.591  30.582  1.00  0.00     0.031 C 
ATOM     16  C   UNL A   1      38.520  27.370  28.593  1.00  0.00     0.029 A 
ATOM     17  N   UNL A   1      39.144  29.374  29.310  1.00  0.00    -0.354 N 
ATOM     18  C   UNL A   1      36.902  32.435  30.753  1.00  0.00     0.074 A 
ATOM     19  C   UNL A   1      35.581  31.900  30.716  1.00  0.00     0.031 C 
ATOM     20  C   UNL A   1      39.845  27.323  28.778  1.00  0.00     0.029 A 
ATOM     21  C   UNL A   1      40.303  28.601  29.264  1.00  0.00     0.049 A 
ATOM     22  H   UNL A   1      39.114  30.258  29.743  1.00  0.00     0.167 HD
ATOM     23  C   UNL A   1      37.134  33.272  31.807  1.00  0.00     0.034 A 
ATOM     24  C   UNL A   1      41.607  28.764  29.601  1.00  0.00     0.034 A 
ATOM     25  C   UNL A   1      38.361  33.324  32.532  1.00  0.00     0.049 A 
ATOM     26  C   UNL A   1      42.015  29.776  30.621  1.00  0.00     0.074 A 
ATOM     27  C   UNL A   1      38.658  34.042  33.679  1.00  0.00     0.029 A 
ATOM     28  N   UNL A   1      39.438  32.514  32.266  1.00  0.00    -0.354 N 
ATOM     29  N   UNL A   1      41.266  30.654  31.229  1.00  0.00    -0.248 NA
ATOM     30  C   UNL A   1      43.397  29.709  31.129  1.00  0.00     0.031 C 
ATOM     31  C   UNL A   1      39.961  33.722  34.060  1.00  0.00     0.029 A 
ATOM     32  C   UNL A   1      40.435  32.762  33.185  1.00  0.00     0.049 A 
ATOM     33  H   UNL A   1      39.490  31.858  31.534  1.00  0.00     0.167 HD
ATOM     34  C   UNL A   1      42.057  31.188  32.237  1.00  0.00     0.074 A 
ATOM     35  C   UNL A   1      43.350  30.550  32.155  1.00  0.00     0.031 C 
ATOM     36  C   UNL A   1      41.709  32.109  33.162  1.00  0.00     0.034 A 
BRANCH  23  37
ATOM     37  C   UNL A   1      35.988  34.155  32.335  1.00  0.00     0.023 A 
ATOM     38  C   UNL A   1      35.796  34.477  33.701  1.00  0.00     0.012 A 
ATOM     39  C   UNL A   1      35.074  34.681  31.398  1.00  0.00     0.148 A 
ATOM     40  C   UNL A   1      34.647  35.153  34.130  1.00  0.00     0.002 A 
ATOM     41  C   UNL A   1      33.982  35.431  31.824  1.00  0.00     0.091 A 
ATOM     42  F   UNL A   1      35.285  34.432  30.099  1.00  0.00    -0.205 F 
ATOM     43  C   UNL A   1      33.741  35.631  33.192  1.00  0.00     0.022 A 
BRANCH  41  44
ATOM     44  S   UNL A   1      32.843  36.209  30.676  1.00  0.00     0.127 S 
ATOM     45  O   UNL A   1      32.512  35.094  29.789  1.00  0.00    -0.237 OA
ATOM     46  O   UNL A   1      31.754  36.627  31.559  1.00  0.00    -0.237 OA
ATOM     47  O   UNL A   1      33.577  37.304  30.059  1.00  0.00    -0.744 OA
ENDBRANCH  41  44
ENDBRANCH  23  37
BRANCH  24  48
ATOM     48  C   UNL A   1      42.629  27.826  29.017  1.00  0.00     0.023 A 
ATOM     49  C   UNL A   1      42.987  26.616  29.644  1.00  0.00     0.012 A 
ATOM     50  C   UNL A   1      43.194  28.137  27.761  1.00  0.00     0.148 A 
ATOM     51  C   UNL A   1      43.885  25.735  29.029  1.00  0.00     0.002 A 
ATOM     52  C   UNL A   1      44.057  27.241  27.138  1.00  0.00     0.091 A 
ATOM     53  F   UNL A   1      42.861  29.305  27.192  1.00  0.00    -0.205 F 
ATOM     54  C   UNL A   1      44.410  26.041  27.773  1.00  0.00     0.022 A 
BRANCH  52  55
ATOM     55  S   UNL A   1      44.694  27.505  25.478  1.00  0.00     0.127 S 
ATOM     56  O   UNL A   1      45.412  26.256  25.231  1.00  0.00    -0.237 OA
ATOM     57  O   UNL A   1      43.461  27.670  24.709  1.00  0.00    -0.237 OA
ATOM     58  O   UNL A   1      45.523  28.700  25.556  1.00  0.00    -0.744 OA
ENDBRANCH  52  55
ENDBRANCH  24  48
BRANCH  36  59
ATOM     59  C   UNL A   1      42.697  32.496  34.214  1.00  0.00     0.023 A 
ATOM     60  C   UNL A   1      43.508  33.627  34.023  1.00  0.00     0.012 A 
ATOM     61  C   UNL A   1      42.699  31.826  35.452  1.00  0.00     0.148 A 
ATOM     62  C   UNL A   1      44.324  34.083  35.055  1.00  0.00     0.002 A 
ATOM     63  C   UNL A   1      43.471  32.319  36.493  1.00  0.00     0.091 A 
ATOM     64  F   UNL A   1      41.921  30.743  35.596  1.00  0.00    -0.205 F 
ATOM     65  C   UNL A   1      44.292  33.441  36.293  1.00  0.00     0.022 A 
BRANCH  63  66
ATOM     66  S   UNL A   1      43.400  31.632  38.149  1.00  0.00     0.127 S 
ATOM     67  O   UNL A   1      43.905  30.277  37.929  1.00  0.00    -0.237 OA
ATOM     68  O   UNL A   1      44.310  32.511  38.884  1.00  0.00    -0.237 OA
ATOM     69  O   UNL A   1      42.007  31.712  38.564  1.00  0.00    -0.744 OA
ENDBRANCH  63  66
ENDBRANCH  36  59
ENDBRANCH  10  11
ENDBRANCH   3   5
ENDBRANCH   2   3
ENDBRANCH   1   2
BRANCH   1  70
ATOM     70  C   UNL A   1      30.881  24.103  26.331  1.00  0.00     0.274 C 
BRANCH  70  71
ATOM     71  O   UNL A   1      31.872  24.180  27.399  1.00  0.00    -0.462 OA
BRANCH  71  72
ATOM     72  C   UNL A   1      32.779  23.166  27.564  1.00  0.00     0.310 C 
ATOM     73  O   UNL A   1      32.745  22.423  28.539  1.00  0.00    -0.252 OA
BRANCH  72  74
ATOM     74  C   UNL A   1      33.916  23.101  26.475  1.00  0.00     0.119 C 
ATOM     75  C   UNL A   1      34.017  21.672  25.302  1.00  0.00     0.101 C 
ATOM     76  C   UNL A   1      34.513  24.626  25.486  1.00  0.00     0.026 C 
ATOM     77  C   UNL A   1      34.401  22.203  23.464  1.00  0.00     0.025 C 
ATOM     78  C   UNL A   1      33.557  25.250  23.707  1.00  0.00    -0.027 C 
ATOM     79  C   UNL A   1      36.013  23.384  25.404  1.00  0.00     0.009 C 
ATOM     80  C   UNL A   1      33.433  23.829  22.646  1.00  0.00    -0.027 C 
ATOM     81  C   UNL A   1      35.987  22.288  24.054  1.00  0.00     0.009 C 
BRANCH  75  82
ATOM     82  C   UNL A   1      33.047  20.458  25.372  1.00  0.00     0.238 C 
ATOM     83  O   UNL A   1      31.849  20.545  25.091  1.00  0.00    -0.273 OA
ATOM     84  N   UNL A   1      33.604  19.219  25.591  1.00  0.00    -0.288 N 
ATOM     85  H   UNL A   1      33.933  18.976  26.486  1.00  0.00     0.185 HD
BRANCH  84  86
ATOM     86  N   UNL A   1      33.706  18.281  24.509  1.00  0.00    -0.217 NA
ATOM     87  C   UNL A   1      32.579  17.333  24.462  1.00  0.00     0.136 C 
ATOM     88  C   UNL A   1      35.005  17.576  24.392  1.00  0.00     0.136 C 
ATOM     89  C   UNL A   1      32.801  16.049  25.277  1.00  0.00     0.177 C 
ATOM     90  C   UNL A   1      35.122  16.251  25.173  1.00  0.00     0.177 C 
ATOM     91  O   UNL A   1      34.011  15.393  24.879  1.00  0.00    -0.379 OA
ENDBRANCH  84  86
ENDBRANCH  75  82
ENDBRANCH  72  74
ENDBRANCH  71  72
ENDBRANCH  70  71
ENDBRANCH   1  70
TORSDOF 16
ENDMDL
MODEL 2
REMARK VINA RESULT:     -13.5      2.247      2.588
REMARK SMILES O=C(OCCOC(=O)[C@H]1[C@@H](C(=O)NN2CCOCC2)[C@H]2C=C[C@@H]1CC2)c1ccc(-c2c3nc(c(-c4cccc(S(=O)(=O)[O-])c4F)c4ccc([nH]4)c(-c4cccc(S(=O)(=O)[O-])c4F)c4nc(c(-c5cccc(S(=O)(=O)[O-])c5F)c5ccc2[nH]5)C=C4)C=C3)cc1
REMARK SMILES IDX 4 1 3 2 2 3 1 4 26 5 27 6 88 7 28 8 87 9 29 10 30 11 31 12
REMARK SMILES IDX 81 13 32 14 86 15 80 16 82 17 33 18 85 19 79 20 78 21 34 23
REMARK SMILES IDX 66 24 46 25 65 26 47 27 50 28 64 29 83 30 48 31 49 32 63 34
REMARK SMILES IDX 84 35 51 36 35 37 36 38 44 39 37 40 39 41 45 42 38 43 40 44
REMARK SMILES IDX 41 45 42 46 43 47 67 48 68 49 76 50 69 51 71 52 77 53 70 54
REMARK SMILES IDX 72 55 73 56 74 57 75 58 52 59 53 60 61 61 54 62 56 63 62 64
REMARK SMILES IDX 55 65 57 66 58 67 59 68 60 69 5 70 6 71 7 72 8 73 9 74 10 75
REMARK SMILES IDX 23 76 20 77 22 78 24 79 21 80 25 81 11 82 12 83 13 84 14 86
REMARK SMILES IDX 15 87 19 88 16 89 18 90 17 91
REMARK H PARENT 82 22 50 33 13 85
REMARK Flexibility Score: inf
ROOT
ATOM      1  C   UNL A   1      30.154  25.480  24.160  1.00  0.00     0.275 C 
ENDROOT
BRANCH   1   2
ATOM      2  O   UNL A   1      30.194  26.677  24.956  1.00  0.00    -0.458 OA
BRANCH   2   3
ATOM      3  C   UNL A   1      31.013  26.991  25.986  1.00  0.00     0.338 C 
ATOM      4  O   UNL A   1      30.832  26.449  27.076  1.00  0.00    -0.246 OA
BRANCH   3   5
ATOM      5  C   UNL A   1      32.018  28.091  25.907  1.00  0.00     0.060 A 
ATOM      6  C   UNL A   1      32.178  29.067  26.839  1.00  0.00     0.016 A 
ATOM      7  C   UNL A   1      33.103  27.878  25.097  1.00  0.00     0.016 A 
ATOM      8  C   UNL A   1      33.441  29.188  27.444  1.00  0.00     0.010 A 
ATOM      9  C   UNL A   1      34.402  28.194  25.574  1.00  0.00     0.010 A 
ATOM     10  C   UNL A   1      34.898  28.622  27.033  1.00  0.00    -0.014 A 
BRANCH  10  11
ATOM     11  C   UNL A   1      36.796  29.382  27.753  1.00  0.00     0.031 A 
ATOM     12  C   UNL A   1      36.917  30.646  29.171  1.00  0.00     0.074 A 
ATOM     13  C   UNL A   1      38.161  28.922  28.228  1.00  0.00     0.049 A 
ATOM     14  N   UNL A   1      37.626  31.759  29.346  1.00  0.00    -0.248 NA
ATOM     15  C   UNL A   1      35.953  30.530  30.376  1.00  0.00     0.031 C 
ATOM     16  C   UNL A   1      38.836  27.576  28.115  1.00  0.00     0.029 A 
ATOM     17  N   UNL A   1      39.293  29.674  28.670  1.00  0.00    -0.354 N 
ATOM     18  C   UNL A   1      36.900  32.509  30.318  1.00  0.00     0.074 A 
ATOM     19  C   UNL A   1      35.665  31.817  30.487  1.00  0.00     0.031 C 
ATOM     20  C   UNL A   1      40.168  27.699  28.110  1.00  0.00     0.029 A 
ATOM     21  C   UNL A   1      40.523  29.046  28.485  1.00  0.00     0.049 A 
ATOM     22  H   UNL A   1      39.210  30.569  29.075  1.00  0.00     0.167 HD
ATOM     23  C   UNL A   1      37.167  33.419  31.301  1.00  0.00     0.034 A 
ATOM     24  C   UNL A   1      41.829  29.381  28.627  1.00  0.00     0.034 A 
ATOM     25  C   UNL A   1      38.465  33.656  31.842  1.00  0.00     0.049 A 
ATOM     26  C   UNL A   1      42.242  30.485  29.546  1.00  0.00     0.074 A 
ATOM     27  C   UNL A   1      38.823  34.461  32.911  1.00  0.00     0.029 A 
ATOM     28  N   UNL A   1      39.589  32.970  31.451  1.00  0.00    -0.354 N 
ATOM     29  N   UNL A   1      41.478  31.296  30.226  1.00  0.00    -0.248 NA
ATOM     30  C   UNL A   1      43.678  30.611  29.854  1.00  0.00     0.031 C 
ATOM     31  C   UNL A   1      40.196  34.320  33.113  1.00  0.00     0.029 A 
ATOM     32  C   UNL A   1      40.663  33.382  32.211  1.00  0.00     0.049 A 
ATOM     33  H   UNL A   1      39.622  32.289  30.741  1.00  0.00     0.167 HD
ATOM     34  C   UNL A   1      42.326  31.970  31.093  1.00  0.00     0.074 A 
ATOM     35  C   UNL A   1      43.666  31.491  30.849  1.00  0.00     0.031 C 
ATOM     36  C   UNL A   1      41.994  32.888  32.028  1.00  0.00     0.034 A 
BRANCH  23  37
ATOM     37  C   UNL A   1      36.001  34.183  31.958  1.00  0.00     0.023 A 
ATOM     38  C   UNL A   1      35.835  34.330  33.356  1.00  0.00     0.012 A 
ATOM     39  C   UNL A   1      35.042  34.778  31.113  1.00  0.00     0.148 A 
ATOM     40  C   UNL A   1      34.672  34.899  33.891  1.00  0.00     0.002 A 
ATOM     41  C   UNL A   1      33.932  35.423  31.651  1.00  0.00     0.091 A 
ATOM     42  F   UNL A   1      35.227  34.696  29.788  1.00  0.00    -0.205 F 
ATOM     43  C   UNL A   1      33.722  35.447  33.038  1.00  0.00     0.022 A 
BRANCH  41  44
ATOM     44  S   UNL A   1      32.732  36.284  30.631  1.00  0.00     0.127 S 
ATOM     45  O   UNL A   1      31.636  36.492  31.578  1.00  0.00    -0.237 OA
ATOM     46  O   UNL A   1      33.457  37.500  30.263  1.00  0.00    -0.237 OA
ATOM     47  O   UNL A   1      32.438  35.393  29.517  1.00  0.00    -0.744 OA
ENDBRANCH  41  44
ENDBRANCH  23  37
BRANCH  24  48
ATOM     48  C   UNL A   1      42.873  28.547  27.934  1.00  0.00     0.023 A 
ATOM     49  C   UNL A   1      43.350  28.855  26.645  1.00  0.00     0.012 A 
ATOM     50  C   UNL A   1      43.445  27.461  28.633  1.00  0.00     0.148 A 
ATOM     51  C   UNL A   1      44.377  28.098  26.068  1.00  0.00     0.002 A 
ATOM     52  C   UNL A   1      44.490  26.737  28.069  1.00  0.00     0.091 A 
ATOM     53  F   UNL A   1      42.960  27.168  29.848  1.00  0.00    -0.205 F 
ATOM     54  C   UNL A   1      44.954  27.048  26.783  1.00  0.00     0.022 A 
BRANCH  52  55
ATOM     55  S   UNL A   1      45.361  25.440  28.959  1.00  0.00     0.127 S 
ATOM     56  O   UNL A   1      44.308  24.443  29.143  1.00  0.00    -0.237 OA
ATOM     57  O   UNL A   1      46.401  25.069  28.000  1.00  0.00    -0.237 OA
ATOM     58  O   UNL A   1      45.857  26.061  30.180  1.00  0.00    -0.744 OA
ENDBRANCH  52  55
ENDBRANCH  24  48
BRANCH  36  59
ATOM     59  C   UNL A   1      43.060  33.443  32.915  1.00  0.00     0.023 A 
ATOM     60  C   UNL A   1      43.456  32.728  34.058  1.00  0.00     0.012 A 
ATOM     61  C   UNL A   1      43.771  34.593  32.520  1.00  0.00     0.148 A 
ATOM     62  C   UNL A   1      44.546  33.159  34.809  1.00  0.00     0.002 A 
ATOM     63  C   UNL A   1      44.890  34.982  33.240  1.00  0.00     0.091 A 
ATOM     64  F   UNL A   1      43.360  35.257  31.431  1.00  0.00    -0.205 F 
ATOM     65  C   UNL A   1      45.273  34.273  34.390  1.00  0.00     0.022 A 
BRANCH  63  66
ATOM     66  S   UNL A   1      45.952  36.328  32.707  1.00  0.00     0.127 S 
ATOM     67  O   UNL A   1      46.939  36.371  33.786  1.00  0.00    -0.237 OA
ATOM     68  O   UNL A   1      46.463  35.827  31.432  1.00  0.00    -0.237 OA
ATOM     69  O   UNL A   1      45.099  37.504  32.603  1.00  0.00    -0.744 OA
ENDBRANCH  63  66
ENDBRANCH  36  59
ENDBRANCH  10  11
ENDBRANCH   3   5
ENDBRANCH   2   3
ENDBRANCH   1   2
BRANCH   1  70
ATOM     70  C   UNL A   1      31.243  24.428  24.495  1.00  0.00     0.274 C 
BRANCH  70  71
ATOM     71  O   UNL A   1      30.890  23.288  25.334  1.00  0.00    -0.462 OA
BRANCH  71  72
ATOM     72  C   UNL A   1      31.550  23.081  26.518  1.00  0.00     0.310 C 
ATOM     73  O   UNL A   1      30.979  23.173  27.598  1.00  0.00    -0.252 OA
BRANCH  72  74
ATOM     74  C   UNL A   1      33.099  22.827  26.385  1.00  0.00     0.119 C 
ATOM     75  C   UNL A   1      33.738  21.220  25.724  1.00  0.00     0.101 C 
ATOM     76  C   UNL A   1      34.336  24.160  25.790  1.00  0.00     0.026 C 
ATOM     77  C   UNL A   1      35.217  21.431  24.467  1.00  0.00     0.025 C 
ATOM     78  C   UNL A   1      34.736  24.480  23.739  1.00  0.00    -0.027 C 
ATOM     79  C   UNL A   1      35.430  22.914  26.815  1.00  0.00     0.009 C 
ATOM     80  C   UNL A   1      35.130  22.901  23.024  1.00  0.00    -0.027 C 
ATOM     81  C   UNL A   1      36.113  21.606  25.894  1.00  0.00     0.009 C 
BRANCH  75  82
ATOM     82  C   UNL A   1      32.801  20.041  25.334  1.00  0.00     0.238 C 
ATOM     83  O   UNL A   1      31.796  20.190  24.636  1.00  0.00    -0.273 OA
ATOM     84  N   UNL A   1      33.226  18.770  25.649  1.00  0.00    -0.288 N 
ATOM     85  H   UNL A   1      33.195  18.455  26.581  1.00  0.00     0.185 HD
BRANCH  84  86
ATOM     86  N   UNL A   1      33.716  17.905  24.614  1.00  0.00    -0.217 NA
ATOM     87  C   UNL A   1      32.897  16.692  24.443  1.00  0.00     0.136 C 
ATOM     88  C   UNL A   1      35.159  17.571  24.687  1.00  0.00     0.136 C 
ATOM     89  C   UNL A   1      33.340  15.504  25.312  1.00  0.00     0.177 C 
ATOM     90  C   UNL A   1      35.517  16.317  25.509  1.00  0.00     0.177 C 
ATOM     91  O   UNL A   1      34.722  15.198  25.093  1.00  0.00    -0.379 OA
ENDBRANCH  84  86
ENDBRANCH  75  82
ENDBRANCH  72  74
ENDBRANCH  71  72
ENDBRANCH  70  71
ENDBRANCH   1  70
TORSDOF 16
ENDMDL
MODEL 3
REMARK VINA RESULT:     -13.4      4.367      7.224
REMARK SMILES O=C(OCCOC(=O)[C@H]1[C@@H](C(=O)NN2CCOCC2)[C@H]2C=C[C@@H]1CC2)c1ccc(-c2c3nc(c(-c4cccc(S(=O)(=O)[O-])c4F)c4ccc([nH]4)c(-c4cccc(S(=O)(=O)[O-])c4F)c4nc(c(-c5cccc(S(=O)(=O)[O-])c5F)c5ccc2[nH]5)C=C4)C=C3)cc1
REMARK SMILES IDX 4 1 3 2 2 3 1 4 26 5 27 6 88 7 28 8 87 9 29 10 30 11 31 12
REMARK SMILES IDX 81 13 32 14 86 15 80 16 82 17 33 18 85 19 79 20 78 21 34 23
REMARK SMILES IDX 66 24 46 25 65 26 47 27 50 28 64 29 83 30 48 31 49 32 63 34
REMARK SMILES IDX 84 35 51 36 35 37 36 38 44 39 37 40 39 41 45 42 38 43 40 44
REMARK SMILES IDX 41 45 42 46 43 47 67 48 68 49 76 50 69 51 71 52 77 53 70 54
REMARK SMILES IDX 72 55 73 56 74 57 75 58 52 59 53 60 61 61 54 62 56 63 62 64
REMARK SMILES IDX 55 65 57 66 58 67 59 68 60 69 5 70 6 71 7 72 8 73 9 74 10 75
REMARK SMILES IDX 23 76 20 77 22 78 24 79 21 80 25 81 11 82 12 83 13 84 14 86
REMARK SMILES IDX 15 87 19 88 16 89 18 90 17 91
REMARK H PARENT 82 22 50 33 13 85
REMARK Flexibility Score: inf
ROOT
ATOM      1  C   UNL A   1      31.912  31.125  26.877  1.00  0.00     0.275 C 
ENDROOT
BRANCH   1   2
ATOM      2  O   UNL A   1      32.577  32.391  26.726  1.00  0.00    -0.458 OA
BRANCH   2   3
ATOM      3  C   UNL A   1      32.844  33.333  27.661  1.00  0.00     0.338 C 
ATOM      4  O   UNL A   1      32.110  34.317  27.738  1.00  0.00    -0.246 OA
BRANCH   3   5
ATOM      5  C   UNL A   1      34.086  33.314  28.487  1.00  0.00     0.060 A 
ATOM      6  C   UNL A   1      34.275  32.542  29.590  1.00  0.00     0.016 A 
ATOM      7  C   UNL A   1      35.234  33.756  27.885  1.00  0.00     0.016 A 
ATOM      8  C   UNL A   1      35.358  31.648  29.580  1.00  0.00     0.010 A 
ATOM      9  C   UNL A   1      36.430  33.005  28.026  1.00  0.00     0.010 A 
ATOM     10  C   UNL A   1      36.678  31.555  28.652  1.00  0.00    -0.014 A 
BRANCH  10  11
ATOM     11  C   UNL A   1      38.496  30.482  29.148  1.00  0.00     0.031 A 
ATOM     12  C   UNL A   1      39.271  30.537  30.886  1.00  0.00     0.074 A 
ATOM     13  C   UNL A   1      39.130  29.108  29.056  1.00  0.00     0.049 A 
ATOM     14  N   UNL A   1      40.519  30.692  31.325  1.00  0.00    -0.248 NA
ATOM     15  C   UNL A   1      38.350  30.530  32.129  1.00  0.00     0.031 C 
ATOM     16  C   UNL A   1      38.732  27.896  28.248  1.00  0.00     0.029 A 
ATOM     17  N   UNL A   1      40.413  28.647  29.485  1.00  0.00    -0.354 N 
ATOM     18  C   UNL A   1      40.381  31.175  32.660  1.00  0.00     0.074 A 
ATOM     19  C   UNL A   1      38.992  31.459  32.819  1.00  0.00     0.031 C 
ATOM     20  C   UNL A   1      39.790  27.122  27.979  1.00  0.00     0.029 A 
ATOM     21  C   UNL A   1      40.913  27.556  28.774  1.00  0.00     0.049 A 
ATOM     22  H   UNL A   1      40.908  29.067  30.226  1.00  0.00     0.167 HD
ATOM     23  C   UNL A   1      41.074  31.117  33.836  1.00  0.00     0.034 A 
ATOM     24  C   UNL A   1      42.077  26.863  28.727  1.00  0.00     0.034 A 
ATOM     25  C   UNL A   1      42.121  30.186  34.101  1.00  0.00     0.049 A 
ATOM     26  C   UNL A   1      43.015  26.861  29.889  1.00  0.00     0.074 A 
ATOM     27  C   UNL A   1      42.802  29.965  35.288  1.00  0.00     0.029 A 
ATOM     28  N   UNL A   1      42.527  29.222  33.211  1.00  0.00    -0.354 N 
ATOM     29  N   UNL A   1      42.924  27.540  31.000  1.00  0.00    -0.248 NA
ATOM     30  C   UNL A   1      44.116  25.880  29.873  1.00  0.00     0.031 C 
ATOM     31  C   UNL A   1      43.689  28.908  35.084  1.00  0.00     0.029 A 
ATOM     32  C   UNL A   1      43.503  28.442  33.795  1.00  0.00     0.049 A 
ATOM     33  H   UNL A   1      42.175  29.105  32.299  1.00  0.00     0.167 HD
ATOM     34  C   UNL A   1      43.899  27.018  31.839  1.00  0.00     0.074 A 
ATOM     35  C   UNL A   1      44.584  25.977  31.111  1.00  0.00     0.031 C 
ATOM     36  C   UNL A   1      44.165  27.369  33.116  1.00  0.00     0.034 A 
BRANCH  23  37
ATOM     37  C   UNL A   1      40.660  32.034  35.002  1.00  0.00     0.023 A 
ATOM     38  C   UNL A   1      41.256  33.289  35.277  1.00  0.00     0.012 A 
ATOM     39  C   UNL A   1      39.617  31.599  35.846  1.00  0.00     0.148 A 
ATOM     40  C   UNL A   1      40.942  33.999  36.442  1.00  0.00     0.002 A 
ATOM     41  C   UNL A   1      39.246  32.355  36.954  1.00  0.00     0.091 A 
ATOM     42  F   UNL A   1      39.007  30.443  35.555  1.00  0.00    -0.205 F 
ATOM     43  C   UNL A   1      39.936  33.533  37.280  1.00  0.00     0.022 A 
BRANCH  41  44
ATOM     44  S   UNL A   1      37.864  31.905  38.006  1.00  0.00     0.127 S 
ATOM     45  O   UNL A   1      38.441  32.072  39.339  1.00  0.00    -0.237 OA
ATOM     46  O   UNL A   1      36.863  32.910  37.646  1.00  0.00    -0.237 OA
ATOM     47  O   UNL A   1      37.509  30.540  37.643  1.00  0.00    -0.744 OA
ENDBRANCH  41  44
ENDBRANCH  23  37
BRANCH  24  48
ATOM     48  C   UNL A   1      42.358  25.997  27.529  1.00  0.00     0.023 A 
ATOM     49  C   UNL A   1      43.104  26.457  26.424  1.00  0.00     0.012 A 
ATOM     50  C   UNL A   1      41.923  24.654  27.546  1.00  0.00     0.148 A 
ATOM     51  C   UNL A   1      43.408  25.595  25.364  1.00  0.00     0.002 A 
ATOM     52  C   UNL A   1      42.261  23.793  26.508  1.00  0.00     0.091 A 
ATOM     53  F   UNL A   1      41.194  24.242  28.594  1.00  0.00    -0.205 F 
ATOM     54  C   UNL A   1      42.999  24.262  25.411  1.00  0.00     0.022 A 
BRANCH  52  55
ATOM     55  S   UNL A   1      41.868  22.039  26.536  1.00  0.00     0.127 S 
ATOM     56  O   UNL A   1      40.413  22.056  26.403  1.00  0.00    -0.237 OA
ATOM     57  O   UNL A   1      42.589  21.554  25.359  1.00  0.00    -0.237 OA
ATOM     58  O   UNL A   1      42.377  21.539  27.806  1.00  0.00    -0.744 OA
ENDBRANCH  52  55
ENDBRANCH  24  48
BRANCH  36  59
ATOM     59  C   UNL A   1      45.217  26.625  33.873  1.00  0.00     0.023 A 
ATOM     60  C   UNL A   1      46.554  27.054  33.810  1.00  0.00     0.012 A 
ATOM     61  C   UNL A   1      44.845  25.603  34.767  1.00  0.00     0.148 A 
ATOM     62  C   UNL A   1      47.515  26.463  34.625  1.00  0.00     0.002 A 
ATOM     63  C   UNL A   1      45.797  25.059  35.615  1.00  0.00     0.091 A 
ATOM     64  F   UNL A   1      43.563  25.211  34.793  1.00  0.00    -0.205 F 
ATOM     65  C   UNL A   1      47.135  25.480  35.538  1.00  0.00     0.022 A 
BRANCH  63  66
ATOM     66  S   UNL A   1      45.375  23.879  36.900  1.00  0.00     0.127 S 
ATOM     67  O   UNL A   1      44.990  22.709  36.113  1.00  0.00    -0.237 OA
ATOM     68  O   UNL A   1      46.642  23.743  37.618  1.00  0.00    -0.237 OA
ATOM     69  O   UNL A   1      44.300  24.486  37.673  1.00  0.00    -0.744 OA
ENDBRANCH  63  66
ENDBRANCH  36  59
ENDBRANCH  10  11
ENDBRANCH   3   5
ENDBRANCH   2   3
ENDBRANCH   1   2
BRANCH   1  70
ATOM     70  C   UNL A   1      32.809  29.878  26.660  1.00  0.00     0.274 C 
BRANCH  70  71
ATOM     71  O   UNL A   1      33.596  29.779  25.435  1.00  0.00    -0.462 OA
BRANCH  71  72
ATOM     72  C   UNL A   1      33.518  28.649  24.663  1.00  0.00     0.310 C 
ATOM     73  O   UNL A   1      34.237  28.487  23.684  1.00  0.00    -0.252 OA
BRANCH  72  74
ATOM     74  C   UNL A   1      32.374  27.642  25.064  1.00  0.00     0.119 C 
ATOM     75  C   UNL A   1      30.760  27.640  24.157  1.00  0.00     0.101 C 
ATOM     76  C   UNL A   1      32.699  25.820  25.547  1.00  0.00     0.026 C 
ATOM     77  C   UNL A   1      30.096  25.848  23.759  1.00  0.00     0.025 C 
ATOM     78  C   UNL A   1      32.835  24.285  24.100  1.00  0.00    -0.027 C 
ATOM     79  C   UNL A   1      30.982  26.236  26.371  1.00  0.00     0.009 C 
ATOM     80  C   UNL A   1      31.396  24.407  23.063  1.00  0.00    -0.027 C 
ATOM     81  C   UNL A   1      29.592  25.917  25.375  1.00  0.00     0.009 C 
BRANCH  75  82
ATOM     82  C   UNL A   1      30.434  28.651  23.021  1.00  0.00     0.238 C 
ATOM     83  O   UNL A   1      30.268  28.308  21.849  1.00  0.00    -0.273 OA
ATOM     84  N   UNL A   1      30.155  29.946  23.394  1.00  0.00    -0.288 N 
ATOM     85  H   UNL A   1      30.880  30.544  23.685  1.00  0.00     0.185 HD
BRANCH  84  86
ATOM     86  N   UNL A   1      28.801  30.423  23.358  1.00  0.00    -0.217 NA
ATOM     87  C   UNL A   1      28.139  30.179  22.065  1.00  0.00     0.136 C 
ATOM     88  C   UNL A   1      28.604  31.824  23.806  1.00  0.00     0.136 C 
ATOM     89  C   UNL A   1      28.311  31.314  21.044  1.00  0.00     0.177 C 
ATOM     90  C   UNL A   1      28.709  32.900  22.707  1.00  0.00     0.177 C 
ATOM     91  O   UNL A   1      27.873  32.564  21.590  1.00  0.00    -0.379 OA
ENDBRANCH  84  86
ENDBRANCH  75  82
ENDBRANCH  72  74
ENDBRANCH  71  72
ENDBRANCH  70  71
ENDBRANCH   1  70
TORSDOF 16
ENDMDL
