MODEL 1
REMARK VINA RESULT:     -12.2      0.000      0.000
REMARK SMILES CC1=C(C)C[C@H](C(=O)OCCOC(=O)c2ccc(-c3c4nc(c(-c5cccc(S(=O)(=O)[O-])c5F)c5ccc([nH]5)c(-c5cccc(S(=O)(=O)[O-])c5F)c5nc(c(-c6cccc(S(=O)(=O)[O-])c6F)c6ccc3[nH]6)C=C5)C=C4)cc2)[C@@H](C(=O)N[C@@H](C)CCc2ccccc2)C1
REMARK SMILES IDX 10 1 9 2 7 3 8 4 6 5 1 6 2 7 3 8 92 9 4 10 5 11 78 12 79 13
REMARK SMILES IDX 80 14 81 15 82 17 83 18 84 19 85 20 86 21 87 22 91 23 88 24
REMARK SMILES IDX 90 25 89 26 11 27 12 28 13 29 14 30 15 31 16 32 77 33 17 34
REMARK SMILES IDX 76 35 18 36 19 37 20 38 70 39 21 40 75 41 69 42 71 43 22 44
REMARK SMILES IDX 74 45 68 46 67 47 23 49 55 50 35 51 54 52 36 53 39 54 53 55
REMARK SMILES IDX 72 56 37 57 38 58 52 60 73 61 40 62 24 63 25 64 33 65 26 66
REMARK SMILES IDX 28 67 34 68 27 69 29 70 30 71 31 72 32 73 56 74 57 75 65 76
REMARK SMILES IDX 58 77 60 78 66 79 59 80 61 81 62 82 63 83 64 84 41 85 42 86
REMARK SMILES IDX 50 87 43 88 45 89 51 90 44 91 46 92 47 93 48 94 49 95
REMARK H PARENT 81 16 71 48 39 59
REMARK Flexibility Score: inf
ROOT
ATOM      1  C   UNL A   1      36.185  23.152  23.742  1.00  0.00     0.274 C 
ENDROOT
BRANCH   1   2
ATOM      2  O   UNL A   1      35.080  23.109  22.818  1.00  0.00    -0.462 OA
BRANCH   2   3
ATOM      3  C   UNL A   1      34.046  23.949  23.104  1.00  0.00     0.310 C 
ATOM      4  O   UNL A   1      33.123  24.198  22.338  1.00  0.00    -0.252 OA
BRANCH   3   5
ATOM      5  C   UNL A   1      34.159  24.573  24.483  1.00  0.00     0.116 C 
ATOM      6  C   UNL A   1      31.417  27.265  26.785  1.00  0.00     0.039 C 
ATOM      7  C   UNL A   1      32.405  26.450  25.988  1.00  0.00    -0.074 C 
ATOM      8  C   UNL A   1      33.279  26.960  25.102  1.00  0.00    -0.073 C 
ATOM      9  C   UNL A   1      32.362  24.980  26.323  1.00  0.00     0.045 C 
ATOM     10  C   UNL A   1      33.442  28.426  24.769  1.00  0.00     0.039 C 
ATOM     11  C   UNL A   1      34.229  26.095  24.328  1.00  0.00     0.046 C 
ATOM     12  C   UNL A   1      33.089  23.978  25.406  1.00  0.00     0.097 C 
BRANCH  12  13
ATOM     13  C   UNL A   1      33.754  22.892  26.262  1.00  0.00     0.224 C 
ATOM     14  O   UNL A   1      34.664  23.146  27.056  1.00  0.00    -0.275 OA
ATOM     15  N   UNL A   1      33.406  21.582  26.138  1.00  0.00    -0.353 N 
ATOM     16  H   UNL A   1      33.964  20.967  26.666  1.00  0.00     0.163 HD
BRANCH  15  17
ATOM     17  C   UNL A   1      32.357  20.920  25.366  1.00  0.00     0.079 C 
ATOM     18  C   UNL A   1      31.125  21.826  25.306  1.00  0.00     0.031 C 
BRANCH  17  19
ATOM     19  C   UNL A   1      32.837  20.620  23.933  1.00  0.00     0.029 C 
BRANCH  19  20
ATOM     20  C   UNL A   1      32.429  19.245  23.386  1.00  0.00     0.037 C 
BRANCH  20  21
ATOM     21  C   UNL A   1      32.975  18.045  24.123  1.00  0.00    -0.048 A 
ATOM     22  C   UNL A   1      34.311  17.667  23.926  1.00  0.00     0.004 A 
ATOM     23  C   UNL A   1      32.180  17.267  24.975  1.00  0.00     0.004 A 
ATOM     24  C   UNL A   1      34.858  16.582  24.613  1.00  0.00     0.000 A 
ATOM     25  C   UNL A   1      32.725  16.173  25.653  1.00  0.00     0.000 A 
ATOM     26  C   UNL A   1      34.066  15.839  25.483  1.00  0.00     0.000 A 
ENDBRANCH  20  21
ENDBRANCH  19  20
ENDBRANCH  17  19
ENDBRANCH  15  17
ENDBRANCH  12  13
ENDBRANCH   3   5
ENDBRANCH   2   3
ENDBRANCH   1   2
BRANCH   1  27
ATOM     27  C   UNL A   1      36.659  21.748  24.100  1.00  0.00     0.275 C 
BRANCH  27  28
ATOM     28  O   UNL A   1      37.036  21.707  25.484  1.00  0.00    -0.458 OA
BRANCH  28  29
ATOM     29  C   UNL A   1      38.331  21.424  25.729  1.00  0.00     0.338 C 
ATOM     30  O   UNL A   1      38.922  20.378  25.473  1.00  0.00    -0.246 OA
BRANCH  29  31
ATOM     31  C   UNL A   1      38.987  22.577  26.357  1.00  0.00     0.060 A 
ATOM     32  C   UNL A   1      38.516  23.870  26.125  1.00  0.00     0.016 A 
ATOM     33  C   UNL A   1      40.155  22.375  27.088  1.00  0.00     0.016 A 
ATOM     34  C   UNL A   1      39.260  24.970  26.534  1.00  0.00     0.010 A 
ATOM     35  C   UNL A   1      40.847  23.478  27.588  1.00  0.00     0.010 A 
ATOM     36  C   UNL A   1      40.428  24.785  27.281  1.00  0.00    -0.014 A 
BRANCH  36  37
ATOM     37  C   UNL A   1      41.230  25.947  27.736  1.00  0.00     0.031 A 
ATOM     38  C   UNL A   1      40.583  27.014  28.574  1.00  0.00     0.074 A 
ATOM     39  C   UNL A   1      42.514  26.070  27.351  1.00  0.00     0.049 A 
ATOM     40  N   UNL A   1      41.028  28.203  28.881  1.00  0.00    -0.248 NA
ATOM     41  C   UNL A   1      39.248  26.711  29.119  1.00  0.00     0.031 C 
ATOM     42  C   UNL A   1      43.251  25.095  26.545  1.00  0.00     0.029 A 
ATOM     43  N   UNL A   1      43.417  27.082  27.559  1.00  0.00    -0.354 N 
ATOM     44  C   UNL A   1      39.998  28.823  29.579  1.00  0.00     0.074 A 
ATOM     45  C   UNL A   1      38.914  27.870  29.670  1.00  0.00     0.031 C 
ATOM     46  C   UNL A   1      44.489  25.558  26.319  1.00  0.00     0.029 A 
ATOM     47  C   UNL A   1      44.610  26.890  26.900  1.00  0.00     0.049 A 
ATOM     48  H   UNL A   1      43.231  27.866  28.123  1.00  0.00     0.167 HD
ATOM     49  C   UNL A   1      39.966  30.072  30.097  1.00  0.00     0.034 A 
ATOM     50  C   UNL A   1      45.664  27.712  26.739  1.00  0.00     0.034 A 
ATOM     51  C   UNL A   1      41.082  30.977  30.077  1.00  0.00     0.049 A 
ATOM     52  C   UNL A   1      45.621  29.077  27.363  1.00  0.00     0.074 A 
ATOM     53  C   UNL A   1      41.179  32.237  30.640  1.00  0.00     0.029 A 
ATOM     54  N   UNL A   1      42.301  30.712  29.472  1.00  0.00    -0.354 N 
ATOM     55  N   UNL A   1      44.667  29.624  28.079  1.00  0.00    -0.248 NA
ATOM     56  C   UNL A   1      46.799  29.933  27.173  1.00  0.00     0.031 C 
ATOM     57  C   UNL A   1      42.460  32.733  30.374  1.00  0.00     0.029 A 
ATOM     58  C   UNL A   1      43.158  31.784  29.645  1.00  0.00     0.049 A 
ATOM     59  H   UNL A   1      42.524  29.882  28.990  1.00  0.00     0.167 HD
ATOM     60  C   UNL A   1      45.130  30.885  28.430  1.00  0.00     0.074 A 
ATOM     61  C   UNL A   1      46.464  31.009  27.876  1.00  0.00     0.031 C 
ATOM     62  C   UNL A   1      44.500  31.863  29.126  1.00  0.00     0.034 A 
BRANCH  49  63
ATOM     63  C   UNL A   1      38.691  30.520  30.758  1.00  0.00     0.023 A 
ATOM     64  C   UNL A   1      38.504  30.299  32.136  1.00  0.00     0.012 A 
ATOM     65  C   UNL A   1      37.696  31.194  30.023  1.00  0.00     0.148 A 
ATOM     66  C   UNL A   1      37.334  30.720  32.769  1.00  0.00     0.002 A 
ATOM     67  C   UNL A   1      36.547  31.640  30.667  1.00  0.00     0.091 A 
ATOM     68  F   UNL A   1      37.877  31.365  28.705  1.00  0.00    -0.205 F 
ATOM     69  C   UNL A   1      36.362  31.400  32.037  1.00  0.00     0.022 A 
BRANCH  67  70
ATOM     70  S   UNL A   1      35.280  32.576  29.804  1.00  0.00     0.127 S 
ATOM     71  O   UNL A   1      34.804  31.601  28.825  1.00  0.00    -0.237 OA
ATOM     72  O   UNL A   1      34.326  32.881  30.872  1.00  0.00    -0.237 OA
ATOM     73  O   UNL A   1      35.962  33.744  29.261  1.00  0.00    -0.744 OA
ENDBRANCH  67  70
ENDBRANCH  49  63
BRANCH  50  74
ATOM     74  C   UNL A   1      46.842  27.239  25.961  1.00  0.00     0.023 A 
ATOM     75  C   UNL A   1      46.924  27.528  24.587  1.00  0.00     0.012 A 
ATOM     76  C   UNL A   1      47.925  26.592  26.592  1.00  0.00     0.148 A 
ATOM     77  C   UNL A   1      48.058  27.179  23.854  1.00  0.00     0.002 A 
ATOM     78  C   UNL A   1      49.076  26.302  25.870  1.00  0.00     0.091 A 
ATOM     79  F   UNL A   1      47.820  26.302  27.897  1.00  0.00    -0.205 F 
ATOM     80  C   UNL A   1      49.140  26.583  24.497  1.00  0.00     0.022 A 
BRANCH  78  81
ATOM     81  S   UNL A   1      50.564  25.684  26.667  1.00  0.00     0.127 S 
ATOM     82  O   UNL A   1      50.086  24.452  27.285  1.00  0.00    -0.237 OA
ATOM     83  O   UNL A   1      51.468  25.492  25.530  1.00  0.00    -0.237 OA
ATOM     84  O   UNL A   1      50.978  26.742  27.579  1.00  0.00    -0.744 OA
ENDBRANCH  78  81
ENDBRANCH  50  74
BRANCH  62  85
ATOM     85  C   UNL A   1      45.242  33.155  29.328  1.00  0.00     0.023 A 
ATOM     86  C   UNL A   1      46.106  33.283  30.433  1.00  0.00     0.012 A 
ATOM     87  C   UNL A   1      45.151  34.198  28.390  1.00  0.00     0.148 A 
ATOM     88  C   UNL A   1      46.859  34.443  30.608  1.00  0.00     0.002 A 
ATOM     89  C   UNL A   1      45.931  35.338  28.552  1.00  0.00     0.091 A 
ATOM     90  F   UNL A   1      44.303  34.065  27.359  1.00  0.00    -0.205 F 
ATOM     91  C   UNL A   1      46.782  35.464  29.663  1.00  0.00     0.022 A 
BRANCH  89  92
ATOM     92  S   UNL A   1      45.949  36.659  27.335  1.00  0.00     0.127 S 
ATOM     93  O   UNL A   1      46.858  37.622  27.953  1.00  0.00    -0.237 OA
ATOM     94  O   UNL A   1      46.483  35.990  26.149  1.00  0.00    -0.237 OA
ATOM     95  O   UNL A   1      44.563  37.091  27.204  1.00  0.00    -0.744 OA
ENDBRANCH  89  92
ENDBRANCH  62  85
ENDBRANCH  36  37
ENDBRANCH  29  31
ENDBRANCH  28  29
ENDBRANCH  27  28
ENDBRANCH   1  27
TORSDOF 19
ENDMDL
MODEL 2
REMARK VINA RESULT:     -12.0      4.970      9.739
REMARK SMILES CC1=C(C)C[C@H](C(=O)OCCOC(=O)c2ccc(-c3c4nc(c(-c5cccc(S(=O)(=O)[O-])c5F)c5ccc([nH]5)c(-c5cccc(S(=O)(=O)[O-])c5F)c5nc(c(-c6cccc(S(=O)(=O)[O-])c6F)c6ccc3[nH]6)C=C5)C=C4)cc2)[C@@H](C(=O)N[C@@H](C)CCc2ccccc2)C1
REMARK SMILES IDX 10 1 9 2 7 3 8 4 6 5 1 6 2 7 3 8 92 9 4 10 5 11 78 12 79 13
REMARK SMILES IDX 80 14 81 15 82 17 83 18 84 19 85 20 86 21 87 22 91 23 88 24
REMARK SMILES IDX 90 25 89 26 11 27 12 28 13 29 14 30 15 31 16 32 77 33 17 34
REMARK SMILES IDX 76 35 18 36 19 37 20 38 70 39 21 40 75 41 69 42 71 43 22 44
REMARK SMILES IDX 74 45 68 46 67 47 23 49 55 50 35 51 54 52 36 53 39 54 53 55
REMARK SMILES IDX 72 56 37 57 38 58 52 60 73 61 40 62 24 63 25 64 33 65 26 66
REMARK SMILES IDX 28 67 34 68 27 69 29 70 30 71 31 72 32 73 56 74 57 75 65 76
REMARK SMILES IDX 58 77 60 78 66 79 59 80 61 81 62 82 63 83 64 84 41 85 42 86
REMARK SMILES IDX 50 87 43 88 45 89 51 90 44 91 46 92 47 93 48 94 49 95
REMARK H PARENT 81 16 71 48 39 59
REMARK Flexibility Score: inf
ROOT
ATOM      1  C   UNL A   1      31.651  28.501  27.515  1.00  0.00     0.274 C 
ENDROOT
BRANCH   1   2
ATOM      2  O   UNL A   1      31.341  27.354  26.700  1.00  0.00    -0.462 OA
BRANCH   2   3
ATOM      3  C   UNL A   1      32.310  26.985  25.816  1.00  0.00     0.310 C 
ATOM      4  O   UNL A   1      33.475  26.757  26.118  1.00  0.00    -0.252 OA
BRANCH   3   5
ATOM      5  C   UNL A   1      31.801  26.900  24.388  1.00  0.00     0.116 C 
ATOM      6  C   UNL A   1      28.635  29.187  22.195  1.00  0.00     0.039 C 
ATOM      7  C   UNL A   1      29.627  28.330  22.941  1.00  0.00    -0.074 C 
ATOM      8  C   UNL A   1      29.305  27.257  23.684  1.00  0.00    -0.073 C 
ATOM      9  C   UNL A   1      31.056  28.763  22.728  1.00  0.00     0.045 C 
ATOM     10  C   UNL A   1      27.909  26.709  23.882  1.00  0.00     0.039 C 
ATOM     11  C   UNL A   1      30.338  26.451  24.415  1.00  0.00     0.046 C 
ATOM     12  C   UNL A   1      32.160  28.187  23.636  1.00  0.00     0.097 C 
BRANCH  12  13
ATOM     13  C   UNL A   1      33.417  27.911  22.800  1.00  0.00     0.224 C 
ATOM     14  O   UNL A   1      34.383  28.677  22.793  1.00  0.00    -0.275 OA
ATOM     15  N   UNL A   1      33.494  26.829  21.978  1.00  0.00    -0.353 N 
ATOM     16  H   UNL A   1      34.305  26.806  21.421  1.00  0.00     0.163 HD
BRANCH  15  17
ATOM     17  C   UNL A   1      32.597  25.696  21.769  1.00  0.00     0.079 C 
ATOM     18  C   UNL A   1      32.244  25.598  20.283  1.00  0.00     0.031 C 
BRANCH  17  19
ATOM     19  C   UNL A   1      33.258  24.380  22.221  1.00  0.00     0.029 C 
BRANCH  19  20
ATOM     20  C   UNL A   1      34.123  24.489  23.484  1.00  0.00     0.037 C 
BRANCH  20  21
ATOM     21  C   UNL A   1      34.148  23.274  24.383  1.00  0.00    -0.048 A 
ATOM     22  C   UNL A   1      34.767  23.361  25.638  1.00  0.00     0.004 A 
ATOM     23  C   UNL A   1      33.604  22.045  23.990  1.00  0.00     0.004 A 
ATOM     24  C   UNL A   1      34.783  22.269  26.506  1.00  0.00     0.000 A 
ATOM     25  C   UNL A   1      33.631  20.947  24.855  1.00  0.00     0.000 A 
ATOM     26  C   UNL A   1      34.208  21.063  26.117  1.00  0.00     0.000 A 
ENDBRANCH  20  21
ENDBRANCH  19  20
ENDBRANCH  17  19
ENDBRANCH  15  17
ENDBRANCH  12  13
ENDBRANCH   3   5
ENDBRANCH   2   3
ENDBRANCH   1   2
BRANCH   1  27
ATOM     27  C   UNL A   1      31.533  29.793  26.714  1.00  0.00     0.275 C 
BRANCH  27  28
ATOM     28  O   UNL A   1      32.842  30.264  26.366  1.00  0.00    -0.458 OA
BRANCH  28  29
ATOM     29  C   UNL A   1      33.292  31.319  27.076  1.00  0.00     0.338 C 
ATOM     30  O   UNL A   1      32.715  32.387  27.263  1.00  0.00    -0.246 OA
BRANCH  29  31
ATOM     31  C   UNL A   1      34.614  31.019  27.637  1.00  0.00     0.060 A 
ATOM     32  C   UNL A   1      34.974  29.703  27.933  1.00  0.00     0.016 A 
ATOM     33  C   UNL A   1      35.458  32.072  27.982  1.00  0.00     0.016 A 
ATOM     34  C   UNL A   1      36.127  29.440  28.663  1.00  0.00     0.010 A 
ATOM     35  C   UNL A   1      36.666  31.799  28.624  1.00  0.00     0.010 A 
ATOM     36  C   UNL A   1      36.992  30.485  29.005  1.00  0.00    -0.014 A 
BRANCH  36  37
ATOM     37  C   UNL A   1      38.232  30.222  29.774  1.00  0.00     0.031 A 
ATOM     38  C   UNL A   1      39.277  29.302  29.208  1.00  0.00     0.074 A 
ATOM     39  C   UNL A   1      38.391  30.761  30.998  1.00  0.00     0.049 A 
ATOM     40  N   UNL A   1      40.310  28.764  29.800  1.00  0.00    -0.248 NA
ATOM     41  C   UNL A   1      39.126  28.917  27.794  1.00  0.00     0.031 C 
ATOM     42  C   UNL A   1      37.450  31.675  31.647  1.00  0.00     0.029 A 
ATOM     43  N   UNL A   1      39.388  30.594  31.926  1.00  0.00    -0.354 N 
ATOM     44  C   UNL A   1      40.882  27.914  28.863  1.00  0.00     0.074 A 
ATOM     45  C   UNL A   1      40.095  28.023  27.654  1.00  0.00     0.031 C 
ATOM     46  C   UNL A   1      37.907  31.981  32.870  1.00  0.00     0.029 A 
ATOM     47  C   UNL A   1      39.133  31.232  33.118  1.00  0.00     0.049 A 
ATOM     48  H   UNL A   1      40.204  30.071  31.756  1.00  0.00     0.167 HD
ATOM     49  C   UNL A   1      41.966  27.118  29.000  1.00  0.00     0.034 A 
ATOM     50  C   UNL A   1      39.784  31.181  34.296  1.00  0.00     0.034 A 
ATOM     51  C   UNL A   1      42.792  27.084  30.177  1.00  0.00     0.049 A 
ATOM     52  C   UNL A   1      41.013  30.325  34.409  1.00  0.00     0.074 A 
ATOM     53  C   UNL A   1      43.957  26.370  30.391  1.00  0.00     0.029 A 
ATOM     54  N   UNL A   1      42.547  27.809  31.333  1.00  0.00    -0.354 N 
ATOM     55  N   UNL A   1      41.581  29.578  33.492  1.00  0.00    -0.248 NA
ATOM     56  C   UNL A   1      41.698  30.312  35.707  1.00  0.00     0.031 C 
ATOM     57  C   UNL A   1      44.415  26.664  31.681  1.00  0.00     0.029 A 
ATOM     58  C   UNL A   1      43.535  27.559  32.267  1.00  0.00     0.049 A 
ATOM     59  H   UNL A   1      41.780  28.413  31.469  1.00  0.00     0.167 HD
ATOM     60  C   UNL A   1      42.694  29.011  34.099  1.00  0.00     0.074 A 
ATOM     61  C   UNL A   1      42.738  29.526  35.454  1.00  0.00     0.031 C 
ATOM     62  C   UNL A   1      43.584  28.124  33.592  1.00  0.00     0.034 A 
BRANCH  49  63
ATOM     63  C   UNL A   1      42.340  26.240  27.837  1.00  0.00     0.023 A 
ATOM     64  C   UNL A   1      43.203  26.733  26.839  1.00  0.00     0.012 A 
ATOM     65  C   UNL A   1      41.869  24.916  27.752  1.00  0.00     0.148 A 
ATOM     66  C   UNL A   1      43.571  25.930  25.760  1.00  0.00     0.002 A 
ATOM     67  C   UNL A   1      42.267  24.109  26.692  1.00  0.00     0.091 A 
ATOM     68  F   UNL A   1      41.022  24.473  28.694  1.00  0.00    -0.205 F 
ATOM     69  C   UNL A   1      43.113  24.615  25.693  1.00  0.00     0.022 A 
BRANCH  67  70
ATOM     70  S   UNL A   1      41.767  22.388  26.571  1.00  0.00     0.127 S 
ATOM     71  O   UNL A   1      42.441  21.967  25.344  1.00  0.00    -0.237 OA
ATOM     72  O   UNL A   1      42.320  21.809  27.797  1.00  0.00    -0.237 OA
ATOM     73  O   UNL A   1      40.311  22.409  26.524  1.00  0.00    -0.744 OA
ENDBRANCH  67  70
ENDBRANCH  49  63
BRANCH  50  74
ATOM     74  C   UNL A   1      39.277  31.985  35.442  1.00  0.00     0.023 A 
ATOM     75  C   UNL A   1      38.454  31.372  36.404  1.00  0.00     0.012 A 
ATOM     76  C   UNL A   1      39.684  33.321  35.637  1.00  0.00     0.148 A 
ATOM     77  C   UNL A   1      38.041  32.074  37.536  1.00  0.00     0.002 A 
ATOM     78  C   UNL A   1      39.319  33.996  36.796  1.00  0.00     0.091 A 
ATOM     79  F   UNL A   1      40.448  33.897  34.698  1.00  0.00    -0.205 F 
ATOM     80  C   UNL A   1      38.487  33.378  37.742  1.00  0.00     0.022 A 
BRANCH  78  81
ATOM     81  S   UNL A   1      39.987  35.614  37.201  1.00  0.00     0.127 S 
ATOM     82  O   UNL A   1      39.300  35.919  38.452  1.00  0.00    -0.237 OA
ATOM     83  O   UNL A   1      41.418  35.334  37.337  1.00  0.00    -0.237 OA
ATOM     84  O   UNL A   1      39.656  36.461  36.063  1.00  0.00    -0.744 OA
ENDBRANCH  78  81
ENDBRANCH  50  74
BRANCH  62  85
ATOM     85  C   UNL A   1      44.683  27.650  34.502  1.00  0.00     0.023 A 
ATOM     86  C   UNL A   1      45.880  28.389  34.574  1.00  0.00     0.012 A 
ATOM     87  C   UNL A   1      44.501  26.536  35.341  1.00  0.00     0.148 A 
ATOM     88  C   UNL A   1      46.889  28.014  35.460  1.00  0.00     0.002 A 
ATOM     89  C   UNL A   1      45.498  26.188  36.246  1.00  0.00     0.091 A 
ATOM     90  F   UNL A   1      43.364  25.832  35.238  1.00  0.00    -0.205 F 
ATOM     91  C   UNL A   1      46.694  26.923  36.303  1.00  0.00     0.022 A 
BRANCH  89  92
ATOM     92  S   UNL A   1      45.286  24.848  37.423  1.00  0.00     0.127 S 
ATOM     93  O   UNL A   1      44.216  25.363  38.274  1.00  0.00    -0.237 OA
ATOM     94  O   UNL A   1      44.897  23.729  36.563  1.00  0.00    -0.237 OA
ATOM     95  O   UNL A   1      46.583  24.682  38.068  1.00  0.00    -0.744 OA
ENDBRANCH  89  92
ENDBRANCH  62  85
ENDBRANCH  36  37
ENDBRANCH  29  31
ENDBRANCH  28  29
ENDBRANCH  27  28
ENDBRANCH   1  27
TORSDOF 19
ENDMDL
MODEL 3
REMARK VINA RESULT:     -11.8      1.523      2.149
REMARK SMILES CC1=C(C)C[C@H](C(=O)OCCOC(=O)c2ccc(-c3c4nc(c(-c5cccc(S(=O)(=O)[O-])c5F)c5ccc([nH]5)c(-c5cccc(S(=O)(=O)[O-])c5F)c5nc(c(-c6cccc(S(=O)(=O)[O-])c6F)c6ccc3[nH]6)C=C5)C=C4)cc2)[C@@H](C(=O)N[C@@H](C)CCc2ccccc2)C1
REMARK SMILES IDX 10 1 9 2 7 3 8 4 6 5 1 6 2 7 3 8 92 9 4 10 5 11 78 12 79 13
REMARK SMILES IDX 80 14 81 15 82 17 83 18 84 19 85 20 86 21 87 22 91 23 88 24
REMARK SMILES IDX 90 25 89 26 11 27 12 28 13 29 14 30 15 31 16 32 77 33 17 34
REMARK SMILES IDX 76 35 18 36 19 37 20 38 70 39 21 40 75 41 69 42 71 43 22 44
REMARK SMILES IDX 74 45 68 46 67 47 23 49 55 50 35 51 54 52 36 53 39 54 53 55
REMARK SMILES IDX 72 56 37 57 38 58 52 60 73 61 40 62 24 63 25 64 33 65 26 66
REMARK SMILES IDX 28 67 34 68 27 69 29 70 30 71 31 72 32 73 56 74 57 75 65 76
REMARK SMILES IDX 58 77 60 78 66 79 59 80 61 81 62 82 63 83 64 84 41 85 42 86
REMARK SMILES IDX 50 87 43 88 45 89 51 90 44 91 46 92 47 93 48 94 49 95
REMARK H PARENT 81 16 71 48 39 59
REMARK Flexibility Score: inf
ROOT
ATOM      1  C   UNL A   1      36.483  21.296  24.487  1.00  0.00     0.274 C 
ENDROOT
BRANCH   1   2
ATOM      2  O   UNL A   1      35.529  22.132  25.171  1.00  0.00    -0.462 OA
BRANCH   2   3
ATOM      3  C   UNL A   1      35.632  23.466  24.916  1.00  0.00     0.310 C 
ATOM      4  O   UNL A   1      36.684  24.092  24.910  1.00  0.00    -0.252 OA
BRANCH   3   5
ATOM      5  C   UNL A   1      34.287  24.119  24.651  1.00  0.00     0.116 C 
ATOM      6  C   UNL A   1      33.157  28.319  23.577  1.00  0.00     0.039 C 
ATOM      7  C   UNL A   1      33.502  26.927  24.045  1.00  0.00    -0.074 C 
ATOM      8  C   UNL A   1      33.676  26.573  25.330  1.00  0.00    -0.073 C 
ATOM      9  C   UNL A   1      33.581  25.929  22.917  1.00  0.00     0.045 C 
ATOM     10  C   UNL A   1      33.535  27.491  26.524  1.00  0.00     0.039 C 
ATOM     11  C   UNL A   1      34.033  25.172  25.733  1.00  0.00     0.046 C 
ATOM     12  C   UNL A   1      34.201  24.543  23.180  1.00  0.00     0.097 C 
BRANCH  12  13
ATOM     13  C   UNL A   1      33.400  23.474  22.426  1.00  0.00     0.224 C 
ATOM     14  O   UNL A   1      33.459  23.350  21.200  1.00  0.00    -0.275 OA
ATOM     15  N   UNL A   1      32.537  22.647  23.078  1.00  0.00    -0.353 N 
ATOM     16  H   UNL A   1      32.009  22.068  22.483  1.00  0.00     0.163 HD
BRANCH  15  17
ATOM     17  C   UNL A   1      32.249  22.460  24.498  1.00  0.00     0.079 C 
ATOM     18  C   UNL A   1      30.891  23.085  24.824  1.00  0.00     0.031 C 
BRANCH  17  19
ATOM     19  C   UNL A   1      32.220  20.964  24.861  1.00  0.00     0.029 C 
BRANCH  19  20
ATOM     20  C   UNL A   1      32.967  20.044  23.884  1.00  0.00     0.037 C 
BRANCH  20  21
ATOM     21  C   UNL A   1      33.074  18.592  24.285  1.00  0.00    -0.048 A 
ATOM     22  C   UNL A   1      32.626  18.194  25.552  1.00  0.00     0.004 A 
ATOM     23  C   UNL A   1      33.644  17.627  23.444  1.00  0.00     0.004 A 
ATOM     24  C   UNL A   1      32.682  16.856  25.944  1.00  0.00     0.000 A 
ATOM     25  C   UNL A   1      33.711  16.289  23.842  1.00  0.00     0.000 A 
ATOM     26  C   UNL A   1      33.218  15.901  25.085  1.00  0.00     0.000 A 
ENDBRANCH  20  21
ENDBRANCH  19  20
ENDBRANCH  17  19
ENDBRANCH  15  17
ENDBRANCH  12  13
ENDBRANCH   3   5
ENDBRANCH   2   3
ENDBRANCH   1   2
BRANCH   1  27
ATOM     27  C   UNL A   1      37.514  20.728  25.456  1.00  0.00     0.275 C 
BRANCH  27  28
ATOM     28  O   UNL A   1      38.703  21.528  25.415  1.00  0.00    -0.458 OA
BRANCH  28  29
ATOM     29  C   UNL A   1      39.590  21.310  26.407  1.00  0.00     0.338 C 
ATOM     30  O   UNL A   1      40.001  20.224  26.808  1.00  0.00    -0.246 OA
BRANCH  29  31
ATOM     31  C   UNL A   1      40.037  22.589  26.971  1.00  0.00     0.060 A 
ATOM     32  C   UNL A   1      39.530  23.793  26.480  1.00  0.00     0.016 A 
ATOM     33  C   UNL A   1      41.060  22.590  27.916  1.00  0.00     0.016 A 
ATOM     34  C   UNL A   1      40.109  25.000  26.853  1.00  0.00     0.010 A 
ATOM     35  C   UNL A   1      41.571  23.807  28.368  1.00  0.00     0.010 A 
ATOM     36  C   UNL A   1      41.127  25.020  27.812  1.00  0.00    -0.014 A 
BRANCH  36  37
ATOM     37  C   UNL A   1      41.749  26.300  28.231  1.00  0.00     0.031 A 
ATOM     38  C   UNL A   1      40.925  27.323  28.960  1.00  0.00     0.074 A 
ATOM     39  C   UNL A   1      43.029  26.563  27.908  1.00  0.00     0.049 A 
ATOM     40  N   UNL A   1      41.199  28.576  29.211  1.00  0.00    -0.248 NA
ATOM     41  C   UNL A   1      39.606  26.886  29.451  1.00  0.00     0.031 C 
ATOM     42  C   UNL A   1      43.930  25.644  27.209  1.00  0.00     0.029 A 
ATOM     43  N   UNL A   1      43.786  27.692  28.097  1.00  0.00    -0.354 N 
ATOM     44  C   UNL A   1      40.060  29.099  29.809  1.00  0.00     0.074 A 
ATOM     45  C   UNL A   1      39.098  28.023  29.905  1.00  0.00     0.031 C 
ATOM     46  C   UNL A   1      45.113  26.246  27.020  1.00  0.00     0.029 A 
ATOM     47  C   UNL A   1      45.032  27.615  27.517  1.00  0.00     0.049 A 
ATOM     48  H   UNL A   1      43.470  28.478  28.597  1.00  0.00     0.167 HD
ATOM     49  C   UNL A   1      39.841  30.362  30.241  1.00  0.00     0.034 A 
ATOM     50  C   UNL A   1      45.983  28.554  27.358  1.00  0.00     0.034 A 
ATOM     51  C   UNL A   1      40.835  31.400  30.221  1.00  0.00     0.049 A 
ATOM     52  C   UNL A   1      45.734  29.936  27.888  1.00  0.00     0.074 A 
ATOM     53  C   UNL A   1      40.740  32.692  30.703  1.00  0.00     0.029 A 
ATOM     54  N   UNL A   1      42.113  31.257  29.702  1.00  0.00    -0.354 N 
ATOM     55  N   UNL A   1      44.677  30.399  28.513  1.00  0.00    -0.248 NA
ATOM     56  C   UNL A   1      46.806  30.923  27.705  1.00  0.00     0.031 C 
ATOM     57  C   UNL A   1      41.965  33.332  30.475  1.00  0.00     0.029 A 
ATOM     58  C   UNL A   1      42.818  32.438  29.849  1.00  0.00     0.049 A 
ATOM     59  H   UNL A   1      42.466  30.435  29.289  1.00  0.00     0.167 HD
ATOM     60  C   UNL A   1      44.958  31.727  28.804  1.00  0.00     0.074 A 
ATOM     61  C   UNL A   1      46.298  31.987  28.316  1.00  0.00     0.031 C 
ATOM     62  C   UNL A   1      44.170  32.656  29.399  1.00  0.00     0.034 A 
BRANCH  49  63
ATOM     63  C   UNL A   1      38.482  30.682  30.801  1.00  0.00     0.023 A 
ATOM     64  C   UNL A   1      38.179  30.346  32.135  1.00  0.00     0.012 A 
ATOM     65  C   UNL A   1      37.519  31.350  30.020  1.00  0.00     0.148 A 
ATOM     66  C   UNL A   1      36.929  30.648  32.676  1.00  0.00     0.002 A 
ATOM     67  C   UNL A   1      36.287  31.677  30.575  1.00  0.00     0.091 A 
ATOM     68  F   UNL A   1      37.812  31.632  28.742  1.00  0.00    -0.205 F 
ATOM     69  C   UNL A   1      35.988  31.322  31.900  1.00  0.00     0.022 A 
BRANCH  67  70
ATOM     70  S   UNL A   1      35.049  32.599  29.658  1.00  0.00     0.127 S 
ATOM     71  O   UNL A   1      34.132  33.007  30.720  1.00  0.00    -0.237 OA
ATOM     72  O   UNL A   1      35.831  33.693  29.078  1.00  0.00    -0.237 OA
ATOM     73  O   UNL A   1      34.514  31.663  28.678  1.00  0.00    -0.744 OA
ENDBRANCH  67  70
ENDBRANCH  49  63
BRANCH  50  74
ATOM     74  C   UNL A   1      47.257  28.190  26.678  1.00  0.00     0.023 A 
ATOM     75  C   UNL A   1      48.353  27.760  27.448  1.00  0.00     0.012 A 
ATOM     76  C   UNL A   1      47.357  28.172  25.272  1.00  0.00     0.148 A 
ATOM     77  C   UNL A   1      49.526  27.324  26.832  1.00  0.00     0.002 A 
ATOM     78  C   UNL A   1      48.506  27.680  24.663  1.00  0.00     0.091 A 
ATOM     79  F   UNL A   1      46.312  28.609  24.553  1.00  0.00    -0.205 F 
ATOM     80  C   UNL A   1      49.597  27.267  25.442  1.00  0.00     0.022 A 
BRANCH  78  81
ATOM     81  S   UNL A   1      48.604  27.428  22.887  1.00  0.00     0.127 S 
ATOM     82  O   UNL A   1      47.463  28.201  22.409  1.00  0.00    -0.237 OA
ATOM     83  O   UNL A   1      49.914  27.998  22.564  1.00  0.00    -0.237 OA
ATOM     84  O   UNL A   1      48.526  25.985  22.701  1.00  0.00    -0.744 OA
ENDBRANCH  78  81
ENDBRANCH  50  74
BRANCH  62  85
ATOM     85  C   UNL A   1      44.731  34.042  29.554  1.00  0.00     0.023 A 
ATOM     86  C   UNL A   1      45.428  34.371  30.733  1.00  0.00     0.012 A 
ATOM     87  C   UNL A   1      44.646  34.981  28.511  1.00  0.00     0.148 A 
ATOM     88  C   UNL A   1      46.020  35.624  30.877  1.00  0.00     0.002 A 
ATOM     89  C   UNL A   1      45.268  36.217  28.648  1.00  0.00     0.091 A 
ATOM     90  F   UNL A   1      43.956  34.656  27.407  1.00  0.00    -0.205 F 
ATOM     91  C   UNL A   1      45.951  36.542  29.831  1.00  0.00     0.022 A 
BRANCH  89  92
ATOM     92  S   UNL A   1      45.294  37.420  27.314  1.00  0.00     0.127 S 
ATOM     93  O   UNL A   1      46.100  36.732  26.307  1.00  0.00    -0.237 OA
ATOM     94  O   UNL A   1      43.877  37.550  26.975  1.00  0.00    -0.237 OA
ATOM     95  O   UNL A   1      45.886  38.625  27.882  1.00  0.00    -0.744 OA
ENDBRANCH  89  92
ENDBRANCH  62  85
ENDBRANCH  36  37
ENDBRANCH  29  31
ENDBRANCH  28  29
ENDBRANCH  27  28
ENDBRANCH   1  27
TORSDOF 19
ENDMDL
