MODEL 1
REMARK VINA RESULT:     -12.2      0.000      0.000
REMARK SMILES COc1ccc(-c2nc3ccc(C)cc3[nH]2)c(C(=O)OCCOC(=O)c2ccc(-c3c4nc(c(-c5cccc(S(=O)(=O)[O-])c5F)c5ccc([nH]5)c(-c5cccc(S(=O)(=O)[O-])c5F)c5nc(c(-c6cccc(S(=O)(=O)[O-])c6F)c6ccc3[nH]6)C=C5)C=C4)cc2)c1OC
REMARK SMILES IDX 22 1 21 2 20 3 18 4 19 5 17 6 3 7 4 8 89 9 5 10 6 11 2 12
REMARK SMILES IDX 1 13 90 14 91 15 7 16 8 17 16 18 9 19 15 20 10 22 14 23
REMARK SMILES IDX 11 24 12 25 13 26 23 27 24 28 25 29 26 30 27 31 88 32 28 33
REMARK SMILES IDX 87 34 29 35 30 36 31 37 81 38 32 39 86 40 80 41 82 42 33 43
REMARK SMILES IDX 85 44 79 45 78 46 34 48 66 49 46 50 65 51 47 52 50 53 64 54
REMARK SMILES IDX 83 55 48 56 49 57 63 59 84 60 51 61 35 62 36 63 44 64 37 65
REMARK SMILES IDX 39 66 45 67 38 68 40 69 41 70 42 71 43 72 67 73 68 74 76 75
REMARK SMILES IDX 69 76 71 77 77 78 70 79 72 80 73 81 74 82 75 83 52 84 53 85
REMARK SMILES IDX 61 86 54 87 56 88 62 89 55 90 57 91 58 92 59 93 60 94
REMARK H PARENT 16 21 82 47 50 58
REMARK Flexibility Score: inf
ROOT
ATOM      1  C   UNL A   1      37.266  21.445  24.806  1.00  0.00     0.275 C 
ENDROOT
BRANCH   1   2
ATOM      2  C   UNL A   1      35.862  20.852  24.956  1.00  0.00     0.275 C 
BRANCH   2   3
ATOM      3  O   UNL A   1      35.016  21.886  25.458  1.00  0.00    -0.458 OA
BRANCH   3   4
ATOM      4  C   UNL A   1      34.263  22.520  24.536  1.00  0.00     0.342 C 
ATOM      5  O   UNL A   1      34.494  22.704  23.361  1.00  0.00    -0.246 OA
BRANCH   4   6
ATOM      6  C   UNL A   1      33.014  22.910  25.210  1.00  0.00     0.116 A 
ATOM      7  C   UNL A   1      31.699  24.637  26.240  1.00  0.00     0.161 A 
ATOM      8  C   UNL A   1      30.664  23.711  26.424  1.00  0.00     0.051 A 
ATOM      9  C   UNL A   1      32.905  24.227  25.675  1.00  0.00     0.176 A 
ATOM     10  C   UNL A   1      30.811  22.369  26.020  1.00  0.00     0.017 A 
ATOM     11  C   UNL A   1      31.993  21.944  25.394  1.00  0.00     0.036 A 
BRANCH   7  12
ATOM     12  O   UNL A   1      31.532  25.902  26.737  1.00  0.00    -0.493 OA
ATOM     13  C   UNL A   1      30.618  26.650  25.932  1.00  0.00     0.278 C 
ENDBRANCH   7  12
BRANCH   9  14
ATOM     14  O   UNL A   1      34.053  24.962  25.817  1.00  0.00    -0.492 OA
ATOM     15  C   UNL A   1      34.206  26.040  24.913  1.00  0.00     0.278 C 
ENDBRANCH   9  14
BRANCH  11  16
ATOM     16  C   UNL A   1      32.315  20.520  25.168  1.00  0.00     0.139 A 
ATOM     17  N   UNL A   1      32.275  19.988  23.961  1.00  0.00    -0.228 NA
ATOM     18  N   UNL A   1      32.752  19.566  26.066  1.00  0.00    -0.338 N 
ATOM     19  C   UNL A   1      32.792  18.736  24.043  1.00  0.00     0.089 A 
ATOM     20  C   UNL A   1      33.091  18.426  25.356  1.00  0.00     0.066 A 
ATOM     21  H   UNL A   1      32.815  19.678  27.042  1.00  0.00     0.168 HD
ATOM     22  C   UNL A   1      33.089  17.838  23.012  1.00  0.00     0.031 A 
ATOM     23  C   UNL A   1      33.679  17.205  25.700  1.00  0.00     0.031 A 
ATOM     24  C   UNL A   1      33.836  16.704  23.317  1.00  0.00     0.006 A 
ATOM     25  C   UNL A   1      34.170  16.413  24.641  1.00  0.00    -0.049 A 
ATOM     26  C   UNL A   1      35.121  15.278  24.904  1.00  0.00     0.044 C 
ENDBRANCH  11  16
ENDBRANCH   4   6
ENDBRANCH   3   4
ENDBRANCH   2   3
ENDBRANCH   1   2
BRANCH   1  27
ATOM     27  O   UNL A   1      37.836  21.812  26.085  1.00  0.00    -0.458 OA
BRANCH  27  28
ATOM     28  C   UNL A   1      39.169  21.599  26.256  1.00  0.00     0.338 C 
ATOM     29  O   UNL A   1      39.777  20.568  26.017  1.00  0.00    -0.246 OA
BRANCH  28  30
ATOM     30  C   UNL A   1      39.839  22.851  26.714  1.00  0.00     0.060 A 
ATOM     31  C   UNL A   1      39.506  24.065  26.094  1.00  0.00     0.016 A 
ATOM     32  C   UNL A   1      40.746  22.859  27.776  1.00  0.00     0.016 A 
ATOM     33  C   UNL A   1      40.008  25.286  26.581  1.00  0.00     0.010 A 
ATOM     34  C   UNL A   1      41.249  24.078  28.258  1.00  0.00     0.010 A 
ATOM     35  C   UNL A   1      40.874  25.309  27.680  1.00  0.00    -0.014 A 
BRANCH  35  36
ATOM     36  C   UNL A   1      41.530  26.562  28.163  1.00  0.00     0.031 A 
ATOM     37  C   UNL A   1      40.663  27.661  28.692  1.00  0.00     0.074 A 
ATOM     38  C   UNL A   1      42.862  26.782  28.128  1.00  0.00     0.049 A 
ATOM     39  N   UNL A   1      41.020  28.849  29.097  1.00  0.00    -0.248 NA
ATOM     40  C   UNL A   1      39.235  27.358  28.869  1.00  0.00     0.031 C 
ATOM     41  C   UNL A   1      43.879  25.774  27.899  1.00  0.00     0.029 A 
ATOM     42  N   UNL A   1      43.594  27.949  28.231  1.00  0.00    -0.354 N 
ATOM     43  C   UNL A   1      39.876  29.423  29.619  1.00  0.00     0.074 A 
ATOM     44  C   UNL A   1      38.798  28.473  29.437  1.00  0.00     0.031 C 
ATOM     45  C   UNL A   1      45.069  26.370  27.691  1.00  0.00     0.029 A 
ATOM     46  C   UNL A   1      44.898  27.810  27.798  1.00  0.00     0.049 A 
ATOM     47  H   UNL A   1      43.224  28.792  28.579  1.00  0.00     0.167 HD
ATOM     48  C   UNL A   1      39.753  30.619  30.237  1.00  0.00     0.034 A 
ATOM     49  C   UNL A   1      45.838  28.733  27.497  1.00  0.00     0.034 A 
ATOM     50  C   UNL A   1      40.818  31.569  30.392  1.00  0.00     0.049 A 
ATOM     51  C   UNL A   1      45.588  30.150  27.918  1.00  0.00     0.074 A 
ATOM     52  C   UNL A   1      40.787  32.789  31.044  1.00  0.00     0.029 A 
ATOM     53  N   UNL A   1      42.085  31.439  29.847  1.00  0.00    -0.354 N 
ATOM     54  N   UNL A   1      44.544  30.637  28.538  1.00  0.00    -0.248 NA
ATOM     55  C   UNL A   1      46.680  31.115  27.721  1.00  0.00     0.031 C 
ATOM     56  C   UNL A   1      42.012  33.428  30.830  1.00  0.00     0.029 A 
ATOM     57  C   UNL A   1      42.823  32.585  30.089  1.00  0.00     0.049 A 
ATOM     58  H   UNL A   1      42.412  30.649  29.359  1.00  0.00     0.167 HD
ATOM     59  C   UNL A   1      44.888  31.930  28.898  1.00  0.00     0.074 A 
ATOM     60  C   UNL A   1      46.227  32.165  28.393  1.00  0.00     0.031 C 
ATOM     61  C   UNL A   1      44.165  32.820  29.618  1.00  0.00     0.034 A 
BRANCH  48  62
ATOM     62  C   UNL A   1      38.400  30.967  30.775  1.00  0.00     0.023 A 
ATOM     63  C   UNL A   1      38.058  30.629  32.099  1.00  0.00     0.012 A 
ATOM     64  C   UNL A   1      37.484  31.666  29.970  1.00  0.00     0.148 A 
ATOM     65  C   UNL A   1      36.806  30.968  32.610  1.00  0.00     0.002 A 
ATOM     66  C   UNL A   1      36.257  32.036  30.499  1.00  0.00     0.091 A 
ATOM     67  F   UNL A   1      37.831  31.946  28.707  1.00  0.00    -0.205 F 
ATOM     68  C   UNL A   1      35.911  31.678  31.813  1.00  0.00     0.022 A 
BRANCH  66  69
ATOM     69  S   UNL A   1      35.066  33.006  29.573  1.00  0.00     0.127 S 
ATOM     70  O   UNL A   1      34.620  32.044  28.566  1.00  0.00    -0.237 OA
ATOM     71  O   UNL A   1      34.073  33.324  30.598  1.00  0.00    -0.237 OA
ATOM     72  O   UNL A   1      35.796  34.153  29.052  1.00  0.00    -0.744 OA
ENDBRANCH  66  69
ENDBRANCH  48  62
BRANCH  49  73
ATOM     73  C   UNL A   1      47.128  28.371  26.836  1.00  0.00     0.023 A 
ATOM     74  C   UNL A   1      48.318  28.335  27.584  1.00  0.00     0.012 A 
ATOM     75  C   UNL A   1      47.193  28.150  25.444  1.00  0.00     0.148 A 
ATOM     76  C   UNL A   1      49.547  28.099  26.959  1.00  0.00     0.002 A 
ATOM     77  C   UNL A   1      48.410  27.852  24.838  1.00  0.00     0.091 A 
ATOM     78  F   UNL A   1      46.076  28.309  24.723  1.00  0.00    -0.205 F 
ATOM     79  C   UNL A   1      49.592  27.842  25.591  1.00  0.00     0.022 A 
BRANCH  77  80
ATOM     80  S   UNL A   1      48.543  27.413  23.099  1.00  0.00     0.127 S 
ATOM     81  O   UNL A   1      47.452  28.183  22.508  1.00  0.00    -0.237 OA
ATOM     82  O   UNL A   1      49.885  27.891  22.767  1.00  0.00    -0.237 OA
ATOM     83  O   UNL A   1      48.395  25.964  23.057  1.00  0.00    -0.744 OA
ENDBRANCH  77  80
ENDBRANCH  49  73
BRANCH  61  84
ATOM     84  C   UNL A   1      44.808  34.135  29.954  1.00  0.00     0.023 A 
ATOM     85  C   UNL A   1      45.634  34.249  31.088  1.00  0.00     0.012 A 
ATOM     86  C   UNL A   1      44.658  35.240  29.090  1.00  0.00     0.148 A 
ATOM     87  C   UNL A   1      46.284  35.449  31.370  1.00  0.00     0.002 A 
ATOM     88  C   UNL A   1      45.354  36.413  29.346  1.00  0.00     0.091 A 
ATOM     89  F   UNL A   1      43.848  35.115  28.028  1.00  0.00    -0.205 F 
ATOM     90  C   UNL A   1      46.157  36.524  30.493  1.00  0.00     0.022 A 
BRANCH  88  91
ATOM     91  S   UNL A   1      45.338  37.812  28.221  1.00  0.00     0.127 S 
ATOM     92  O   UNL A   1      46.005  37.256  27.045  1.00  0.00    -0.237 OA
ATOM     93  O   UNL A   1      43.905  38.054  28.053  1.00  0.00    -0.237 OA
ATOM     94  O   UNL A   1      46.060  38.882  28.893  1.00  0.00    -0.744 OA
ENDBRANCH  88  91
ENDBRANCH  61  84
ENDBRANCH  35  36
ENDBRANCH  28  30
ENDBRANCH  27  28
ENDBRANCH   1  27
TORSDOF 17
ENDMDL
MODEL 2
REMARK VINA RESULT:     -12.1      5.328     10.444
REMARK SMILES COc1ccc(-c2nc3ccc(C)cc3[nH]2)c(C(=O)OCCOC(=O)c2ccc(-c3c4nc(c(-c5cccc(S(=O)(=O)[O-])c5F)c5ccc([nH]5)c(-c5cccc(S(=O)(=O)[O-])c5F)c5nc(c(-c6cccc(S(=O)(=O)[O-])c6F)c6ccc3[nH]6)C=C5)C=C4)cc2)c1OC
REMARK SMILES IDX 22 1 21 2 20 3 18 4 19 5 17 6 3 7 4 8 89 9 5 10 6 11 2 12
REMARK SMILES IDX 1 13 90 14 91 15 7 16 8 17 16 18 9 19 15 20 10 22 14 23
REMARK SMILES IDX 11 24 12 25 13 26 23 27 24 28 25 29 26 30 27 31 88 32 28 33
REMARK SMILES IDX 87 34 29 35 30 36 31 37 81 38 32 39 86 40 80 41 82 42 33 43
REMARK SMILES IDX 85 44 79 45 78 46 34 48 66 49 46 50 65 51 47 52 50 53 64 54
REMARK SMILES IDX 83 55 48 56 49 57 63 59 84 60 51 61 35 62 36 63 44 64 37 65
REMARK SMILES IDX 39 66 45 67 38 68 40 69 41 70 42 71 43 72 67 73 68 74 76 75
REMARK SMILES IDX 69 76 71 77 77 78 70 79 72 80 73 81 74 82 75 83 52 84 53 85
REMARK SMILES IDX 61 86 54 87 56 88 62 89 55 90 57 91 58 92 59 93 60 94
REMARK H PARENT 16 21 82 47 50 58
REMARK Flexibility Score: inf
ROOT
ATOM      1  C   UNL A   1      32.673  29.922  25.808  1.00  0.00     0.275 C 
ENDROOT
BRANCH   1   2
ATOM      2  C   UNL A   1      33.255  28.515  25.653  1.00  0.00     0.275 C 
BRANCH   2   3
ATOM      3  O   UNL A   1      32.295  27.735  24.942  1.00  0.00    -0.458 OA
BRANCH   3   4
ATOM      4  C   UNL A   1      31.574  26.876  25.693  1.00  0.00     0.342 C 
ATOM      5  O   UNL A   1      31.029  27.068  26.758  1.00  0.00    -0.246 OA
BRANCH   4   6
ATOM      6  C   UNL A   1      31.493  25.619  24.931  1.00  0.00     0.116 A 
ATOM      7  C   UNL A   1      32.212  23.342  24.659  1.00  0.00     0.161 A 
ATOM      8  C   UNL A   1      31.333  23.215  23.575  1.00  0.00     0.051 A 
ATOM      9  C   UNL A   1      32.334  24.565  25.314  1.00  0.00     0.176 A 
ATOM     10  C   UNL A   1      30.545  24.304  23.150  1.00  0.00     0.017 A 
ATOM     11  C   UNL A   1      30.605  25.530  23.829  1.00  0.00     0.036 A 
BRANCH   7  12
ATOM     12  O   UNL A   1      33.018  22.279  24.967  1.00  0.00    -0.493 OA
ATOM     13  C   UNL A   1      32.793  21.191  24.068  1.00  0.00     0.278 C 
ENDBRANCH   7  12
BRANCH   9  14
ATOM     14  O   UNL A   1      33.417  24.854  26.103  1.00  0.00    -0.492 OA
ATOM     15  C   UNL A   1      34.637  25.062  25.418  1.00  0.00     0.278 C 
ENDBRANCH   9  14
BRANCH  11  16
ATOM     16  C   UNL A   1      30.004  26.772  23.301  1.00  0.00     0.139 A 
ATOM     17  N   UNL A   1      28.734  27.063  23.506  1.00  0.00    -0.228 NA
ATOM     18  N   UNL A   1      30.600  27.815  22.620  1.00  0.00    -0.338 N 
ATOM     19  C   UNL A   1      28.524  28.331  23.070  1.00  0.00     0.089 A 
ATOM     20  C   UNL A   1      29.673  28.834  22.490  1.00  0.00     0.066 A 
ATOM     21  H   UNL A   1      31.527  27.831  22.285  1.00  0.00     0.168 HD
ATOM     22  C   UNL A   1      27.382  29.128  23.202  1.00  0.00     0.031 A 
ATOM     23  C   UNL A   1      29.727  30.143  22.002  1.00  0.00     0.031 A 
ATOM     24  C   UNL A   1      27.480  30.481  22.889  1.00  0.00     0.006 A 
ATOM     25  C   UNL A   1      28.655  30.996  22.339  1.00  0.00    -0.049 A 
ATOM     26  C   UNL A   1      28.776  32.486  22.179  1.00  0.00     0.044 C 
ENDBRANCH  11  16
ENDBRANCH   4   6
ENDBRANCH   3   4
ENDBRANCH   2   3
ENDBRANCH   1   2
BRANCH   1  27
ATOM     27  O   UNL A   1      32.763  30.396  27.172  1.00  0.00    -0.458 OA
BRANCH  27  28
ATOM     28  C   UNL A   1      33.497  31.521  27.394  1.00  0.00     0.338 C 
ATOM     29  O   UNL A   1      33.141  32.672  27.199  1.00  0.00    -0.246 OA
BRANCH  28  30
ATOM     30  C   UNL A   1      34.813  31.167  28.002  1.00  0.00     0.060 A 
ATOM     31  C   UNL A   1      35.842  32.122  27.997  1.00  0.00     0.016 A 
ATOM     32  C   UNL A   1      35.035  29.936  28.622  1.00  0.00     0.016 A 
ATOM     33  C   UNL A   1      37.051  31.885  28.677  1.00  0.00     0.010 A 
ATOM     34  C   UNL A   1      36.244  29.699  29.296  1.00  0.00     0.010 A 
ATOM     35  C   UNL A   1      37.261  30.675  29.348  1.00  0.00    -0.014 A 
BRANCH  35  36
ATOM     36  C   UNL A   1      38.567  30.322  29.983  1.00  0.00     0.031 A 
ATOM     37  C   UNL A   1      39.356  29.189  29.406  1.00  0.00     0.074 A 
ATOM     38  C   UNL A   1      39.074  30.944  31.069  1.00  0.00     0.049 A 
ATOM     39  N   UNL A   1      40.475  28.678  29.842  1.00  0.00    -0.248 NA
ATOM     40  C   UNL A   1      38.876  28.619  28.139  1.00  0.00     0.031 C 
ATOM     41  C   UNL A   1      38.608  32.204  31.616  1.00  0.00     0.029 A 
ATOM     42  N   UNL A   1      40.069  30.569  31.950  1.00  0.00    -0.354 N 
ATOM     43  C   UNL A   1      40.861  27.758  28.885  1.00  0.00     0.074 A 
ATOM     44  C   UNL A   1      39.833  27.743  27.865  1.00  0.00     0.031 C 
ATOM     45  C   UNL A   1      39.167  32.409  32.824  1.00  0.00     0.029 A 
ATOM     46  C   UNL A   1      40.057  31.298  33.124  1.00  0.00     0.049 A 
ATOM     47  H   UNL A   1      40.720  29.856  31.760  1.00  0.00     0.167 HD
ATOM     48  C   UNL A   1      41.998  27.029  28.844  1.00  0.00     0.034 A 
ATOM     49  C   UNL A   1      40.669  31.085  34.309  1.00  0.00     0.034 A 
ATOM     50  C   UNL A   1      43.002  27.027  29.869  1.00  0.00     0.049 A 
ATOM     51  C   UNL A   1      41.754  30.052  34.362  1.00  0.00     0.074 A 
ATOM     52  C   UNL A   1      44.207  26.346  29.885  1.00  0.00     0.029 A 
ATOM     53  N   UNL A   1      42.902  27.689  31.082  1.00  0.00    -0.354 N 
ATOM     54  N   UNL A   1      42.191  29.289  33.393  1.00  0.00    -0.248 NA
ATOM     55  C   UNL A   1      42.513  29.935  35.615  1.00  0.00     0.031 C 
ATOM     56  C   UNL A   1      44.799  26.539  31.137  1.00  0.00     0.029 A 
ATOM     57  C   UNL A   1      43.989  27.381  31.881  1.00  0.00     0.049 A 
ATOM     58  H   UNL A   1      42.165  28.291  31.338  1.00  0.00     0.167 HD
ATOM     59  C   UNL A   1      43.335  28.678  33.881  1.00  0.00     0.074 A 
ATOM     60  C   UNL A   1      43.504  29.132  35.247  1.00  0.00     0.031 C 
ATOM     61  C   UNL A   1      44.184  27.848  33.230  1.00  0.00     0.034 A 
BRANCH  48  62
ATOM     62  C   UNL A   1      42.198  26.154  27.646  1.00  0.00     0.023 A 
ATOM     63  C   UNL A   1      42.830  26.666  26.494  1.00  0.00     0.012 A 
ATOM     64  C   UNL A   1      41.791  24.810  27.683  1.00  0.00     0.148 A 
ATOM     65  C   UNL A   1      43.034  25.850  25.383  1.00  0.00     0.002 A 
ATOM     66  C   UNL A   1      42.035  23.994  26.589  1.00  0.00     0.091 A 
ATOM     67  F   UNL A   1      41.167  24.363  28.782  1.00  0.00    -0.205 F 
ATOM     68  C   UNL A   1      42.646  24.513  25.435  1.00  0.00     0.022 A 
BRANCH  66  69
ATOM     69  S   UNL A   1      41.631  22.246  26.586  1.00  0.00     0.127 S 
ATOM     70  O   UNL A   1      42.235  21.801  27.841  1.00  0.00    -0.237 OA
ATOM     71  O   UNL A   1      40.168  22.274  26.586  1.00  0.00    -0.237 OA
ATOM     72  O   UNL A   1      42.232  21.694  25.381  1.00  0.00    -0.744 OA
ENDBRANCH  66  69
ENDBRANCH  48  62
BRANCH  49  73
ATOM     73  C   UNL A   1      40.350  31.890  35.526  1.00  0.00     0.023 A 
ATOM     74  C   UNL A   1      41.270  32.840  36.005  1.00  0.00     0.012 A 
ATOM     75  C   UNL A   1      39.173  31.652  36.266  1.00  0.00     0.148 A 
ATOM     76  C   UNL A   1      41.031  33.526  37.200  1.00  0.00     0.002 A 
ATOM     77  C   UNL A   1      38.910  32.384  37.420  1.00  0.00     0.091 A 
ATOM     78  F   UNL A   1      38.364  30.660  35.871  1.00  0.00    -0.205 F 
ATOM     79  C   UNL A   1      39.846  33.311  37.899  1.00  0.00     0.022 A 
BRANCH  77  80
ATOM     80  S   UNL A   1      37.363  32.239  38.327  1.00  0.00     0.127 S 
ATOM     81  O   UNL A   1      36.469  33.080  37.536  1.00  0.00    -0.237 OA
ATOM     82  O   UNL A   1      37.095  30.803  38.241  1.00  0.00    -0.237 OA
ATOM     83  O   UNL A   1      37.661  32.713  39.672  1.00  0.00    -0.744 OA
ENDBRANCH  77  80
ENDBRANCH  49  73
BRANCH  61  84
ATOM     84  C   UNL A   1      45.414  27.391  33.962  1.00  0.00     0.023 A 
ATOM     85  C   UNL A   1      46.569  28.197  33.974  1.00  0.00     0.012 A 
ATOM     86  C   UNL A   1      45.392  26.197  34.711  1.00  0.00     0.148 A 
ATOM     87  C   UNL A   1      47.692  27.809  34.703  1.00  0.00     0.002 A 
ATOM     88  C   UNL A   1      46.493  25.847  35.480  1.00  0.00     0.091 A 
ATOM     89  F   UNL A   1      44.290  25.435  34.666  1.00  0.00    -0.205 F 
ATOM     90  C   UNL A   1      47.649  26.645  35.467  1.00  0.00     0.022 A 
BRANCH  88  91
ATOM     91  S   UNL A   1      46.493  24.425  36.577  1.00  0.00     0.127 S 
ATOM     92  O   UNL A   1      47.808  24.536  37.208  1.00  0.00    -0.237 OA
ATOM     93  O   UNL A   1      45.365  24.719  37.460  1.00  0.00    -0.237 OA
ATOM     94  O   UNL A   1      46.312  23.257  35.727  1.00  0.00    -0.744 OA
ENDBRANCH  88  91
ENDBRANCH  61  84
ENDBRANCH  35  36
ENDBRANCH  28  30
ENDBRANCH  27  28
ENDBRANCH   1  27
TORSDOF 17
ENDMDL
MODEL 3
REMARK VINA RESULT:     -11.9      1.617      2.011
REMARK SMILES COc1ccc(-c2nc3ccc(C)cc3[nH]2)c(C(=O)OCCOC(=O)c2ccc(-c3c4nc(c(-c5cccc(S(=O)(=O)[O-])c5F)c5ccc([nH]5)c(-c5cccc(S(=O)(=O)[O-])c5F)c5nc(c(-c6cccc(S(=O)(=O)[O-])c6F)c6ccc3[nH]6)C=C5)C=C4)cc2)c1OC
REMARK SMILES IDX 22 1 21 2 20 3 18 4 19 5 17 6 3 7 4 8 89 9 5 10 6 11 2 12
REMARK SMILES IDX 1 13 90 14 91 15 7 16 8 17 16 18 9 19 15 20 10 22 14 23
REMARK SMILES IDX 11 24 12 25 13 26 23 27 24 28 25 29 26 30 27 31 88 32 28 33
REMARK SMILES IDX 87 34 29 35 30 36 31 37 81 38 32 39 86 40 80 41 82 42 33 43
REMARK SMILES IDX 85 44 79 45 78 46 34 48 66 49 46 50 65 51 47 52 50 53 64 54
REMARK SMILES IDX 83 55 48 56 49 57 63 59 84 60 51 61 35 62 36 63 44 64 37 65
REMARK SMILES IDX 39 66 45 67 38 68 40 69 41 70 42 71 43 72 67 73 68 74 76 75
REMARK SMILES IDX 69 76 71 77 77 78 70 79 72 80 73 81 74 82 75 83 52 84 53 85
REMARK SMILES IDX 61 86 54 87 56 88 62 89 55 90 57 91 58 92 59 93 60 94
REMARK H PARENT 16 21 82 47 50 58
REMARK Flexibility Score: inf
ROOT
ATOM      1  C   UNL A   1      35.741  21.094  25.405  1.00  0.00     0.275 C 
ENDROOT
BRANCH   1   2
ATOM      2  C   UNL A   1      35.124  21.922  26.535  1.00  0.00     0.275 C 
BRANCH   2   3
ATOM      3  O   UNL A   1      34.256  22.881  25.934  1.00  0.00    -0.458 OA
BRANCH   3   4
ATOM      4  C   UNL A   1      32.989  22.891  26.398  1.00  0.00     0.342 C 
ATOM      5  O   UNL A   1      32.574  22.548  27.484  1.00  0.00    -0.246 OA
BRANCH   4   6
ATOM      6  C   UNL A   1      32.158  23.485  25.339  1.00  0.00     0.116 A 
ATOM      7  C   UNL A   1      31.016  25.416  24.477  1.00  0.00     0.161 A 
ATOM      8  C   UNL A   1      30.652  24.671  23.348  1.00  0.00     0.051 A 
ATOM      9  C   UNL A   1      31.732  24.810  25.507  1.00  0.00     0.176 A 
ATOM     10  C   UNL A   1      31.022  23.317  23.222  1.00  0.00     0.017 A 
ATOM     11  C   UNL A   1      31.794  22.699  24.217  1.00  0.00     0.036 A 
BRANCH   7  12
ATOM     12  O   UNL A   1      30.549  26.698  24.585  1.00  0.00    -0.493 OA
ATOM     13  C   UNL A   1      29.679  27.018  23.498  1.00  0.00     0.278 C 
ENDBRANCH   7  12
BRANCH   9  14
ATOM     14  O   UNL A   1      31.783  25.353  26.765  1.00  0.00    -0.492 OA
ATOM     15  C   UNL A   1      32.514  26.559  26.881  1.00  0.00     0.278 C 
ENDBRANCH   9  14
BRANCH  11  16
ATOM     16  C   UNL A   1      32.011  21.238  24.276  1.00  0.00     0.139 A 
ATOM     17  N   UNL A   1      32.153  20.519  23.179  1.00  0.00    -0.228 NA
ATOM     18  N   UNL A   1      32.169  20.418  25.376  1.00  0.00    -0.338 N 
ATOM     19  C   UNL A   1      32.517  19.265  23.551  1.00  0.00     0.089 A 
ATOM     20  C   UNL A   1      32.523  19.156  24.928  1.00  0.00     0.066 A 
ATOM     21  H   UNL A   1      32.052  20.685  26.317  1.00  0.00     0.168 HD
ATOM     22  C   UNL A   1      32.917  18.192  22.747  1.00  0.00     0.031 A 
ATOM     23  C   UNL A   1      32.909  17.972  25.562  1.00  0.00     0.031 A 
ATOM     24  C   UNL A   1      33.474  17.076  23.365  1.00  0.00     0.006 A 
ATOM     25  C   UNL A   1      33.515  16.984  24.757  1.00  0.00    -0.049 A 
ATOM     26  C   UNL A   1      34.279  15.847  25.376  1.00  0.00     0.044 C 
ENDBRANCH  11  16
ENDBRANCH   4   6
ENDBRANCH   3   4
ENDBRANCH   2   3
ENDBRANCH   1   2
BRANCH   1  27
ATOM     27  O   UNL A   1      36.997  21.651  24.951  1.00  0.00    -0.458 OA
BRANCH  27  28
ATOM     28  C   UNL A   1      38.127  21.238  25.587  1.00  0.00     0.338 C 
ATOM     29  O   UNL A   1      38.538  20.092  25.670  1.00  0.00    -0.246 OA
BRANCH  28  30
ATOM     30  C   UNL A   1      38.876  22.412  26.125  1.00  0.00     0.060 A 
ATOM     31  C   UNL A   1      40.018  22.188  26.909  1.00  0.00     0.016 A 
ATOM     32  C   UNL A   1      38.504  23.725  25.830  1.00  0.00     0.016 A 
ATOM     33  C   UNL A   1      40.832  23.258  27.323  1.00  0.00     0.010 A 
ATOM     34  C   UNL A   1      39.315  24.793  26.248  1.00  0.00     0.010 A 
ATOM     35  C   UNL A   1      40.498  24.574  26.985  1.00  0.00    -0.014 A 
BRANCH  35  36
ATOM     36  C   UNL A   1      41.256  25.756  27.498  1.00  0.00     0.031 A 
ATOM     37  C   UNL A   1      40.491  26.872  28.136  1.00  0.00     0.074 A 
ATOM     38  C   UNL A   1      42.595  25.898  27.397  1.00  0.00     0.049 A 
ATOM     39  N   UNL A   1      40.942  28.011  28.583  1.00  0.00    -0.248 NA
ATOM     40  C   UNL A   1      39.058  26.644  28.379  1.00  0.00     0.031 C 
ATOM     41  C   UNL A   1      43.533  24.846  27.054  1.00  0.00     0.029 A 
ATOM     42  N   UNL A   1      43.403  27.011  27.522  1.00  0.00    -0.354 N 
ATOM     43  C   UNL A   1      39.867  28.620  29.202  1.00  0.00     0.074 A 
ATOM     44  C   UNL A   1      38.723  27.748  29.031  1.00  0.00     0.031 C 
ATOM     45  C   UNL A   1      44.745  25.381  26.810  1.00  0.00     0.029 A 
ATOM     46  C   UNL A   1      44.671  26.821  27.006  1.00  0.00     0.049 A 
ATOM     47  H   UNL A   1      43.106  27.853  27.936  1.00  0.00     0.167 HD
ATOM     48  C   UNL A   1      39.853  29.783  29.891  1.00  0.00     0.034 A 
ATOM     49  C   UNL A   1      45.648  27.701  26.702  1.00  0.00     0.034 A 
ATOM     50  C   UNL A   1      40.982  30.657  30.036  1.00  0.00     0.049 A 
ATOM     51  C   UNL A   1      45.512  29.104  27.214  1.00  0.00     0.074 A 
ATOM     52  C   UNL A   1      41.064  31.837  30.754  1.00  0.00     0.029 A 
ATOM     53  N   UNL A   1      42.207  30.485  29.411  1.00  0.00    -0.354 N 
ATOM     54  N   UNL A   1      44.535  29.615  27.920  1.00  0.00    -0.248 NA
ATOM     55  C   UNL A   1      46.650  30.012  27.007  1.00  0.00     0.031 C 
ATOM     56  C   UNL A   1      42.313  32.413  30.505  1.00  0.00     0.029 A 
ATOM     57  C   UNL A   1      43.028  31.568  29.673  1.00  0.00     0.049 A 
ATOM     58  H   UNL A   1      42.457  29.706  28.863  1.00  0.00     0.167 HD
ATOM     59  C   UNL A   1      44.980  30.863  28.329  1.00  0.00     0.074 A 
ATOM     60  C   UNL A   1      46.301  31.046  27.761  1.00  0.00     0.031 C 
ATOM     61  C   UNL A   1      44.354  31.750  29.138  1.00  0.00     0.034 A 
BRANCH  48  62
ATOM     62  C   UNL A   1      38.557  30.179  30.525  1.00  0.00     0.023 A 
ATOM     63  C   UNL A   1      38.250  29.753  31.833  1.00  0.00     0.012 A 
ATOM     64  C   UNL A   1      37.661  31.010  29.830  1.00  0.00     0.148 A 
ATOM     65  C   UNL A   1      37.051  30.134  32.434  1.00  0.00     0.002 A 
ATOM     66  C   UNL A   1      36.490  31.418  30.450  1.00  0.00     0.091 A 
ATOM     67  F   UNL A   1      37.970  31.373  28.578  1.00  0.00    -0.205 F 
ATOM     68  C   UNL A   1      36.178  30.974  31.746  1.00  0.00     0.022 A 
BRANCH  66  69
ATOM     69  S   UNL A   1      35.336  32.549  29.672  1.00  0.00     0.127 S 
ATOM     70  O   UNL A   1      34.822  31.735  28.571  1.00  0.00    -0.237 OA
ATOM     71  O   UNL A   1      34.379  32.795  30.750  1.00  0.00    -0.237 OA
ATOM     72  O   UNL A   1      36.116  33.711  29.269  1.00  0.00    -0.744 OA
ENDBRANCH  66  69
ENDBRANCH  48  62
BRANCH  49  73
ATOM     73  C   UNL A   1      46.875  27.303  25.948  1.00  0.00     0.023 A 
ATOM     74  C   UNL A   1      46.920  27.441  24.549  1.00  0.00     0.012 A 
ATOM     75  C   UNL A   1      47.968  26.702  26.607  1.00  0.00     0.148 A 
ATOM     76  C   UNL A   1      48.020  26.978  23.821  1.00  0.00     0.002 A 
ATOM     77  C   UNL A   1      49.089  26.302  25.884  1.00  0.00     0.091 A 
ATOM     78  F   UNL A   1      47.865  26.462  27.920  1.00  0.00    -0.205 F 
ATOM     79  C   UNL A   1      49.111  26.424  24.487  1.00  0.00     0.022 A 
BRANCH  77  80
ATOM     80  S   UNL A   1      50.575  25.668  26.674  1.00  0.00     0.127 S 
ATOM     81  O   UNL A   1      51.469  25.483  25.535  1.00  0.00    -0.237 OA
ATOM     82  O   UNL A   1      50.936  26.770  27.568  1.00  0.00    -0.237 OA
ATOM     83  O   UNL A   1      50.156  24.453  27.361  1.00  0.00    -0.744 OA
ENDBRANCH  77  80
ENDBRANCH  49  73
BRANCH  61  84
ATOM     84  C   UNL A   1      45.095  33.003  29.507  1.00  0.00     0.023 A 
ATOM     85  C   UNL A   1      45.958  33.011  30.620  1.00  0.00     0.012 A 
ATOM     86  C   UNL A   1      44.999  34.151  28.695  1.00  0.00     0.148 A 
ATOM     87  C   UNL A   1      46.698  34.151  30.931  1.00  0.00     0.002 A 
ATOM     88  C   UNL A   1      45.781  35.262  28.977  1.00  0.00     0.091 A 
ATOM     89  F   UNL A   1      44.154  34.128  27.654  1.00  0.00    -0.205 F 
ATOM     90  C   UNL A   1      46.622  35.269  30.103  1.00  0.00     0.022 A 
BRANCH  88  91
ATOM     91  S   UNL A   1      45.832  36.706  27.911  1.00  0.00     0.127 S 
ATOM     92  O   UNL A   1      44.584  37.381  28.265  1.00  0.00    -0.237 OA
ATOM     93  O   UNL A   1      47.044  37.384  28.370  1.00  0.00    -0.237 OA
ATOM     94  O   UNL A   1      45.896  36.201  26.547  1.00  0.00    -0.744 OA
ENDBRANCH  88  91
ENDBRANCH  61  84
ENDBRANCH  35  36
ENDBRANCH  28  30
ENDBRANCH  27  28
ENDBRANCH   1  27
TORSDOF 17
ENDMDL
