MODEL 1
REMARK VINA RESULT:      -8.8      0.000      0.000
REMARK SMILES CCc1nc(COC)cc(OCC(=O)OCCOC(=O)c2ccc(-c3c4nc(c(-c5cccc(S(=O)(=O)[O-])c5F)c5ccc([nH]5)c(-c5cccc(S(=O)(=O)[O-])c5F)c5nc(c(-c6cccc(S(=O)(=O)[O-])c6F)c6ccc3[nH]6)C=C5)C=C4)cc2)n1
REMARK SMILES IDX 16 1 15 2 13 3 14 4 12 5 11 6 10 7 3 8 4 9 84 10 5 11 9 12
REMARK SMILES IDX 2 13 1 14 6 15 7 16 8 17 17 18 18 19 19 20 20 21 21 22 22 23
REMARK SMILES IDX 83 24 23 25 82 26 24 27 25 28 26 29 76 30 27 31 81 32 75 33
REMARK SMILES IDX 77 34 28 35 80 36 74 37 73 38 29 40 61 41 41 42 60 43 42 44
REMARK SMILES IDX 45 45 59 46 78 47 43 48 44 49 58 51 79 52 46 53 30 54 31 55
REMARK SMILES IDX 39 56 32 57 34 58 40 59 33 60 35 61 36 62 37 63 38 64 62 65
REMARK SMILES IDX 63 66 71 67 64 68 66 69 72 70 65 71 67 72 68 73 69 74 70 75
REMARK SMILES IDX 47 76 48 77 56 78 49 79 51 80 57 81 50 82 52 83 53 84 54 85
REMARK SMILES IDX 55 86
REMARK H PARENT 77 39 45 50
REMARK Flexibility Score: inf
ROOT
ATOM      1  C   UNL A   1      34.143  34.423  29.072  1.00  0.00     0.274 C 
ENDROOT
BRANCH   1   2
ATOM      2  O   UNL A   1      33.658  34.204  30.411  1.00  0.00    -0.460 OA
BRANCH   2   3
ATOM      3  C   UNL A   1      33.166  35.301  31.048  1.00  0.00     0.344 C 
ATOM      4  O   UNL A   1      32.728  36.298  30.485  1.00  0.00    -0.248 OA
BRANCH   3   5
ATOM      5  C   UNL A   1      33.205  35.178  32.567  1.00  0.00     0.353 C 
BRANCH   5   6
ATOM      6  O   UNL A   1      34.243  35.878  33.229  1.00  0.00    -0.466 OA
BRANCH   6   7
ATOM      7  C   UNL A   1      35.383  35.183  33.516  1.00  0.00     0.217 A 
ATOM      8  C   UNL A   1      37.402  34.501  32.684  1.00  0.00     0.132 A 
ATOM      9  N   UNL A   1      37.693  33.797  33.787  1.00  0.00    -0.235 NA
ATOM     10  N   UNL A   1      36.274  35.210  32.512  1.00  0.00    -0.198 NA
ATOM     11  C   UNL A   1      36.766  33.752  34.762  1.00  0.00     0.074 A 
ATOM     12  C   UNL A   1      35.584  34.461  34.670  1.00  0.00     0.094 A 
BRANCH   8  13
ATOM     13  C   UNL A   1      38.410  34.521  31.567  1.00  0.00     0.074 C 
ATOM     14  C   UNL A   1      37.857  34.017  30.240  1.00  0.00     0.012 C 
ENDBRANCH   8  13
BRANCH  11  15
ATOM     15  C   UNL A   1      37.057  32.864  35.953  1.00  0.00     0.216 C 
BRANCH  15  16
ATOM     16  O   UNL A   1      38.095  33.386  36.787  1.00  0.00    -0.378 OA
ATOM     17  C   UNL A   1      38.083  32.834  38.097  1.00  0.00     0.195 C 
ENDBRANCH  15  16
ENDBRANCH  11  15
ENDBRANCH   6   7
ENDBRANCH   5   6
ENDBRANCH   3   5
ENDBRANCH   2   3
ENDBRANCH   1   2
BRANCH   1  18
ATOM     18  C   UNL A   1      33.534  33.440  28.077  1.00  0.00     0.275 C 
BRANCH  18  19
ATOM     19  O   UNL A   1      34.554  32.632  27.462  1.00  0.00    -0.458 OA
BRANCH  19  20
ATOM     20  C   UNL A   1      34.522  31.332  27.819  1.00  0.00     0.338 C 
ATOM     21  O   UNL A   1      33.609  30.542  27.623  1.00  0.00    -0.246 OA
BRANCH  20  22
ATOM     22  C   UNL A   1      35.775  30.898  28.454  1.00  0.00     0.060 A 
ATOM     23  C   UNL A   1      37.002  31.374  27.987  1.00  0.00     0.016 A 
ATOM     24  C   UNL A   1      35.725  29.850  29.377  1.00  0.00     0.016 A 
ATOM     25  C   UNL A   1      38.184  30.762  28.411  1.00  0.00     0.010 A 
ATOM     26  C   UNL A   1      36.910  29.282  29.846  1.00  0.00     0.010 A 
ATOM     27  C   UNL A   1      38.149  29.718  29.354  1.00  0.00    -0.014 A 
BRANCH  27  28
ATOM     28  C   UNL A   1      39.410  29.157  29.900  1.00  0.00     0.031 A 
ATOM     29  C   UNL A   1      40.082  29.748  31.109  1.00  0.00     0.074 A 
ATOM     30  C   UNL A   1      39.977  28.121  29.252  1.00  0.00     0.049 A 
ATOM     31  N   UNL A   1      41.211  29.397  31.670  1.00  0.00    -0.248 NA
ATOM     32  C   UNL A   1      39.404  30.870  31.775  1.00  0.00     0.031 C 
ATOM     33  C   UNL A   1      39.437  27.492  28.045  1.00  0.00     0.029 A 
ATOM     34  N   UNL A   1      41.138  27.434  29.498  1.00  0.00    -0.354 N 
ATOM     35  C   UNL A   1      41.389  30.258  32.746  1.00  0.00     0.074 A 
ATOM     36  C   UNL A   1      40.254  31.158  32.754  1.00  0.00     0.031 C 
ATOM     37  C   UNL A   1      40.268  26.519  27.649  1.00  0.00     0.029 A 
ATOM     38  C   UNL A   1      41.416  26.478  28.549  1.00  0.00     0.049 A 
ATOM     39  H   UNL A   1      41.715  27.608  30.276  1.00  0.00     0.167 HD
ATOM     40  C   UNL A   1      42.396  30.282  33.653  1.00  0.00     0.034 A 
ATOM     41  C   UNL A   1      42.484  25.672  28.401  1.00  0.00     0.034 A 
ATOM     42  C   UNL A   1      43.517  29.377  33.651  1.00  0.00     0.049 A 
ATOM     43  C   UNL A   1      43.585  25.722  29.418  1.00  0.00     0.074 A 
ATOM     44  C   UNL A   1      44.570  29.311  34.549  1.00  0.00     0.029 A 
ATOM     45  N   UNL A   1      43.736  28.385  32.708  1.00  0.00    -0.354 N 
ATOM     46  N   UNL A   1      43.679  26.471  30.490  1.00  0.00    -0.248 NA
ATOM     47  C   UNL A   1      44.715  24.804  29.222  1.00  0.00     0.031 C 
ATOM     48  C   UNL A   1      45.424  28.276  34.148  1.00  0.00     0.029 A 
ATOM     49  C   UNL A   1      44.905  27.702  33.001  1.00  0.00     0.049 A 
ATOM     50  H   UNL A   1      43.146  28.195  31.944  1.00  0.00     0.167 HD
ATOM     51  C   UNL A   1      44.871  26.109  31.101  1.00  0.00     0.074 A 
ATOM     52  C   UNL A   1      45.450  25.051  30.298  1.00  0.00     0.031 C 
ATOM     53  C   UNL A   1      45.448  26.625  32.215  1.00  0.00     0.034 A 
BRANCH  40  54
ATOM     54  C   UNL A   1      42.305  31.275  34.781  1.00  0.00     0.023 A 
ATOM     55  C   UNL A   1      41.756  30.856  36.009  1.00  0.00     0.012 A 
ATOM     56  C   UNL A   1      42.848  32.569  34.671  1.00  0.00     0.148 A 
ATOM     57  C   UNL A   1      41.742  31.712  37.109  1.00  0.00     0.002 A 
ATOM     58  C   UNL A   1      42.854  33.409  35.781  1.00  0.00     0.091 A 
ATOM     59  F   UNL A   1      43.342  32.959  33.487  1.00  0.00    -0.205 F 
ATOM     60  C   UNL A   1      42.301  32.983  36.999  1.00  0.00     0.022 A 
BRANCH  58  61
ATOM     61  S   UNL A   1      43.615  35.038  35.745  1.00  0.00     0.127 S 
ATOM     62  O   UNL A   1      45.017  34.716  36.006  1.00  0.00    -0.237 OA
ATOM     63  O   UNL A   1      43.338  35.485  34.379  1.00  0.00    -0.237 OA
ATOM     64  O   UNL A   1      42.939  35.810  36.778  1.00  0.00    -0.744 OA
ENDBRANCH  58  61
ENDBRANCH  40  54
BRANCH  41  65
ATOM     65  C   UNL A   1      42.515  24.720  27.259  1.00  0.00     0.023 A 
ATOM     66  C   UNL A   1      43.219  25.062  26.091  1.00  0.00     0.012 A 
ATOM     67  C   UNL A   1      41.940  23.439  27.365  1.00  0.00     0.148 A 
ATOM     68  C   UNL A   1      43.348  24.144  25.047  1.00  0.00     0.002 A 
ATOM     69  C   UNL A   1      42.124  22.510  26.348  1.00  0.00     0.091 A 
ATOM     70  F   UNL A   1      41.252  23.132  28.476  1.00  0.00    -0.205 F 
ATOM     71  C   UNL A   1      42.817  22.863  25.182  1.00  0.00     0.022 A 
BRANCH  69  72
ATOM     72  S   UNL A   1      41.604  20.806  26.573  1.00  0.00     0.127 S 
ATOM     73  O   UNL A   1      40.156  20.906  26.440  1.00  0.00    -0.237 OA
ATOM     74  O   UNL A   1      42.276  20.113  25.474  1.00  0.00    -0.237 OA
ATOM     75  O   UNL A   1      42.115  20.450  27.893  1.00  0.00    -0.744 OA
ENDBRANCH  69  72
ENDBRANCH  41  65
BRANCH  53  76
ATOM     76  C   UNL A   1      46.782  26.061  32.617  1.00  0.00     0.023 A 
ATOM     77  C   UNL A   1      47.954  26.659  32.116  1.00  0.00     0.012 A 
ATOM     78  C   UNL A   1      46.883  24.980  33.512  1.00  0.00     0.148 A 
ATOM     79  C   UNL A   1      49.209  26.173  32.481  1.00  0.00     0.002 A 
ATOM     80  C   UNL A   1      48.138  24.520  33.895  1.00  0.00     0.091 A 
ATOM     81  F   UNL A   1      45.757  24.406  33.960  1.00  0.00    -0.205 F 
ATOM     82  C   UNL A   1      49.301  25.110  33.377  1.00  0.00     0.022 A 
BRANCH  80  83
ATOM     83  S   UNL A   1      48.316  23.195  35.094  1.00  0.00     0.127 S 
ATOM     84  O   UNL A   1      49.755  22.942  35.054  1.00  0.00    -0.237 OA
ATOM     85  O   UNL A   1      47.841  23.810  36.335  1.00  0.00    -0.237 OA
ATOM     86  O   UNL A   1      47.463  22.121  34.599  1.00  0.00    -0.744 OA
ENDBRANCH  80  83
ENDBRANCH  53  76
ENDBRANCH  27  28
ENDBRANCH  20  22
ENDBRANCH  19  20
ENDBRANCH  18  19
ENDBRANCH   1  18
TORSDOF 19
ENDMDL
MODEL 2
REMARK VINA RESULT:      -8.7      1.282      8.105
REMARK SMILES CCc1nc(COC)cc(OCC(=O)OCCOC(=O)c2ccc(-c3c4nc(c(-c5cccc(S(=O)(=O)[O-])c5F)c5ccc([nH]5)c(-c5cccc(S(=O)(=O)[O-])c5F)c5nc(c(-c6cccc(S(=O)(=O)[O-])c6F)c6ccc3[nH]6)C=C5)C=C4)cc2)n1
REMARK SMILES IDX 16 1 15 2 13 3 14 4 12 5 11 6 10 7 3 8 4 9 84 10 5 11 9 12
REMARK SMILES IDX 2 13 1 14 6 15 7 16 8 17 17 18 18 19 19 20 20 21 21 22 22 23
REMARK SMILES IDX 83 24 23 25 82 26 24 27 25 28 26 29 76 30 27 31 81 32 75 33
REMARK SMILES IDX 77 34 28 35 80 36 74 37 73 38 29 40 61 41 41 42 60 43 42 44
REMARK SMILES IDX 45 45 59 46 78 47 43 48 44 49 58 51 79 52 46 53 30 54 31 55
REMARK SMILES IDX 39 56 32 57 34 58 40 59 33 60 35 61 36 62 37 63 38 64 62 65
REMARK SMILES IDX 63 66 71 67 64 68 66 69 72 70 65 71 67 72 68 73 69 74 70 75
REMARK SMILES IDX 47 76 48 77 56 78 49 79 51 80 57 81 50 82 52 83 53 84 54 85
REMARK SMILES IDX 55 86
REMARK H PARENT 77 39 45 50
REMARK Flexibility Score: inf
ROOT
ATOM      1  C   UNL A   1      34.336  34.231  29.141  1.00  0.00     0.274 C 
ENDROOT
BRANCH   1   2
ATOM      2  O   UNL A   1      33.755  34.053  30.447  1.00  0.00    -0.460 OA
BRANCH   2   3
ATOM      3  C   UNL A   1      33.306  35.186  31.053  1.00  0.00     0.344 C 
ATOM      4  O   UNL A   1      32.935  36.194  30.462  1.00  0.00    -0.248 OA
BRANCH   3   5
ATOM      5  C   UNL A   1      33.303  35.089  32.574  1.00  0.00     0.353 C 
BRANCH   5   6
ATOM      6  O   UNL A   1      34.331  35.788  33.252  1.00  0.00    -0.466 OA
BRANCH   6   7
ATOM      7  C   UNL A   1      35.498  35.117  33.482  1.00  0.00     0.217 A 
ATOM      8  C   UNL A   1      37.500  34.501  32.562  1.00  0.00     0.132 A 
ATOM      9  N   UNL A   1      37.850  33.784  33.640  1.00  0.00    -0.235 NA
ATOM     10  N   UNL A   1      36.349  35.184  32.447  1.00  0.00    -0.198 NA
ATOM     11  C   UNL A   1      36.962  33.697  34.648  1.00  0.00     0.074 A 
ATOM     12  C   UNL A   1      35.760  34.378  34.614  1.00  0.00     0.094 A 
BRANCH   8  13
ATOM     13  C   UNL A   1      38.464  34.567  31.410  1.00  0.00     0.074 C 
ATOM     14  C   UNL A   1      38.208  33.513  30.340  1.00  0.00     0.012 C 
ENDBRANCH   8  13
BRANCH  11  15
ATOM     15  C   UNL A   1      37.318  32.795  35.809  1.00  0.00     0.216 C 
BRANCH  15  16
ATOM     16  O   UNL A   1      37.635  31.463  35.393  1.00  0.00    -0.378 OA
ATOM     17  C   UNL A   1      38.320  30.719  36.392  1.00  0.00     0.195 C 
ENDBRANCH  15  16
ENDBRANCH  11  15
ENDBRANCH   6   7
ENDBRANCH   5   6
ENDBRANCH   3   5
ENDBRANCH   2   3
ENDBRANCH   1   2
BRANCH   1  18
ATOM     18  C   UNL A   1      33.774  33.240  28.126  1.00  0.00     0.275 C 
BRANCH  18  19
ATOM     19  O   UNL A   1      34.824  32.445  27.545  1.00  0.00    -0.458 OA
BRANCH  19  20
ATOM     20  C   UNL A   1      34.801  31.146  27.907  1.00  0.00     0.338 C 
ATOM     21  O   UNL A   1      33.870  30.366  27.770  1.00  0.00    -0.246 OA
BRANCH  20  22
ATOM     22  C   UNL A   1      36.086  30.701  28.465  1.00  0.00     0.060 A 
ATOM     23  C   UNL A   1      37.282  31.021  27.819  1.00  0.00     0.016 A 
ATOM     24  C   UNL A   1      36.071  29.782  29.518  1.00  0.00     0.016 A 
ATOM     25  C   UNL A   1      38.462  30.379  28.199  1.00  0.00     0.010 A 
ATOM     26  C   UNL A   1      37.264  29.189  29.936  1.00  0.00     0.010 A 
ATOM     27  C   UNL A   1      38.465  29.466  29.269  1.00  0.00    -0.014 A 
BRANCH  27  28
ATOM     28  C   UNL A   1      39.741  28.883  29.755  1.00  0.00     0.031 A 
ATOM     29  C   UNL A   1      40.366  27.683  29.097  1.00  0.00     0.074 A 
ATOM     30  C   UNL A   1      40.314  29.428  30.845  1.00  0.00     0.049 A 
ATOM     31  N   UNL A   1      41.449  27.033  29.440  1.00  0.00    -0.248 NA
ATOM     32  C   UNL A   1      39.695  27.143  27.904  1.00  0.00     0.031 C 
ATOM     33  C   UNL A   1      39.777  30.568  31.591  1.00  0.00     0.029 A 
ATOM     34  N   UNL A   1      41.452  29.085  31.530  1.00  0.00    -0.354 N 
ATOM     35  C   UNL A   1      41.587  26.003  28.518  1.00  0.00     0.074 A 
ATOM     36  C   UNL A   1      40.469  26.107  27.603  1.00  0.00     0.031 C 
ATOM     37  C   UNL A   1      40.577  30.825  32.634  1.00  0.00     0.029 A 
ATOM     38  C   UNL A   1      41.662  29.848  32.654  1.00  0.00     0.049 A 
ATOM     39  H   UNL A   1      42.058  28.364  31.244  1.00  0.00     0.167 HD
ATOM     40  C   UNL A   1      42.568  25.071  28.431  1.00  0.00     0.034 A 
ATOM     41  C   UNL A   1      42.605  29.762  33.611  1.00  0.00     0.034 A 
ATOM     42  C   UNL A   1      43.686  24.978  29.333  1.00  0.00     0.049 A 
ATOM     43  C   UNL A   1      43.675  28.719  33.492  1.00  0.00     0.074 A 
ATOM     44  C   UNL A   1      44.743  24.081  29.305  1.00  0.00     0.029 A 
ATOM     45  N   UNL A   1      43.897  25.804  30.427  1.00  0.00    -0.354 N 
ATOM     46  N   UNL A   1      43.847  27.824  32.549  1.00  0.00    -0.248 NA
ATOM     47  C   UNL A   1      44.693  28.685  34.550  1.00  0.00     0.031 C 
ATOM     48  C   UNL A   1      45.592  24.368  30.381  1.00  0.00     0.029 A 
ATOM     49  C   UNL A   1      45.063  25.439  31.080  1.00  0.00     0.049 A 
ATOM     50  H   UNL A   1      43.304  26.541  30.698  1.00  0.00     0.167 HD
ATOM     51  C   UNL A   1      44.997  27.127  32.895  1.00  0.00     0.074 A 
ATOM     52  C   UNL A   1      45.498  27.724  34.116  1.00  0.00     0.031 C 
ATOM     53  C   UNL A   1      45.571  26.069  32.271  1.00  0.00     0.034 A 
BRANCH  40  54
ATOM     54  C   UNL A   1      42.524  24.108  27.275  1.00  0.00     0.023 A 
ATOM     55  C   UNL A   1      43.171  24.462  26.074  1.00  0.00     0.012 A 
ATOM     56  C   UNL A   1      41.949  22.829  27.399  1.00  0.00     0.148 A 
ATOM     57  C   UNL A   1      43.240  23.561  25.012  1.00  0.00     0.002 A 
ATOM     58  C   UNL A   1      42.045  21.926  26.345  1.00  0.00     0.091 A 
ATOM     59  F   UNL A   1      41.315  22.520  28.540  1.00  0.00    -0.205 F 
ATOM     60  C   UNL A   1      42.688  22.291  25.151  1.00  0.00     0.022 A 
BRANCH  58  61
ATOM     61  S   UNL A   1      41.419  20.244  26.465  1.00  0.00     0.127 S 
ATOM     62  O   UNL A   1      39.982  20.449  26.292  1.00  0.00    -0.237 OA
ATOM     63  O   UNL A   1      42.079  19.581  25.339  1.00  0.00    -0.237 OA
ATOM     64  O   UNL A   1      41.837  19.763  27.774  1.00  0.00    -0.744 OA
ENDBRANCH  58  61
ENDBRANCH  40  54
BRANCH  41  65
ATOM     65  C   UNL A   1      42.585  30.739  34.732  1.00  0.00     0.023 A 
ATOM     66  C   UNL A   1      41.988  30.381  35.952  1.00  0.00     0.012 A 
ATOM     67  C   UNL A   1      43.245  31.979  34.627  1.00  0.00     0.148 A 
ATOM     68  C   UNL A   1      42.047  31.241  37.050  1.00  0.00     0.002 A 
ATOM     69  C   UNL A   1      43.353  32.803  35.741  1.00  0.00     0.091 A 
ATOM     70  F   UNL A   1      43.793  32.320  33.450  1.00  0.00    -0.205 F 
ATOM     71  C   UNL A   1      42.744  32.443  36.951  1.00  0.00     0.022 A 
BRANCH  69  72
ATOM     72  S   UNL A   1      44.391  34.267  35.687  1.00  0.00     0.127 S 
ATOM     73  O   UNL A   1      45.671  33.721  35.253  1.00  0.00    -0.237 OA
ATOM     74  O   UNL A   1      43.716  35.109  34.699  1.00  0.00    -0.237 OA
ATOM     75  O   UNL A   1      44.333  34.794  37.046  1.00  0.00    -0.744 OA
ENDBRANCH  69  72
ENDBRANCH  41  65
BRANCH  53  76
ATOM     76  C   UNL A   1      46.798  25.482  32.910  1.00  0.00     0.023 A 
ATOM     77  C   UNL A   1      46.645  24.605  34.002  1.00  0.00     0.012 A 
ATOM     78  C   UNL A   1      48.086  25.757  32.417  1.00  0.00     0.148 A 
ATOM     79  C   UNL A   1      47.760  24.028  34.609  1.00  0.00     0.002 A 
ATOM     80  C   UNL A   1      49.191  25.155  33.009  1.00  0.00     0.091 A 
ATOM     81  F   UNL A   1      48.216  26.615  31.395  1.00  0.00    -0.205 F 
ATOM     82  C   UNL A   1      49.032  24.295  34.107  1.00  0.00     0.022 A 
BRANCH  80  83
ATOM     83  S   UNL A   1      50.848  25.416  32.365  1.00  0.00     0.127 S 
ATOM     84  O   UNL A   1      50.735  24.874  31.012  1.00  0.00    -0.237 OA
ATOM     85  O   UNL A   1      50.997  26.872  32.426  1.00  0.00    -0.237 OA
ATOM     86  O   UNL A   1      51.725  24.690  33.275  1.00  0.00    -0.744 OA
ENDBRANCH  80  83
ENDBRANCH  53  76
ENDBRANCH  27  28
ENDBRANCH  20  22
ENDBRANCH  19  20
ENDBRANCH  18  19
ENDBRANCH   1  18
TORSDOF 19
ENDMDL
MODEL 3
REMARK VINA RESULT:      -8.7      3.787      6.781
REMARK SMILES CCc1nc(COC)cc(OCC(=O)OCCOC(=O)c2ccc(-c3c4nc(c(-c5cccc(S(=O)(=O)[O-])c5F)c5ccc([nH]5)c(-c5cccc(S(=O)(=O)[O-])c5F)c5nc(c(-c6cccc(S(=O)(=O)[O-])c6F)c6ccc3[nH]6)C=C5)C=C4)cc2)n1
REMARK SMILES IDX 16 1 15 2 13 3 14 4 12 5 11 6 10 7 3 8 4 9 84 10 5 11 9 12
REMARK SMILES IDX 2 13 1 14 6 15 7 16 8 17 17 18 18 19 19 20 20 21 21 22 22 23
REMARK SMILES IDX 83 24 23 25 82 26 24 27 25 28 26 29 76 30 27 31 81 32 75 33
REMARK SMILES IDX 77 34 28 35 80 36 74 37 73 38 29 40 61 41 41 42 60 43 42 44
REMARK SMILES IDX 45 45 59 46 78 47 43 48 44 49 58 51 79 52 46 53 30 54 31 55
REMARK SMILES IDX 39 56 32 57 34 58 40 59 33 60 35 61 36 62 37 63 38 64 62 65
REMARK SMILES IDX 63 66 71 67 64 68 66 69 72 70 65 71 67 72 68 73 69 74 70 75
REMARK SMILES IDX 47 76 48 77 56 78 49 79 51 80 57 81 50 82 52 83 53 84 54 85
REMARK SMILES IDX 55 86
REMARK H PARENT 77 39 45 50
REMARK Flexibility Score: inf
ROOT
ATOM      1  C   UNL A   1      31.607  28.512  25.385  1.00  0.00     0.274 C 
ENDROOT
BRANCH   1   2
ATOM      2  O   UNL A   1      31.212  27.290  26.038  1.00  0.00    -0.460 OA
BRANCH   2   3
ATOM      3  C   UNL A   1      31.132  26.192  25.239  1.00  0.00     0.344 C 
ATOM      4  O   UNL A   1      31.418  26.173  24.047  1.00  0.00    -0.248 OA
BRANCH   3   5
ATOM      5  C   UNL A   1      30.641  24.951  25.976  1.00  0.00     0.353 C 
BRANCH   5   6
ATOM      6  O   UNL A   1      31.559  24.345  26.868  1.00  0.00    -0.466 OA
BRANCH   6   7
ATOM      7  C   UNL A   1      32.470  23.478  26.336  1.00  0.00     0.217 A 
ATOM      8  C   UNL A   1      34.694  23.151  25.908  1.00  0.00     0.132 A 
ATOM      9  N   UNL A   1      34.469  21.992  25.272  1.00  0.00    -0.235 NA
ATOM     10  N   UNL A   1      33.734  23.913  26.459  1.00  0.00    -0.198 NA
ATOM     11  C   UNL A   1      33.190  21.598  25.125  1.00  0.00     0.074 A 
ATOM     12  C   UNL A   1      32.144  22.318  25.670  1.00  0.00     0.094 A 
BRANCH   8  13
ATOM     13  C   UNL A   1      36.115  23.625  26.038  1.00  0.00     0.074 C 
ATOM     14  C   UNL A   1      37.089  22.886  25.129  1.00  0.00     0.012 C 
ENDBRANCH   8  13
BRANCH  11  15
ATOM     15  C   UNL A   1      32.940  20.350  24.308  1.00  0.00     0.216 C 
BRANCH  15  16
ATOM     16  O   UNL A   1      32.134  19.392  25.001  1.00  0.00    -0.378 OA
ATOM     17  C   UNL A   1      32.904  18.443  25.727  1.00  0.00     0.195 C 
ENDBRANCH  15  16
ENDBRANCH  11  15
ENDBRANCH   6   7
ENDBRANCH   5   6
ENDBRANCH   3   5
ENDBRANCH   2   3
ENDBRANCH   1   2
BRANCH   1  18
ATOM     18  C   UNL A   1      31.760  29.664  26.374  1.00  0.00     0.275 C 
BRANCH  18  19
ATOM     19  O   UNL A   1      32.772  30.589  25.935  1.00  0.00    -0.458 OA
BRANCH  19  20
ATOM     20  C   UNL A   1      33.194  31.443  26.890  1.00  0.00     0.338 C 
ATOM     21  O   UNL A   1      32.620  32.452  27.273  1.00  0.00    -0.246 OA
BRANCH  20  22
ATOM     22  C   UNL A   1      34.453  31.007  27.511  1.00  0.00     0.060 A 
ATOM     23  C   UNL A   1      34.629  29.671  27.879  1.00  0.00     0.016 A 
ATOM     24  C   UNL A   1      35.368  31.982  27.916  1.00  0.00     0.016 A 
ATOM     25  C   UNL A   1      35.704  29.320  28.700  1.00  0.00     0.010 A 
ATOM     26  C   UNL A   1      36.475  31.617  28.684  1.00  0.00     0.010 A 
ATOM     27  C   UNL A   1      36.642  30.288  29.100  1.00  0.00    -0.014 A 
BRANCH  27  28
ATOM     28  C   UNL A   1      37.852  29.891  29.863  1.00  0.00     0.031 A 
ATOM     29  C   UNL A   1      38.168  30.479  31.211  1.00  0.00     0.074 A 
ATOM     30  C   UNL A   1      38.702  29.015  29.294  1.00  0.00     0.049 A 
ATOM     31  N   UNL A   1      39.211  30.268  31.972  1.00  0.00    -0.248 NA
ATOM     32  C   UNL A   1      37.192  31.422  31.779  1.00  0.00     0.031 C 
ATOM     33  C   UNL A   1      38.521  28.409  27.974  1.00  0.00     0.029 A 
ATOM     34  N   UNL A   1      39.894  28.502  29.737  1.00  0.00    -0.354 N 
ATOM     35  C   UNL A   1      39.028  31.055  33.102  1.00  0.00     0.074 A 
ATOM     36  C   UNL A   1      37.775  31.760  32.924  1.00  0.00     0.031 C 
ATOM     37  C   UNL A   1      39.567  27.616  27.708  1.00  0.00     0.029 A 
ATOM     38  C   UNL A   1      40.510  27.684  28.820  1.00  0.00     0.049 A 
ATOM     39  H   UNL A   1      40.272  28.701  30.625  1.00  0.00     0.167 HD
ATOM     40  C   UNL A   1      39.822  31.163  34.195  1.00  0.00     0.034 A 
ATOM     41  C   UNL A   1      41.709  27.072  28.853  1.00  0.00     0.034 A 
ATOM     42  C   UNL A   1      41.060  30.451  34.378  1.00  0.00     0.049 A 
ATOM     43  C   UNL A   1      42.568  27.212  30.074  1.00  0.00     0.074 A 
ATOM     44  C   UNL A   1      41.917  30.478  35.466  1.00  0.00     0.029 A 
ATOM     45  N   UNL A   1      41.624  29.586  33.452  1.00  0.00    -0.354 N 
ATOM     46  N   UNL A   1      42.324  27.876  31.177  1.00  0.00    -0.248 NA
ATOM     47  C   UNL A   1      43.855  26.504  30.067  1.00  0.00     0.031 C 
ATOM     48  C   UNL A   1      42.997  29.628  35.198  1.00  0.00     0.029 A 
ATOM     49  C   UNL A   1      42.814  29.075  33.942  1.00  0.00     0.049 A 
ATOM     50  H   UNL A   1      41.234  29.368  32.575  1.00  0.00     0.167 HD
ATOM     51  C   UNL A   1      43.420  27.658  32.000  1.00  0.00     0.074 A 
ATOM     52  C   UNL A   1      44.316  26.775  31.281  1.00  0.00     0.031 C 
ATOM     53  C   UNL A   1      43.675  28.166  33.232  1.00  0.00     0.034 A 
BRANCH  40  54
ATOM     54  C   UNL A   1      39.347  32.033  35.328  1.00  0.00     0.023 A 
ATOM     55  C   UNL A   1      38.495  31.473  36.302  1.00  0.00     0.012 A 
ATOM     56  C   UNL A   1      39.814  33.351  35.494  1.00  0.00     0.148 A 
ATOM     57  C   UNL A   1      38.110  32.213  37.419  1.00  0.00     0.002 A 
ATOM     58  C   UNL A   1      39.446  34.074  36.625  1.00  0.00     0.091 A 
ATOM     59  F   UNL A   1      40.601  33.875  34.544  1.00  0.00    -0.205 F 
ATOM     60  C   UNL A   1      38.594  33.507  37.587  1.00  0.00     0.022 A 
BRANCH  58  61
ATOM     61  S   UNL A   1      40.079  35.725  36.953  1.00  0.00     0.127 S 
ATOM     62  O   UNL A   1      39.654  36.449  35.756  1.00  0.00    -0.237 OA
ATOM     63  O   UNL A   1      39.367  36.099  38.176  1.00  0.00    -0.237 OA
ATOM     64  O   UNL A   1      41.517  35.568  37.121  1.00  0.00    -0.744 OA
ENDBRANCH  58  61
ENDBRANCH  40  54
BRANCH  41  65
ATOM     65  C   UNL A   1      42.122  26.234  27.696  1.00  0.00     0.023 A 
ATOM     66  C   UNL A   1      43.042  26.744  26.764  1.00  0.00     0.012 A 
ATOM     67  C   UNL A   1      41.688  24.899  27.574  1.00  0.00     0.148 A 
ATOM     68  C   UNL A   1      43.522  25.941  25.729  1.00  0.00     0.002 A 
ATOM     69  C   UNL A   1      42.216  24.087  26.577  1.00  0.00     0.091 A 
ATOM     70  F   UNL A   1      40.793  24.430  28.457  1.00  0.00    -0.205 F 
ATOM     71  C   UNL A   1      43.124  24.608  25.645  1.00  0.00     0.022 A 
BRANCH  69  72
ATOM     72  S   UNL A   1      41.855  22.328  26.557  1.00  0.00     0.127 S 
ATOM     73  O   UNL A   1      42.590  21.877  25.381  1.00  0.00    -0.237 OA
ATOM     74  O   UNL A   1      42.399  21.869  27.835  1.00  0.00    -0.237 OA
ATOM     75  O   UNL A   1      40.399  22.266  26.480  1.00  0.00    -0.744 OA
ENDBRANCH  69  72
ENDBRANCH  41  65
BRANCH  53  76
ATOM     76  C   UNL A   1      44.983  27.789  33.869  1.00  0.00     0.023 A 
ATOM     77  C   UNL A   1      46.103  28.620  33.670  1.00  0.00     0.012 A 
ATOM     78  C   UNL A   1      45.100  26.652  34.689  1.00  0.00     0.148 A 
ATOM     79  C   UNL A   1      47.328  28.311  34.260  1.00  0.00     0.002 A 
ATOM     80  C   UNL A   1      46.317  26.367  35.298  1.00  0.00     0.091 A 
ATOM     81  F   UNL A   1      44.032  25.857  34.847  1.00  0.00    -0.205 F 
ATOM     82  C   UNL A   1      47.433  27.190  35.081  1.00  0.00     0.022 A 
BRANCH  80  83
ATOM     83  S   UNL A   1      46.493  24.971  36.414  1.00  0.00     0.127 S 
ATOM     84  O   UNL A   1      47.915  25.030  36.751  1.00  0.00    -0.237 OA
ATOM     85  O   UNL A   1      45.593  25.317  37.515  1.00  0.00    -0.237 OA
ATOM     86  O   UNL A   1      46.067  23.812  35.639  1.00  0.00    -0.744 OA
ENDBRANCH  80  83
ENDBRANCH  53  76
ENDBRANCH  27  28
ENDBRANCH  20  22
ENDBRANCH  19  20
ENDBRANCH  18  19
ENDBRANCH   1  18
TORSDOF 19
ENDMDL
