MODEL 1
REMARK VINA RESULT:     -10.7      0.000      0.000
REMARK SMILES CCC[C@H]([NH2+]Cc1nc(C(C)(C)C)cs1)C(=O)OCCOC(=O)c1ccc(-c2c3nc(c(-c4cccc(S(=O)(=O)[O-])c4F)c4ccc([nH]4)c(-c4cccc(S(=O)(=O)[O-])c4F)c4nc(c(-c5cccc(S(=O)(=O)[O-])c5F)c5ccc2[nH]5)C=C4)C=C3)cc1
REMARK SMILES IDX 19 1 18 2 16 3 17 4 4 5 3 6 2 7 1 8 5 9 6 12 7 13 8 14 15 15
REMARK SMILES IDX 9 16 14 17 10 18 11 19 12 20 13 21 20 22 21 23 22 24 23 25
REMARK SMILES IDX 24 26 25 27 86 28 26 29 85 30 27 31 28 32 29 33 79 34 30 35
REMARK SMILES IDX 84 36 78 37 80 38 31 39 83 40 77 41 76 42 32 44 64 45 44 46
REMARK SMILES IDX 63 47 45 48 48 49 62 50 81 51 46 52 47 53 61 55 82 56 49 57
REMARK SMILES IDX 33 58 34 59 42 60 35 61 37 62 43 63 36 64 38 65 39 66 40 67
REMARK SMILES IDX 41 68 65 69 66 70 74 71 67 72 69 73 75 74 68 75 70 76 71 77
REMARK SMILES IDX 72 78 73 79 50 80 51 81 59 82 52 83 54 84 60 85 53 86 55 87
REMARK SMILES IDX 56 88 57 89 58 90
REMARK H PARENT 5 10 5 11 80 43 48 54
REMARK Flexibility Score: inf
ROOT
ATOM      1  C   UNL A   1      31.874  28.405  27.256  1.00  0.00     0.274 C 
ENDROOT
BRANCH   1   2
ATOM      2  O   UNL A   1      32.416  27.363  26.421  1.00  0.00    -0.458 OA
BRANCH   2   3
ATOM      3  C   UNL A   1      31.596  26.296  26.222  1.00  0.00     0.364 C 
ATOM      4  O   UNL A   1      30.478  26.190  26.716  1.00  0.00    -0.245 OA
BRANCH   3   5
ATOM      5  C   UNL A   1      32.187  25.212  25.308  1.00  0.00     0.293 C 
BRANCH   5   6
ATOM      6  C   UNL A   1      33.427  24.503  25.901  1.00  0.00     0.077 C 
BRANCH   6   7
ATOM      7  C   UNL A   1      33.216  23.303  26.834  1.00  0.00     0.003 C 
ATOM      8  C   UNL A   1      33.008  21.972  26.121  1.00  0.00     0.004 C 
ENDBRANCH   6   7
ENDBRANCH   5   6
BRANCH   5   9
ATOM      9  N   UNL A   1      32.467  25.679  23.915  1.00  0.00    -0.329 N 
ATOM     10  H   UNL A   1      33.060  24.992  23.450  1.00  0.00     0.347 HD
ATOM     11  H   UNL A   1      32.929  26.585  23.974  1.00  0.00     0.347 HD
BRANCH   9  12
ATOM     12  C   UNL A   1      31.226  25.848  23.130  1.00  0.00     0.330 C 
BRANCH  12  13
ATOM     13  C   UNL A   1      30.863  27.297  22.916  1.00  0.00     0.147 A 
ATOM     14  N   UNL A   1      29.630  27.761  22.821  1.00  0.00    -0.240 NA
ATOM     15  S   UNL A   1      32.099  28.492  22.874  1.00  0.00    -0.121 S 
ATOM     16  C   UNL A   1      29.638  29.152  22.760  1.00  0.00     0.057 A 
ATOM     17  C   UNL A   1      30.906  29.710  22.778  1.00  0.00     0.091 A 
BRANCH  16  18
ATOM     18  C   UNL A   1      28.323  29.919  22.685  1.00  0.00     0.005 C 
ATOM     19  C   UNL A   1      27.148  29.018  23.118  1.00  0.00     0.017 C 
ATOM     20  C   UNL A   1      28.380  31.146  23.616  1.00  0.00     0.017 C 
ATOM     21  C   UNL A   1      28.036  30.414  21.253  1.00  0.00     0.017 C 
ENDBRANCH  16  18
ENDBRANCH  12  13
ENDBRANCH   9  12
ENDBRANCH   5   9
ENDBRANCH   3   5
ENDBRANCH   2   3
ENDBRANCH   1   2
BRANCH   1  22
ATOM     22  C   UNL A   1      31.767  29.733  26.501  1.00  0.00     0.275 C 
BRANCH  22  23
ATOM     23  O   UNL A   1      33.073  30.298  26.286  1.00  0.00    -0.458 OA
BRANCH  23  24
ATOM     24  C   UNL A   1      33.416  31.346  27.066  1.00  0.00     0.338 C 
ATOM     25  O   UNL A   1      32.782  32.368  27.261  1.00  0.00    -0.246 OA
BRANCH  24  26
ATOM     26  C   UNL A   1      34.703  31.061  27.721  1.00  0.00     0.060 A 
ATOM     27  C   UNL A   1      34.935  29.803  28.285  1.00  0.00     0.016 A 
ATOM     28  C   UNL A   1      35.650  32.075  27.842  1.00  0.00     0.016 A 
ATOM     29  C   UNL A   1      36.119  29.548  28.972  1.00  0.00     0.010 A 
ATOM     30  C   UNL A   1      36.850  31.811  28.504  1.00  0.00     0.010 A 
ATOM     31  C   UNL A   1      37.089  30.549  29.075  1.00  0.00    -0.014 A 
BRANCH  31  32
ATOM     32  C   UNL A   1      38.370  30.298  29.776  1.00  0.00     0.031 A 
ATOM     33  C   UNL A   1      39.368  29.350  29.183  1.00  0.00     0.074 A 
ATOM     34  C   UNL A   1      38.592  30.864  30.977  1.00  0.00     0.049 A 
ATOM     35  N   UNL A   1      40.433  28.825  29.727  1.00  0.00    -0.248 NA
ATOM     36  C   UNL A   1      39.131  28.935  27.791  1.00  0.00     0.031 C 
ATOM     37  C   UNL A   1      37.707  31.829  31.631  1.00  0.00     0.029 A 
ATOM     38  N   UNL A   1      39.609  30.674  31.878  1.00  0.00    -0.354 N 
ATOM     39  C   UNL A   1      40.970  27.980  28.765  1.00  0.00     0.074 A 
ATOM     40  C   UNL A   1      40.118  28.070  27.597  1.00  0.00     0.031 C 
ATOM     41  C   UNL A   1      38.202  32.122  32.844  1.00  0.00     0.029 A 
ATOM     42  C   UNL A   1      39.401  31.322  33.074  1.00  0.00     0.049 A 
ATOM     43  H   UNL A   1      40.407  30.129  31.689  1.00  0.00     0.167 HD
ATOM     44  C   UNL A   1      42.076  27.205  28.850  1.00  0.00     0.034 A 
ATOM     45  C   UNL A   1      40.070  31.238  34.239  1.00  0.00     0.034 A 
ATOM     46  C   UNL A   1      42.929  27.148  30.007  1.00  0.00     0.049 A 
ATOM     47  C   UNL A   1      41.254  30.315  34.333  1.00  0.00     0.074 A 
ATOM     48  C   UNL A   1      44.098  26.429  30.182  1.00  0.00     0.029 A 
ATOM     49  N   UNL A   1      42.696  27.829  31.192  1.00  0.00    -0.354 N 
ATOM     50  N   UNL A   1      41.798  29.575  33.397  1.00  0.00    -0.248 NA
ATOM     51  C   UNL A   1      41.918  30.216  35.641  1.00  0.00     0.031 C 
ATOM     52  C   UNL A   1      44.564  26.664  31.480  1.00  0.00     0.029 A 
ATOM     53  C   UNL A   1      43.689  27.536  32.110  1.00  0.00     0.049 A 
ATOM     54  H   UNL A   1      41.936  28.434  31.356  1.00  0.00     0.167 HD
ATOM     55  C   UNL A   1      42.876  28.935  33.994  1.00  0.00     0.074 A 
ATOM     56  C   UNL A   1      42.924  29.393  35.369  1.00  0.00     0.031 C 
ATOM     57  C   UNL A   1      43.739  28.034  33.462  1.00  0.00     0.034 A 
BRANCH  44  58
ATOM     58  C   UNL A   1      42.437  26.376  27.648  1.00  0.00     0.023 A 
ATOM     59  C   UNL A   1      43.209  26.948  26.617  1.00  0.00     0.012 A 
ATOM     60  C   UNL A   1      42.046  25.027  27.552  1.00  0.00     0.148 A 
ATOM     61  C   UNL A   1      43.561  26.199  25.495  1.00  0.00     0.002 A 
ATOM     62  C   UNL A   1      42.429  24.277  26.446  1.00  0.00     0.091 A 
ATOM     63  F   UNL A   1      41.286  24.509  28.528  1.00  0.00    -0.205 F 
ATOM     64  C   UNL A   1      43.180  24.862  25.414  1.00  0.00     0.022 A 
BRANCH  62  65
ATOM     65  S   UNL A   1      42.031  22.532  26.288  1.00  0.00     0.127 S 
ATOM     66  O   UNL A   1      42.648  22.202  25.005  1.00  0.00    -0.237 OA
ATOM     67  O   UNL A   1      42.701  21.950  27.452  1.00  0.00    -0.237 OA
ATOM     68  O   UNL A   1      40.577  22.453  26.330  1.00  0.00    -0.744 OA
ENDBRANCH  62  65
ENDBRANCH  44  58
BRANCH  45  69
ATOM     69  C   UNL A   1      39.633  32.059  35.403  1.00  0.00     0.023 A 
ATOM     70  C   UNL A   1      39.970  33.425  35.443  1.00  0.00     0.012 A 
ATOM     71  C   UNL A   1      38.847  31.514  36.437  1.00  0.00     0.148 A 
ATOM     72  C   UNL A   1      39.538  34.232  36.496  1.00  0.00     0.002 A 
ATOM     73  C   UNL A   1      38.375  32.335  37.455  1.00  0.00     0.091 A 
ATOM     74  F   UNL A   1      38.558  30.205  36.395  1.00  0.00    -0.205 F 
ATOM     75  C   UNL A   1      38.729  33.692  37.494  1.00  0.00     0.022 A 
BRANCH  73  76
ATOM     76  S   UNL A   1      37.223  31.752  38.706  1.00  0.00     0.127 S 
ATOM     77  O   UNL A   1      37.023  30.362  38.305  1.00  0.00    -0.237 OA
ATOM     78  O   UNL A   1      37.992  31.934  39.937  1.00  0.00    -0.237 OA
ATOM     79  O   UNL A   1      36.056  32.618  38.596  1.00  0.00    -0.744 OA
ENDBRANCH  73  76
ENDBRANCH  45  69
BRANCH  57  80
ATOM     80  C   UNL A   1      44.810  27.482  34.364  1.00  0.00     0.023 A 
ATOM     81  C   UNL A   1      46.034  28.169  34.481  1.00  0.00     0.012 A 
ATOM     82  C   UNL A   1      44.576  26.338  35.153  1.00  0.00     0.148 A 
ATOM     83  C   UNL A   1      47.017  27.717  35.360  1.00  0.00     0.002 A 
ATOM     84  C   UNL A   1      45.545  25.918  36.055  1.00  0.00     0.091 A 
ATOM     85  F   UNL A   1      43.411  25.691  35.009  1.00  0.00    -0.205 F 
ATOM     86  C   UNL A   1      46.769  26.600  36.154  1.00  0.00     0.022 A 
BRANCH  84  87
ATOM     87  S   UNL A   1      45.284  24.540  37.178  1.00  0.00     0.127 S 
ATOM     88  O   UNL A   1      44.248  25.069  38.063  1.00  0.00    -0.237 OA
ATOM     89  O   UNL A   1      44.833  23.482  36.273  1.00  0.00    -0.237 OA
ATOM     90  O   UNL A   1      46.573  24.286  37.808  1.00  0.00    -0.744 OA
ENDBRANCH  84  87
ENDBRANCH  57  80
ENDBRANCH  31  32
ENDBRANCH  24  26
ENDBRANCH  23  24
ENDBRANCH  22  23
ENDBRANCH   1  22
TORSDOF 20
ENDMDL
MODEL 2
REMARK VINA RESULT:     -10.7      1.995      4.040
REMARK SMILES CCC[C@H]([NH2+]Cc1nc(C(C)(C)C)cs1)C(=O)OCCOC(=O)c1ccc(-c2c3nc(c(-c4cccc(S(=O)(=O)[O-])c4F)c4ccc([nH]4)c(-c4cccc(S(=O)(=O)[O-])c4F)c4nc(c(-c5cccc(S(=O)(=O)[O-])c5F)c5ccc2[nH]5)C=C4)C=C3)cc1
REMARK SMILES IDX 19 1 18 2 16 3 17 4 4 5 3 6 2 7 1 8 5 9 6 12 7 13 8 14 15 15
REMARK SMILES IDX 9 16 14 17 10 18 11 19 12 20 13 21 20 22 21 23 22 24 23 25
REMARK SMILES IDX 24 26 25 27 86 28 26 29 85 30 27 31 28 32 29 33 79 34 30 35
REMARK SMILES IDX 84 36 78 37 80 38 31 39 83 40 77 41 76 42 32 44 64 45 44 46
REMARK SMILES IDX 63 47 45 48 48 49 62 50 81 51 46 52 47 53 61 55 82 56 49 57
REMARK SMILES IDX 33 58 34 59 42 60 35 61 37 62 43 63 36 64 38 65 39 66 40 67
REMARK SMILES IDX 41 68 65 69 66 70 74 71 67 72 69 73 75 74 68 75 70 76 71 77
REMARK SMILES IDX 72 78 73 79 50 80 51 81 59 82 52 83 54 84 60 85 53 86 55 87
REMARK SMILES IDX 56 88 57 89 58 90
REMARK H PARENT 5 10 5 11 80 43 48 54
REMARK Flexibility Score: inf
ROOT
ATOM      1  C   UNL A   1      31.186  28.574  25.157  1.00  0.00     0.274 C 
ENDROOT
BRANCH   1   2
ATOM      2  O   UNL A   1      31.944  27.682  25.998  1.00  0.00    -0.458 OA
BRANCH   2   3
ATOM      3  C   UNL A   1      31.746  26.357  25.760  1.00  0.00     0.364 C 
ATOM      4  O   UNL A   1      30.954  25.659  26.383  1.00  0.00    -0.245 OA
BRANCH   3   5
ATOM      5  C   UNL A   1      32.608  25.790  24.620  1.00  0.00     0.293 C 
BRANCH   5   6
ATOM      6  C   UNL A   1      31.862  25.683  23.269  1.00  0.00     0.077 C 
BRANCH   6   7
ATOM      7  C   UNL A   1      32.463  26.375  22.038  1.00  0.00     0.003 C 
ATOM      8  C   UNL A   1      32.529  25.505  20.788  1.00  0.00     0.004 C 
ENDBRANCH   6   7
ENDBRANCH   5   6
BRANCH   5   9
ATOM      9  N   UNL A   1      33.276  24.495  24.953  1.00  0.00    -0.329 N 
ATOM     10  H   UNL A   1      33.202  24.334  25.957  1.00  0.00     0.347 HD
ATOM     11  H   UNL A   1      34.251  24.559  24.661  1.00  0.00     0.347 HD
BRANCH   9  12
ATOM     12  C   UNL A   1      32.660  23.356  24.240  1.00  0.00     0.330 C 
BRANCH  12  13
ATOM     13  C   UNL A   1      33.344  22.043  24.534  1.00  0.00     0.147 A 
ATOM     14  N   UNL A   1      32.811  20.852  24.333  1.00  0.00    -0.240 NA
ATOM     15  S   UNL A   1      34.972  22.032  25.089  1.00  0.00    -0.121 S 
ATOM     16  C   UNL A   1      33.748  19.852  24.579  1.00  0.00     0.057 A 
ATOM     17  C   UNL A   1      34.980  20.326  25.001  1.00  0.00     0.091 A 
BRANCH  16  18
ATOM     18  C   UNL A   1      33.373  18.389  24.377  1.00  0.00     0.005 C 
ATOM     19  C   UNL A   1      32.534  18.220  23.093  1.00  0.00     0.017 C 
ATOM     20  C   UNL A   1      34.651  17.535  24.253  1.00  0.00     0.017 C 
ATOM     21  C   UNL A   1      32.544  17.848  25.559  1.00  0.00     0.017 C 
ENDBRANCH  16  18
ENDBRANCH  12  13
ENDBRANCH   9  12
ENDBRANCH   5   9
ENDBRANCH   3   5
ENDBRANCH   2   3
ENDBRANCH   1   2
BRANCH   1  22
ATOM     22  C   UNL A   1      31.571  30.037  25.396  1.00  0.00     0.275 C 
BRANCH  22  23
ATOM     23  O   UNL A   1      32.899  30.126  25.942  1.00  0.00    -0.458 OA
BRANCH  23  24
ATOM     24  C   UNL A   1      33.115  31.098  26.856  1.00  0.00     0.338 C 
ATOM     25  O   UNL A   1      32.379  32.024  27.146  1.00  0.00    -0.246 OA
BRANCH  24  26
ATOM     26  C   UNL A   1      34.404  30.856  27.524  1.00  0.00     0.060 A 
ATOM     27  C   UNL A   1      34.740  29.566  27.945  1.00  0.00     0.016 A 
ATOM     28  C   UNL A   1      35.245  31.932  27.801  1.00  0.00     0.016 A 
ATOM     29  C   UNL A   1      35.923  29.340  28.645  1.00  0.00     0.010 A 
ATOM     30  C   UNL A   1      36.445  31.701  28.475  1.00  0.00     0.010 A 
ATOM     31  C   UNL A   1      36.789  30.407  28.904  1.00  0.00    -0.014 A 
BRANCH  31  32
ATOM     32  C   UNL A   1      38.067  30.193  29.621  1.00  0.00     0.031 A 
ATOM     33  C   UNL A   1      39.093  29.263  29.048  1.00  0.00     0.074 A 
ATOM     34  C   UNL A   1      38.262  30.776  30.819  1.00  0.00     0.049 A 
ATOM     35  N   UNL A   1      40.164  28.769  29.609  1.00  0.00    -0.248 NA
ATOM     36  C   UNL A   1      38.882  28.830  27.657  1.00  0.00     0.031 C 
ATOM     37  C   UNL A   1      37.348  31.725  31.454  1.00  0.00     0.029 A 
ATOM     38  N   UNL A   1      39.273  30.618  31.732  1.00  0.00    -0.354 N 
ATOM     39  C   UNL A   1      40.732  27.928  28.661  1.00  0.00     0.074 A 
ATOM     40  C   UNL A   1      39.892  27.987  27.483  1.00  0.00     0.031 C 
ATOM     41  C   UNL A   1      37.821  32.041  32.669  1.00  0.00     0.029 A 
ATOM     42  C   UNL A   1      39.036  31.272  32.920  1.00  0.00     0.049 A 
ATOM     43  H   UNL A   1      40.085  30.090  31.557  1.00  0.00     0.167 HD
ATOM     44  C   UNL A   1      41.855  27.180  28.766  1.00  0.00     0.034 A 
ATOM     45  C   UNL A   1      39.694  31.215  34.094  1.00  0.00     0.034 A 
ATOM     46  C   UNL A   1      42.695  27.153  29.933  1.00  0.00     0.049 A 
ATOM     47  C   UNL A   1      40.898  30.321  34.209  1.00  0.00     0.074 A 
ATOM     48  C   UNL A   1      43.879  26.465  30.127  1.00  0.00     0.029 A 
ATOM     49  N   UNL A   1      42.434  27.840  31.109  1.00  0.00    -0.354 N 
ATOM     50  N   UNL A   1      41.470  29.585  33.287  1.00  0.00    -0.248 NA
ATOM     51  C   UNL A   1      41.550  30.250  35.525  1.00  0.00     0.031 C 
ATOM     52  C   UNL A   1      44.325  26.723  31.429  1.00  0.00     0.029 A 
ATOM     53  C   UNL A   1      43.423  27.579  32.040  1.00  0.00     0.049 A 
ATOM     54  H   UNL A   1      41.658  28.428  31.258  1.00  0.00     0.167 HD
ATOM     55  C   UNL A   1      42.556  28.976  33.902  1.00  0.00     0.074 A 
ATOM     56  C   UNL A   1      42.577  29.448  35.273  1.00  0.00     0.031 C 
ATOM     57  C   UNL A   1      43.445  28.091  33.388  1.00  0.00     0.034 A 
BRANCH  44  58
ATOM     58  C   UNL A   1      42.249  26.348  27.575  1.00  0.00     0.023 A 
ATOM     59  C   UNL A   1      43.008  26.933  26.542  1.00  0.00     0.012 A 
ATOM     60  C   UNL A   1      41.901  24.987  27.494  1.00  0.00     0.148 A 
ATOM     61  C   UNL A   1      43.390  26.181  25.431  1.00  0.00     0.002 A 
ATOM     62  C   UNL A   1      42.314  24.236  26.400  1.00  0.00     0.091 A 
ATOM     63  F   UNL A   1      41.153  24.456  28.473  1.00  0.00    -0.205 F 
ATOM     64  C   UNL A   1      43.052  24.833  25.364  1.00  0.00     0.022 A 
BRANCH  62  65
ATOM     65  S   UNL A   1      41.973  22.477  26.260  1.00  0.00     0.127 S 
ATOM     66  O   UNL A   1      42.639  22.145  25.003  1.00  0.00    -0.237 OA
ATOM     67  O   UNL A   1      42.623  21.935  27.455  1.00  0.00    -0.237 OA
ATOM     68  O   UNL A   1      40.522  22.355  26.259  1.00  0.00    -0.744 OA
ENDBRANCH  62  65
ENDBRANCH  44  58
BRANCH  45  69
ATOM     69  C   UNL A   1      39.225  32.036  35.245  1.00  0.00     0.023 A 
ATOM     70  C   UNL A   1      38.324  31.471  36.167  1.00  0.00     0.012 A 
ATOM     71  C   UNL A   1      39.702  33.343  35.462  1.00  0.00     0.148 A 
ATOM     72  C   UNL A   1      37.900  32.196  37.281  1.00  0.00     0.002 A 
ATOM     73  C   UNL A   1      39.318  34.040  36.602  1.00  0.00     0.091 A 
ATOM     74  F   UNL A   1      40.540  33.874  34.559  1.00  0.00    -0.205 F 
ATOM     75  C   UNL A   1      38.408  33.474  37.507  1.00  0.00     0.022 A 
BRANCH  73  76
ATOM     76  S   UNL A   1      40.022  35.636  37.037  1.00  0.00     0.127 S 
ATOM     77  O   UNL A   1      39.654  36.451  35.884  1.00  0.00    -0.237 OA
ATOM     78  O   UNL A   1      39.307  35.958  38.273  1.00  0.00    -0.237 OA
ATOM     79  O   UNL A   1      41.448  35.397  37.217  1.00  0.00    -0.744 OA
ENDBRANCH  73  76
ENDBRANCH  45  69
BRANCH  57  80
ATOM     80  C   UNL A   1      44.519  27.572  34.306  1.00  0.00     0.023 A 
ATOM     81  C   UNL A   1      45.712  28.306  34.454  1.00  0.00     0.012 A 
ATOM     82  C   UNL A   1      44.314  26.414  35.081  1.00  0.00     0.148 A 
ATOM     83  C   UNL A   1      46.694  27.885  35.350  1.00  0.00     0.002 A 
ATOM     84  C   UNL A   1      45.280  26.023  35.999  1.00  0.00     0.091 A 
ATOM     85  F   UNL A   1      43.178  25.723  34.908  1.00  0.00    -0.205 F 
ATOM     86  C   UNL A   1      46.474  26.751  36.129  1.00  0.00     0.022 A 
BRANCH  84  87
ATOM     87  S   UNL A   1      45.050  24.626  37.106  1.00  0.00     0.127 S 
ATOM     88  O   UNL A   1      46.257  24.693  37.927  1.00  0.00    -0.237 OA
ATOM     89  O   UNL A   1      43.815  24.983  37.805  1.00  0.00    -0.237 OA
ATOM     90  O   UNL A   1      44.941  23.451  36.251  1.00  0.00    -0.744 OA
ENDBRANCH  84  87
ENDBRANCH  57  80
ENDBRANCH  31  32
ENDBRANCH  24  26
ENDBRANCH  23  24
ENDBRANCH  22  23
ENDBRANCH   1  22
TORSDOF 20
ENDMDL
MODEL 3
REMARK VINA RESULT:     -10.6      5.245      9.835
REMARK SMILES CCC[C@H]([NH2+]Cc1nc(C(C)(C)C)cs1)C(=O)OCCOC(=O)c1ccc(-c2c3nc(c(-c4cccc(S(=O)(=O)[O-])c4F)c4ccc([nH]4)c(-c4cccc(S(=O)(=O)[O-])c4F)c4nc(c(-c5cccc(S(=O)(=O)[O-])c5F)c5ccc2[nH]5)C=C4)C=C3)cc1
REMARK SMILES IDX 19 1 18 2 16 3 17 4 4 5 3 6 2 7 1 8 5 9 6 12 7 13 8 14 15 15
REMARK SMILES IDX 9 16 14 17 10 18 11 19 12 20 13 21 20 22 21 23 22 24 23 25
REMARK SMILES IDX 24 26 25 27 86 28 26 29 85 30 27 31 28 32 29 33 79 34 30 35
REMARK SMILES IDX 84 36 78 37 80 38 31 39 83 40 77 41 76 42 32 44 64 45 44 46
REMARK SMILES IDX 63 47 45 48 48 49 62 50 81 51 46 52 47 53 61 55 82 56 49 57
REMARK SMILES IDX 33 58 34 59 42 60 35 61 37 62 43 63 36 64 38 65 39 66 40 67
REMARK SMILES IDX 41 68 65 69 66 70 74 71 67 72 69 73 75 74 68 75 70 76 71 77
REMARK SMILES IDX 72 78 73 79 50 80 51 81 59 82 52 83 54 84 60 85 53 86 55 87
REMARK SMILES IDX 56 88 57 89 58 90
REMARK H PARENT 5 10 5 11 80 43 48 54
REMARK Flexibility Score: inf
ROOT
ATOM      1  C   UNL A   1      34.574  21.968  25.273  1.00  0.00     0.274 C 
ENDROOT
BRANCH   1   2
ATOM      2  O   UNL A   1      33.913  22.155  24.006  1.00  0.00    -0.458 OA
BRANCH   2   3
ATOM      3  C   UNL A   1      34.088  23.379  23.439  1.00  0.00     0.364 C 
ATOM      4  O   UNL A   1      35.040  23.674  22.726  1.00  0.00    -0.245 OA
BRANCH   3   5
ATOM      5  C   UNL A   1      32.973  24.386  23.765  1.00  0.00     0.293 C 
BRANCH   5   6
ATOM      6  C   UNL A   1      31.579  23.739  23.935  1.00  0.00     0.077 C 
BRANCH   6   7
ATOM      7  C   UNL A   1      31.047  23.493  25.353  1.00  0.00     0.003 C 
ATOM      8  C   UNL A   1      30.532  24.738  26.065  1.00  0.00     0.004 C 
ENDBRANCH   6   7
ENDBRANCH   5   6
BRANCH   5   9
ATOM      9  N   UNL A   1      32.903  25.540  22.817  1.00  0.00    -0.329 N 
ATOM     10  H   UNL A   1      33.438  25.311  21.979  1.00  0.00     0.347 HD
ATOM     11  H   UNL A   1      33.288  26.358  23.287  1.00  0.00     0.347 HD
BRANCH   9  12
ATOM     12  C   UNL A   1      31.512  25.849  22.425  1.00  0.00     0.330 C 
BRANCH  12  13
ATOM     13  C   UNL A   1      31.058  27.207  22.903  1.00  0.00     0.147 A 
ATOM     14  N   UNL A   1      30.025  27.871  22.418  1.00  0.00    -0.240 NA
ATOM     15  S   UNL A   1      31.849  27.954  24.234  1.00  0.00    -0.121 S 
ATOM     16  C   UNL A   1      29.796  29.025  23.164  1.00  0.00     0.057 A 
ATOM     17  C   UNL A   1      30.703  29.220  24.193  1.00  0.00     0.091 A 
BRANCH  16  18
ATOM     18  C   UNL A   1      28.628  29.939  22.814  1.00  0.00     0.005 C 
ATOM     19  C   UNL A   1      27.287  29.246  23.134  1.00  0.00     0.017 C 
ATOM     20  C   UNL A   1      28.723  31.242  23.632  1.00  0.00     0.017 C 
ATOM     21  C   UNL A   1      28.625  30.308  21.317  1.00  0.00     0.017 C 
ENDBRANCH  16  18
ENDBRANCH  12  13
ENDBRANCH   9  12
ENDBRANCH   5   9
ENDBRANCH   3   5
ENDBRANCH   2   3
ENDBRANCH   1   2
BRANCH   1  22
ATOM     22  C   UNL A   1      35.832  21.105  25.130  1.00  0.00     0.275 C 
BRANCH  22  23
ATOM     23  O   UNL A   1      37.006  21.933  25.062  1.00  0.00    -0.458 OA
BRANCH  23  24
ATOM     24  C   UNL A   1      38.127  21.444  25.637  1.00  0.00     0.338 C 
ATOM     25  O   UNL A   1      38.465  20.279  25.736  1.00  0.00    -0.246 OA
BRANCH  24  26
ATOM     26  C   UNL A   1      38.953  22.565  26.117  1.00  0.00     0.060 A 
ATOM     27  C   UNL A   1      40.019  22.321  26.987  1.00  0.00     0.016 A 
ATOM     28  C   UNL A   1      38.614  23.868  25.761  1.00  0.00     0.016 A 
ATOM     29  C   UNL A   1      40.759  23.380  27.506  1.00  0.00     0.010 A 
ATOM     30  C   UNL A   1      39.374  24.928  26.256  1.00  0.00     0.010 A 
ATOM     31  C   UNL A   1      40.447  24.691  27.133  1.00  0.00    -0.014 A 
BRANCH  31  32
ATOM     32  C   UNL A   1      41.234  25.836  27.647  1.00  0.00     0.031 A 
ATOM     33  C   UNL A   1      40.553  26.905  28.448  1.00  0.00     0.074 A 
ATOM     34  C   UNL A   1      42.536  25.947  27.323  1.00  0.00     0.049 A 
ATOM     35  N   UNL A   1      40.996  28.083  28.797  1.00  0.00    -0.248 NA
ATOM     36  C   UNL A   1      39.189  26.608  28.914  1.00  0.00     0.031 C 
ATOM     37  C   UNL A   1      43.307  24.950  26.580  1.00  0.00     0.029 A 
ATOM     38  N   UNL A   1      43.425  26.968  27.541  1.00  0.00    -0.354 N 
ATOM     39  C   UNL A   1      39.952  28.690  29.482  1.00  0.00     0.074 A 
ATOM     40  C   UNL A   1      38.855  27.745  29.510  1.00  0.00     0.031 C 
ATOM     41  C   UNL A   1      44.547  25.421  26.374  1.00  0.00     0.029 A 
ATOM     42  C   UNL A   1      44.636  26.774  26.916  1.00  0.00     0.049 A 
ATOM     43  H   UNL A   1      43.219  27.759  28.089  1.00  0.00     0.167 HD
ATOM     44  C   UNL A   1      39.917  29.922  30.042  1.00  0.00     0.034 A 
ATOM     45  C   UNL A   1      45.677  27.612  26.752  1.00  0.00     0.034 A 
ATOM     46  C   UNL A   1      41.025  30.839  30.032  1.00  0.00     0.049 A 
ATOM     47  C   UNL A   1      45.588  29.002  27.320  1.00  0.00     0.074 A 
ATOM     48  C   UNL A   1      41.110  32.094  30.607  1.00  0.00     0.029 A 
ATOM     49  N   UNL A   1      42.239  30.603  29.404  1.00  0.00    -0.354 N 
ATOM     50  N   UNL A   1      44.626  29.542  28.029  1.00  0.00    -0.248 NA
ATOM     51  C   UNL A   1      46.726  29.898  27.068  1.00  0.00     0.031 C 
ATOM     52  C   UNL A   1      42.372  32.624  30.313  1.00  0.00     0.029 A 
ATOM     53  C   UNL A   1      43.074  31.695  29.562  1.00  0.00     0.049 A 
ATOM     54  H   UNL A   1      42.472  29.779  28.919  1.00  0.00     0.167 HD
ATOM     55  C   UNL A   1      45.047  30.833  28.323  1.00  0.00     0.074 A 
ATOM     56  C   UNL A   1      46.363  30.987  27.734  1.00  0.00     0.031 C 
ATOM     57  C   UNL A   1      44.397  31.811  29.001  1.00  0.00     0.034 A 
BRANCH  44  58
ATOM     58  C   UNL A   1      38.646  30.336  30.732  1.00  0.00     0.023 A 
ATOM     59  C   UNL A   1      38.452  30.003  32.087  1.00  0.00     0.012 A 
ATOM     60  C   UNL A   1      37.662  31.081  30.054  1.00  0.00     0.148 A 
ATOM     61  C   UNL A   1      37.284  30.379  32.750  1.00  0.00     0.002 A 
ATOM     62  C   UNL A   1      36.515  31.481  30.731  1.00  0.00     0.091 A 
ATOM     63  F   UNL A   1      37.850  31.362  28.757  1.00  0.00    -0.205 F 
ATOM     64  C   UNL A   1      36.322  31.126  32.076  1.00  0.00     0.022 A 
BRANCH  62  65
ATOM     65  S   UNL A   1      35.251  32.496  29.957  1.00  0.00     0.127 S 
ATOM     66  O   UNL A   1      34.317  32.700  31.062  1.00  0.00    -0.237 OA
ATOM     67  O   UNL A   1      36.001  33.690  29.565  1.00  0.00    -0.237 OA
ATOM     68  O   UNL A   1      34.746  31.711  28.838  1.00  0.00    -0.744 OA
ENDBRANCH  62  65
ENDBRANCH  44  58
BRANCH  45  69
ATOM     69  C   UNL A   1      46.891  27.149  26.023  1.00  0.00     0.023 A 
ATOM     70  C   UNL A   1      46.985  27.374  24.637  1.00  0.00     0.012 A 
ATOM     71  C   UNL A   1      47.969  26.541  26.696  1.00  0.00     0.148 A 
ATOM     72  C   UNL A   1      48.128  26.995  23.932  1.00  0.00     0.002 A 
ATOM     73  C   UNL A   1      49.126  26.215  25.998  1.00  0.00     0.091 A 
ATOM     74  F   UNL A   1      47.851  26.312  28.012  1.00  0.00    -0.205 F 
ATOM     75  C   UNL A   1      49.203  26.429  24.613  1.00  0.00     0.022 A 
BRANCH  73  76
ATOM     76  S   UNL A   1      50.605  25.604  26.817  1.00  0.00     0.127 S 
ATOM     77  O   UNL A   1      51.476  25.310  25.682  1.00  0.00    -0.237 OA
ATOM     78  O   UNL A   1      51.008  26.759  27.620  1.00  0.00    -0.237 OA
ATOM     79  O   UNL A   1      50.171  24.453  27.598  1.00  0.00    -0.744 OA
ENDBRANCH  73  76
ENDBRANCH  45  69
BRANCH  57  80
ATOM     80  C   UNL A   1      45.095  33.137  29.147  1.00  0.00     0.023 A 
ATOM     81  C   UNL A   1      45.939  33.352  30.254  1.00  0.00     0.012 A 
ATOM     82  C   UNL A   1      44.984  34.129  28.153  1.00  0.00     0.148 A 
ATOM     83  C   UNL A   1      46.651  34.545  30.378  1.00  0.00     0.002 A 
ATOM     84  C   UNL A   1      45.727  35.297  28.264  1.00  0.00     0.091 A 
ATOM     85  F   UNL A   1      44.160  33.907  27.119  1.00  0.00    -0.205 F 
ATOM     86  C   UNL A   1      46.554  35.511  29.379  1.00  0.00     0.022 A 
BRANCH  84  87
ATOM     87  S   UNL A   1      45.732  36.562  26.988  1.00  0.00     0.127 S 
ATOM     88  O   UNL A   1      46.650  37.551  27.551  1.00  0.00    -0.237 OA
ATOM     89  O   UNL A   1      46.253  35.834  25.831  1.00  0.00    -0.237 OA
ATOM     90  O   UNL A   1      44.349  37.001  26.853  1.00  0.00    -0.744 OA
ENDBRANCH  84  87
ENDBRANCH  57  80
ENDBRANCH  31  32
ENDBRANCH  24  26
ENDBRANCH  23  24
ENDBRANCH  22  23
ENDBRANCH   1  22
TORSDOF 20
ENDMDL
