MODEL 1
REMARK VINA RESULT:     -12.5      0.000      0.000
REMARK SMILES CCc1cc(S(F)(F)(F)(F)F)cc2c1O[C@@H](C(F)(F)F)C(C(=O)OCCOC(=O)c1ccc(-c3c4nc(c(-c5cccc(S(=O)(=O)[O-])c5F)c5ccc([nH]5)c(-c5cccc(S(=O)(=O)[O-])c5F)c5nc(c(-c6cccc(S(=O)(=O)[O-])c6F)c6ccc3[nH]6)C=C5)C=C4)cc1)=C2
REMARK SMILES IDX 26 1 25 2 24 3 22 4 23 5 21 6 3 7 4 8 14 9 5 10 13 11 15 12
REMARK SMILES IDX 12 13 93 14 16 15 2 16 1 17 6 18 7 19 8 20 9 21 10 22 11 23
REMARK SMILES IDX 17 24 18 25 19 26 20 27 27 28 28 29 29 30 30 31 31 32 92 33
REMARK SMILES IDX 32 34 91 35 33 36 34 37 35 38 85 39 36 40 90 41 84 42 86 43
REMARK SMILES IDX 37 44 89 45 83 46 82 47 38 49 70 50 50 51 69 52 51 53 54 54
REMARK SMILES IDX 68 55 87 56 52 57 53 58 67 60 88 61 55 62 39 63 40 64 48 65
REMARK SMILES IDX 41 66 43 67 49 68 42 69 44 70 45 71 46 72 47 73 71 74 72 75
REMARK SMILES IDX 80 76 73 77 75 78 81 79 74 80 76 81 77 82 78 83 79 84 56 85
REMARK SMILES IDX 57 86 65 87 58 88 60 89 66 90 59 91 61 92 62 93 63 94 64 95
REMARK H PARENT 86 48 54 59
REMARK Flexibility Score: inf
ROOT
ATOM      1  C   UNL A   1      37.072  20.253  24.965  1.00  0.00     0.275 C 
ENDROOT
BRANCH   1   2
ATOM      2  C   UNL A   1      35.559  20.379  24.992  1.00  0.00     0.275 C 
BRANCH   2   3
ATOM      3  O   UNL A   1      35.199  21.692  25.395  1.00  0.00    -0.459 OA
BRANCH   3   4
ATOM      4  C   UNL A   1      33.935  21.928  25.998  1.00  0.00     0.338 C 
ATOM      5  O   UNL A   1      33.462  21.092  26.831  1.00  0.00    -0.246 OA
BRANCH   4   6
ATOM      6  C   UNL A   1      33.149  23.181  25.649  1.00  0.00     0.087 C 
ATOM      7  C   UNL A   1      31.271  26.645  24.262  1.00  0.00    -0.004 A 
ATOM      8  C   UNL A   1      31.446  27.841  24.934  1.00  0.00     0.032 A 
ATOM      9  C   UNL A   1      31.942  25.533  24.708  1.00  0.00     0.131 A 
ATOM     10  C   UNL A   1      32.274  27.923  26.022  1.00  0.00     0.108 A 
ATOM     11  C   UNL A   1      32.773  25.574  25.813  1.00  0.00     0.019 A 
ATOM     12  O   UNL A   1      31.848  24.381  23.965  1.00  0.00    -0.475 OA
ATOM     13  C   UNL A   1      32.930  26.793  26.463  1.00  0.00     0.036 A 
ATOM     14  C   UNL A   1      33.469  24.354  26.183  1.00  0.00     0.027 C 
ATOM     15  C   UNL A   1      31.977  23.119  24.677  1.00  0.00     0.316 C 
BRANCH   7  16
ATOM     16  C   UNL A   1      30.230  26.461  23.170  1.00  0.00     0.036 C 
ATOM     17  C   UNL A   1      28.841  26.464  23.787  1.00  0.00     0.009 C 
ENDBRANCH   7  16
BRANCH  10  18
ATOM     18  S   UNL A   1      32.508  29.504  26.873  1.00  0.00     0.310 S 
ATOM     19  F   UNL A   1      31.487  30.366  26.019  1.00  0.00    -0.094 F 
ATOM     20  F   UNL A   1      33.620  29.926  25.840  1.00  0.00    -0.094 F 
ATOM     21  F   UNL A   1      32.777  30.776  27.724  1.00  0.00    -0.094 F 
ATOM     22  F   UNL A   1      31.297  29.137  27.817  1.00  0.00    -0.094 F 
ATOM     23  F   UNL A   1      32.148  28.267  25.956  1.00  0.00    -0.094 F 
ENDBRANCH  10  18
BRANCH  15  24
ATOM     24  C   UNL A   1      32.222  22.005  23.673  1.00  0.00     0.430 C 
ATOM     25  F   UNL A   1      33.468  22.089  23.213  1.00  0.00    -0.167 F 
ATOM     26  F   UNL A   1      32.046  20.828  24.264  1.00  0.00    -0.167 F 
ATOM     27  F   UNL A   1      31.368  22.126  22.661  1.00  0.00    -0.167 F 
ENDBRANCH  15  24
ENDBRANCH   4   6
ENDBRANCH   3   4
ENDBRANCH   2   3
ENDBRANCH   1   2
BRANCH   1  28
ATOM     28  O   UNL A   1      37.657  21.475  25.391  1.00  0.00    -0.458 OA
BRANCH  28  29
ATOM     29  C   UNL A   1      38.893  21.464  26.091  1.00  0.00     0.338 C 
ATOM     30  O   UNL A   1      39.519  20.371  26.259  1.00  0.00    -0.246 OA
BRANCH  29  31
ATOM     31  C   UNL A   1      39.467  22.760  26.639  1.00  0.00     0.060 A 
ATOM     32  C   UNL A   1      39.029  23.989  26.171  1.00  0.00     0.016 A 
ATOM     33  C   UNL A   1      40.487  22.669  27.483  1.00  0.00     0.016 A 
ATOM     34  C   UNL A   1      39.925  25.053  26.430  1.00  0.00     0.010 A 
ATOM     35  C   UNL A   1      41.237  23.776  27.796  1.00  0.00     0.010 A 
ATOM     36  C   UNL A   1      40.898  25.013  27.322  1.00  0.00    -0.014 A 
BRANCH  36  37
ATOM     37  C   UNL A   1      41.602  26.274  27.796  1.00  0.00     0.031 A 
ATOM     38  C   UNL A   1      42.925  26.416  27.373  1.00  0.00     0.074 A 
ATOM     39  C   UNL A   1      40.905  27.243  28.497  1.00  0.00     0.049 A 
ATOM     40  N   UNL A   1      43.718  27.477  27.526  1.00  0.00    -0.248 NA
ATOM     41  C   UNL A   1      43.677  25.374  26.659  1.00  0.00     0.031 C 
ATOM     42  C   UNL A   1      39.568  27.110  28.920  1.00  0.00     0.029 A 
ATOM     43  N   UNL A   1      41.356  28.478  28.906  1.00  0.00    -0.354 N 
ATOM     44  C   UNL A   1      44.910  27.245  26.971  1.00  0.00     0.074 A 
ATOM     45  C   UNL A   1      44.903  25.888  26.411  1.00  0.00     0.031 C 
ATOM     46  C   UNL A   1      39.222  28.244  29.584  1.00  0.00     0.029 A 
ATOM     47  C   UNL A   1      40.336  29.105  29.587  1.00  0.00     0.049 A 
ATOM     48  H   UNL A   1      42.253  28.850  28.740  1.00  0.00     0.167 HD
ATOM     49  C   UNL A   1      46.000  28.114  26.909  1.00  0.00     0.034 A 
ATOM     50  C   UNL A   1      40.357  30.355  30.185  1.00  0.00     0.034 A 
ATOM     51  C   UNL A   1      46.007  29.381  27.470  1.00  0.00     0.049 A 
ATOM     52  C   UNL A   1      41.469  31.201  30.174  1.00  0.00     0.074 A 
ATOM     53  C   UNL A   1      47.096  30.271  27.410  1.00  0.00     0.029 A 
ATOM     54  N   UNL A   1      44.995  29.998  28.172  1.00  0.00    -0.354 N 
ATOM     55  N   UNL A   1      42.646  30.985  29.585  1.00  0.00    -0.248 NA
ATOM     56  C   UNL A   1      41.513  32.513  30.832  1.00  0.00     0.031 C 
ATOM     57  C   UNL A   1      46.750  31.406  28.074  1.00  0.00     0.029 A 
ATOM     58  C   UNL A   1      45.439  31.242  28.561  1.00  0.00     0.049 A 
ATOM     59  H   UNL A   1      44.109  29.615  28.363  1.00  0.00     0.167 HD
ATOM     60  C   UNL A   1      43.453  32.030  29.775  1.00  0.00     0.074 A 
ATOM     61  C   UNL A   1      42.739  33.026  30.586  1.00  0.00     0.031 C 
ATOM     62  C   UNL A   1      44.756  32.196  29.301  1.00  0.00     0.034 A 
BRANCH  49  63
ATOM     63  C   UNL A   1      47.252  27.643  26.186  1.00  0.00     0.023 A 
ATOM     64  C   UNL A   1      48.297  27.104  26.917  1.00  0.00     0.012 A 
ATOM     65  C   UNL A   1      47.319  27.751  24.864  1.00  0.00     0.148 A 
ATOM     66  C   UNL A   1      49.501  26.972  26.184  1.00  0.00     0.002 A 
ATOM     67  C   UNL A   1      48.489  27.476  24.198  1.00  0.00     0.091 A 
ATOM     68  F   UNL A   1      46.245  28.132  24.178  1.00  0.00    -0.205 F 
ATOM     69  C   UNL A   1      49.582  26.996  24.866  1.00  0.00     0.022 A 
BRANCH  67  70
ATOM     70  S   UNL A   1      48.586  27.751  22.412  1.00  0.00     0.127 S 
ATOM     71  O   UNL A   1      48.521  26.406  21.685  1.00  0.00    -0.237 OA
ATOM     72  O   UNL A   1      47.415  28.629  21.967  1.00  0.00    -0.237 OA
ATOM     73  O   UNL A   1      50.059  28.532  22.035  1.00  0.00    -0.744 OA
ENDBRANCH  67  70
ENDBRANCH  49  63
BRANCH  50  74
ATOM     74  C   UNL A   1      39.101  30.832  30.894  1.00  0.00     0.023 A 
ATOM     75  C   UNL A   1      38.939  30.566  32.244  1.00  0.00     0.012 A 
ATOM     76  C   UNL A   1      38.176  31.493  30.207  1.00  0.00     0.148 A 
ATOM     77  C   UNL A   1      37.624  30.788  32.719  1.00  0.00     0.002 A 
ATOM     78  C   UNL A   1      36.964  31.797  30.779  1.00  0.00     0.091 A 
ATOM     79  F   UNL A   1      38.426  31.865  28.954  1.00  0.00    -0.205 F 
ATOM     80  C   UNL A   1      36.714  31.510  32.091  1.00  0.00     0.022 A 
BRANCH  78  81
ATOM     81  S   UNL A   1      35.681  32.590  29.778  1.00  0.00     0.127 S 
ATOM     82  O   UNL A   1      34.355  32.575  30.543  1.00  0.00    -0.237 OA
ATOM     83  O   UNL A   1      36.084  34.037  29.485  1.00  0.00    -0.237 OA
ATOM     84  O   UNL A   1      35.499  31.740  28.305  1.00  0.00    -0.744 OA
ENDBRANCH  78  81
ENDBRANCH  50  74
BRANCH  62  85
ATOM     85  C   UNL A   1      45.469  33.501  29.615  1.00  0.00     0.023 A 
ATOM     86  C   UNL A   1      46.126  33.704  30.818  1.00  0.00     0.012 A 
ATOM     87  C   UNL A   1      45.327  34.483  28.732  1.00  0.00     0.148 A 
ATOM     88  C   UNL A   1      46.348  35.067  31.125  1.00  0.00     0.002 A 
ATOM     89  C   UNL A   1      45.692  35.769  29.053  1.00  0.00     0.091 A 
ATOM     90  F   UNL A   1      44.827  34.220  27.529  1.00  0.00    -0.205 F 
ATOM     91  C   UNL A   1      46.292  36.053  30.247  1.00  0.00     0.022 A 
BRANCH  89  92
ATOM     92  S   UNL A   1      45.373  37.105  27.874  1.00  0.00     0.127 S 
ATOM     93  O   UNL A   1      45.736  38.447  28.515  1.00  0.00    -0.237 OA
ATOM     94  O   UNL A   1      46.223  36.893  26.619  1.00  0.00    -0.237 OA
ATOM     95  O   UNL A   1      43.717  37.107  27.448  1.00  0.00    -0.744 OA
ENDBRANCH  89  92
ENDBRANCH  62  85
ENDBRANCH  36  37
ENDBRANCH  29  31
ENDBRANCH  28  29
ENDBRANCH   1  28
TORSDOF 17
ENDMDL
MODEL 2
REMARK VINA RESULT:     -12.5      6.010     10.690
REMARK SMILES CCc1cc(S(F)(F)(F)(F)F)cc2c1O[C@@H](C(F)(F)F)C(C(=O)OCCOC(=O)c1ccc(-c3c4nc(c(-c5cccc(S(=O)(=O)[O-])c5F)c5ccc([nH]5)c(-c5cccc(S(=O)(=O)[O-])c5F)c5nc(c(-c6cccc(S(=O)(=O)[O-])c6F)c6ccc3[nH]6)C=C5)C=C4)cc1)=C2
REMARK SMILES IDX 26 1 25 2 24 3 22 4 23 5 21 6 3 7 4 8 14 9 5 10 13 11 15 12
REMARK SMILES IDX 12 13 93 14 16 15 2 16 1 17 6 18 7 19 8 20 9 21 10 22 11 23
REMARK SMILES IDX 17 24 18 25 19 26 20 27 27 28 28 29 29 30 30 31 31 32 92 33
REMARK SMILES IDX 32 34 91 35 33 36 34 37 35 38 85 39 36 40 90 41 84 42 86 43
REMARK SMILES IDX 37 44 89 45 83 46 82 47 38 49 70 50 50 51 69 52 51 53 54 54
REMARK SMILES IDX 68 55 87 56 52 57 53 58 67 60 88 61 55 62 39 63 40 64 48 65
REMARK SMILES IDX 41 66 43 67 49 68 42 69 44 70 45 71 46 72 47 73 71 74 72 75
REMARK SMILES IDX 80 76 73 77 75 78 81 79 74 80 76 81 77 82 78 83 79 84 56 85
REMARK SMILES IDX 57 86 65 87 58 88 60 89 66 90 59 91 61 92 62 93 63 94 64 95
REMARK H PARENT 86 48 54 59
REMARK Flexibility Score: inf
ROOT
ATOM      1  C   UNL A   1      35.233  34.163  28.383  1.00  0.00     0.275 C 
ENDROOT
BRANCH   1   2
ATOM      2  C   UNL A   1      33.970  34.289  29.218  1.00  0.00     0.275 C 
BRANCH   2   3
ATOM      3  O   UNL A   1      34.320  34.513  30.576  1.00  0.00    -0.459 OA
BRANCH   3   4
ATOM      4  C   UNL A   1      34.931  33.477  31.331  1.00  0.00     0.338 C 
ATOM      5  O   UNL A   1      34.370  32.340  31.422  1.00  0.00    -0.246 OA
BRANCH   4   6
ATOM      6  C   UNL A   1      36.258  33.727  32.029  1.00  0.00     0.087 C 
ATOM      7  C   UNL A   1      39.769  34.909  33.960  1.00  0.00    -0.004 A 
ATOM      8  C   UNL A   1      40.981  34.826  33.300  1.00  0.00     0.032 A 
ATOM      9  C   UNL A   1      38.624  34.564  33.284  1.00  0.00     0.131 A 
ATOM     10  C   UNL A   1      41.045  34.412  31.995  1.00  0.00     0.108 A 
ATOM     11  C   UNL A   1      38.652  34.126  31.972  1.00  0.00     0.019 A 
ATOM     12  O   UNL A   1      37.419  34.760  33.914  1.00  0.00    -0.475 OA
ATOM     13  C   UNL A   1      39.887  34.057  31.337  1.00  0.00     0.036 A 
ATOM     14  C   UNL A   1      37.384  33.822  31.332  1.00  0.00     0.027 C 
ATOM     15  C   UNL A   1      36.325  33.875  33.544  1.00  0.00     0.316 C 
BRANCH   7  16
ATOM     16  C   UNL A   1      39.663  35.184  35.451  1.00  0.00     0.036 C 
ATOM     17  C   UNL A   1      40.740  36.175  35.861  1.00  0.00     0.009 C 
ENDBRANCH   7  16
BRANCH  10  18
ATOM     18  S   UNL A   1      42.640  34.333  31.141  1.00  0.00     0.310 S 
ATOM     19  F   UNL A   1      42.145  33.615  29.817  1.00  0.00    -0.094 F 
ATOM     20  F   UNL A   1      42.917  32.900  31.733  1.00  0.00    -0.094 F 
ATOM     21  F   UNL A   1      44.062  34.378  30.514  1.00  0.00    -0.094 F 
ATOM     22  F   UNL A   1      42.295  35.706  30.440  1.00  0.00    -0.094 F 
ATOM     23  F   UNL A   1      41.156  34.252  31.678  1.00  0.00    -0.094 F 
ENDBRANCH  10  18
BRANCH  15  24
ATOM     24  C   UNL A   1      35.017  34.467  34.043  1.00  0.00     0.430 C 
ATOM     25  F   UNL A   1      34.791  35.625  33.429  1.00  0.00    -0.167 F 
ATOM     26  F   UNL A   1      34.022  33.626  33.784  1.00  0.00    -0.167 F 
ATOM     27  F   UNL A   1      35.096  34.670  35.356  1.00  0.00    -0.167 F 
ENDBRANCH  15  24
ENDBRANCH   4   6
ENDBRANCH   3   4
ENDBRANCH   2   3
ENDBRANCH   1   2
BRANCH   1  28
ATOM     28  O   UNL A   1      35.120  33.043  27.519  1.00  0.00    -0.458 OA
BRANCH  28  29
ATOM     29  C   UNL A   1      34.972  31.739  28.063  1.00  0.00     0.338 C 
ATOM     30  O   UNL A   1      33.819  31.212  28.147  1.00  0.00    -0.246 OA
BRANCH  29  31
ATOM     31  C   UNL A   1      36.194  30.975  28.547  1.00  0.00     0.060 A 
ATOM     32  C   UNL A   1      36.062  29.789  29.250  1.00  0.00     0.016 A 
ATOM     33  C   UNL A   1      37.379  31.551  28.384  1.00  0.00     0.016 A 
ATOM     34  C   UNL A   1      37.211  29.435  29.997  1.00  0.00     0.010 A 
ATOM     35  C   UNL A   1      38.486  31.070  29.039  1.00  0.00     0.010 A 
ATOM     36  C   UNL A   1      38.417  29.936  29.799  1.00  0.00    -0.014 A 
BRANCH  36  37
ATOM     37  C   UNL A   1      39.660  29.287  30.385  1.00  0.00     0.031 A 
ATOM     38  C   UNL A   1      40.204  28.246  29.631  1.00  0.00     0.074 A 
ATOM     39  C   UNL A   1      40.247  29.803  31.528  1.00  0.00     0.049 A 
ATOM     40  N   UNL A   1      41.355  27.605  29.839  1.00  0.00    -0.248 NA
ATOM     41  C   UNL A   1      39.565  27.673  28.436  1.00  0.00     0.031 C 
ATOM     42  C   UNL A   1      39.708  30.858  32.290  1.00  0.00     0.029 A 
ATOM     43  N   UNL A   1      41.422  29.407  32.127  1.00  0.00    -0.354 N 
ATOM     44  C   UNL A   1      41.546  26.681  28.894  1.00  0.00     0.074 A 
ATOM     45  C   UNL A   1      40.396  26.708  27.982  1.00  0.00     0.031 C 
ATOM     46  C   UNL A   1      40.541  31.088  33.339  1.00  0.00     0.029 A 
ATOM     47  C   UNL A   1      41.614  30.181  33.250  1.00  0.00     0.049 A 
ATOM     48  H   UNL A   1      42.022  28.695  31.807  1.00  0.00     0.167 HD
ATOM     49  C   UNL A   1      42.636  25.821  28.758  1.00  0.00     0.034 A 
ATOM     50  C   UNL A   1      42.658  30.113  34.160  1.00  0.00     0.034 A 
ATOM     51  C   UNL A   1      43.702  25.783  29.643  1.00  0.00     0.049 A 
ATOM     52  C   UNL A   1      43.719  29.211  34.055  1.00  0.00     0.074 A 
ATOM     53  C   UNL A   1      44.812  24.926  29.515  1.00  0.00     0.029 A 
ATOM     54  N   UNL A   1      43.882  26.539  30.780  1.00  0.00    -0.354 N 
ATOM     55  N   UNL A   1      43.930  28.316  33.089  1.00  0.00    -0.248 NA
ATOM     56  C   UNL A   1      44.813  29.108  35.029  1.00  0.00     0.031 C 
ATOM     57  C   UNL A   1      45.645  25.156  30.564  1.00  0.00     0.029 A 
ATOM     58  C   UNL A   1      45.068  26.159  31.366  1.00  0.00     0.049 A 
ATOM     59  H   UNL A   1      43.267  27.232  31.115  1.00  0.00     0.167 HD
ATOM     60  C   UNL A   1      45.061  27.647  33.322  1.00  0.00     0.074 A 
ATOM     61  C   UNL A   1      45.642  28.142  34.577  1.00  0.00     0.031 C 
ATOM     62  C   UNL A   1      45.634  26.646  32.535  1.00  0.00     0.034 A 
BRANCH  49  63
ATOM     63  C   UNL A   1      42.656  24.872  27.570  1.00  0.00     0.023 A 
ATOM     64  C   UNL A   1      43.365  25.221  26.433  1.00  0.00     0.012 A 
ATOM     65  C   UNL A   1      41.996  23.722  27.646  1.00  0.00     0.148 A 
ATOM     66  C   UNL A   1      43.077  24.412  25.308  1.00  0.00     0.002 A 
ATOM     67  C   UNL A   1      41.869  22.914  26.541  1.00  0.00     0.091 A 
ATOM     68  F   UNL A   1      41.452  23.348  28.800  1.00  0.00    -0.205 F 
ATOM     69  C   UNL A   1      42.495  23.227  25.366  1.00  0.00     0.022 A 
BRANCH  67  70
ATOM     70  S   UNL A   1      40.862  21.414  26.643  1.00  0.00     0.127 S 
ATOM     71  O   UNL A   1      41.466  20.332  25.745  1.00  0.00    -0.237 OA
ATOM     72  O   UNL A   1      40.830  20.918  28.090  1.00  0.00    -0.237 OA
ATOM     73  O   UNL A   1      39.270  21.761  26.125  1.00  0.00    -0.744 OA
ENDBRANCH  67  70
ENDBRANCH  49  63
BRANCH  50  74
ATOM     74  C   UNL A   1      42.646  31.073  35.337  1.00  0.00     0.023 A 
ATOM     75  C   UNL A   1      41.840  30.800  36.430  1.00  0.00     0.012 A 
ATOM     76  C   UNL A   1      43.406  32.162  35.298  1.00  0.00     0.148 A 
ATOM     77  C   UNL A   1      41.685  31.891  37.317  1.00  0.00     0.002 A 
ATOM     78  C   UNL A   1      43.300  33.125  36.272  1.00  0.00     0.091 A 
ATOM     79  F   UNL A   1      44.280  32.320  34.307  1.00  0.00    -0.205 F 
ATOM     80  C   UNL A   1      42.478  32.947  37.350  1.00  0.00     0.022 A 
BRANCH  78  81
ATOM     81  S   UNL A   1      44.260  34.652  36.124  1.00  0.00     0.127 S 
ATOM     82  O   UNL A   1      43.947  35.325  34.785  1.00  0.00    -0.237 OA
ATOM     83  O   UNL A   1      43.892  35.599  37.269  1.00  0.00    -0.237 OA
ATOM     84  O   UNL A   1      45.929  34.286  36.202  1.00  0.00    -0.744 OA
ENDBRANCH  78  81
ENDBRANCH  50  74
BRANCH  62  85
ATOM     85  C   UNL A   1      46.959  26.054  32.987  1.00  0.00     0.023 A 
ATOM     86  C   UNL A   1      48.169  26.495  32.477  1.00  0.00     0.012 A 
ATOM     87  C   UNL A   1      46.895  25.008  33.802  1.00  0.00     0.148 A 
ATOM     88  C   UNL A   1      49.234  25.582  32.658  1.00  0.00     0.002 A 
ATOM     89  C   UNL A   1      48.009  24.239  34.041  1.00  0.00     0.091 A 
ATOM     90  F   UNL A   1      45.744  24.702  34.393  1.00  0.00    -0.205 F 
ATOM     91  C   UNL A   1      49.226  24.582  33.521  1.00  0.00     0.022 A 
BRANCH  89  92
ATOM     92  S   UNL A   1      47.862  22.750  35.060  1.00  0.00     0.127 S 
ATOM     93  O   UNL A   1      49.211  22.028  35.105  1.00  0.00    -0.237 OA
ATOM     94  O   UNL A   1      47.444  23.141  36.479  1.00  0.00    -0.237 OA
ATOM     95  O   UNL A   1      46.683  21.710  34.384  1.00  0.00    -0.744 OA
ENDBRANCH  89  92
ENDBRANCH  62  85
ENDBRANCH  36  37
ENDBRANCH  29  31
ENDBRANCH  28  29
ENDBRANCH   1  28
TORSDOF 17
ENDMDL
MODEL 3
REMARK VINA RESULT:     -12.3      1.562      2.131
REMARK SMILES CCc1cc(S(F)(F)(F)(F)F)cc2c1O[C@@H](C(F)(F)F)C(C(=O)OCCOC(=O)c1ccc(-c3c4nc(c(-c5cccc(S(=O)(=O)[O-])c5F)c5ccc([nH]5)c(-c5cccc(S(=O)(=O)[O-])c5F)c5nc(c(-c6cccc(S(=O)(=O)[O-])c6F)c6ccc3[nH]6)C=C5)C=C4)cc1)=C2
REMARK SMILES IDX 26 1 25 2 24 3 22 4 23 5 21 6 3 7 4 8 14 9 5 10 13 11 15 12
REMARK SMILES IDX 12 13 93 14 16 15 2 16 1 17 6 18 7 19 8 20 9 21 10 22 11 23
REMARK SMILES IDX 17 24 18 25 19 26 20 27 27 28 28 29 29 30 30 31 31 32 92 33
REMARK SMILES IDX 32 34 91 35 33 36 34 37 35 38 85 39 36 40 90 41 84 42 86 43
REMARK SMILES IDX 37 44 89 45 83 46 82 47 38 49 70 50 50 51 69 52 51 53 54 54
REMARK SMILES IDX 68 55 87 56 52 57 53 58 67 60 88 61 55 62 39 63 40 64 48 65
REMARK SMILES IDX 41 66 43 67 49 68 42 69 44 70 45 71 46 72 47 73 71 74 72 75
REMARK SMILES IDX 80 76 73 77 75 78 81 79 74 80 76 81 77 82 78 83 79 84 56 85
REMARK SMILES IDX 57 86 65 87 58 88 60 89 66 90 59 91 61 92 62 93 63 94 64 95
REMARK H PARENT 86 48 54 59
REMARK Flexibility Score: inf
ROOT
ATOM      1  C   UNL A   1      35.999  20.868  25.100  1.00  0.00     0.275 C 
ENDROOT
BRANCH   1   2
ATOM      2  C   UNL A   1      35.058  21.828  24.392  1.00  0.00     0.275 C 
BRANCH   2   3
ATOM      3  O   UNL A   1      33.834  21.167  24.106  1.00  0.00    -0.459 OA
BRANCH   3   4
ATOM      4  C   UNL A   1      32.628  21.617  24.705  1.00  0.00     0.338 C 
ATOM      5  O   UNL A   1      31.716  20.783  25.002  1.00  0.00    -0.246 OA
BRANCH   4   6
ATOM      6  C   UNL A   1      32.428  23.096  24.993  1.00  0.00     0.087 C 
ATOM      7  C   UNL A   1      31.472  27.019  26.066  1.00  0.00    -0.004 A 
ATOM      8  C   UNL A   1      31.029  27.908  25.104  1.00  0.00     0.032 A 
ATOM      9  C   UNL A   1      31.729  25.720  25.696  1.00  0.00     0.131 A 
ATOM     10  C   UNL A   1      30.843  27.508  23.807  1.00  0.00     0.108 A 
ATOM     11  C   UNL A   1      31.569  25.285  24.392  1.00  0.00     0.019 A 
ATOM     12  O   UNL A   1      32.058  24.822  26.682  1.00  0.00    -0.475 OA
ATOM     13  C   UNL A   1      31.119  26.205  23.451  1.00  0.00     0.036 A 
ATOM     14  C   UNL A   1      31.828  23.885  24.109  1.00  0.00     0.027 C 
ATOM     15  C   UNL A   1      32.910  23.705  26.304  1.00  0.00     0.316 C 
BRANCH   7  16
ATOM     16  C   UNL A   1      31.866  27.453  27.468  1.00  0.00     0.036 C 
ATOM     17  C   UNL A   1      32.799  28.650  27.384  1.00  0.00     0.009 C 
ENDBRANCH   7  16
BRANCH  10  18
ATOM     18  S   UNL A   1      30.239  28.683  22.569  1.00  0.00     0.310 S 
ATOM     19  F   UNL A   1      29.992  29.915  23.536  1.00  0.00    -0.094 F 
ATOM     20  F   UNL A   1      28.750  28.253  22.848  1.00  0.00    -0.094 F 
ATOM     21  F   UNL A   1      29.785  29.593  21.393  1.00  0.00    -0.094 F 
ATOM     22  F   UNL A   1      31.718  29.209  22.394  1.00  0.00    -0.094 F 
ATOM     23  F   UNL A   1      30.700  27.851  23.831  1.00  0.00    -0.094 F 
ENDBRANCH  10  18
BRANCH  15  24
ATOM     24  C   UNL A   1      32.854  22.648  27.394  1.00  0.00     0.430 C 
ATOM     25  F   UNL A   1      31.602  22.223  27.536  1.00  0.00    -0.167 F 
ATOM     26  F   UNL A   1      33.634  21.624  27.060  1.00  0.00    -0.167 F 
ATOM     27  F   UNL A   1      33.277  23.171  28.541  1.00  0.00    -0.167 F 
ENDBRANCH  15  24
ENDBRANCH   4   6
ENDBRANCH   3   4
ENDBRANCH   2   3
ENDBRANCH   1   2
BRANCH   1  28
ATOM     28  O   UNL A   1      37.322  21.062  24.620  1.00  0.00    -0.458 OA
BRANCH  28  29
ATOM     29  C   UNL A   1      38.422  20.953  25.512  1.00  0.00     0.338 C 
ATOM     30  O   UNL A   1      38.899  19.810  25.797  1.00  0.00    -0.246 OA
BRANCH  29  31
ATOM     31  C   UNL A   1      39.029  22.204  26.126  1.00  0.00     0.060 A 
ATOM     32  C   UNL A   1      38.463  23.451  25.911  1.00  0.00     0.016 A 
ATOM     33  C   UNL A   1      40.186  22.075  26.763  1.00  0.00     0.016 A 
ATOM     34  C   UNL A   1      39.345  24.530  26.154  1.00  0.00     0.010 A 
ATOM     35  C   UNL A   1      40.932  23.180  27.091  1.00  0.00     0.010 A 
ATOM     36  C   UNL A   1      40.461  24.442  26.854  1.00  0.00    -0.014 A 
BRANCH  36  37
ATOM     37  C   UNL A   1      41.185  25.676  27.368  1.00  0.00     0.031 A 
ATOM     38  C   UNL A   1      42.513  25.807  26.957  1.00  0.00     0.074 A 
ATOM     39  C   UNL A   1      40.500  26.638  28.090  1.00  0.00     0.049 A 
ATOM     40  N   UNL A   1      43.324  26.848  27.146  1.00  0.00    -0.248 NA
ATOM     41  C   UNL A   1      43.252  24.771  26.220  1.00  0.00     0.031 C 
ATOM     42  C   UNL A   1      39.158  26.518  28.501  1.00  0.00     0.029 A 
ATOM     43  N   UNL A   1      40.970  27.853  28.537  1.00  0.00    -0.354 N 
ATOM     44  C   UNL A   1      44.516  26.610  26.593  1.00  0.00     0.074 A 
ATOM     45  C   UNL A   1      44.488  25.269  25.994  1.00  0.00     0.031 C 
ATOM     46  C   UNL A   1      38.827  27.639  29.194  1.00  0.00     0.029 A 
ATOM     47  C   UNL A   1      39.957  28.479  29.228  1.00  0.00     0.049 A 
ATOM     48  H   UNL A   1      41.875  28.213  28.387  1.00  0.00     0.167 HD
ATOM     49  C   UNL A   1      45.622  27.460  26.562  1.00  0.00     0.034 A 
ATOM     50  C   UNL A   1      39.996  29.712  29.861  1.00  0.00     0.034 A 
ATOM     51  C   UNL A   1      45.647  28.711  27.158  1.00  0.00     0.049 A 
ATOM     52  C   UNL A   1      41.123  30.537  29.881  1.00  0.00     0.074 A 
ATOM     53  C   UNL A   1      46.752  29.583  27.130  1.00  0.00     0.029 A 
ATOM     54  N   UNL A   1      44.641  29.326  27.870  1.00  0.00    -0.354 N 
ATOM     55  N   UNL A   1      42.300  30.316  29.294  1.00  0.00    -0.248 NA
ATOM     56  C   UNL A   1      41.186  31.830  30.576  1.00  0.00     0.031 C 
ATOM     57  C   UNL A   1      46.421  30.705  27.823  1.00  0.00     0.029 A 
ATOM     58  C   UNL A   1      45.104  30.551  28.297  1.00  0.00     0.049 A 
ATOM     59  H   UNL A   1      43.747  28.954  28.044  1.00  0.00     0.167 HD
ATOM     60  C   UNL A   1      43.124  31.341  29.519  1.00  0.00     0.074 A 
ATOM     61  C   UNL A   1      42.423  32.327  30.352  1.00  0.00     0.031 C 
ATOM     62  C   UNL A   1      44.434  31.496  29.058  1.00  0.00     0.034 A 
BRANCH  49  63
ATOM     63  C   UNL A   1      46.870  26.987  25.834  1.00  0.00     0.023 A 
ATOM     64  C   UNL A   1      47.825  26.260  26.525  1.00  0.00     0.012 A 
ATOM     65  C   UNL A   1      47.020  27.274  24.547  1.00  0.00     0.148 A 
ATOM     66  C   UNL A   1      49.053  26.127  25.836  1.00  0.00     0.002 A 
ATOM     67  C   UNL A   1      48.200  26.992  23.900  1.00  0.00     0.091 A 
ATOM     68  F   UNL A   1      46.021  27.840  23.876  1.00  0.00    -0.205 F 
ATOM     69  C   UNL A   1      49.211  26.328  24.539  1.00  0.00     0.022 A 
BRANCH  67  70
ATOM     70  S   UNL A   1      48.420  27.506  22.179  1.00  0.00     0.127 S 
ATOM     71  O   UNL A   1      47.173  28.260  21.709  1.00  0.00    -0.237 OA
ATOM     72  O   UNL A   1      49.641  28.421  22.071  1.00  0.00    -0.237 OA
ATOM     73  O   UNL A   1      48.653  26.126  21.198  1.00  0.00    -0.744 OA
ENDBRANCH  67  70
ENDBRANCH  49  63
BRANCH  50  74
ATOM     74  C   UNL A   1      38.743  30.191  30.574  1.00  0.00     0.023 A 
ATOM     75  C   UNL A   1      38.500  29.778  31.874  1.00  0.00     0.012 A 
ATOM     76  C   UNL A   1      37.899  30.996  29.939  1.00  0.00     0.148 A 
ATOM     77  C   UNL A   1      37.183  30.038  32.322  1.00  0.00     0.002 A 
ATOM     78  C   UNL A   1      36.685  31.318  30.497  1.00  0.00     0.091 A 
ATOM     79  F   UNL A   1      38.233  31.496  28.752  1.00  0.00    -0.205 F 
ATOM     80  C   UNL A   1      36.354  30.895  31.753  1.00  0.00     0.022 A 
BRANCH  78  81
ATOM     81  S   UNL A   1      35.507  32.317  29.552  1.00  0.00     0.127 S 
ATOM     82  O   UNL A   1      34.330  32.703  30.451  1.00  0.00    -0.237 OA
ATOM     83  O   UNL A   1      36.202  33.585  29.050  1.00  0.00    -0.237 OA
ATOM     84  O   UNL A   1      34.935  31.414  28.218  1.00  0.00    -0.744 OA
ENDBRANCH  78  81
ENDBRANCH  50  74
BRANCH  62  85
ATOM     85  C   UNL A   1      45.167  32.779  29.413  1.00  0.00     0.023 A 
ATOM     86  C   UNL A   1      45.885  32.909  30.591  1.00  0.00     0.012 A 
ATOM     87  C   UNL A   1      44.987  33.812  28.599  1.00  0.00     0.148 A 
ATOM     88  C   UNL A   1      46.128  34.251  30.968  1.00  0.00     0.002 A 
ATOM     89  C   UNL A   1      45.373  35.076  28.976  1.00  0.00     0.091 A 
ATOM     90  F   UNL A   1      44.426  33.622  27.408  1.00  0.00    -0.205 F 
ATOM     91  C   UNL A   1      46.033  35.287  30.154  1.00  0.00     0.022 A 
BRANCH  89  92
ATOM     92  S   UNL A   1      45.003  36.481  27.897  1.00  0.00     0.127 S 
ATOM     93  O   UNL A   1      45.382  37.783  28.606  1.00  0.00    -0.237 OA
ATOM     94  O   UNL A   1      45.805  36.354  26.600  1.00  0.00    -0.237 OA
ATOM     95  O   UNL A   1      43.331  36.496  27.534  1.00  0.00    -0.744 OA
ENDBRANCH  89  92
ENDBRANCH  62  85
ENDBRANCH  36  37
ENDBRANCH  29  31
ENDBRANCH  28  29
ENDBRANCH   1  28
TORSDOF 17
ENDMDL
