MODEL 1
REMARK VINA RESULT:     -11.4      0.000      0.000
REMARK SMILES CC1(C)C(CNC(=O)[C@H]2C[C@H]2C(=O)OCCOC(=O)c2ccc(-c3c4nc(c(-c5cccc(S(=O)(=O)[O-])c5F)c5ccc([nH]5)c(-c5cccc(S(=O)(=O)[O-])c5F)c5nc(c(-c6cccc(S(=O)(=O)[O-])c6F)c6ccc3[nH]6)C=C5)C=C4)cc2)C1(C)C
REMARK SMILES IDX 15 1 14 2 12 3 13 4 11 5 9 6 10 7 7 8 6 9 8 11 5 12 4 13
REMARK SMILES IDX 1 14 2 15 3 16 83 17 84 18 85 19 16 20 17 21 18 22 19 23
REMARK SMILES IDX 20 24 21 25 82 26 22 27 81 28 23 29 24 30 25 31 75 32 26 33
REMARK SMILES IDX 80 34 74 35 76 36 27 37 79 38 73 39 72 40 28 42 60 43 40 44
REMARK SMILES IDX 59 45 41 46 44 47 58 48 77 49 42 50 43 51 57 53 78 54 45 55
REMARK SMILES IDX 29 56 30 57 38 58 31 59 33 60 39 61 32 62 34 63 35 64 36 65
REMARK SMILES IDX 37 66 61 67 62 68 70 69 63 70 65 71 71 72 64 73 66 74 67 75
REMARK SMILES IDX 68 76 69 77 46 78 47 79 55 80 48 81 50 82 56 83 49 84 51 85
REMARK SMILES IDX 52 86 53 87 54 88
REMARK H PARENT 6 10 76 41 44 52
REMARK Flexibility Score: inf
ROOT
ATOM      1  C   UNL A   1      36.647  22.504  23.744  1.00  0.00     0.274 C 
ENDROOT
BRANCH   1   2
ATOM      2  O   UNL A   1      35.206  22.535  23.779  1.00  0.00    -0.462 OA
BRANCH   2   3
ATOM      3  C   UNL A   1      34.659  23.639  24.337  1.00  0.00     0.309 C 
ATOM      4  O   UNL A   1      35.257  24.491  24.980  1.00  0.00    -0.252 OA
BRANCH   3   5
ATOM      5  C   UNL A   1      33.226  23.822  24.013  1.00  0.00     0.112 C 
ATOM      6  C   UNL A   1      32.613  24.700  22.954  1.00  0.00     0.093 C 
ATOM      7  C   UNL A   1      32.761  23.230  22.703  1.00  0.00     0.030 C 
BRANCH   6   8
ATOM      8  C   UNL A   1      33.331  25.880  22.438  1.00  0.00     0.224 C 
ATOM      9  N   UNL A   1      33.737  26.917  23.219  1.00  0.00    -0.356 N 
ATOM     10  H   UNL A   1      34.411  27.501  22.803  1.00  0.00     0.163 HD
ATOM     11  O   UNL A   1      33.672  25.881  21.258  1.00  0.00    -0.275 OA
BRANCH   9  12
ATOM     12  C   UNL A   1      33.350  27.305  24.545  1.00  0.00     0.120 C 
BRANCH  12  13
ATOM     13  C   UNL A   1      32.467  28.513  24.524  1.00  0.00     0.021 C 
ATOM     14  C   UNL A   1      30.276  29.508  23.596  1.00  0.00     0.012 C 
ATOM     15  C   UNL A   1      30.943  28.482  24.493  1.00  0.00    -0.025 C 
ATOM     16  C   UNL A   1      30.213  27.159  24.443  1.00  0.00     0.012 C 
ATOM     17  C   UNL A   1      31.698  28.927  25.771  1.00  0.00    -0.025 C 
ATOM     18  C   UNL A   1      31.766  30.390  26.157  1.00  0.00     0.012 C 
ATOM     19  C   UNL A   1      31.739  28.035  26.995  1.00  0.00     0.012 C 
ENDBRANCH  12  13
ENDBRANCH   9  12
ENDBRANCH   6   8
ENDBRANCH   3   5
ENDBRANCH   2   3
ENDBRANCH   1   2
BRANCH   1  20
ATOM     20  C   UNL A   1      37.157  21.206  24.370  1.00  0.00     0.275 C 
BRANCH  20  21
ATOM     21  O   UNL A   1      37.519  21.413  25.748  1.00  0.00    -0.458 OA
BRANCH  21  22
ATOM     22  C   UNL A   1      38.840  21.274  26.001  1.00  0.00     0.338 C 
ATOM     23  O   UNL A   1      39.547  20.311  25.757  1.00  0.00    -0.246 OA
BRANCH  22  24
ATOM     24  C   UNL A   1      39.376  22.498  26.605  1.00  0.00     0.060 A 
ATOM     25  C   UNL A   1      38.930  23.733  26.138  1.00  0.00     0.016 A 
ATOM     26  C   UNL A   1      40.446  22.417  27.493  1.00  0.00     0.016 A 
ATOM     27  C   UNL A   1      39.625  24.890  26.471  1.00  0.00     0.010 A 
ATOM     28  C   UNL A   1      41.083  23.591  27.901  1.00  0.00     0.010 A 
ATOM     29  C   UNL A   1      40.708  24.834  27.358  1.00  0.00    -0.014 A 
BRANCH  29  30
ATOM     30  C   UNL A   1      41.447  26.072  27.718  1.00  0.00     0.031 A 
ATOM     31  C   UNL A   1      40.770  27.161  28.507  1.00  0.00     0.074 A 
ATOM     32  C   UNL A   1      42.721  26.226  27.309  1.00  0.00     0.049 A 
ATOM     33  N   UNL A   1      41.210  28.357  28.805  1.00  0.00    -0.248 NA
ATOM     34  C   UNL A   1      39.418  26.878  29.014  1.00  0.00     0.031 C 
ATOM     35  C   UNL A   1      43.480  25.247  26.529  1.00  0.00     0.029 A 
ATOM     36  N   UNL A   1      43.594  27.272  27.470  1.00  0.00    -0.354 N 
ATOM     37  C   UNL A   1      40.173  28.987  29.483  1.00  0.00     0.074 A 
ATOM     38  C   UNL A   1      39.079  28.042  29.550  1.00  0.00     0.031 C 
ATOM     39  C   UNL A   1      44.700  25.737  26.275  1.00  0.00     0.029 A 
ATOM     40  C   UNL A   1      44.792  27.087  26.820  1.00  0.00     0.049 A 
ATOM     41  H   UNL A   1      43.384  28.075  27.999  1.00  0.00     0.167 HD
ATOM     42  C   UNL A   1      40.140  30.233  30.014  1.00  0.00     0.034 A 
ATOM     43  C   UNL A   1      45.834  27.921  26.644  1.00  0.00     0.034 A 
ATOM     44  C   UNL A   1      41.251  31.148  29.992  1.00  0.00     0.049 A 
ATOM     45  C   UNL A   1      45.780  29.291  27.258  1.00  0.00     0.074 A 
ATOM     46  C   UNL A   1      41.337  32.413  30.547  1.00  0.00     0.029 A 
ATOM     47  N   UNL A   1      42.472  30.896  29.384  1.00  0.00    -0.354 N 
ATOM     48  N   UNL A   1      44.826  29.836  27.971  1.00  0.00    -0.248 NA
ATOM     49  C   UNL A   1      46.955  30.151  27.065  1.00  0.00     0.031 C 
ATOM     50  C   UNL A   1      42.606  32.930  30.264  1.00  0.00     0.029 A 
ATOM     51  C   UNL A   1      43.317  31.981  29.547  1.00  0.00     0.049 A 
ATOM     52  H   UNL A   1      42.704  30.067  28.906  1.00  0.00     0.167 HD
ATOM     53  C   UNL A   1      45.289  31.095  28.329  1.00  0.00     0.074 A 
ATOM     54  C   UNL A   1      46.624  31.220  27.777  1.00  0.00     0.031 C 
ATOM     55  C   UNL A   1      44.660  32.069  29.032  1.00  0.00     0.034 A 
BRANCH  42  56
ATOM     56  C   UNL A   1      38.871  30.669  30.699  1.00  0.00     0.023 A 
ATOM     57  C   UNL A   1      38.687  30.391  32.069  1.00  0.00     0.012 A 
ATOM     58  C   UNL A   1      37.880  31.391  30.003  1.00  0.00     0.148 A 
ATOM     59  C   UNL A   1      37.525  30.794  32.726  1.00  0.00     0.002 A 
ATOM     60  C   UNL A   1      36.742  31.824  30.676  1.00  0.00     0.091 A 
ATOM     61  F   UNL A   1      38.058  31.626  28.695  1.00  0.00    -0.205 F 
ATOM     62  C   UNL A   1      36.558  31.518  32.034  1.00  0.00     0.022 A 
BRANCH  60  63
ATOM     63  S   UNL A   1      35.479  32.826  29.881  1.00  0.00     0.127 S 
ATOM     64  O   UNL A   1      34.445  32.871  30.913  1.00  0.00    -0.237 OA
ATOM     65  O   UNL A   1      36.177  34.095  29.664  1.00  0.00    -0.237 OA
ATOM     66  O   UNL A   1      35.123  32.118  28.659  1.00  0.00    -0.744 OA
ENDBRANCH  60  63
ENDBRANCH  42  56
BRANCH  43  67
ATOM     67  C   UNL A   1      47.017  27.458  25.867  1.00  0.00     0.023 A 
ATOM     68  C   UNL A   1      47.909  26.538  26.445  1.00  0.00     0.012 A 
ATOM     69  C   UNL A   1      47.218  27.867  24.532  1.00  0.00     0.148 A 
ATOM     70  C   UNL A   1      48.991  26.043  25.714  1.00  0.00     0.002 A 
ATOM     71  C   UNL A   1      48.260  27.325  23.792  1.00  0.00     0.091 A 
ATOM     72  F   UNL A   1      46.366  28.759  24.006  1.00  0.00    -0.205 F 
ATOM     73  C   UNL A   1      49.157  26.424  24.385  1.00  0.00     0.022 A 
BRANCH  71  74
ATOM     74  S   UNL A   1      48.453  27.646  22.035  1.00  0.00     0.127 S 
ATOM     75  O   UNL A   1      49.642  28.492  22.013  1.00  0.00    -0.237 OA
ATOM     76  O   UNL A   1      48.645  26.298  21.498  1.00  0.00    -0.237 OA
ATOM     77  O   UNL A   1      47.211  28.282  21.616  1.00  0.00    -0.744 OA
ENDBRANCH  71  74
ENDBRANCH  43  67
BRANCH  55  78
ATOM     78  C   UNL A   1      45.411  33.353  29.263  1.00  0.00     0.023 A 
ATOM     79  C   UNL A   1      46.287  33.457  30.360  1.00  0.00     0.012 A 
ATOM     80  C   UNL A   1      45.303  34.425  28.357  1.00  0.00     0.148 A 
ATOM     81  C   UNL A   1      47.027  34.620  30.567  1.00  0.00     0.002 A 
ATOM     82  C   UNL A   1      46.076  35.565  28.545  1.00  0.00     0.091 A 
ATOM     83  F   UNL A   1      44.446  34.314  27.330  1.00  0.00    -0.205 F 
ATOM     84  C   UNL A   1      46.931  35.669  29.654  1.00  0.00     0.022 A 
BRANCH  82  85
ATOM     85  S   UNL A   1      46.080  36.927  27.373  1.00  0.00     0.127 S 
ATOM     86  O   UNL A   1      44.651  37.185  27.209  1.00  0.00    -0.237 OA
ATOM     87  O   UNL A   1      46.808  37.965  28.104  1.00  0.00    -0.237 OA
ATOM     88  O   UNL A   1      46.768  36.431  26.188  1.00  0.00    -0.744 OA
ENDBRANCH  82  85
ENDBRANCH  55  78
ENDBRANCH  29  30
ENDBRANCH  22  24
ENDBRANCH  21  22
ENDBRANCH  20  21
ENDBRANCH   1  20
TORSDOF 17
ENDMDL
MODEL 2
REMARK VINA RESULT:     -11.4      1.496      2.029
REMARK SMILES CC1(C)C(CNC(=O)[C@H]2C[C@H]2C(=O)OCCOC(=O)c2ccc(-c3c4nc(c(-c5cccc(S(=O)(=O)[O-])c5F)c5ccc([nH]5)c(-c5cccc(S(=O)(=O)[O-])c5F)c5nc(c(-c6cccc(S(=O)(=O)[O-])c6F)c6ccc3[nH]6)C=C5)C=C4)cc2)C1(C)C
REMARK SMILES IDX 15 1 14 2 12 3 13 4 11 5 9 6 10 7 7 8 6 9 8 11 5 12 4 13
REMARK SMILES IDX 1 14 2 15 3 16 83 17 84 18 85 19 16 20 17 21 18 22 19 23
REMARK SMILES IDX 20 24 21 25 82 26 22 27 81 28 23 29 24 30 25 31 75 32 26 33
REMARK SMILES IDX 80 34 74 35 76 36 27 37 79 38 73 39 72 40 28 42 60 43 40 44
REMARK SMILES IDX 59 45 41 46 44 47 58 48 77 49 42 50 43 51 57 53 78 54 45 55
REMARK SMILES IDX 29 56 30 57 38 58 31 59 33 60 39 61 32 62 34 63 35 64 36 65
REMARK SMILES IDX 37 66 61 67 62 68 70 69 63 70 65 71 71 72 64 73 66 74 67 75
REMARK SMILES IDX 68 76 69 77 46 78 47 79 55 80 48 81 50 82 56 83 49 84 51 85
REMARK SMILES IDX 52 86 53 87 54 88
REMARK H PARENT 6 10 76 41 44 52
REMARK Flexibility Score: inf
ROOT
ATOM      1  C   UNL A   1      35.299  20.323  25.007  1.00  0.00     0.274 C 
ENDROOT
BRANCH   1   2
ATOM      2  O   UNL A   1      34.940  21.432  25.855  1.00  0.00    -0.462 OA
BRANCH   2   3
ATOM      3  C   UNL A   1      34.207  22.406  25.266  1.00  0.00     0.309 C 
ATOM      4  O   UNL A   1      33.106  22.264  24.752  1.00  0.00    -0.252 OA
BRANCH   3   5
ATOM      5  C   UNL A   1      34.806  23.754  25.384  1.00  0.00     0.112 C 
ATOM      6  C   UNL A   1      34.531  24.975  24.547  1.00  0.00     0.093 C 
ATOM      7  C   UNL A   1      33.894  24.843  25.898  1.00  0.00     0.030 C 
BRANCH   6   8
ATOM      8  C   UNL A   1      34.002  24.851  23.176  1.00  0.00     0.224 C 
ATOM      9  N   UNL A   1      33.262  25.813  22.563  1.00  0.00    -0.356 N 
ATOM     10  H   UNL A   1      33.193  25.713  21.586  1.00  0.00     0.163 HD
ATOM     11  O   UNL A   1      34.332  23.870  22.514  1.00  0.00    -0.275 OA
BRANCH   9  12
ATOM     12  C   UNL A   1      32.565  26.948  23.096  1.00  0.00     0.120 C 
BRANCH  12  13
ATOM     13  C   UNL A   1      31.304  26.538  23.790  1.00  0.00     0.021 C 
ATOM     14  C   UNL A   1      30.260  25.891  26.057  1.00  0.00     0.012 C 
ATOM     15  C   UNL A   1      30.903  26.964  25.198  1.00  0.00    -0.025 C 
ATOM     16  C   UNL A   1      31.825  27.838  26.017  1.00  0.00     0.012 C 
ATOM     17  C   UNL A   1      30.161  27.529  23.960  1.00  0.00    -0.025 C 
ATOM     18  C   UNL A   1      28.775  27.036  23.599  1.00  0.00     0.012 C 
ATOM     19  C   UNL A   1      30.361  28.968  23.530  1.00  0.00     0.012 C 
ENDBRANCH  12  13
ENDBRANCH   9  12
ENDBRANCH   6   8
ENDBRANCH   3   5
ENDBRANCH   2   3
ENDBRANCH   1   2
BRANCH   1  20
ATOM     20  C   UNL A   1      36.816  20.144  24.995  1.00  0.00     0.275 C 
BRANCH  20  21
ATOM     21  O   UNL A   1      37.474  21.327  25.490  1.00  0.00    -0.458 OA
BRANCH  21  22
ATOM     22  C   UNL A   1      38.745  21.124  25.902  1.00  0.00     0.338 C 
ATOM     23  O   UNL A   1      39.418  20.117  25.769  1.00  0.00    -0.246 OA
BRANCH  22  24
ATOM     24  C   UNL A   1      39.277  22.336  26.534  1.00  0.00     0.060 A 
ATOM     25  C   UNL A   1      38.741  23.573  26.179  1.00  0.00     0.016 A 
ATOM     26  C   UNL A   1      40.419  22.256  27.326  1.00  0.00     0.016 A 
ATOM     27  C   UNL A   1      39.412  24.741  26.524  1.00  0.00     0.010 A 
ATOM     28  C   UNL A   1      41.038  23.434  27.751  1.00  0.00     0.010 A 
ATOM     29  C   UNL A   1      40.566  24.686  27.316  1.00  0.00    -0.014 A 
BRANCH  29  30
ATOM     30  C   UNL A   1      41.279  25.936  27.690  1.00  0.00     0.031 A 
ATOM     31  C   UNL A   1      40.587  26.993  28.507  1.00  0.00     0.074 A 
ATOM     32  C   UNL A   1      42.543  26.128  27.266  1.00  0.00     0.049 A 
ATOM     33  N   UNL A   1      41.001  28.193  28.822  1.00  0.00    -0.248 NA
ATOM     34  C   UNL A   1      39.249  26.667  29.027  1.00  0.00     0.031 C 
ATOM     35  C   UNL A   1      43.315  25.183  26.459  1.00  0.00     0.029 A 
ATOM     36  N   UNL A   1      43.393  27.192  27.436  1.00  0.00    -0.354 N 
ATOM     37  C   UNL A   1      39.958  28.785  29.525  1.00  0.00     0.074 A 
ATOM     38  C   UNL A   1      38.889  27.812  29.589  1.00  0.00     0.031 C 
ATOM     39  C   UNL A   1      44.520  25.708  26.198  1.00  0.00     0.029 A 
ATOM     40  C   UNL A   1      44.585  27.049  26.767  1.00  0.00     0.049 A 
ATOM     41  H   UNL A   1      43.170  27.980  27.983  1.00  0.00     0.167 HD
ATOM     42  C   UNL A   1      39.902  30.019  30.081  1.00  0.00     0.034 A 
ATOM     43  C   UNL A   1      45.604  27.912  26.592  1.00  0.00     0.034 A 
ATOM     44  C   UNL A   1      40.990  30.962  30.060  1.00  0.00     0.049 A 
ATOM     45  C   UNL A   1      45.526  29.269  27.232  1.00  0.00     0.074 A 
ATOM     46  C   UNL A   1      41.052  32.218  30.638  1.00  0.00     0.029 A 
ATOM     47  N   UNL A   1      42.208  30.751  29.431  1.00  0.00    -0.354 N 
ATOM     48  N   UNL A   1      44.568  29.777  27.968  1.00  0.00    -0.248 NA
ATOM     49  C   UNL A   1      46.676  30.161  27.040  1.00  0.00     0.031 C 
ATOM     50  C   UNL A   1      42.304  32.771  30.348  1.00  0.00     0.029 A 
ATOM     51  C   UNL A   1      43.028  31.854  29.604  1.00  0.00     0.049 A 
ATOM     52  H   UNL A   1      42.454  29.937  28.935  1.00  0.00     0.167 HD
ATOM     53  C   UNL A   1      45.005  31.040  28.344  1.00  0.00     0.074 A 
ATOM     54  C   UNL A   1      46.329  31.208  27.776  1.00  0.00     0.031 C 
ATOM     55  C   UNL A   1      44.362  31.985  29.073  1.00  0.00     0.034 A 
BRANCH  42  56
ATOM     56  C   UNL A   1      38.632  30.411  30.790  1.00  0.00     0.023 A 
ATOM     57  C   UNL A   1      38.457  30.069  32.146  1.00  0.00     0.012 A 
ATOM     58  C   UNL A   1      37.631  31.155  30.132  1.00  0.00     0.148 A 
ATOM     59  C   UNL A   1      37.294  30.430  32.826  1.00  0.00     0.002 A 
ATOM     60  C   UNL A   1      36.492  31.545  30.829  1.00  0.00     0.091 A 
ATOM     61  F   UNL A   1      37.800  31.452  28.836  1.00  0.00    -0.205 F 
ATOM     62  C   UNL A   1      36.317  31.175  32.172  1.00  0.00     0.022 A 
BRANCH  60  63
ATOM     63  S   UNL A   1      35.216  32.571  30.087  1.00  0.00     0.127 S 
ATOM     64  O   UNL A   1      34.277  32.723  31.196  1.00  0.00    -0.237 OA
ATOM     65  O   UNL A   1      35.953  33.787  29.741  1.00  0.00    -0.237 OA
ATOM     66  O   UNL A   1      34.723  31.820  28.940  1.00  0.00    -0.744 OA
ENDBRANCH  60  63
ENDBRANCH  42  56
BRANCH  43  67
ATOM     67  C   UNL A   1      46.788  27.493  25.791  1.00  0.00     0.023 A 
ATOM     68  C   UNL A   1      46.819  27.758  24.410  1.00  0.00     0.012 A 
ATOM     69  C   UNL A   1      47.912  26.904  26.406  1.00  0.00     0.148 A 
ATOM     70  C   UNL A   1      47.943  27.430  23.650  1.00  0.00     0.002 A 
ATOM     71  C   UNL A   1      49.049  26.636  25.655  1.00  0.00     0.091 A 
ATOM     72  F   UNL A   1      47.854  26.644  27.719  1.00  0.00    -0.205 F 
ATOM     73  C   UNL A   1      49.062  26.883  24.274  1.00  0.00     0.022 A 
BRANCH  71  74
ATOM     74  S   UNL A   1      50.582  26.076  26.407  1.00  0.00     0.127 S 
ATOM     75  O   UNL A   1      50.170  24.821  27.028  1.00  0.00    -0.237 OA
ATOM     76  O   UNL A   1      51.458  25.931  25.244  1.00  0.00    -0.237 OA
ATOM     77  O   UNL A   1      50.978  27.139  27.321  1.00  0.00    -0.744 OA
ENDBRANCH  71  74
ENDBRANCH  43  67
BRANCH  55  78
ATOM     78  C   UNL A   1      45.084  33.283  29.318  1.00  0.00     0.023 A 
ATOM     79  C   UNL A   1      45.976  33.387  30.403  1.00  0.00     0.012 A 
ATOM     80  C   UNL A   1      44.934  34.370  28.436  1.00  0.00     0.148 A 
ATOM     81  C   UNL A   1      46.689  34.564  30.622  1.00  0.00     0.002 A 
ATOM     82  C   UNL A   1      45.680  35.525  28.635  1.00  0.00     0.091 A 
ATOM     83  F   UNL A   1      44.062  34.257  27.422  1.00  0.00    -0.205 F 
ATOM     84  C   UNL A   1      46.552  35.628  29.732  1.00  0.00     0.022 A 
BRANCH  82  85
ATOM     85  S   UNL A   1      45.631  36.910  27.492  1.00  0.00     0.127 S 
ATOM     86  O   UNL A   1      46.199  37.986  28.301  1.00  0.00    -0.237 OA
ATOM     87  O   UNL A   1      46.491  36.447  26.402  1.00  0.00    -0.237 OA
ATOM     88  O   UNL A   1      44.230  37.074  27.125  1.00  0.00    -0.744 OA
ENDBRANCH  82  85
ENDBRANCH  55  78
ENDBRANCH  29  30
ENDBRANCH  22  24
ENDBRANCH  21  22
ENDBRANCH  20  21
ENDBRANCH   1  20
TORSDOF 17
ENDMDL
MODEL 3
REMARK VINA RESULT:     -11.4      5.252     10.172
REMARK SMILES CC1(C)C(CNC(=O)[C@H]2C[C@H]2C(=O)OCCOC(=O)c2ccc(-c3c4nc(c(-c5cccc(S(=O)(=O)[O-])c5F)c5ccc([nH]5)c(-c5cccc(S(=O)(=O)[O-])c5F)c5nc(c(-c6cccc(S(=O)(=O)[O-])c6F)c6ccc3[nH]6)C=C5)C=C4)cc2)C1(C)C
REMARK SMILES IDX 15 1 14 2 12 3 13 4 11 5 9 6 10 7 7 8 6 9 8 11 5 12 4 13
REMARK SMILES IDX 1 14 2 15 3 16 83 17 84 18 85 19 16 20 17 21 18 22 19 23
REMARK SMILES IDX 20 24 21 25 82 26 22 27 81 28 23 29 24 30 25 31 75 32 26 33
REMARK SMILES IDX 80 34 74 35 76 36 27 37 79 38 73 39 72 40 28 42 60 43 40 44
REMARK SMILES IDX 59 45 41 46 44 47 58 48 77 49 42 50 43 51 57 53 78 54 45 55
REMARK SMILES IDX 29 56 30 57 38 58 31 59 33 60 39 61 32 62 34 63 35 64 36 65
REMARK SMILES IDX 37 66 61 67 62 68 70 69 63 70 65 71 71 72 64 73 66 74 67 75
REMARK SMILES IDX 68 76 69 77 46 78 47 79 55 80 48 81 50 82 56 83 49 84 51 85
REMARK SMILES IDX 52 86 53 87 54 88
REMARK H PARENT 6 10 76 41 44 52
REMARK Flexibility Score: inf
ROOT
ATOM      1  C   UNL A   1      31.345  29.124  24.690  1.00  0.00     0.274 C 
ENDROOT
BRANCH   1   2
ATOM      2  O   UNL A   1      32.092  27.999  25.196  1.00  0.00    -0.462 OA
BRANCH   2   3
ATOM      3  C   UNL A   1      32.426  27.061  24.279  1.00  0.00     0.309 C 
ATOM      4  O   UNL A   1      33.458  26.404  24.267  1.00  0.00    -0.252 OA
BRANCH   3   5
ATOM      5  C   UNL A   1      31.355  26.784  23.295  1.00  0.00     0.112 C 
ATOM      6  C   UNL A   1      31.335  25.745  22.205  1.00  0.00     0.093 C 
ATOM      7  C   UNL A   1      30.598  25.490  23.484  1.00  0.00     0.030 C 
BRANCH   6   8
ATOM      8  C   UNL A   1      32.590  25.205  21.649  1.00  0.00     0.224 C 
ATOM      9  N   UNL A   1      32.976  23.908  21.777  1.00  0.00    -0.356 N 
ATOM     10  H   UNL A   1      33.688  23.630  21.158  1.00  0.00     0.163 HD
ATOM     11  O   UNL A   1      33.277  25.942  20.944  1.00  0.00    -0.275 OA
BRANCH   9  12
ATOM     12  C   UNL A   1      32.521  22.874  22.663  1.00  0.00     0.120 C 
BRANCH  12  13
ATOM     13  C   UNL A   1      33.359  22.808  23.901  1.00  0.00     0.021 C 
ATOM     14  C   UNL A   1      33.506  23.485  26.385  1.00  0.00     0.012 C 
ATOM     15  C   UNL A   1      32.815  22.658  25.318  1.00  0.00    -0.025 C 
ATOM     16  C   UNL A   1      31.322  22.601  25.554  1.00  0.00     0.012 C 
ATOM     17  C   UNL A   1      33.557  21.485  24.627  1.00  0.00    -0.025 C 
ATOM     18  C   UNL A   1      34.977  21.133  25.021  1.00  0.00     0.012 C 
ATOM     19  C   UNL A   1      32.799  20.262  24.155  1.00  0.00     0.012 C 
ENDBRANCH  12  13
ENDBRANCH   9  12
ENDBRANCH   6   8
ENDBRANCH   3   5
ENDBRANCH   2   3
ENDBRANCH   1   2
BRANCH   1  20
ATOM     20  C   UNL A   1      31.593  30.351  25.566  1.00  0.00     0.275 C 
BRANCH  20  21
ATOM     21  O   UNL A   1      32.642  30.095  26.519  1.00  0.00    -0.458 OA
BRANCH  21  22
ATOM     22  C   UNL A   1      33.178  31.208  27.068  1.00  0.00     0.338 C 
ATOM     23  O   UNL A   1      32.652  32.300  27.198  1.00  0.00    -0.246 OA
BRANCH  22  24
ATOM     24  C   UNL A   1      34.533  30.935  27.558  1.00  0.00     0.060 A 
ATOM     25  C   UNL A   1      34.929  29.611  27.746  1.00  0.00     0.016 A 
ATOM     26  C   UNL A   1      35.330  31.986  28.003  1.00  0.00     0.016 A 
ATOM     27  C   UNL A   1      36.075  29.331  28.482  1.00  0.00     0.010 A 
ATOM     28  C   UNL A   1      36.530  31.701  28.658  1.00  0.00     0.010 A 
ATOM     29  C   UNL A   1      36.891  30.372  28.944  1.00  0.00    -0.014 A 
BRANCH  29  30
ATOM     30  C   UNL A   1      38.120  30.071  29.724  1.00  0.00     0.031 A 
ATOM     31  C   UNL A   1      39.160  29.132  29.176  1.00  0.00     0.074 A 
ATOM     32  C   UNL A   1      38.283  30.625  30.941  1.00  0.00     0.049 A 
ATOM     33  N   UNL A   1      40.229  28.654  29.760  1.00  0.00    -0.248 NA
ATOM     34  C   UNL A   1      38.968  28.653  27.797  1.00  0.00     0.031 C 
ATOM     35  C   UNL A   1      37.340  31.541  31.584  1.00  0.00     0.029 A 
ATOM     36  N   UNL A   1      39.289  30.480  31.864  1.00  0.00    -0.354 N 
ATOM     37  C   UNL A   1      40.805  27.779  28.847  1.00  0.00     0.074 A 
ATOM     38  C   UNL A   1      39.965  27.788  27.668  1.00  0.00     0.031 C 
ATOM     39  C   UNL A   1      37.805  31.873  32.796  1.00  0.00     0.029 A 
ATOM     40  C   UNL A   1      39.047  31.148  33.041  1.00  0.00     0.049 A 
ATOM     41  H   UNL A   1      40.102  29.951  31.699  1.00  0.00     0.167 HD
ATOM     42  C   UNL A   1      41.938  27.047  28.972  1.00  0.00     0.034 A 
ATOM     43  C   UNL A   1      39.724  31.150  34.205  1.00  0.00     0.034 A 
ATOM     44  C   UNL A   1      42.798  27.084  30.126  1.00  0.00     0.049 A 
ATOM     45  C   UNL A   1      40.986  30.343  34.313  1.00  0.00     0.074 A 
ATOM     46  C   UNL A   1      43.995  26.420  30.330  1.00  0.00     0.029 A 
ATOM     47  N   UNL A   1      42.554  27.828  31.271  1.00  0.00    -0.354 N 
ATOM     48  N   UNL A   1      41.563  29.592  33.407  1.00  0.00    -0.248 NA
ATOM     49  C   UNL A   1      41.706  30.404  35.592  1.00  0.00     0.031 C 
ATOM     50  C   UNL A   1      44.469  26.754  31.603  1.00  0.00     0.029 A 
ATOM     51  C   UNL A   1      43.576  27.638  32.186  1.00  0.00     0.049 A 
ATOM     52  H   UNL A   1      41.770  28.406  31.412  1.00  0.00     0.167 HD
ATOM     53  C   UNL A   1      42.721  29.104  33.997  1.00  0.00     0.074 A 
ATOM     54  C   UNL A   1      42.779  29.669  35.331  1.00  0.00     0.031 C 
ATOM     55  C   UNL A   1      43.642  28.248  33.490  1.00  0.00     0.034 A 
BRANCH  42  56
ATOM     56  C   UNL A   1      42.334  26.167  27.815  1.00  0.00     0.023 A 
ATOM     57  C   UNL A   1      43.255  26.643  26.860  1.00  0.00     0.012 A 
ATOM     58  C   UNL A   1      41.832  24.855  27.694  1.00  0.00     0.148 A 
ATOM     59  C   UNL A   1      43.645  25.843  25.787  1.00  0.00     0.002 A 
ATOM     60  C   UNL A   1      42.257  24.048  26.642  1.00  0.00     0.091 A 
ATOM     61  F   UNL A   1      40.939  24.424  28.595  1.00  0.00    -0.205 F 
ATOM     62  C   UNL A   1      43.154  24.544  25.682  1.00  0.00     0.022 A 
BRANCH  60  63
ATOM     63  S   UNL A   1      41.734  22.337  26.472  1.00  0.00     0.127 S 
ATOM     64  O   UNL A   1      42.353  21.964  25.202  1.00  0.00    -0.237 OA
ATOM     65  O   UNL A   1      42.333  21.708  27.650  1.00  0.00    -0.237 OA
ATOM     66  O   UNL A   1      40.277  22.366  26.480  1.00  0.00    -0.744 OA
ENDBRANCH  60  63
ENDBRANCH  42  56
BRANCH  43  67
ATOM     67  C   UNL A   1      39.218  31.965  35.344  1.00  0.00     0.023 A 
ATOM     68  C   UNL A   1      38.341  31.383  36.278  1.00  0.00     0.012 A 
ATOM     69  C   UNL A   1      39.660  33.288  35.546  1.00  0.00     0.148 A 
ATOM     70  C   UNL A   1      37.902  32.109  37.387  1.00  0.00     0.002 A 
ATOM     71  C   UNL A   1      39.267  33.983  36.683  1.00  0.00     0.091 A 
ATOM     72  F   UNL A   1      40.481  33.830  34.635  1.00  0.00    -0.205 F 
ATOM     73  C   UNL A   1      38.376  33.401  37.597  1.00  0.00     0.022 A 
BRANCH  71  74
ATOM     74  S   UNL A   1      39.950  35.590  37.105  1.00  0.00     0.127 S 
ATOM     75  O   UNL A   1      39.240  35.902  38.341  1.00  0.00    -0.237 OA
ATOM     76  O   UNL A   1      41.371  35.284  37.271  1.00  0.00    -0.237 OA
ATOM     77  O   UNL A   1      39.657  36.450  35.966  1.00  0.00    -0.744 OA
ENDBRANCH  71  74
ENDBRANCH  43  67
BRANCH  55  78
ATOM     78  C   UNL A   1      44.806  27.880  34.372  1.00  0.00     0.023 A 
ATOM     79  C   UNL A   1      45.954  28.695  34.382  1.00  0.00     0.012 A 
ATOM     80  C   UNL A   1      44.733  26.773  35.239  1.00  0.00     0.148 A 
ATOM     81  C   UNL A   1      47.025  28.399  35.224  1.00  0.00     0.002 A 
ATOM     82  C   UNL A   1      45.786  26.508  36.106  1.00  0.00     0.091 A 
ATOM     83  F   UNL A   1      43.639  25.996  35.197  1.00  0.00    -0.205 F 
ATOM     84  C   UNL A   1      46.936  27.314  36.095  1.00  0.00     0.022 A 
BRANCH  82  85
ATOM     85  S   UNL A   1      45.722  25.185  37.320  1.00  0.00     0.127 S 
ATOM     86  O   UNL A   1      46.976  25.383  38.044  1.00  0.00    -0.237 OA
ATOM     87  O   UNL A   1      44.518  25.519  38.083  1.00  0.00    -0.237 OA
ATOM     88  O   UNL A   1      45.626  23.948  36.557  1.00  0.00    -0.744 OA
ENDBRANCH  82  85
ENDBRANCH  55  78
ENDBRANCH  29  30
ENDBRANCH  22  24
ENDBRANCH  21  22
ENDBRANCH  20  21
ENDBRANCH   1  20
TORSDOF 17
ENDMDL
