MODEL 1
REMARK VINA RESULT:     -12.3      0.000      0.000
REMARK SMILES CCCCc1cc(S(F)(F)(F)(F)F)cc2c1O[C@@H](C(F)(F)F)C(C(=O)OCCOC(=O)c1ccc(-c3c4nc(c(-c5cccc(S(=O)(=O)[O-])c5F)c5ccc([nH]5)c(-c5cccc(S(=O)(=O)[O-])c5F)c5nc(c(-c6cccc(S(=O)(=O)[O-])c6F)c6ccc3[nH]6)C=C5)C=C4)cc1)=C2
REMARK SMILES IDX 27 1 26 2 24 3 25 4 23 5 5 6 6 7 16 8 7 9 15 10 17 11 14 12
REMARK SMILES IDX 95 13 18 14 4 15 3 16 2 17 1 18 8 19 9 20 10 21 11 22 12 23
REMARK SMILES IDX 13 24 19 25 20 26 21 27 22 28 28 29 29 30 30 31 31 32 32 33
REMARK SMILES IDX 33 34 94 35 34 36 93 37 35 38 36 39 37 40 87 41 38 42 92 43
REMARK SMILES IDX 86 44 88 45 39 46 91 47 85 48 84 49 40 51 72 52 52 53 71 54
REMARK SMILES IDX 53 55 56 56 70 57 89 58 54 59 55 60 69 62 90 63 57 64 41 65
REMARK SMILES IDX 42 66 50 67 43 68 45 69 51 70 44 71 46 72 47 73 48 74 49 75
REMARK SMILES IDX 73 76 74 77 82 78 75 79 77 80 83 81 76 82 78 83 79 84 80 85
REMARK SMILES IDX 81 86 58 87 59 88 67 89 60 90 62 91 68 92 61 93 63 94 64 95
REMARK SMILES IDX 65 96 66 97
REMARK H PARENT 88 50 56 61
REMARK Flexibility Score: inf
ROOT
ATOM      1  C   UNL A   1      34.724  20.191  24.864  1.00  0.00     0.275 C 
ENDROOT
BRANCH   1   2
ATOM      2  O   UNL A   1      34.361  21.444  24.304  1.00  0.00    -0.459 OA
BRANCH   2   3
ATOM      3  C   UNL A   1      33.018  21.898  24.392  1.00  0.00     0.338 C 
ATOM      4  O   UNL A   1      32.058  21.087  24.202  1.00  0.00    -0.246 OA
BRANCH   3   5
ATOM      5  C   UNL A   1      32.729  23.355  24.713  1.00  0.00     0.087 C 
ATOM      6  C   UNL A   1      31.566  27.185  25.911  1.00  0.00    -0.004 A 
ATOM      7  C   UNL A   1      30.964  28.038  25.005  1.00  0.00     0.032 A 
ATOM      8  C   UNL A   1      31.890  25.913  25.506  1.00  0.00     0.131 A 
ATOM      9  C   UNL A   1      30.686  27.628  23.728  1.00  0.00     0.108 A 
ATOM     10  C   UNL A   1      31.642  25.470  24.219  1.00  0.00     0.019 A 
ATOM     11  O   UNL A   1      32.384  25.043  26.446  1.00  0.00    -0.475 OA
ATOM     12  C   UNL A   1      31.030  26.351  23.335  1.00  0.00     0.036 A 
ATOM     13  C   UNL A   1      31.985  24.095  23.898  1.00  0.00     0.027 C 
ATOM     14  C   UNL A   1      33.284  23.999  25.977  1.00  0.00     0.316 C 
BRANCH   6  15
ATOM     15  C   UNL A   1      31.866  27.646  27.329  1.00  0.00     0.039 C 
BRANCH  15  16
ATOM     16  C   UNL A   1      32.551  29.002  27.286  1.00  0.00     0.005 C 
BRANCH  16  17
ATOM     17  C   UNL A   1      33.944  28.848  26.700  1.00  0.00    -0.003 C 
ATOM     18  C   UNL A   1      34.981  29.177  27.763  1.00  0.00     0.004 C 
ENDBRANCH  16  17
ENDBRANCH  15  16
ENDBRANCH   6  15
BRANCH   9  19
ATOM     19  S   UNL A   1      29.875  28.752  22.565  1.00  0.00     0.310 S 
ATOM     20  F   UNL A   1      29.784  29.908  23.647  1.00  0.00    -0.094 F 
ATOM     21  F   UNL A   1      28.479  28.244  23.088  1.00  0.00    -0.094 F 
ATOM     22  F   UNL A   1      29.179  29.718  21.564  1.00  0.00    -0.094 F 
ATOM     23  F   UNL A   1      31.278  29.349  22.153  1.00  0.00    -0.094 F 
ATOM     24  F   UNL A   1      30.591  27.859  23.654  1.00  0.00    -0.094 F 
ENDBRANCH   9  19
BRANCH  14  25
ATOM     25  C   UNL A   1      33.418  22.937  27.056  1.00  0.00     0.430 C 
ATOM     26  F   UNL A   1      32.605  21.921  26.782  1.00  0.00    -0.167 F 
ATOM     27  F   UNL A   1      34.675  22.503  27.097  1.00  0.00    -0.167 F 
ATOM     28  F   UNL A   1      33.092  23.461  28.235  1.00  0.00    -0.167 F 
ENDBRANCH  14  25
ENDBRANCH   3   5
ENDBRANCH   2   3
ENDBRANCH   1   2
BRANCH   1  29
ATOM     29  C   UNL A   1      36.230  20.012  24.773  1.00  0.00     0.275 C 
BRANCH  29  30
ATOM     30  O   UNL A   1      36.871  20.972  25.599  1.00  0.00    -0.458 OA
BRANCH  30  31
ATOM     31  C   UNL A   1      38.282  20.940  25.763  1.00  0.00     0.338 C 
ATOM     32  O   UNL A   1      38.916  19.853  25.586  1.00  0.00    -0.246 OA
BRANCH  31  33
ATOM     33  C   UNL A   1      39.032  22.204  26.147  1.00  0.00     0.060 A 
ATOM     34  C   UNL A   1      40.206  22.102  26.875  1.00  0.00     0.016 A 
ATOM     35  C   UNL A   1      38.550  23.385  25.778  1.00  0.00     0.016 A 
ATOM     36  C   UNL A   1      40.652  23.330  27.418  1.00  0.00     0.010 A 
ATOM     37  C   UNL A   1      39.121  24.548  26.238  1.00  0.00     0.010 A 
ATOM     38  C   UNL A   1      40.248  24.520  27.011  1.00  0.00    -0.014 A 
BRANCH  38  39
ATOM     39  C   UNL A   1      40.997  25.789  27.383  1.00  0.00     0.031 A 
ATOM     40  C   UNL A   1      42.342  25.887  27.022  1.00  0.00     0.074 A 
ATOM     41  C   UNL A   1      40.303  26.778  28.060  1.00  0.00     0.049 A 
ATOM     42  N   UNL A   1      43.165  26.918  27.223  1.00  0.00    -0.248 NA
ATOM     43  C   UNL A   1      43.090  24.825  26.333  1.00  0.00     0.031 C 
ATOM     44  C   UNL A   1      38.944  26.690  28.419  1.00  0.00     0.029 A 
ATOM     45  N   UNL A   1      40.778  27.992  28.501  1.00  0.00    -0.354 N 
ATOM     46  C   UNL A   1      44.372  26.648  26.722  1.00  0.00     0.074 A 
ATOM     47  C   UNL A   1      44.343  25.296  26.148  1.00  0.00     0.031 C 
ATOM     48  C   UNL A   1      38.608  27.831  29.078  1.00  0.00     0.029 A 
ATOM     49  C   UNL A   1      39.750  28.650  29.141  1.00  0.00     0.049 A 
ATOM     50  H   UNL A   1      41.694  28.332  28.381  1.00  0.00     0.167 HD
ATOM     51  C   UNL A   1      45.495  27.477  26.719  1.00  0.00     0.034 A 
ATOM     52  C   UNL A   1      39.788  29.893  29.752  1.00  0.00     0.034 A 
ATOM     53  C   UNL A   1      45.520  28.738  27.292  1.00  0.00     0.049 A 
ATOM     54  C   UNL A   1      40.928  30.698  29.801  1.00  0.00     0.074 A 
ATOM     55  C   UNL A   1      46.642  29.590  27.292  1.00  0.00     0.029 A 
ATOM     56  N   UNL A   1      44.500  29.385  27.953  1.00  0.00    -0.354 N 
ATOM     57  N   UNL A   1      42.124  30.445  29.265  1.00  0.00    -0.248 NA
ATOM     58  C   UNL A   1      40.989  32.003  30.474  1.00  0.00     0.031 C 
ATOM     59  C   UNL A   1      46.306  30.731  27.951  1.00  0.00     0.029 A 
ATOM     60  C   UNL A   1      44.969  30.610  28.375  1.00  0.00     0.049 A 
ATOM     61  H   UNL A   1      43.593  29.033  28.099  1.00  0.00     0.167 HD
ATOM     62  C   UNL A   1      42.959  31.459  29.502  1.00  0.00     0.074 A 
ATOM     63  C   UNL A   1      42.242  32.473  30.289  1.00  0.00     0.031 C 
ATOM     64  C   UNL A   1      44.287  31.581  29.091  1.00  0.00     0.034 A 
BRANCH  51  65
ATOM     65  C   UNL A   1      46.761  26.967  26.050  1.00  0.00     0.023 A 
ATOM     66  C   UNL A   1      47.587  26.113  26.762  1.00  0.00     0.012 A 
ATOM     67  C   UNL A   1      47.023  27.283  24.787  1.00  0.00     0.148 A 
ATOM     68  C   UNL A   1      48.835  25.871  26.140  1.00  0.00     0.002 A 
ATOM     69  C   UNL A   1      48.203  26.897  24.198  1.00  0.00     0.091 A 
ATOM     70  F   UNL A   1      46.133  27.980  24.085  1.00  0.00    -0.205 F 
ATOM     71  C   UNL A   1      49.093  26.103  24.865  1.00  0.00     0.022 A 
BRANCH  69  72
ATOM     72  S   UNL A   1      48.583  27.447  22.517  1.00  0.00     0.127 S 
ATOM     73  O   UNL A   1      49.889  28.245  22.525  1.00  0.00    -0.237 OA
ATOM     74  O   UNL A   1      48.735  26.229  21.603  1.00  0.00    -0.237 OA
ATOM     75  O   UNL A   1      47.314  28.437  21.940  1.00  0.00    -0.744 OA
ENDBRANCH  69  72
ENDBRANCH  51  65
BRANCH  52  76
ATOM     76  C   UNL A   1      38.517  30.409  30.407  1.00  0.00     0.023 A 
ATOM     77  C   UNL A   1      38.105  29.867  31.613  1.00  0.00     0.012 A 
ATOM     78  C   UNL A   1      37.788  31.324  29.777  1.00  0.00     0.148 A 
ATOM     79  C   UNL A   1      36.756  30.145  31.936  1.00  0.00     0.002 A 
ATOM     80  C   UNL A   1      36.531  31.645  30.227  1.00  0.00     0.091 A 
ATOM     81  F   UNL A   1      38.279  31.932  28.702  1.00  0.00    -0.205 F 
ATOM     82  C   UNL A   1      36.035  31.103  31.380  1.00  0.00     0.022 A 
BRANCH  80  83
ATOM     83  S   UNL A   1      35.514  32.804  29.279  1.00  0.00     0.127 S 
ATOM     84  O   UNL A   1      34.068  32.741  29.776  1.00  0.00    -0.237 OA
ATOM     85  O   UNL A   1      36.055  34.224  29.460  1.00  0.00    -0.237 OA
ATOM     86  O   UNL A   1      35.565  32.383  27.622  1.00  0.00    -0.744 OA
ENDBRANCH  80  83
ENDBRANCH  52  76
BRANCH  64  87
ATOM     87  C   UNL A   1      45.031  32.856  29.451  1.00  0.00     0.023 A 
ATOM     88  C   UNL A   1      45.745  32.914  30.636  1.00  0.00     0.012 A 
ATOM     89  C   UNL A   1      44.985  33.894  28.624  1.00  0.00     0.148 A 
ATOM     90  C   UNL A   1      46.145  34.222  31.002  1.00  0.00     0.002 A 
ATOM     91  C   UNL A   1      45.518  35.106  28.990  1.00  0.00     0.091 A 
ATOM     92  F   UNL A   1      44.420  33.758  27.427  1.00  0.00    -0.205 F 
ATOM     93  C   UNL A   1      46.185  35.250  30.175  1.00  0.00     0.022 A 
BRANCH  91  94
ATOM     94  S   UNL A   1      45.332  36.532  27.892  1.00  0.00     0.127 S 
ATOM     95  O   UNL A   1      46.212  36.341  26.654  1.00  0.00    -0.237 OA
ATOM     96  O   UNL A   1      43.869  36.658  27.463  1.00  0.00    -0.237 OA
ATOM     97  O   UNL A   1      45.809  37.953  28.716  1.00  0.00    -0.744 OA
ENDBRANCH  91  94
ENDBRANCH  64  87
ENDBRANCH  38  39
ENDBRANCH  31  33
ENDBRANCH  30  31
ENDBRANCH  29  30
ENDBRANCH   1  29
TORSDOF 19
ENDMDL
MODEL 2
REMARK VINA RESULT:     -12.2      1.549      2.504
REMARK SMILES CCCCc1cc(S(F)(F)(F)(F)F)cc2c1O[C@@H](C(F)(F)F)C(C(=O)OCCOC(=O)c1ccc(-c3c4nc(c(-c5cccc(S(=O)(=O)[O-])c5F)c5ccc([nH]5)c(-c5cccc(S(=O)(=O)[O-])c5F)c5nc(c(-c6cccc(S(=O)(=O)[O-])c6F)c6ccc3[nH]6)C=C5)C=C4)cc1)=C2
REMARK SMILES IDX 27 1 26 2 24 3 25 4 23 5 5 6 6 7 16 8 7 9 15 10 17 11 14 12
REMARK SMILES IDX 95 13 18 14 4 15 3 16 2 17 1 18 8 19 9 20 10 21 11 22 12 23
REMARK SMILES IDX 13 24 19 25 20 26 21 27 22 28 28 29 29 30 30 31 31 32 32 33
REMARK SMILES IDX 33 34 94 35 34 36 93 37 35 38 36 39 37 40 87 41 38 42 92 43
REMARK SMILES IDX 86 44 88 45 39 46 91 47 85 48 84 49 40 51 72 52 52 53 71 54
REMARK SMILES IDX 53 55 56 56 70 57 89 58 54 59 55 60 69 62 90 63 57 64 41 65
REMARK SMILES IDX 42 66 50 67 43 68 45 69 51 70 44 71 46 72 47 73 48 74 49 75
REMARK SMILES IDX 73 76 74 77 82 78 75 79 77 80 83 81 76 82 78 83 79 84 80 85
REMARK SMILES IDX 81 86 58 87 59 88 67 89 60 90 62 91 68 92 61 93 63 94 64 95
REMARK SMILES IDX 65 96 66 97
REMARK H PARENT 88 50 56 61
REMARK Flexibility Score: inf
ROOT
ATOM      1  C   UNL A   1      35.112  20.576  24.975  1.00  0.00     0.275 C 
ENDROOT
BRANCH   1   2
ATOM      2  O   UNL A   1      34.856  21.932  25.309  1.00  0.00    -0.459 OA
BRANCH   2   3
ATOM      3  C   UNL A   1      33.617  22.295  25.900  1.00  0.00     0.338 C 
ATOM      4  O   UNL A   1      33.068  21.526  26.750  1.00  0.00    -0.246 OA
BRANCH   3   5
ATOM      5  C   UNL A   1      32.948  23.605  25.517  1.00  0.00     0.087 C 
ATOM      6  C   UNL A   1      31.430  27.215  24.063  1.00  0.00    -0.004 A 
ATOM      7  C   UNL A   1      31.618  28.382  24.781  1.00  0.00     0.032 A 
ATOM      8  C   UNL A   1      31.985  26.051  24.537  1.00  0.00     0.131 A 
ATOM      9  C   UNL A   1      32.348  28.386  25.940  1.00  0.00     0.108 A 
ATOM     10  C   UNL A   1      32.712  26.014  25.714  1.00  0.00     0.019 A 
ATOM     11  O   UNL A   1      31.886  24.926  23.758  1.00  0.00    -0.475 OA
ATOM     12  C   UNL A   1      32.887  27.205  26.408  1.00  0.00     0.036 A 
ATOM     13  C   UNL A   1      33.292  24.742  26.110  1.00  0.00     0.027 C 
ATOM     14  C   UNL A   1      31.868  23.642  24.444  1.00  0.00     0.316 C 
BRANCH   6  15
ATOM     15  C   UNL A   1      30.623  27.220  22.775  1.00  0.00     0.039 C 
BRANCH  15  16
ATOM     16  C   UNL A   1      29.546  28.290  22.854  1.00  0.00     0.005 C 
BRANCH  16  17
ATOM     17  C   UNL A   1      28.297  27.704  23.491  1.00  0.00    -0.003 C 
ATOM     18  C   UNL A   1      27.101  28.582  23.161  1.00  0.00     0.004 C 
ENDBRANCH  16  17
ENDBRANCH  15  16
ENDBRANCH   6  15
BRANCH   9  19
ATOM     19  S   UNL A   1      32.603  29.928  26.853  1.00  0.00     0.310 S 
ATOM     20  F   UNL A   1      31.979  30.798  25.682  1.00  0.00    -0.094 F 
ATOM     21  F   UNL A   1      33.997  30.089  26.139  1.00  0.00    -0.094 F 
ATOM     22  F   UNL A   1      32.820  31.253  27.638  1.00  0.00    -0.094 F 
ATOM     23  F   UNL A   1      31.144  29.822  27.452  1.00  0.00    -0.094 F 
ATOM     24  F   UNL A   1      32.321  28.642  25.978  1.00  0.00    -0.094 F 
ENDBRANCH   9  19
BRANCH  14  25
ATOM     25  C   UNL A   1      32.133  22.536  23.435  1.00  0.00     0.430 C 
ATOM     26  F   UNL A   1      31.253  22.622  22.442  1.00  0.00    -0.167 F 
ATOM     27  F   UNL A   1      33.364  22.664  22.950  1.00  0.00    -0.167 F 
ATOM     28  F   UNL A   1      32.013  21.354  24.033  1.00  0.00    -0.167 F 
ENDBRANCH  14  25
ENDBRANCH   3   5
ENDBRANCH   2   3
ENDBRANCH   1   2
BRANCH   1  29
ATOM     29  C   UNL A   1      36.604  20.304  25.067  1.00  0.00     0.275 C 
BRANCH  29  30
ATOM     30  O   UNL A   1      37.209  21.267  25.916  1.00  0.00    -0.458 OA
BRANCH  30  31
ATOM     31  C   UNL A   1      38.619  21.280  26.083  1.00  0.00     0.338 C 
ATOM     32  O   UNL A   1      39.288  20.212  25.919  1.00  0.00    -0.246 OA
BRANCH  31  33
ATOM     33  C   UNL A   1      39.329  22.572  26.454  1.00  0.00     0.060 A 
ATOM     34  C   UNL A   1      38.796  23.782  26.042  1.00  0.00     0.016 A 
ATOM     35  C   UNL A   1      40.447  22.519  27.169  1.00  0.00     0.016 A 
ATOM     36  C   UNL A   1      39.680  24.877  26.190  1.00  0.00     0.010 A 
ATOM     37  C   UNL A   1      41.191  23.654  27.389  1.00  0.00     0.010 A 
ATOM     38  C   UNL A   1      40.754  24.875  26.958  1.00  0.00    -0.014 A 
BRANCH  38  39
ATOM     39  C   UNL A   1      41.465  26.162  27.343  1.00  0.00     0.031 A 
ATOM     40  C   UNL A   1      42.796  26.319  26.951  1.00  0.00     0.074 A 
ATOM     41  C   UNL A   1      40.754  27.106  28.064  1.00  0.00     0.049 A 
ATOM     42  N   UNL A   1      43.586  27.374  27.158  1.00  0.00    -0.248 NA
ATOM     43  C   UNL A   1      43.564  25.303  26.216  1.00  0.00     0.031 C 
ATOM     44  C   UNL A   1      39.409  26.959  28.455  1.00  0.00     0.029 A 
ATOM     45  N   UNL A   1      41.195  28.326  28.524  1.00  0.00    -0.354 N 
ATOM     46  C   UNL A   1      44.789  27.162  26.620  1.00  0.00     0.074 A 
ATOM     47  C   UNL A   1      44.794  25.824  26.011  1.00  0.00     0.031 C 
ATOM     48  C   UNL A   1      39.049  28.069  29.151  1.00  0.00     0.029 A 
ATOM     49  C   UNL A   1      40.162  28.929  29.206  1.00  0.00     0.049 A 
ATOM     50  H   UNL A   1      42.095  28.703  28.390  1.00  0.00     0.167 HD
ATOM     51  C   UNL A   1      45.880  28.032  26.610  1.00  0.00     0.034 A 
ATOM     52  C   UNL A   1      40.170  30.157  29.849  1.00  0.00     0.034 A 
ATOM     53  C   UNL A   1      45.874  29.278  27.215  1.00  0.00     0.049 A 
ATOM     54  C   UNL A   1      41.280  31.003  29.889  1.00  0.00     0.074 A 
ATOM     55  C   UNL A   1      46.963  30.171  27.208  1.00  0.00     0.029 A 
ATOM     56  N   UNL A   1      44.849  29.870  27.918  1.00  0.00    -0.354 N 
ATOM     57  N   UNL A   1      42.470  30.807  29.316  1.00  0.00    -0.248 NA
ATOM     58  C   UNL A   1      41.312  32.291  30.594  1.00  0.00     0.031 C 
ATOM     59  C   UNL A   1      46.603  31.282  27.905  1.00  0.00     0.029 A 
ATOM     60  C   UNL A   1      45.283  31.101  28.359  1.00  0.00     0.049 A 
ATOM     61  H   UNL A   1      43.959  29.481  28.078  1.00  0.00     0.167 HD
ATOM     62  C   UNL A   1      43.273  31.846  29.559  1.00  0.00     0.074 A 
ATOM     63  C   UNL A   1      42.541  32.812  30.390  1.00  0.00     0.031 C 
ATOM     64  C   UNL A   1      44.585  32.028  29.118  1.00  0.00     0.034 A 
BRANCH  51  65
ATOM     65  C   UNL A   1      47.146  27.587  25.895  1.00  0.00     0.023 A 
ATOM     66  C   UNL A   1      48.136  26.960  26.635  1.00  0.00     0.012 A 
ATOM     67  C   UNL A   1      47.259  27.737  24.581  1.00  0.00     0.148 A 
ATOM     68  C   UNL A   1      49.351  26.782  25.931  1.00  0.00     0.002 A 
ATOM     69  C   UNL A   1      48.429  27.415  23.937  1.00  0.00     0.091 A 
ATOM     70  F   UNL A   1      46.229  28.204  23.881  1.00  0.00    -0.205 F 
ATOM     71  C   UNL A   1      49.471  26.848  24.617  1.00  0.00     0.022 A 
BRANCH  69  72
ATOM     72  S   UNL A   1      48.594  27.746  22.166  1.00  0.00     0.127 S 
ATOM     73  O   UNL A   1      47.476  28.690  21.718  1.00  0.00    -0.237 OA
ATOM     74  O   UNL A   1      49.952  28.397  21.892  1.00  0.00    -0.237 OA
ATOM     75  O   UNL A   1      48.481  26.276  21.299  1.00  0.00    -0.744 OA
ENDBRANCH  69  72
ENDBRANCH  51  65
BRANCH  52  76
ATOM     76  C   UNL A   1      38.898  30.608  30.548  1.00  0.00     0.023 A 
ATOM     77  C   UNL A   1      38.615  30.132  31.817  1.00  0.00     0.012 A 
ATOM     78  C   UNL A   1      38.049  31.400  29.903  1.00  0.00     0.148 A 
ATOM     79  C   UNL A   1      37.268  30.313  32.210  1.00  0.00     0.002 A 
ATOM     80  C   UNL A   1      36.797  31.643  30.413  1.00  0.00     0.091 A 
ATOM     81  F   UNL A   1      38.413  31.960  28.754  1.00  0.00    -0.205 F 
ATOM     82  C   UNL A   1      36.427  31.154  31.635  1.00  0.00     0.022 A 
BRANCH  80  83
ATOM     83  S   UNL A   1      35.619  32.625  29.452  1.00  0.00     0.127 S 
ATOM     84  O   UNL A   1      36.144  34.056  29.308  1.00  0.00    -0.237 OA
ATOM     85  O   UNL A   1      35.447  32.003  28.065  1.00  0.00    -0.237 OA
ATOM     86  O   UNL A   1      34.109  32.652  30.255  1.00  0.00    -0.744 OA
ENDBRANCH  80  83
ENDBRANCH  52  76
BRANCH  64  87
ATOM     87  C   UNL A   1      45.291  33.320  29.492  1.00  0.00     0.023 A 
ATOM     88  C   UNL A   1      46.047  33.370  30.651  1.00  0.00     0.012 A 
ATOM     89  C   UNL A   1      45.172  34.381  28.701  1.00  0.00     0.148 A 
ATOM     90  C   UNL A   1      46.409  34.681  31.045  1.00  0.00     0.002 A 
ATOM     91  C   UNL A   1      45.670  35.601  29.088  1.00  0.00     0.091 A 
ATOM     92  F   UNL A   1      44.567  34.260  27.523  1.00  0.00    -0.205 F 
ATOM     93  C   UNL A   1      46.376  35.736  30.251  1.00  0.00     0.022 A 
BRANCH  91  94
ATOM     94  S   UNL A   1      45.385  37.053  28.045  1.00  0.00     0.127 S 
ATOM     95  O   UNL A   1      43.880  37.268  27.869  1.00  0.00    -0.237 OA
ATOM     96  O   UNL A   1      46.004  38.286  28.706  1.00  0.00    -0.237 OA
ATOM     97  O   UNL A   1      46.107  36.804  26.514  1.00  0.00    -0.744 OA
ENDBRANCH  91  94
ENDBRANCH  64  87
ENDBRANCH  38  39
ENDBRANCH  31  33
ENDBRANCH  30  31
ENDBRANCH  29  30
ENDBRANCH   1  29
TORSDOF 19
ENDMDL
MODEL 3
REMARK VINA RESULT:     -12.1      5.051      8.325
REMARK SMILES CCCCc1cc(S(F)(F)(F)(F)F)cc2c1O[C@@H](C(F)(F)F)C(C(=O)OCCOC(=O)c1ccc(-c3c4nc(c(-c5cccc(S(=O)(=O)[O-])c5F)c5ccc([nH]5)c(-c5cccc(S(=O)(=O)[O-])c5F)c5nc(c(-c6cccc(S(=O)(=O)[O-])c6F)c6ccc3[nH]6)C=C5)C=C4)cc1)=C2
REMARK SMILES IDX 27 1 26 2 24 3 25 4 23 5 5 6 6 7 16 8 7 9 15 10 17 11 14 12
REMARK SMILES IDX 95 13 18 14 4 15 3 16 2 17 1 18 8 19 9 20 10 21 11 22 12 23
REMARK SMILES IDX 13 24 19 25 20 26 21 27 22 28 28 29 29 30 30 31 31 32 32 33
REMARK SMILES IDX 33 34 94 35 34 36 93 37 35 38 36 39 37 40 87 41 38 42 92 43
REMARK SMILES IDX 86 44 88 45 39 46 91 47 85 48 84 49 40 51 72 52 52 53 71 54
REMARK SMILES IDX 53 55 56 56 70 57 89 58 54 59 55 60 69 62 90 63 57 64 41 65
REMARK SMILES IDX 42 66 50 67 43 68 45 69 51 70 44 71 46 72 47 73 48 74 49 75
REMARK SMILES IDX 73 76 74 77 82 78 75 79 77 80 83 81 76 82 78 83 79 84 80 85
REMARK SMILES IDX 81 86 58 87 59 88 67 89 60 90 62 91 68 92 61 93 63 94 64 95
REMARK SMILES IDX 65 96 66 97
REMARK H PARENT 88 50 56 61
REMARK Flexibility Score: inf
ROOT
ATOM      1  C   UNL A   1      31.826  30.038  25.679  1.00  0.00     0.275 C 
ENDROOT
BRANCH   1   2
ATOM      2  O   UNL A   1      32.517  28.810  25.502  1.00  0.00    -0.459 OA
BRANCH   2   3
ATOM      3  C   UNL A   1      32.593  28.218  24.214  1.00  0.00     0.338 C 
ATOM      4  O   UNL A   1      32.444  28.935  23.174  1.00  0.00    -0.246 OA
BRANCH   3   5
ATOM      5  C   UNL A   1      32.852  26.727  24.078  1.00  0.00     0.087 C 
ATOM      6  C   UNL A   1      33.297  22.573  24.139  1.00  0.00    -0.004 A 
ATOM      7  C   UNL A   1      34.546  22.017  24.342  1.00  0.00     0.032 A 
ATOM      8  C   UNL A   1      33.170  23.941  24.176  1.00  0.00     0.131 A 
ATOM      9  C   UNL A   1      35.639  22.806  24.583  1.00  0.00     0.108 A 
ATOM     10  C   UNL A   1      34.254  24.771  24.398  1.00  0.00     0.019 A 
ATOM     11  O   UNL A   1      31.908  24.473  24.086  1.00  0.00    -0.475 OA
ATOM     12  C   UNL A   1      35.495  24.179  24.604  1.00  0.00     0.036 A 
ATOM     13  C   UNL A   1      34.010  26.202  24.459  1.00  0.00     0.027 C 
ATOM     14  C   UNL A   1      31.787  25.802  23.502  1.00  0.00     0.316 C 
BRANCH   6  15
ATOM     15  C   UNL A   1      32.087  21.690  23.879  1.00  0.00     0.039 C 
BRANCH  15  16
ATOM     16  C   UNL A   1      32.268  20.360  24.593  1.00  0.00     0.005 C 
BRANCH  16  17
ATOM     17  C   UNL A   1      32.482  19.260  23.567  1.00  0.00    -0.003 C 
ATOM     18  C   UNL A   1      33.601  18.342  24.035  1.00  0.00     0.004 C 
ENDBRANCH  16  17
ENDBRANCH  15  16
ENDBRANCH   6  15
BRANCH   9  19
ATOM     19  S   UNL A   1      37.261  22.057  24.869  1.00  0.00     0.310 S 
ATOM     20  F   UNL A   1      36.626  20.623  25.111  1.00  0.00    -0.094 F 
ATOM     21  F   UNL A   1      37.082  22.322  26.411  1.00  0.00    -0.094 F 
ATOM     22  F   UNL A   1      38.656  21.413  25.114  1.00  0.00    -0.094 F 
ATOM     23  F   UNL A   1      37.362  21.673  23.340  1.00  0.00    -0.094 F 
ATOM     24  F   UNL A   1      35.800  22.605  24.621  1.00  0.00    -0.094 F 
ENDBRANCH   9  19
BRANCH  14  25
ATOM     25  C   UNL A   1      30.413  26.364  23.826  1.00  0.00     0.430 C 
ATOM     26  F   UNL A   1      29.522  25.377  23.843  1.00  0.00    -0.167 F 
ATOM     27  F   UNL A   1      30.445  26.954  25.018  1.00  0.00    -0.167 F 
ATOM     28  F   UNL A   1      30.070  27.255  22.900  1.00  0.00    -0.167 F 
ENDBRANCH  14  25
ENDBRANCH   3   5
ENDBRANCH   2   3
ENDBRANCH   1   2
BRANCH   1  29
ATOM     29  C   UNL A   1      32.328  30.726  26.938  1.00  0.00     0.275 C 
BRANCH  29  30
ATOM     30  O   UNL A   1      33.598  30.199  27.291  1.00  0.00    -0.458 OA
BRANCH  30  31
ATOM     31  C   UNL A   1      34.660  31.077  27.636  1.00  0.00     0.338 C 
ATOM     32  O   UNL A   1      34.525  32.330  27.475  1.00  0.00    -0.246 OA
BRANCH  31  33
ATOM     33  C   UNL A   1      35.956  30.518  28.201  1.00  0.00     0.060 A 
ATOM     34  C   UNL A   1      37.161  30.897  27.635  1.00  0.00     0.016 A 
ATOM     35  C   UNL A   1      35.909  29.677  29.228  1.00  0.00     0.016 A 
ATOM     36  C   UNL A   1      38.260  30.103  28.042  1.00  0.00     0.010 A 
ATOM     37  C   UNL A   1      37.048  29.040  29.660  1.00  0.00     0.010 A 
ATOM     38  C   UNL A   1      38.265  29.321  29.106  1.00  0.00    -0.014 A 
BRANCH  38  39
ATOM     39  C   UNL A   1      39.556  28.765  29.684  1.00  0.00     0.031 A 
ATOM     40  C   UNL A   1      40.150  27.679  29.038  1.00  0.00     0.074 A 
ATOM     41  C   UNL A   1      40.070  29.364  30.821  1.00  0.00     0.049 A 
ATOM     42  N   UNL A   1      41.290  27.065  29.360  1.00  0.00    -0.248 NA
ATOM     43  C   UNL A   1      39.588  27.018  27.851  1.00  0.00     0.031 C 
ATOM     44  C   UNL A   1      39.482  30.465  31.473  1.00  0.00     0.029 A 
ATOM     45  N   UNL A   1      41.209  29.024  31.515  1.00  0.00    -0.354 N 
ATOM     46  C   UNL A   1      41.544  26.080  28.496  1.00  0.00     0.074 A 
ATOM     47  C   UNL A   1      40.449  26.032  27.517  1.00  0.00     0.031 C 
ATOM     48  C   UNL A   1      40.248  30.776  32.552  1.00  0.00     0.029 A 
ATOM     49  C   UNL A   1      41.329  29.875  32.592  1.00  0.00     0.049 A 
ATOM     50  H   UNL A   1      41.830  28.296  31.284  1.00  0.00     0.167 HD
ATOM     51  C   UNL A   1      42.644  25.222  28.485  1.00  0.00     0.034 A 
ATOM     52  C   UNL A   1      42.316  29.880  33.564  1.00  0.00     0.034 A 
ATOM     53  C   UNL A   1      43.654  25.256  29.433  1.00  0.00     0.049 A 
ATOM     54  C   UNL A   1      43.387  28.984  33.587  1.00  0.00     0.074 A 
ATOM     55  C   UNL A   1      44.775  24.403  29.433  1.00  0.00     0.029 A 
ATOM     56  N   UNL A   1      43.761  26.091  30.523  1.00  0.00    -0.354 N 
ATOM     57  N   UNL A   1      43.660  28.025  32.700  1.00  0.00    -0.248 NA
ATOM     58  C   UNL A   1      44.420  28.959  34.630  1.00  0.00     0.031 C 
ATOM     59  C   UNL A   1      45.542  24.713  30.512  1.00  0.00     0.029 A 
ATOM     60  C   UNL A   1      44.912  25.765  31.205  1.00  0.00     0.049 A 
ATOM     61  H   UNL A   1      43.124  26.799  30.772  1.00  0.00     0.167 HD
ATOM     62  C   UNL A   1      44.779  27.385  33.046  1.00  0.00     0.074 A 
ATOM     63  C   UNL A   1      45.281  27.972  34.297  1.00  0.00     0.031 C 
ATOM     64  C   UNL A   1      45.404  26.337  32.368  1.00  0.00     0.034 A 
BRANCH  51  65
ATOM     65  C   UNL A   1      42.740  24.193  27.371  1.00  0.00     0.023 A 
ATOM     66  C   UNL A   1      43.322  24.570  26.172  1.00  0.00     0.012 A 
ATOM     67  C   UNL A   1      42.335  22.945  27.577  1.00  0.00     0.148 A 
ATOM     68  C   UNL A   1      43.170  23.618  25.135  1.00  0.00     0.002 A 
ATOM     69  C   UNL A   1      42.340  22.028  26.553  1.00  0.00     0.091 A 
ATOM     70  F   UNL A   1      41.921  22.579  28.787  1.00  0.00    -0.205 F 
ATOM     71  C   UNL A   1      42.846  22.352  25.324  1.00  0.00     0.022 A 
BRANCH  69  72
ATOM     72  S   UNL A   1      41.668  20.372  26.834  1.00  0.00     0.127 S 
ATOM     73  O   UNL A   1      42.565  19.619  27.820  1.00  0.00    -0.237 OA
ATOM     74  O   UNL A   1      40.256  20.485  27.413  1.00  0.00    -0.237 OA
ATOM     75  O   UNL A   1      41.610  19.521  25.352  1.00  0.00    -0.744 OA
ENDBRANCH  69  72
ENDBRANCH  51  65
BRANCH  52  76
ATOM     76  C   UNL A   1      42.228  30.921  34.669  1.00  0.00     0.023 A 
ATOM     77  C   UNL A   1      41.544  30.619  35.834  1.00  0.00     0.012 A 
ATOM     78  C   UNL A   1      42.751  32.125  34.469  1.00  0.00     0.148 A 
ATOM     79  C   UNL A   1      41.213  31.752  36.615  1.00  0.00     0.002 A 
ATOM     80  C   UNL A   1      42.497  33.152  35.346  1.00  0.00     0.091 A 
ATOM     81  F   UNL A   1      43.528  32.339  33.411  1.00  0.00    -0.205 F 
ATOM     82  C   UNL A   1      41.778  32.939  36.489  1.00  0.00     0.022 A 
BRANCH  80  83
ATOM     83  S   UNL A   1      43.123  34.810  34.982  1.00  0.00     0.127 S 
ATOM     84  O   UNL A   1      42.755  35.192  33.546  1.00  0.00    -0.237 OA
ATOM     85  O   UNL A   1      42.499  35.816  35.953  1.00  0.00    -0.237 OA
ATOM     86  O   UNL A   1      44.824  34.829  35.158  1.00  0.00    -0.744 OA
ENDBRANCH  80  83
ENDBRANCH  52  76
BRANCH  64  87
ATOM     87  C   UNL A   1      46.701  25.790  32.939  1.00  0.00     0.023 A 
ATOM     88  C   UNL A   1      47.907  26.326  32.518  1.00  0.00     0.012 A 
ATOM     89  C   UNL A   1      46.659  24.808  33.831  1.00  0.00     0.148 A 
ATOM     90  C   UNL A   1      49.037  25.557  32.886  1.00  0.00     0.002 A 
ATOM     91  C   UNL A   1      47.813  24.192  34.249  1.00  0.00     0.091 A 
ATOM     92  F   UNL A   1      45.488  24.418  34.326  1.00  0.00    -0.205 F 
ATOM     93  C   UNL A   1      49.037  24.631  33.827  1.00  0.00     0.022 A 
BRANCH  91  94
ATOM     94  S   UNL A   1      47.713  22.776  35.373  1.00  0.00     0.127 S 
ATOM     95  O   UNL A   1      46.916  23.170  36.619  1.00  0.00    -0.237 OA
ATOM     96  O   UNL A   1      47.014  21.613  34.667  1.00  0.00    -0.237 OA
ATOM     97  O   UNL A   1      49.290  22.300  35.832  1.00  0.00    -0.744 OA
ENDBRANCH  91  94
ENDBRANCH  64  87
ENDBRANCH  38  39
ENDBRANCH  31  33
ENDBRANCH  30  31
ENDBRANCH  29  30
ENDBRANCH   1  29
TORSDOF 19
ENDMDL
