MODEL 1
REMARK VINA RESULT:     -12.7      0.000      0.000
REMARK SMILES CC[C@@H](Sc1nnc2ccc3ccccc3n12)C(=O)Nc1cccc(C(=O)OCCOC(=O)c2ccc(-c3c4nc(c(-c5cccc(S(=O)(=O)[O-])c5F)c5ccc([nH]5)c(-c5cccc(S(=O)(=O)[O-])c5F)c5nc(c(-c6cccc(S(=O)(=O)[O-])c6F)c6ccc3[nH]6)C=C5)C=C4)cc2)c1
REMARK SMILES IDX 29 1 28 2 26 3 27 4 25 5 21 6 22 7 97 8 23 9 24 10 20 11
REMARK SMILES IDX 18 12 19 13 3 15 2 16 1 17 4 18 5 19 6 20 17 21 7 22 8 23
REMARK SMILES IDX 16 24 9 25 11 26 15 27 10 28 12 29 14 30 13 31 30 32 31 33
REMARK SMILES IDX 32 34 33 35 34 36 35 37 96 38 36 39 95 40 37 41 38 42 39 43
REMARK SMILES IDX 89 44 40 45 94 46 88 47 90 48 41 49 93 50 87 51 86 52 42 54
REMARK SMILES IDX 74 55 54 56 73 57 55 58 58 59 72 60 91 61 56 62 57 63 71 65
REMARK SMILES IDX 92 66 59 67 43 68 44 69 52 70 45 71 47 72 53 73 46 74 48 75
REMARK SMILES IDX 49 76 50 77 51 78 75 79 76 80 84 81 77 82 79 83 85 84 78 85
REMARK SMILES IDX 80 86 81 87 82 88 83 89 60 90 61 91 69 92 62 93 64 94 70 95
REMARK SMILES IDX 63 96 65 97 66 98 67 99 68 100
REMARK H PARENT 20 14 90 53 58 64
REMARK Flexibility Score: inf
ROOT
ATOM      1  C   UNL A   1      32.500  33.319  27.332  1.00  0.00     0.275 C 
ENDROOT
BRANCH   1   2
ATOM      2  O   UNL A   1      32.032  31.956  27.503  1.00  0.00    -0.458 OA
BRANCH   2   3
ATOM      3  C   UNL A   1      31.642  31.328  26.364  1.00  0.00     0.338 C 
ATOM      4  O   UNL A   1      30.791  31.743  25.591  1.00  0.00    -0.246 OA
BRANCH   3   5
ATOM      5  C   UNL A   1      32.417  30.080  26.096  1.00  0.00     0.062 A 
ATOM      6  C   UNL A   1      33.499  28.379  24.777  1.00  0.00     0.042 A 
ATOM      7  C   UNL A   1      33.832  27.650  25.920  1.00  0.00     0.026 A 
ATOM      8  C   UNL A   1      32.843  29.626  24.857  1.00  0.00     0.041 A 
ATOM      9  C   UNL A   1      33.432  28.106  27.154  1.00  0.00     0.003 A 
ATOM     10  C   UNL A   1      32.724  29.300  27.209  1.00  0.00     0.016 A 
BRANCH   6  11
ATOM     11  N   UNL A   1      33.853  27.881  23.523  1.00  0.00    -0.325 N 
ATOM     12  C   UNL A   1      33.270  26.870  22.801  1.00  0.00     0.237 C 
ATOM     13  O   UNL A   1      33.900  26.444  21.824  1.00  0.00    -0.273 OA
ATOM     14  H   UNL A   1      34.628  28.313  23.099  1.00  0.00     0.169 HD
BRANCH  12  15
ATOM     15  C   UNL A   1      31.851  26.312  23.101  1.00  0.00     0.144 C 
BRANCH  15  16
ATOM     16  C   UNL A   1      30.742  27.115  22.401  1.00  0.00     0.021 C 
ATOM     17  C   UNL A   1      29.893  27.965  23.342  1.00  0.00     0.005 C 
ENDBRANCH  15  16
BRANCH  15  18
ATOM     18  S   UNL A   1      31.844  24.488  22.811  1.00  0.00    -0.072 SA
BRANCH  18  19
ATOM     19  C   UNL A   1      31.868  23.794  24.389  1.00  0.00     0.196 A 
ATOM     20  N   UNL A   1      30.773  23.625  25.099  1.00  0.00    -0.122 NA
ATOM     21  N   UNL A   1      32.982  23.453  25.139  1.00  0.00    -0.270 N 
ATOM     22  N   UNL A   1      31.136  23.196  26.349  1.00  0.00    -0.129 NA
ATOM     23  C   UNL A   1      32.448  23.100  26.377  1.00  0.00     0.161 A 
ATOM     24  C   UNL A   1      34.365  23.292  24.833  1.00  0.00     0.057 A 
ATOM     25  C   UNL A   1      33.312  22.682  27.418  1.00  0.00     0.050 A 
ATOM     26  C   UNL A   1      35.161  22.701  25.834  1.00  0.00    -0.001 A 
ATOM     27  C   UNL A   1      34.916  23.543  23.581  1.00  0.00     0.027 A 
ATOM     28  C   UNL A   1      34.616  22.490  27.179  1.00  0.00     0.014 A 
ATOM     29  C   UNL A   1      36.456  22.271  25.524  1.00  0.00     0.010 A 
ATOM     30  C   UNL A   1      36.180  23.047  23.261  1.00  0.00     0.002 A 
ATOM     31  C   UNL A   1      36.940  22.393  24.223  1.00  0.00     0.001 A 
ENDBRANCH  18  19
ENDBRANCH  15  18
ENDBRANCH  12  15
ENDBRANCH   6  11
ENDBRANCH   3   5
ENDBRANCH   2   3
ENDBRANCH   1   2
BRANCH   1  32
ATOM     32  C   UNL A   1      33.864  33.530  28.000  1.00  0.00     0.275 C 
BRANCH  32  33
ATOM     33  O   UNL A   1      34.469  32.249  28.226  1.00  0.00    -0.458 OA
BRANCH  33  34
ATOM     34  C   UNL A   1      35.090  32.096  29.417  1.00  0.00     0.338 C 
ATOM     35  O   UNL A   1      34.606  32.262  30.529  1.00  0.00    -0.246 OA
BRANCH  34  36
ATOM     36  C   UNL A   1      36.313  31.331  29.127  1.00  0.00     0.060 A 
ATOM     37  C   UNL A   1      36.286  29.958  28.846  1.00  0.00     0.016 A 
ATOM     38  C   UNL A   1      37.514  31.979  29.391  1.00  0.00     0.016 A 
ATOM     39  C   UNL A   1      37.455  29.203  28.967  1.00  0.00     0.010 A 
ATOM     40  C   UNL A   1      38.664  31.215  29.512  1.00  0.00     0.010 A 
ATOM     41  C   UNL A   1      38.635  29.820  29.384  1.00  0.00    -0.014 A 
BRANCH  41  42
ATOM     42  C   UNL A   1      39.915  29.093  29.427  1.00  0.00     0.031 A 
ATOM     43  C   UNL A   1      40.375  28.848  30.823  1.00  0.00     0.074 A 
ATOM     44  C   UNL A   1      40.563  28.507  28.382  1.00  0.00     0.049 A 
ATOM     45  N   UNL A   1      41.528  29.160  31.311  1.00  0.00    -0.248 NA
ATOM     46  C   UNL A   1      39.445  28.306  31.822  1.00  0.00     0.031 C 
ATOM     47  C   UNL A   1      40.240  28.538  26.953  1.00  0.00     0.029 A 
ATOM     48  N   UNL A   1      41.612  27.621  28.400  1.00  0.00    -0.354 N 
ATOM     49  C   UNL A   1      41.539  28.659  32.605  1.00  0.00     0.074 A 
ATOM     50  C   UNL A   1      40.212  28.205  32.904  1.00  0.00     0.031 C 
ATOM     51  C   UNL A   1      40.820  27.492  26.313  1.00  0.00     0.029 A 
ATOM     52  C   UNL A   1      41.774  26.884  27.217  1.00  0.00     0.049 A 
ATOM     53  H   UNL A   1      42.203  27.513  29.179  1.00  0.00     0.167 HD
ATOM     54  C   UNL A   1      42.699  28.471  33.278  1.00  0.00     0.034 A 
ATOM     55  C   UNL A   1      42.685  25.909  26.969  1.00  0.00     0.034 A 
ATOM     56  C   UNL A   1      43.785  29.181  32.673  1.00  0.00     0.049 A 
ATOM     57  C   UNL A   1      43.837  26.244  27.827  1.00  0.00     0.074 A 
ATOM     58  C   UNL A   1      44.118  30.511  32.538  1.00  0.00     0.029 A 
ATOM     59  N   UNL A   1      44.442  28.484  31.695  1.00  0.00    -0.354 N 
ATOM     60  N   UNL A   1      44.560  27.315  27.661  1.00  0.00    -0.248 NA
ATOM     61  C   UNL A   1      44.079  25.493  29.049  1.00  0.00     0.031 C 
ATOM     62  C   UNL A   1      44.773  30.617  31.279  1.00  0.00     0.029 A 
ATOM     63  C   UNL A   1      44.863  29.346  30.715  1.00  0.00     0.049 A 
ATOM     64  H   UNL A   1      44.590  27.511  31.695  1.00  0.00     0.167 HD
ATOM     65  C   UNL A   1      44.976  27.618  28.939  1.00  0.00     0.074 A 
ATOM     66  C   UNL A   1      44.846  26.378  29.690  1.00  0.00     0.031 C 
ATOM     67  C   UNL A   1      45.065  28.911  29.349  1.00  0.00     0.034 A 
BRANCH  54  68
ATOM     68  C   UNL A   1      42.908  27.335  34.226  1.00  0.00     0.023 A 
ATOM     69  C   UNL A   1      42.826  27.579  35.608  1.00  0.00     0.012 A 
ATOM     70  C   UNL A   1      43.437  26.094  33.800  1.00  0.00     0.148 A 
ATOM     71  C   UNL A   1      43.237  26.614  36.534  1.00  0.00     0.002 A 
ATOM     72  C   UNL A   1      43.790  25.119  34.722  1.00  0.00     0.091 A 
ATOM     73  F   UNL A   1      43.701  25.907  32.499  1.00  0.00    -0.205 F 
ATOM     74  C   UNL A   1      43.707  25.379  36.092  1.00  0.00     0.022 A 
BRANCH  72  75
ATOM     75  S   UNL A   1      44.374  23.501  34.205  1.00  0.00     0.127 S 
ATOM     76  O   UNL A   1      45.671  23.829  33.624  1.00  0.00    -0.237 OA
ATOM     77  O   UNL A   1      44.423  22.783  35.479  1.00  0.00    -0.237 OA
ATOM     78  O   UNL A   1      43.362  23.005  33.279  1.00  0.00    -0.744 OA
ENDBRANCH  72  75
ENDBRANCH  54  68
BRANCH  55  79
ATOM     79  C   UNL A   1      42.783  24.725  26.071  1.00  0.00     0.023 A 
ATOM     80  C   UNL A   1      43.824  24.681  25.111  1.00  0.00     0.012 A 
ATOM     81  C   UNL A   1      42.137  23.515  26.395  1.00  0.00     0.148 A 
ATOM     82  C   UNL A   1      44.279  23.471  24.574  1.00  0.00     0.002 A 
ATOM     83  C   UNL A   1      42.593  22.308  25.852  1.00  0.00     0.091 A 
ATOM     84  F   UNL A   1      41.157  23.538  27.309  1.00  0.00    -0.205 F 
ATOM     85  C   UNL A   1      43.677  22.281  24.963  1.00  0.00     0.022 A 
BRANCH  83  86
ATOM     86  S   UNL A   1      41.896  20.716  26.319  1.00  0.00     0.127 S 
ATOM     87  O   UNL A   1      40.469  20.913  26.057  1.00  0.00    -0.237 OA
ATOM     88  O   UNL A   1      42.568  19.809  25.393  1.00  0.00    -0.237 OA
ATOM     89  O   UNL A   1      42.230  20.545  27.729  1.00  0.00    -0.744 OA
ENDBRANCH  83  86
ENDBRANCH  55  79
BRANCH  67  90
ATOM     90  C   UNL A   1      45.179  29.979  28.296  1.00  0.00     0.023 A 
ATOM     91  C   UNL A   1      44.067  30.613  27.709  1.00  0.00     0.012 A 
ATOM     92  C   UNL A   1      46.467  30.454  28.007  1.00  0.00     0.148 A 
ATOM     93  C   UNL A   1      44.240  31.707  26.853  1.00  0.00     0.002 A 
ATOM     94  C   UNL A   1      46.634  31.569  27.199  1.00  0.00     0.091 A 
ATOM     95  F   UNL A   1      47.511  29.824  28.567  1.00  0.00    -0.205 F 
ATOM     96  C   UNL A   1      45.523  32.196  26.613  1.00  0.00     0.022 A 
BRANCH  94  97
ATOM     97  S   UNL A   1      48.246  32.318  26.958  1.00  0.00     0.127 S 
ATOM     98  O   UNL A   1      48.554  32.820  28.295  1.00  0.00    -0.237 OA
ATOM     99  O   UNL A   1      49.055  31.175  26.530  1.00  0.00    -0.237 OA
ATOM    100  O   UNL A   1      48.069  33.341  25.934  1.00  0.00    -0.744 OA
ENDBRANCH  94  97
ENDBRANCH  67  90
ENDBRANCH  41  42
ENDBRANCH  34  36
ENDBRANCH  33  34
ENDBRANCH  32  33
ENDBRANCH   1  32
TORSDOF 19
ENDMDL
MODEL 2
REMARK VINA RESULT:     -12.7      1.556      3.223
REMARK SMILES CC[C@@H](Sc1nnc2ccc3ccccc3n12)C(=O)Nc1cccc(C(=O)OCCOC(=O)c2ccc(-c3c4nc(c(-c5cccc(S(=O)(=O)[O-])c5F)c5ccc([nH]5)c(-c5cccc(S(=O)(=O)[O-])c5F)c5nc(c(-c6cccc(S(=O)(=O)[O-])c6F)c6ccc3[nH]6)C=C5)C=C4)cc2)c1
REMARK SMILES IDX 29 1 28 2 26 3 27 4 25 5 21 6 22 7 97 8 23 9 24 10 20 11
REMARK SMILES IDX 18 12 19 13 3 15 2 16 1 17 4 18 5 19 6 20 17 21 7 22 8 23
REMARK SMILES IDX 16 24 9 25 11 26 15 27 10 28 12 29 14 30 13 31 30 32 31 33
REMARK SMILES IDX 32 34 33 35 34 36 35 37 96 38 36 39 95 40 37 41 38 42 39 43
REMARK SMILES IDX 89 44 40 45 94 46 88 47 90 48 41 49 93 50 87 51 86 52 42 54
REMARK SMILES IDX 74 55 54 56 73 57 55 58 58 59 72 60 91 61 56 62 57 63 71 65
REMARK SMILES IDX 92 66 59 67 43 68 44 69 52 70 45 71 47 72 53 73 46 74 48 75
REMARK SMILES IDX 49 76 50 77 51 78 75 79 76 80 84 81 77 82 79 83 85 84 78 85
REMARK SMILES IDX 80 86 81 87 82 88 83 89 60 90 61 91 69 92 62 93 64 94 70 95
REMARK SMILES IDX 63 96 65 97 66 98 67 99 68 100
REMARK H PARENT 20 14 90 53 58 64
REMARK Flexibility Score: inf
ROOT
ATOM      1  C   UNL A   1      33.934  31.228  27.121  1.00  0.00     0.275 C 
ENDROOT
BRANCH   1   2
ATOM      2  O   UNL A   1      32.910  30.271  27.497  1.00  0.00    -0.458 OA
BRANCH   2   3
ATOM      3  C   UNL A   1      32.226  29.715  26.464  1.00  0.00     0.338 C 
ATOM      4  O   UNL A   1      31.518  30.332  25.680  1.00  0.00    -0.246 OA
BRANCH   3   5
ATOM      5  C   UNL A   1      32.475  28.250  26.325  1.00  0.00     0.062 A 
ATOM      6  C   UNL A   1      32.015  25.893  26.514  1.00  0.00     0.042 A 
ATOM      7  C   UNL A   1      33.268  25.567  25.991  1.00  0.00     0.026 A 
ATOM      8  C   UNL A   1      31.585  27.231  26.630  1.00  0.00     0.041 A 
ATOM      9  C   UNL A   1      34.148  26.574  25.665  1.00  0.00     0.003 A 
ATOM     10  C   UNL A   1      33.734  27.885  25.854  1.00  0.00     0.016 A 
BRANCH   6  11
ATOM     11  N   UNL A   1      31.151  24.869  26.900  1.00  0.00    -0.325 N 
ATOM     12  C   UNL A   1      30.827  23.716  26.230  1.00  0.00     0.237 C 
ATOM     13  O   UNL A   1      29.858  23.073  26.657  1.00  0.00    -0.273 OA
ATOM     14  H   UNL A   1      30.712  24.991  27.772  1.00  0.00     0.169 HD
BRANCH  12  15
ATOM     15  C   UNL A   1      31.656  23.154  25.042  1.00  0.00     0.144 C 
BRANCH  15  16
ATOM     16  C   UNL A   1      31.920  21.646  25.170  1.00  0.00     0.021 C 
ATOM     17  C   UNL A   1      32.854  21.079  24.105  1.00  0.00     0.005 C 
ENDBRANCH  15  16
BRANCH  15  18
ATOM     18  S   UNL A   1      30.897  23.718  23.456  1.00  0.00    -0.072 SA
BRANCH  18  19
ATOM     19  C   UNL A   1      32.040  24.825  22.792  1.00  0.00     0.196 A 
ATOM     20  N   UNL A   1      33.192  24.432  22.292  1.00  0.00    -0.122 NA
ATOM     21  N   UNL A   1      31.972  26.209  22.806  1.00  0.00    -0.270 N 
ATOM     22  N   UNL A   1      33.929  25.545  21.988  1.00  0.00    -0.129 NA
ATOM     23  C   UNL A   1      33.209  26.603  22.299  1.00  0.00     0.161 A 
ATOM     24  C   UNL A   1      30.930  27.142  23.078  1.00  0.00     0.057 A 
ATOM     25  C   UNL A   1      33.502  27.980  22.160  1.00  0.00     0.050 A 
ATOM     26  C   UNL A   1      31.196  28.487  22.754  1.00  0.00    -0.001 A 
ATOM     27  C   UNL A   1      29.653  26.779  23.494  1.00  0.00     0.027 A 
ATOM     28  C   UNL A   1      32.553  28.900  22.379  1.00  0.00     0.014 A 
ATOM     29  C   UNL A   1      30.150  29.417  22.744  1.00  0.00     0.010 A 
ATOM     30  C   UNL A   1      28.604  27.695  23.412  1.00  0.00     0.002 A 
ATOM     31  C   UNL A   1      28.847  29.005  23.016  1.00  0.00     0.001 A 
ENDBRANCH  18  19
ENDBRANCH  15  18
ENDBRANCH  12  15
ENDBRANCH   6  11
ENDBRANCH   3   5
ENDBRANCH   2   3
ENDBRANCH   1   2
BRANCH   1  32
ATOM     32  C   UNL A   1      34.190  32.242  28.243  1.00  0.00     0.275 C 
BRANCH  32  33
ATOM     33  O   UNL A   1      34.506  31.528  29.447  1.00  0.00    -0.458 OA
BRANCH  33  34
ATOM     34  C   UNL A   1      35.105  32.253  30.417  1.00  0.00     0.338 C 
ATOM     35  O   UNL A   1      34.568  33.017  31.208  1.00  0.00    -0.246 OA
BRANCH  34  36
ATOM     36  C   UNL A   1      36.441  31.656  30.585  1.00  0.00     0.060 A 
ATOM     37  C   UNL A   1      37.616  32.358  30.282  1.00  0.00     0.016 A 
ATOM     38  C   UNL A   1      36.471  30.286  30.819  1.00  0.00     0.016 A 
ATOM     39  C   UNL A   1      38.807  31.658  30.075  1.00  0.00     0.010 A 
ATOM     40  C   UNL A   1      37.659  29.606  30.606  1.00  0.00     0.010 A 
ATOM     41  C   UNL A   1      38.811  30.265  30.155  1.00  0.00    -0.014 A 
BRANCH  41  42
ATOM     42  C   UNL A   1      40.059  29.489  30.050  1.00  0.00     0.031 A 
ATOM     43  C   UNL A   1      40.679  29.242  31.383  1.00  0.00     0.074 A 
ATOM     44  C   UNL A   1      40.549  28.867  28.943  1.00  0.00     0.049 A 
ATOM     45  N   UNL A   1      41.894  29.514  31.719  1.00  0.00    -0.248 NA
ATOM     46  C   UNL A   1      39.861  28.748  32.498  1.00  0.00     0.031 C 
ATOM     47  C   UNL A   1      40.053  28.895  27.564  1.00  0.00     0.029 A 
ATOM     48  N   UNL A   1      41.559  27.941  28.845  1.00  0.00    -0.354 N 
ATOM     49  C   UNL A   1      42.048  29.028  33.010  1.00  0.00     0.074 A 
ATOM     50  C   UNL A   1      40.752  28.629  33.478  1.00  0.00     0.031 C 
ATOM     51  C   UNL A   1      40.510  27.820  26.874  1.00  0.00     0.029 A 
ATOM     52  C   UNL A   1      41.545  27.185  27.663  1.00  0.00     0.049 A 
ATOM     53  H   UNL A   1      42.238  27.819  29.547  1.00  0.00     0.167 HD
ATOM     54  C   UNL A   1      43.275  28.803  33.537  1.00  0.00     0.034 A 
ATOM     55  C   UNL A   1      42.382  26.173  27.320  1.00  0.00     0.034 A 
ATOM     56  C   UNL A   1      44.303  29.463  32.791  1.00  0.00     0.049 A 
ATOM     57  C   UNL A   1      43.643  26.472  28.024  1.00  0.00     0.074 A 
ATOM     58  C   UNL A   1      44.666  30.777  32.595  1.00  0.00     0.029 A 
ATOM     59  N   UNL A   1      44.807  28.730  31.750  1.00  0.00    -0.354 N 
ATOM     60  N   UNL A   1      44.379  27.512  27.752  1.00  0.00    -0.248 NA
ATOM     61  C   UNL A   1      44.007  25.726  29.218  1.00  0.00     0.031 C 
ATOM     62  C   UNL A   1      45.163  30.844  31.263  1.00  0.00     0.029 A 
ATOM     63  C   UNL A   1      45.134  29.564  30.712  1.00  0.00     0.049 A 
ATOM     64  H   UNL A   1      44.917  27.752  31.747  1.00  0.00     0.167 HD
ATOM     65  C   UNL A   1      44.961  27.813  28.964  1.00  0.00     0.074 A 
ATOM     66  C   UNL A   1      44.880  26.587  29.745  1.00  0.00     0.031 C 
ATOM     67  C   UNL A   1      45.149  29.106  29.339  1.00  0.00     0.034 A 
BRANCH  54  68
ATOM     68  C   UNL A   1      43.557  27.669  34.470  1.00  0.00     0.023 A 
ATOM     69  C   UNL A   1      43.945  27.956  35.790  1.00  0.00     0.012 A 
ATOM     70  C   UNL A   1      43.702  26.340  34.008  1.00  0.00     0.148 A 
ATOM     71  C   UNL A   1      44.441  26.952  36.628  1.00  0.00     0.002 A 
ATOM     72  C   UNL A   1      44.140  25.336  34.861  1.00  0.00     0.091 A 
ATOM     73  F   UNL A   1      43.519  26.075  32.707  1.00  0.00    -0.205 F 
ATOM     74  C   UNL A   1      44.526  25.640  36.169  1.00  0.00     0.022 A 
BRANCH  72  75
ATOM     75  S   UNL A   1      44.241  23.625  34.327  1.00  0.00     0.127 S 
ATOM     76  O   UNL A   1      45.054  23.741  33.121  1.00  0.00    -0.237 OA
ATOM     77  O   UNL A   1      44.905  22.997  35.469  1.00  0.00    -0.237 OA
ATOM     78  O   UNL A   1      42.859  23.201  34.132  1.00  0.00    -0.744 OA
ENDBRANCH  72  75
ENDBRANCH  54  68
BRANCH  55  79
ATOM     79  C   UNL A   1      42.322  24.976  26.436  1.00  0.00     0.023 A 
ATOM     80  C   UNL A   1      43.399  24.729  25.549  1.00  0.00     0.012 A 
ATOM     81  C   UNL A   1      41.449  23.907  26.720  1.00  0.00     0.148 A 
ATOM     82  C   UNL A   1      43.663  23.449  25.049  1.00  0.00     0.002 A 
ATOM     83  C   UNL A   1      41.714  22.630  26.215  1.00  0.00     0.091 A 
ATOM     84  F   UNL A   1      40.430  24.121  27.566  1.00  0.00    -0.205 F 
ATOM     85  C   UNL A   1      42.832  22.393  25.401  1.00  0.00     0.022 A 
BRANCH  83  86
ATOM     86  S   UNL A   1      40.712  21.197  26.640  1.00  0.00     0.127 S 
ATOM     87  O   UNL A   1      40.709  21.245  28.104  1.00  0.00    -0.237 OA
ATOM     88  O   UNL A   1      39.433  21.526  26.016  1.00  0.00    -0.237 OA
ATOM     89  O   UNL A   1      41.416  20.050  26.078  1.00  0.00    -0.744 OA
ENDBRANCH  83  86
ENDBRANCH  55  79
BRANCH  67  90
ATOM     90  C   UNL A   1      45.171  30.157  28.263  1.00  0.00     0.023 A 
ATOM     91  C   UNL A   1      44.008  30.679  27.663  1.00  0.00     0.012 A 
ATOM     92  C   UNL A   1      46.413  30.736  27.963  1.00  0.00     0.148 A 
ATOM     93  C   UNL A   1      44.087  31.765  26.784  1.00  0.00     0.002 A 
ATOM     94  C   UNL A   1      46.483  31.844  27.131  1.00  0.00     0.091 A 
ATOM     95  F   UNL A   1      47.507  30.211  28.535  1.00  0.00    -0.205 F 
ATOM     96  C   UNL A   1      45.323  32.359  26.532  1.00  0.00     0.022 A 
BRANCH  94  97
ATOM     97  S   UNL A   1      48.025  32.724  26.872  1.00  0.00     0.127 S 
ATOM     98  O   UNL A   1      48.901  31.667  26.375  1.00  0.00    -0.237 OA
ATOM     99  O   UNL A   1      47.643  33.726  25.875  1.00  0.00    -0.237 OA
ATOM    100  O   UNL A   1      48.395  33.281  28.168  1.00  0.00    -0.744 OA
ENDBRANCH  94  97
ENDBRANCH  67  90
ENDBRANCH  41  42
ENDBRANCH  34  36
ENDBRANCH  33  34
ENDBRANCH  32  33
ENDBRANCH   1  32
TORSDOF 19
ENDMDL
MODEL 3
REMARK VINA RESULT:     -12.0      3.452      9.415
REMARK SMILES CC[C@@H](Sc1nnc2ccc3ccccc3n12)C(=O)Nc1cccc(C(=O)OCCOC(=O)c2ccc(-c3c4nc(c(-c5cccc(S(=O)(=O)[O-])c5F)c5ccc([nH]5)c(-c5cccc(S(=O)(=O)[O-])c5F)c5nc(c(-c6cccc(S(=O)(=O)[O-])c6F)c6ccc3[nH]6)C=C5)C=C4)cc2)c1
REMARK SMILES IDX 29 1 28 2 26 3 27 4 25 5 21 6 22 7 97 8 23 9 24 10 20 11
REMARK SMILES IDX 18 12 19 13 3 15 2 16 1 17 4 18 5 19 6 20 17 21 7 22 8 23
REMARK SMILES IDX 16 24 9 25 11 26 15 27 10 28 12 29 14 30 13 31 30 32 31 33
REMARK SMILES IDX 32 34 33 35 34 36 35 37 96 38 36 39 95 40 37 41 38 42 39 43
REMARK SMILES IDX 89 44 40 45 94 46 88 47 90 48 41 49 93 50 87 51 86 52 42 54
REMARK SMILES IDX 74 55 54 56 73 57 55 58 58 59 72 60 91 61 56 62 57 63 71 65
REMARK SMILES IDX 92 66 59 67 43 68 44 69 52 70 45 71 47 72 53 73 46 74 48 75
REMARK SMILES IDX 49 76 50 77 51 78 75 79 76 80 84 81 77 82 79 83 85 84 78 85
REMARK SMILES IDX 80 86 81 87 82 88 83 89 60 90 61 91 69 92 62 93 64 94 70 95
REMARK SMILES IDX 63 96 65 97 66 98 67 99 68 100
REMARK H PARENT 20 14 90 53 58 64
REMARK Flexibility Score: inf
ROOT
ATOM      1  C   UNL A   1      40.019  20.305  26.273  1.00  0.00     0.275 C 
ENDROOT
BRANCH   1   2
ATOM      2  O   UNL A   1      39.114  21.362  25.861  1.00  0.00    -0.458 OA
BRANCH   2   3
ATOM      3  C   UNL A   1      37.962  20.946  25.274  1.00  0.00     0.338 C 
ATOM      4  O   UNL A   1      37.828  19.897  24.660  1.00  0.00    -0.246 OA
BRANCH   3   5
ATOM      5  C   UNL A   1      36.821  21.880  25.510  1.00  0.00     0.062 A 
ATOM      6  C   UNL A   1      34.549  22.538  25.962  1.00  0.00     0.042 A 
ATOM      7  C   UNL A   1      34.875  23.890  25.843  1.00  0.00     0.026 A 
ATOM      8  C   UNL A   1      35.526  21.526  25.856  1.00  0.00     0.041 A 
ATOM      9  C   UNL A   1      36.164  24.249  25.521  1.00  0.00     0.003 A 
ATOM     10  C   UNL A   1      37.098  23.236  25.349  1.00  0.00     0.016 A 
BRANCH   6  11
ATOM     11  N   UNL A   1      33.228  22.176  26.228  1.00  0.00    -0.325 N 
ATOM     12  C   UNL A   1      32.148  22.175  25.382  1.00  0.00     0.237 C 
ATOM     13  O   UNL A   1      31.030  22.044  25.899  1.00  0.00    -0.273 OA
ATOM     14  H   UNL A   1      33.046  21.883  27.149  1.00  0.00     0.169 HD
BRANCH  12  15
ATOM     15  C   UNL A   1      32.273  22.244  23.835  1.00  0.00     0.144 C 
BRANCH  15  16
ATOM     16  C   UNL A   1      32.102  20.870  23.168  1.00  0.00     0.021 C 
ATOM     17  C   UNL A   1      32.711  19.711  23.953  1.00  0.00     0.005 C 
ENDBRANCH  15  16
BRANCH  15  18
ATOM     18  S   UNL A   1      31.189  23.598  23.200  1.00  0.00    -0.072 SA
BRANCH  18  19
ATOM     19  C   UNL A   1      32.280  24.829  22.687  1.00  0.00     0.196 A 
ATOM     20  N   UNL A   1      33.470  24.554  22.196  1.00  0.00    -0.122 NA
ATOM     21  N   UNL A   1      32.126  26.199  22.828  1.00  0.00    -0.270 N 
ATOM     22  N   UNL A   1      34.145  25.734  22.026  1.00  0.00    -0.129 NA
ATOM     23  C   UNL A   1      33.352  26.712  22.407  1.00  0.00     0.161 A 
ATOM     24  C   UNL A   1      31.020  27.039  23.146  1.00  0.00     0.057 A 
ATOM     25  C   UNL A   1      33.562  28.112  22.408  1.00  0.00     0.050 A 
ATOM     26  C   UNL A   1      31.211  28.422  22.960  1.00  0.00    -0.001 A 
ATOM     27  C   UNL A   1      29.755  26.563  23.478  1.00  0.00     0.027 A 
ATOM     28  C   UNL A   1      32.551  28.948  22.676  1.00  0.00     0.014 A 
ATOM     29  C   UNL A   1      30.110  29.285  22.997  1.00  0.00     0.010 A 
ATOM     30  C   UNL A   1      28.654  27.418  23.442  1.00  0.00     0.002 A 
ATOM     31  C   UNL A   1      28.827  28.773  23.180  1.00  0.00     0.001 A 
ENDBRANCH  18  19
ENDBRANCH  15  18
ENDBRANCH  12  15
ENDBRANCH   6  11
ENDBRANCH   3   5
ENDBRANCH   2   3
ENDBRANCH   1   2
BRANCH   1  32
ATOM     32  C   UNL A   1      41.480  20.767  26.215  1.00  0.00     0.275 C 
BRANCH  32  33
ATOM     33  O   UNL A   1      41.618  21.959  27.002  1.00  0.00    -0.458 OA
BRANCH  33  34
ATOM     34  C   UNL A   1      42.174  23.016  26.370  1.00  0.00     0.338 C 
ATOM     35  O   UNL A   1      42.673  23.030  25.252  1.00  0.00    -0.246 OA
BRANCH  34  36
ATOM     36  C   UNL A   1      41.718  24.202  27.113  1.00  0.00     0.060 A 
ATOM     37  C   UNL A   1      40.683  25.024  26.645  1.00  0.00     0.016 A 
ATOM     38  C   UNL A   1      42.527  24.609  28.167  1.00  0.00     0.016 A 
ATOM     39  C   UNL A   1      40.546  26.320  27.147  1.00  0.00     0.010 A 
ATOM     40  C   UNL A   1      42.382  25.899  28.652  1.00  0.00     0.010 A 
ATOM     41  C   UNL A   1      41.454  26.790  28.097  1.00  0.00    -0.014 A 
BRANCH  41  42
ATOM     42  C   UNL A   1      41.292  28.109  28.734  1.00  0.00     0.031 A 
ATOM     43  C   UNL A   1      42.279  29.102  28.226  1.00  0.00     0.074 A 
ATOM     44  C   UNL A   1      40.274  28.510  29.544  1.00  0.00     0.049 A 
ATOM     45  N   UNL A   1      43.079  29.817  28.943  1.00  0.00    -0.248 NA
ATOM     46  C   UNL A   1      42.496  29.255  26.782  1.00  0.00     0.031 C 
ATOM     47  C   UNL A   1      39.156  27.734  30.088  1.00  0.00     0.029 A 
ATOM     48  N   UNL A   1      39.947  29.778  29.961  1.00  0.00    -0.354 N 
ATOM     49  C   UNL A   1      43.736  30.657  28.055  1.00  0.00     0.074 A 
ATOM     50  C   UNL A   1      43.401  30.228  26.728  1.00  0.00     0.031 C 
ATOM     51  C   UNL A   1      38.138  28.556  30.446  1.00  0.00     0.029 A 
ATOM     52  C   UNL A   1      38.630  29.918  30.424  1.00  0.00     0.049 A 
ATOM     53  H   UNL A   1      40.585  30.527  29.936  1.00  0.00     0.167 HD
ATOM     54  C   UNL A   1      44.362  31.780  28.479  1.00  0.00     0.034 A 
ATOM     55  C   UNL A   1      38.018  31.054  30.845  1.00  0.00     0.034 A 
ATOM     56  C   UNL A   1      44.579  31.766  29.894  1.00  0.00     0.049 A 
ATOM     57  C   UNL A   1      39.110  31.895  31.371  1.00  0.00     0.074 A 
ATOM     58  C   UNL A   1      45.383  31.039  30.743  1.00  0.00     0.029 A 
ATOM     59  N   UNL A   1      43.543  32.274  30.630  1.00  0.00    -0.354 N 
ATOM     60  N   UNL A   1      39.808  31.578  32.424  1.00  0.00    -0.248 NA
ATOM     61  C   UNL A   1      39.603  33.021  30.593  1.00  0.00     0.031 C 
ATOM     62  C   UNL A   1      44.641  30.902  31.951  1.00  0.00     0.029 A 
ATOM     63  C   UNL A   1      43.436  31.590  31.814  1.00  0.00     0.049 A 
ATOM     64  H   UNL A   1      42.961  33.017  30.352  1.00  0.00     0.167 HD
ATOM     65  C   UNL A   1      41.042  32.132  32.165  1.00  0.00     0.074 A 
ATOM     66  C   UNL A   1      40.798  33.166  31.170  1.00  0.00     0.031 C 
ATOM     67  C   UNL A   1      42.181  31.484  32.527  1.00  0.00     0.034 A 
BRANCH  54  68
ATOM     68  C   UNL A   1      44.400  33.036  27.669  1.00  0.00     0.023 A 
ATOM     69  C   UNL A   1      45.482  33.250  26.798  1.00  0.00     0.012 A 
ATOM     70  C   UNL A   1      43.538  34.125  27.938  1.00  0.00     0.148 A 
ATOM     71  C   UNL A   1      45.686  34.497  26.198  1.00  0.00     0.002 A 
ATOM     72  C   UNL A   1      43.711  35.343  27.296  1.00  0.00     0.091 A 
ATOM     73  F   UNL A   1      42.615  34.006  28.903  1.00  0.00    -0.205 F 
ATOM     74  C   UNL A   1      44.794  35.540  26.435  1.00  0.00     0.022 A 
BRANCH  72  75
ATOM     75  S   UNL A   1      42.572  36.709  27.546  1.00  0.00     0.127 S 
ATOM     76  O   UNL A   1      43.037  37.665  26.546  1.00  0.00    -0.237 OA
ATOM     77  O   UNL A   1      41.285  36.078  27.255  1.00  0.00    -0.237 OA
ATOM     78  O   UNL A   1      42.743  37.102  28.939  1.00  0.00    -0.744 OA
ENDBRANCH  72  75
ENDBRANCH  54  68
BRANCH  55  79
ATOM     79  C   UNL A   1      36.621  31.561  30.929  1.00  0.00     0.023 A 
ATOM     80  C   UNL A   1      36.145  32.048  32.172  1.00  0.00     0.012 A 
ATOM     81  C   UNL A   1      35.910  31.924  29.767  1.00  0.00     0.148 A 
ATOM     82  C   UNL A   1      35.073  32.945  32.250  1.00  0.00     0.002 A 
ATOM     83  C   UNL A   1      34.837  32.818  29.850  1.00  0.00     0.091 A 
ATOM     84  F   UNL A   1      36.353  31.481  28.582  1.00  0.00    -0.205 F 
ATOM     85  C   UNL A   1      34.433  33.348  31.085  1.00  0.00     0.022 A 
BRANCH  83  86
ATOM     86  S   UNL A   1      33.968  33.420  28.394  1.00  0.00     0.127 S 
ATOM     87  O   UNL A   1      33.494  32.179  27.781  1.00  0.00    -0.237 OA
ATOM     88  O   UNL A   1      32.921  34.247  28.988  1.00  0.00    -0.237 OA
ATOM     89  O   UNL A   1      34.971  34.133  27.611  1.00  0.00    -0.744 OA
ENDBRANCH  83  86
ENDBRANCH  55  79
BRANCH  67  90
ATOM     90  C   UNL A   1      42.087  30.439  33.604  1.00  0.00     0.023 A 
ATOM     91  C   UNL A   1      41.571  29.146  33.389  1.00  0.00     0.012 A 
ATOM     92  C   UNL A   1      42.684  30.740  34.838  1.00  0.00     0.148 A 
ATOM     93  C   UNL A   1      41.656  28.170  34.389  1.00  0.00     0.002 A 
ATOM     94  C   UNL A   1      42.813  29.758  35.808  1.00  0.00     0.091 A 
ATOM     95  F   UNL A   1      43.154  31.983  35.023  1.00  0.00    -0.205 F 
ATOM     96  C   UNL A   1      42.294  28.471  35.592  1.00  0.00     0.022 A 
BRANCH  94  97
ATOM     97  S   UNL A   1      43.732  30.050  37.320  1.00  0.00     0.127 S 
ATOM     98  O   UNL A   1      42.781  30.824  38.113  1.00  0.00    -0.237 OA
ATOM     99  O   UNL A   1      43.971  28.689  37.803  1.00  0.00    -0.237 OA
ATOM    100  O   UNL A   1      44.941  30.764  36.927  1.00  0.00    -0.744 OA
ENDBRANCH  94  97
ENDBRANCH  67  90
ENDBRANCH  41  42
ENDBRANCH  34  36
ENDBRANCH  33  34
ENDBRANCH  32  33
ENDBRANCH   1  32
TORSDOF 19
ENDMDL
