MODEL 1
REMARK VINA RESULT:     -11.6      0.000      0.000
REMARK SMILES Cc1ccccc1OCC(=O)N1C[C@H](O)C[C@H]1C(=O)OCCOC(=O)c1ccc(-c2c3nc(c(-c4cccc(S(=O)(=O)[O-])c4F)c4ccc([nH]4)c(-c4cccc(S(=O)(=O)[O-])c4F)c4nc(c(-c5cccc(S(=O)(=O)[O-])c5F)c5ccc2[nH]5)C=C4)C=C3)cc1
REMARK SMILES IDX 21 1 20 2 18 3 19 4 17 5 12 6 13 7 14 8 16 9 10 10 11 11
REMARK SMILES IDX 9 12 8 13 7 14 1 15 2 16 3 17 4 18 6 19 5 20 15 21 22 23
REMARK SMILES IDX 23 24 24 25 25 26 26 27 27 28 88 29 28 30 87 31 29 32 30 33
REMARK SMILES IDX 31 34 81 35 32 36 86 37 80 38 82 39 33 40 85 41 79 42 78 43
REMARK SMILES IDX 34 45 66 46 46 47 65 48 47 49 50 50 64 51 83 52 48 53 49 54
REMARK SMILES IDX 63 56 84 57 51 58 35 59 36 60 44 61 37 62 39 63 45 64 38 65
REMARK SMILES IDX 40 66 41 67 42 68 43 69 67 70 68 71 76 72 69 73 71 74 77 75
REMARK SMILES IDX 70 76 72 77 73 78 74 79 75 80 52 81 53 82 61 83 54 84 56 85
REMARK SMILES IDX 62 86 55 87 57 88 58 89 59 90 60 91
REMARK H PARENT 15 22 82 44 50 55
REMARK Flexibility Score: inf
ROOT
ATOM      1  C   UNL A   1      32.937  29.507  26.091  1.00  0.00     0.274 C 
ENDROOT
BRANCH   1   2
ATOM      2  O   UNL A   1      32.199  28.292  26.045  1.00  0.00    -0.461 OA
BRANCH   2   3
ATOM      3  C   UNL A   1      31.341  28.165  24.994  1.00  0.00     0.329 C 
ATOM      4  O   UNL A   1      30.943  29.116  24.335  1.00  0.00    -0.250 OA
BRANCH   3   5
ATOM      5  C   UNL A   1      31.042  26.681  24.702  1.00  0.00     0.198 C 
ATOM      6  N   UNL A   1      32.272  25.895  24.627  1.00  0.00    -0.323 N 
ATOM      7  C   UNL A   1      32.306  24.902  25.688  1.00  0.00     0.152 C 
ATOM      8  C   UNL A   1      30.829  24.622  25.947  1.00  0.00     0.136 C 
ATOM      9  C   UNL A   1      30.188  25.996  25.781  1.00  0.00     0.070 C 
BRANCH   6  10
ATOM     10  C   UNL A   1      33.086  25.955  23.523  1.00  0.00     0.261 C 
ATOM     11  O   UNL A   1      33.995  26.782  23.424  1.00  0.00    -0.271 OA
BRANCH  10  12
ATOM     12  C   UNL A   1      32.824  24.989  22.362  1.00  0.00     0.329 C 
BRANCH  12  13
ATOM     13  O   UNL A   1      33.621  23.866  22.043  1.00  0.00    -0.484 OA
BRANCH  13  14
ATOM     14  C   UNL A   1      33.818  22.876  22.960  1.00  0.00     0.122 A 
ATOM     15  C   UNL A   1      36.308  23.262  23.488  1.00  0.00     0.048 C 
ATOM     16  C   UNL A   1      34.994  22.560  23.650  1.00  0.00    -0.009 A 
ATOM     17  C   UNL A   1      34.963  21.487  24.568  1.00  0.00     0.007 A 
ATOM     18  C   UNL A   1      33.820  20.708  24.744  1.00  0.00     0.001 A 
ATOM     19  C   UNL A   1      32.685  22.061  23.119  1.00  0.00     0.047 A 
ATOM     20  C   UNL A   1      32.680  20.988  24.006  1.00  0.00     0.004 A 
ENDBRANCH  13  14
ENDBRANCH  12  13
ENDBRANCH  10  12
ENDBRANCH   6  10
BRANCH   8  21
ATOM     21  O   UNL A   1      30.344  23.679  24.991  1.00  0.00    -0.391 OA
ATOM     22  H   UNL A   1      29.488  23.978  24.647  1.00  0.00     0.211 HD
ENDBRANCH   8  21
ENDBRANCH   3   5
ENDBRANCH   2   3
ENDBRANCH   1   2
BRANCH   1  23
ATOM     23  C   UNL A   1      34.309  29.311  26.758  1.00  0.00     0.275 C 
BRANCH  23  24
ATOM     24  O   UNL A   1      34.778  30.257  27.768  1.00  0.00    -0.458 OA
BRANCH  24  25
ATOM     25  C   UNL A   1      36.000  30.839  27.951  1.00  0.00     0.338 C 
ATOM     26  O   UNL A   1      36.154  32.039  27.992  1.00  0.00    -0.246 OA
BRANCH  25  27
ATOM     27  C   UNL A   1      37.150  29.929  28.033  1.00  0.00     0.060 A 
ATOM     28  C   UNL A   1      38.081  29.841  26.987  1.00  0.00     0.016 A 
ATOM     29  C   UNL A   1      37.325  29.225  29.213  1.00  0.00     0.016 A 
ATOM     30  C   UNL A   1      39.285  29.158  27.186  1.00  0.00     0.010 A 
ATOM     31  C   UNL A   1      38.549  28.657  29.449  1.00  0.00     0.010 A 
ATOM     32  C   UNL A   1      39.531  28.607  28.440  1.00  0.00    -0.014 A 
BRANCH  32  33
ATOM     33  C   UNL A   1      40.662  27.753  28.793  1.00  0.00     0.031 A 
ATOM     34  C   UNL A   1      40.693  26.292  28.599  1.00  0.00     0.074 A 
ATOM     35  C   UNL A   1      41.761  28.478  29.097  1.00  0.00     0.049 A 
ATOM     36  N   UNL A   1      41.693  25.544  28.913  1.00  0.00    -0.248 NA
ATOM     37  C   UNL A   1      39.584  25.530  28.051  1.00  0.00     0.031 C 
ATOM     38  C   UNL A   1      43.165  28.124  29.095  1.00  0.00     0.029 A 
ATOM     39  N   UNL A   1      41.735  29.761  29.667  1.00  0.00    -0.354 N 
ATOM     40  C   UNL A   1      41.472  24.282  28.388  1.00  0.00     0.074 A 
ATOM     41  C   UNL A   1      40.106  24.302  27.942  1.00  0.00     0.031 C 
ATOM     42  C   UNL A   1      43.812  28.993  29.897  1.00  0.00     0.029 A 
ATOM     43  C   UNL A   1      42.781  29.769  30.584  1.00  0.00     0.049 A 
ATOM     44  H   UNL A   1      41.113  30.496  29.461  1.00  0.00     0.167 HD
ATOM     45  C   UNL A   1      42.532  23.432  28.289  1.00  0.00     0.034 A 
ATOM     46  C   UNL A   1      42.529  29.744  31.930  1.00  0.00     0.034 A 
ATOM     47  C   UNL A   1      43.654  23.971  29.068  1.00  0.00     0.049 A 
ATOM     48  C   UNL A   1      43.175  28.531  32.562  1.00  0.00     0.074 A 
ATOM     49  C   UNL A   1      44.741  24.753  28.718  1.00  0.00     0.029 A 
ATOM     50  N   UNL A   1      43.547  24.032  30.455  1.00  0.00    -0.354 N 
ATOM     51  N   UNL A   1      43.377  27.398  31.945  1.00  0.00    -0.248 NA
ATOM     52  C   UNL A   1      43.706  28.542  33.917  1.00  0.00     0.031 C 
ATOM     53  C   UNL A   1      45.187  25.413  29.897  1.00  0.00     0.029 A 
ATOM     54  C   UNL A   1      44.411  24.988  30.964  1.00  0.00     0.049 A 
ATOM     55  H   UNL A   1      42.942  23.474  30.997  1.00  0.00     0.167 HD
ATOM     56  C   UNL A   1      44.069  26.549  32.765  1.00  0.00     0.074 A 
ATOM     57  C   UNL A   1      44.260  27.320  33.986  1.00  0.00     0.031 C 
ATOM     58  C   UNL A   1      44.435  25.284  32.391  1.00  0.00     0.034 A 
BRANCH  45  59
ATOM     59  C   UNL A   1      42.697  22.252  27.332  1.00  0.00     0.023 A 
ATOM     60  C   UNL A   1      41.883  21.120  27.585  1.00  0.00     0.012 A 
ATOM     61  C   UNL A   1      43.651  22.097  26.294  1.00  0.00     0.148 A 
ATOM     62  C   UNL A   1      42.040  19.902  26.912  1.00  0.00     0.002 A 
ATOM     63  C   UNL A   1      43.796  20.883  25.603  1.00  0.00     0.091 A 
ATOM     64  F   UNL A   1      44.464  23.103  25.974  1.00  0.00    -0.205 F 
ATOM     65  C   UNL A   1      43.002  19.779  25.923  1.00  0.00     0.022 A 
BRANCH  63  66
ATOM     66  S   UNL A   1      45.004  20.640  24.284  1.00  0.00     0.127 S 
ATOM     67  O   UNL A   1      46.270  20.873  24.980  1.00  0.00    -0.237 OA
ATOM     68  O   UNL A   1      44.774  19.248  23.897  1.00  0.00    -0.237 OA
ATOM     69  O   UNL A   1      44.685  21.613  23.246  1.00  0.00    -0.744 OA
ENDBRANCH  63  66
ENDBRANCH  45  59
BRANCH  46  70
ATOM     70  C   UNL A   1      41.193  30.316  32.339  1.00  0.00     0.023 A 
ATOM     71  C   UNL A   1      40.185  29.402  32.746  1.00  0.00     0.012 A 
ATOM     72  C   UNL A   1      41.026  31.674  32.670  1.00  0.00     0.148 A 
ATOM     73  C   UNL A   1      39.136  29.799  33.581  1.00  0.00     0.002 A 
ATOM     74  C   UNL A   1      39.966  32.065  33.496  1.00  0.00     0.091 A 
ATOM     75  F   UNL A   1      41.921  32.562  32.223  1.00  0.00    -0.205 F 
ATOM     76  C   UNL A   1      39.043  31.126  33.979  1.00  0.00     0.022 A 
BRANCH  74  77
ATOM     77  S   UNL A   1      39.821  33.758  34.097  1.00  0.00     0.127 S 
ATOM     78  O   UNL A   1      39.493  34.480  32.872  1.00  0.00    -0.237 OA
ATOM     79  O   UNL A   1      38.733  33.667  35.072  1.00  0.00    -0.237 OA
ATOM     80  O   UNL A   1      41.114  34.046  34.701  1.00  0.00    -0.744 OA
ENDBRANCH  74  77
ENDBRANCH  46  70
BRANCH  58  81
ATOM     81  C   UNL A   1      44.890  24.215  33.361  1.00  0.00     0.023 A 
ATOM     82  C   UNL A   1      44.104  23.076  33.624  1.00  0.00     0.012 A 
ATOM     83  C   UNL A   1      46.199  24.226  33.906  1.00  0.00     0.148 A 
ATOM     84  C   UNL A   1      44.545  22.045  34.456  1.00  0.00     0.002 A 
ATOM     85  C   UNL A   1      46.679  23.139  34.631  1.00  0.00     0.091 A 
ATOM     86  F   UNL A   1      46.989  25.296  33.737  1.00  0.00    -0.205 F 
ATOM     87  C   UNL A   1      45.843  22.065  34.942  1.00  0.00     0.022 A 
BRANCH  85  88
ATOM     88  S   UNL A   1      48.425  22.998  35.037  1.00  0.00     0.127 S 
ATOM     89  O   UNL A   1      49.063  23.439  33.799  1.00  0.00    -0.237 OA
ATOM     90  O   UNL A   1      48.562  23.930  36.159  1.00  0.00    -0.237 OA
ATOM     91  O   UNL A   1      48.620  21.601  35.401  1.00  0.00    -0.744 OA
ENDBRANCH  85  88
ENDBRANCH  58  81
ENDBRANCH  32  33
ENDBRANCH  25  27
ENDBRANCH  24  25
ENDBRANCH  23  24
ENDBRANCH   1  23
TORSDOF 19
ENDMDL
MODEL 2
REMARK VINA RESULT:     -11.6      1.919      2.580
REMARK SMILES Cc1ccccc1OCC(=O)N1C[C@H](O)C[C@H]1C(=O)OCCOC(=O)c1ccc(-c2c3nc(c(-c4cccc(S(=O)(=O)[O-])c4F)c4ccc([nH]4)c(-c4cccc(S(=O)(=O)[O-])c4F)c4nc(c(-c5cccc(S(=O)(=O)[O-])c5F)c5ccc2[nH]5)C=C4)C=C3)cc1
REMARK SMILES IDX 21 1 20 2 18 3 19 4 17 5 12 6 13 7 14 8 16 9 10 10 11 11
REMARK SMILES IDX 9 12 8 13 7 14 1 15 2 16 3 17 4 18 6 19 5 20 15 21 22 23
REMARK SMILES IDX 23 24 24 25 25 26 26 27 27 28 88 29 28 30 87 31 29 32 30 33
REMARK SMILES IDX 31 34 81 35 32 36 86 37 80 38 82 39 33 40 85 41 79 42 78 43
REMARK SMILES IDX 34 45 66 46 46 47 65 48 47 49 50 50 64 51 83 52 48 53 49 54
REMARK SMILES IDX 63 56 84 57 51 58 35 59 36 60 44 61 37 62 39 63 45 64 38 65
REMARK SMILES IDX 40 66 41 67 42 68 43 69 67 70 68 71 76 72 69 73 71 74 77 75
REMARK SMILES IDX 70 76 72 77 73 78 74 79 75 80 52 81 53 82 61 83 54 84 56 85
REMARK SMILES IDX 62 86 55 87 57 88 58 89 59 90 60 91
REMARK H PARENT 15 22 82 44 50 55
REMARK Flexibility Score: inf
ROOT
ATOM      1  C   UNL A   1      33.267  29.608  25.112  1.00  0.00     0.274 C 
ENDROOT
BRANCH   1   2
ATOM      2  O   UNL A   1      32.209  29.136  24.287  1.00  0.00    -0.461 OA
BRANCH   2   3
ATOM      3  C   UNL A   1      32.583  28.327  23.256  1.00  0.00     0.329 C 
ATOM      4  O   UNL A   1      33.449  28.630  22.447  1.00  0.00    -0.250 OA
BRANCH   3   5
ATOM      5  C   UNL A   1      31.853  26.971  23.325  1.00  0.00     0.198 C 
ATOM      6  N   UNL A   1      31.950  26.381  24.659  1.00  0.00    -0.323 N 
ATOM      7  C   UNL A   1      30.633  26.271  25.263  1.00  0.00     0.152 C 
ATOM      8  C   UNL A   1      29.709  26.131  24.057  1.00  0.00     0.136 C 
ATOM      9  C   UNL A   1      30.346  27.062  23.031  1.00  0.00     0.070 C 
BRANCH   6  10
ATOM     10  C   UNL A   1      33.110  25.785  25.088  1.00  0.00     0.261 C 
ATOM     11  O   UNL A   1      33.895  26.353  25.850  1.00  0.00    -0.271 OA
BRANCH  10  12
ATOM     12  C   UNL A   1      33.456  24.386  24.564  1.00  0.00     0.329 C 
BRANCH  12  13
ATOM     13  O   UNL A   1      33.841  23.289  25.368  1.00  0.00    -0.484 OA
BRANCH  13  14
ATOM     14  C   UNL A   1      35.126  22.833  25.345  1.00  0.00     0.122 A 
ATOM     15  C   UNL A   1      34.691  20.329  24.934  1.00  0.00     0.048 C 
ATOM     16  C   UNL A   1      35.573  21.522  25.146  1.00  0.00    -0.009 A 
ATOM     17  C   UNL A   1      36.965  21.281  25.154  1.00  0.00     0.007 A 
ATOM     18  C   UNL A   1      37.881  22.298  25.421  1.00  0.00     0.001 A 
ATOM     19  C   UNL A   1      36.056  23.841  25.650  1.00  0.00     0.047 A 
ATOM     20  C   UNL A   1      37.424  23.581  25.684  1.00  0.00     0.004 A 
ENDBRANCH  13  14
ENDBRANCH  12  13
ENDBRANCH  10  12
ENDBRANCH   6  10
BRANCH   8  21
ATOM     21  O   UNL A   1      29.694  24.772  23.619  1.00  0.00    -0.391 OA
ATOM     22  H   UNL A   1      30.392  24.277  24.075  1.00  0.00     0.211 HD
ENDBRANCH   8  21
ENDBRANCH   3   5
ENDBRANCH   2   3
ENDBRANCH   1   2
BRANCH   1  23
ATOM     23  C   UNL A   1      32.840  29.690  26.587  1.00  0.00     0.275 C 
BRANCH  23  24
ATOM     24  O   UNL A   1      33.849  29.790  27.640  1.00  0.00    -0.458 OA
BRANCH  24  25
ATOM     25  C   UNL A   1      34.763  30.767  27.915  1.00  0.00     0.338 C 
ATOM     26  O   UNL A   1      34.529  31.945  27.761  1.00  0.00    -0.246 OA
BRANCH  25  27
ATOM     27  C   UNL A   1      36.090  30.313  28.350  1.00  0.00     0.060 A 
ATOM     28  C   UNL A   1      36.293  29.792  29.637  1.00  0.00     0.016 A 
ATOM     29  C   UNL A   1      37.113  30.343  27.416  1.00  0.00     0.016 A 
ATOM     30  C   UNL A   1      37.496  29.148  29.942  1.00  0.00     0.010 A 
ATOM     31  C   UNL A   1      38.244  29.614  27.676  1.00  0.00     0.010 A 
ATOM     32  C   UNL A   1      38.452  29.023  28.938  1.00  0.00    -0.014 A 
BRANCH  32  33
ATOM     33  C   UNL A   1      39.806  28.506  29.104  1.00  0.00     0.031 A 
ATOM     34  C   UNL A   1      40.189  27.096  28.903  1.00  0.00     0.074 A 
ATOM     35  C   UNL A   1      40.710  29.502  29.232  1.00  0.00     0.049 A 
ATOM     36  N   UNL A   1      41.386  26.646  29.052  1.00  0.00    -0.248 NA
ATOM     37  C   UNL A   1      39.247  26.052  28.536  1.00  0.00     0.031 C 
ATOM     38  C   UNL A   1      42.141  29.524  29.006  1.00  0.00     0.029 A 
ATOM     39  N   UNL A   1      40.438  30.755  29.803  1.00  0.00    -0.354 N 
ATOM     40  C   UNL A   1      41.424  25.350  28.565  1.00  0.00     0.074 A 
ATOM     41  C   UNL A   1      40.049  24.999  28.341  1.00  0.00     0.031 C 
ATOM     42  C   UNL A   1      42.654  30.561  29.697  1.00  0.00     0.029 A 
ATOM     43  C   UNL A   1      41.575  31.069  30.542  1.00  0.00     0.049 A 
ATOM     44  H   UNL A   1      39.622  31.296  29.700  1.00  0.00     0.167 HD
ATOM     45  C   UNL A   1      42.641  24.800  28.295  1.00  0.00     0.034 A 
ATOM     46  C   UNL A   1      41.548  31.032  31.910  1.00  0.00     0.034 A 
ATOM     47  C   UNL A   1      43.690  25.641  28.888  1.00  0.00     0.049 A 
ATOM     48  C   UNL A   1      42.579  30.052  32.428  1.00  0.00     0.074 A 
ATOM     49  C   UNL A   1      44.467  26.664  28.371  1.00  0.00     0.029 A 
ATOM     50  N   UNL A   1      43.786  25.726  30.274  1.00  0.00    -0.354 N 
ATOM     51  N   UNL A   1      42.972  28.988  31.783  1.00  0.00    -0.248 NA
ATOM     52  C   UNL A   1      43.291  30.253  33.682  1.00  0.00     0.031 C 
ATOM     53  C   UNL A   1      44.901  27.462  29.466  1.00  0.00     0.029 A 
ATOM     54  C   UNL A   1      44.437  26.891  30.643  1.00  0.00     0.049 A 
ATOM     55  H   UNL A   1      43.439  25.052  30.903  1.00  0.00     0.167 HD
ATOM     56  C   UNL A   1      43.981  28.379  32.480  1.00  0.00     0.074 A 
ATOM     57  C   UNL A   1      44.149  29.219  33.657  1.00  0.00     0.031 C 
ATOM     58  C   UNL A   1      44.603  27.239  32.049  1.00  0.00     0.034 A 
BRANCH  45  59
ATOM     59  C   UNL A   1      42.960  23.668  27.320  1.00  0.00     0.023 A 
ATOM     60  C   UNL A   1      43.798  23.998  26.226  1.00  0.00     0.012 A 
ATOM     61  C   UNL A   1      42.422  22.355  27.301  1.00  0.00     0.148 A 
ATOM     62  C   UNL A   1      44.038  23.125  25.157  1.00  0.00     0.002 A 
ATOM     63  C   UNL A   1      42.679  21.471  26.241  1.00  0.00     0.091 A 
ATOM     64  F   UNL A   1      41.624  21.943  28.284  1.00  0.00    -0.205 F 
ATOM     65  C   UNL A   1      43.474  21.860  25.160  1.00  0.00     0.022 A 
BRANCH  63  66
ATOM     66  S   UNL A   1      42.007  19.796  26.172  1.00  0.00     0.127 S 
ATOM     67  O   UNL A   1      42.675  19.245  24.992  1.00  0.00    -0.237 OA
ATOM     68  O   UNL A   1      42.454  19.224  27.443  1.00  0.00    -0.237 OA
ATOM     69  O   UNL A   1      40.561  19.936  26.051  1.00  0.00    -0.744 OA
ENDBRANCH  63  66
ENDBRANCH  45  59
BRANCH  46  70
ATOM     70  C   UNL A   1      40.189  31.253  32.529  1.00  0.00     0.023 A 
ATOM     71  C   UNL A   1      39.550  30.135  33.127  1.00  0.00     0.012 A 
ATOM     72  C   UNL A   1      39.709  32.538  32.848  1.00  0.00     0.148 A 
ATOM     73  C   UNL A   1      38.578  30.297  34.120  1.00  0.00     0.002 A 
ATOM     74  C   UNL A   1      38.726  32.690  33.834  1.00  0.00     0.091 A 
ATOM     75  F   UNL A   1      40.241  33.598  32.230  1.00  0.00    -0.205 F 
ATOM     76  C   UNL A   1      38.187  31.576  34.493  1.00  0.00     0.022 A 
BRANCH  74  77
ATOM     77  S   UNL A   1      38.217  34.321  34.406  1.00  0.00     0.127 S 
ATOM     78  O   UNL A   1      37.654  34.899  33.190  1.00  0.00    -0.237 OA
ATOM     79  O   UNL A   1      37.243  34.011  35.454  1.00  0.00    -0.237 OA
ATOM     80  O   UNL A   1      39.438  34.929  34.916  1.00  0.00    -0.744 OA
ENDBRANCH  74  77
ENDBRANCH  46  70
BRANCH  58  81
ATOM     81  C   UNL A   1      45.466  26.362  32.930  1.00  0.00     0.023 A 
ATOM     82  C   UNL A   1      46.820  26.666  33.172  1.00  0.00     0.012 A 
ATOM     83  C   UNL A   1      44.905  25.304  33.689  1.00  0.00     0.148 A 
ATOM     84  C   UNL A   1      47.607  25.910  34.044  1.00  0.00     0.002 A 
ATOM     85  C   UNL A   1      45.660  24.635  34.647  1.00  0.00     0.091 A 
ATOM     86  F   UNL A   1      43.635  24.927  33.480  1.00  0.00    -0.205 F 
ATOM     87  C   UNL A   1      47.021  24.907  34.800  1.00  0.00     0.022 A 
BRANCH  85  88
ATOM     88  S   UNL A   1      44.879  23.531  35.834  1.00  0.00     0.127 S 
ATOM     89  O   UNL A   1      46.007  23.146  36.679  1.00  0.00    -0.237 OA
ATOM     90  O   UNL A   1      43.903  24.409  36.483  1.00  0.00    -0.237 OA
ATOM     91  O   UNL A   1      44.282  22.471  35.033  1.00  0.00    -0.744 OA
ENDBRANCH  85  88
ENDBRANCH  58  81
ENDBRANCH  32  33
ENDBRANCH  25  27
ENDBRANCH  24  25
ENDBRANCH  23  24
ENDBRANCH   1  23
TORSDOF 19
ENDMDL
MODEL 3
REMARK VINA RESULT:     -11.5      3.947      9.950
REMARK SMILES Cc1ccccc1OCC(=O)N1C[C@H](O)C[C@H]1C(=O)OCCOC(=O)c1ccc(-c2c3nc(c(-c4cccc(S(=O)(=O)[O-])c4F)c4ccc([nH]4)c(-c4cccc(S(=O)(=O)[O-])c4F)c4nc(c(-c5cccc(S(=O)(=O)[O-])c5F)c5ccc2[nH]5)C=C4)C=C3)cc1
REMARK SMILES IDX 21 1 20 2 18 3 19 4 17 5 12 6 13 7 14 8 16 9 10 10 11 11
REMARK SMILES IDX 9 12 8 13 7 14 1 15 2 16 3 17 4 18 6 19 5 20 15 21 22 23
REMARK SMILES IDX 23 24 24 25 25 26 26 27 27 28 88 29 28 30 87 31 29 32 30 33
REMARK SMILES IDX 31 34 81 35 32 36 86 37 80 38 82 39 33 40 85 41 79 42 78 43
REMARK SMILES IDX 34 45 66 46 46 47 65 48 47 49 50 50 64 51 83 52 48 53 49 54
REMARK SMILES IDX 63 56 84 57 51 58 35 59 36 60 44 61 37 62 39 63 45 64 38 65
REMARK SMILES IDX 40 66 41 67 42 68 43 69 67 70 68 71 76 72 69 73 71 74 77 75
REMARK SMILES IDX 70 76 72 77 73 78 74 79 75 80 52 81 53 82 61 83 54 84 56 85
REMARK SMILES IDX 62 86 55 87 57 88 58 89 59 90 60 91
REMARK H PARENT 15 22 82 44 50 55
REMARK Flexibility Score: inf
ROOT
ATOM      1  C   UNL A   1      36.056  22.558  24.139  1.00  0.00     0.274 C 
ENDROOT
BRANCH   1   2
ATOM      2  O   UNL A   1      35.623  21.477  24.955  1.00  0.00    -0.461 OA
BRANCH   2   3
ATOM      3  C   UNL A   1      34.285  21.222  24.933  1.00  0.00     0.329 C 
ATOM      4  O   UNL A   1      33.816  20.124  24.669  1.00  0.00    -0.250 OA
BRANCH   3   5
ATOM      5  C   UNL A   1      33.481  22.458  25.384  1.00  0.00     0.198 C 
ATOM      6  N   UNL A   1      32.159  22.489  24.762  1.00  0.00    -0.323 N 
ATOM      7  C   UNL A   1      31.119  22.378  25.771  1.00  0.00     0.152 C 
ATOM      8  C   UNL A   1      31.772  22.983  27.009  1.00  0.00     0.136 C 
ATOM      9  C   UNL A   1      33.217  22.508  26.898  1.00  0.00     0.070 C 
BRANCH   6  10
ATOM     10  C   UNL A   1      32.002  22.859  23.449  1.00  0.00     0.261 C 
ATOM     11  O   UNL A   1      31.992  22.034  22.533  1.00  0.00    -0.271 OA
BRANCH  10  12
ATOM     12  C   UNL A   1      31.880  24.350  23.113  1.00  0.00     0.329 C 
BRANCH  12  13
ATOM     13  O   UNL A   1      31.794  25.393  24.064  1.00  0.00    -0.484 OA
BRANCH  13  14
ATOM     14  C   UNL A   1      32.426  26.582  23.844  1.00  0.00     0.122 A 
ATOM     15  C   UNL A   1      31.578  27.907  25.882  1.00  0.00     0.048 C 
ATOM     16  C   UNL A   1      32.378  27.742  24.625  1.00  0.00    -0.009 A 
ATOM     17  C   UNL A   1      33.128  28.863  24.205  1.00  0.00     0.007 A 
ATOM     18  C   UNL A   1      33.846  28.855  23.010  1.00  0.00     0.001 A 
ATOM     19  C   UNL A   1      33.123  26.599  22.625  1.00  0.00     0.047 A 
ATOM     20  C   UNL A   1      33.833  27.723  22.209  1.00  0.00     0.004 A 
ENDBRANCH  13  14
ENDBRANCH  12  13
ENDBRANCH  10  12
ENDBRANCH   6  10
BRANCH   8  21
ATOM     21  O   UNL A   1      31.665  24.405  26.963  1.00  0.00    -0.391 OA
ATOM     22  H   UNL A   1      31.030  24.660  26.275  1.00  0.00     0.211 HD
ENDBRANCH   8  21
ENDBRANCH   3   5
ENDBRANCH   2   3
ENDBRANCH   1   2
BRANCH   1  23
ATOM     23  C   UNL A   1      37.055  23.463  24.880  1.00  0.00     0.275 C 
BRANCH  23  24
ATOM     24  O   UNL A   1      37.820  22.942  26.010  1.00  0.00    -0.458 OA
BRANCH  24  25
ATOM     25  C   UNL A   1      39.152  23.023  26.304  1.00  0.00     0.338 C 
ATOM     26  O   UNL A   1      39.920  22.105  26.118  1.00  0.00    -0.246 OA
BRANCH  25  27
ATOM     27  C   UNL A   1      39.607  24.272  26.927  1.00  0.00     0.060 A 
ATOM     28  C   UNL A   1      40.372  25.204  26.210  1.00  0.00     0.016 A 
ATOM     29  C   UNL A   1      39.184  24.532  28.221  1.00  0.00     0.016 A 
ATOM     30  C   UNL A   1      40.585  26.481  26.740  1.00  0.00     0.010 A 
ATOM     31  C   UNL A   1      39.292  25.814  28.689  1.00  0.00     0.010 A 
ATOM     32  C   UNL A   1      40.000  26.793  27.964  1.00  0.00    -0.014 A 
BRANCH  32  33
ATOM     33  C   UNL A   1      40.218  28.017  28.729  1.00  0.00     0.031 A 
ATOM     34  C   UNL A   1      39.346  29.205  28.664  1.00  0.00     0.074 A 
ATOM     35  C   UNL A   1      41.167  27.853  29.676  1.00  0.00     0.049 A 
ATOM     36  N   UNL A   1      39.544  30.282  29.341  1.00  0.00    -0.248 NA
ATOM     37  C   UNL A   1      38.178  29.298  27.806  1.00  0.00     0.031 C 
ATOM     38  C   UNL A   1      41.431  28.586  30.896  1.00  0.00     0.029 A 
ATOM     39  N   UNL A   1      42.257  26.974  29.567  1.00  0.00    -0.354 N 
ATOM     40  C   UNL A   1      38.424  31.086  29.212  1.00  0.00     0.074 A 
ATOM     41  C   UNL A   1      37.645  30.469  28.174  1.00  0.00     0.031 C 
ATOM     42  C   UNL A   1      42.714  28.364  31.245  1.00  0.00     0.029 A 
ATOM     43  C   UNL A   1      43.332  27.662  30.122  1.00  0.00     0.049 A 
ATOM     44  H   UNL A   1      42.259  26.068  29.183  1.00  0.00     0.167 HD
ATOM     45  C   UNL A   1      38.255  32.100  30.105  1.00  0.00     0.034 A 
ATOM     46  C   UNL A   1      44.330  28.154  29.325  1.00  0.00     0.034 A 
ATOM     47  C   UNL A   1      39.505  32.298  30.850  1.00  0.00     0.049 A 
ATOM     48  C   UNL A   1      44.444  29.653  29.495  1.00  0.00     0.074 A 
ATOM     49  C   UNL A   1      39.949  31.814  32.069  1.00  0.00     0.029 A 
ATOM     50  N   UNL A   1      40.625  32.778  30.178  1.00  0.00    -0.354 N 
ATOM     51  N   UNL A   1      43.447  30.438  29.800  1.00  0.00    -0.248 NA
ATOM     52  C   UNL A   1      45.714  30.359  29.403  1.00  0.00     0.031 C 
ATOM     53  C   UNL A   1      41.371  31.864  32.053  1.00  0.00     0.029 A 
ATOM     54  C   UNL A   1      41.782  32.428  30.854  1.00  0.00     0.049 A 
ATOM     55  H   UNL A   1      40.598  33.294  29.339  1.00  0.00     0.167 HD
ATOM     56  C   UNL A   1      43.907  31.715  29.976  1.00  0.00     0.074 A 
ATOM     57  C   UNL A   1      45.338  31.607  29.726  1.00  0.00     0.031 C 
ATOM     58  C   UNL A   1      43.093  32.762  30.311  1.00  0.00     0.034 A 
BRANCH  45  59
ATOM     59  C   UNL A   1      36.947  32.776  30.515  1.00  0.00     0.023 A 
ATOM     60  C   UNL A   1      36.540  32.592  31.860  1.00  0.00     0.012 A 
ATOM     61  C   UNL A   1      36.022  33.462  29.688  1.00  0.00     0.148 A 
ATOM     62  C   UNL A   1      35.288  32.995  32.341  1.00  0.00     0.002 A 
ATOM     63  C   UNL A   1      34.774  33.886  30.173  1.00  0.00     0.091 A 
ATOM     64  F   UNL A   1      36.307  33.690  28.407  1.00  0.00    -0.205 F 
ATOM     65  C   UNL A   1      34.399  33.637  31.496  1.00  0.00     0.022 A 
BRANCH  63  66
ATOM     66  S   UNL A   1      33.563  34.752  29.151  1.00  0.00     0.127 S 
ATOM     67  O   UNL A   1      34.360  35.846  28.593  1.00  0.00    -0.237 OA
ATOM     68  O   UNL A   1      33.178  33.727  28.180  1.00  0.00    -0.237 OA
ATOM     69  O   UNL A   1      32.489  35.168  30.045  1.00  0.00    -0.744 OA
ENDBRANCH  63  66
ENDBRANCH  45  59
BRANCH  46  70
ATOM     70  C   UNL A   1      44.527  27.421  28.021  1.00  0.00     0.023 A 
ATOM     71  C   UNL A   1      43.960  27.997  26.853  1.00  0.00     0.012 A 
ATOM     72  C   UNL A   1      45.512  26.429  27.857  1.00  0.00     0.148 A 
ATOM     73  C   UNL A   1      44.464  27.708  25.581  1.00  0.00     0.002 A 
ATOM     74  C   UNL A   1      46.002  26.136  26.579  1.00  0.00     0.091 A 
ATOM     75  F   UNL A   1      45.996  25.814  28.942  1.00  0.00    -0.205 F 
ATOM     76  C   UNL A   1      45.505  26.799  25.446  1.00  0.00     0.022 A 
BRANCH  74  77
ATOM     77  S   UNL A   1      47.389  25.011  26.341  1.00  0.00     0.127 S 
ATOM     78  O   UNL A   1      47.657  25.168  24.916  1.00  0.00    -0.237 OA
ATOM     79  O   UNL A   1      48.414  25.564  27.229  1.00  0.00    -0.237 OA
ATOM     80  O   UNL A   1      46.889  23.714  26.775  1.00  0.00    -0.744 OA
ENDBRANCH  74  77
ENDBRANCH  46  70
BRANCH  58  81
ATOM     81  C   UNL A   1      43.491  34.217  30.184  1.00  0.00     0.023 A 
ATOM     82  C   UNL A   1      44.019  34.934  31.275  1.00  0.00     0.012 A 
ATOM     83  C   UNL A   1      43.517  34.864  28.923  1.00  0.00     0.148 A 
ATOM     84  C   UNL A   1      44.463  36.253  31.152  1.00  0.00     0.002 A 
ATOM     85  C   UNL A   1      44.074  36.131  28.783  1.00  0.00     0.091 A 
ATOM     86  F   UNL A   1      42.989  34.262  27.847  1.00  0.00    -0.205 F 
ATOM     87  C   UNL A   1      44.512  36.845  29.900  1.00  0.00     0.022 A 
BRANCH  85  88
ATOM     88  S   UNL A   1      44.413  36.817  27.154  1.00  0.00     0.127 S 
ATOM     89  O   UNL A   1      43.067  37.024  26.626  1.00  0.00    -0.237 OA
ATOM     90  O   UNL A   1      45.136  38.050  27.478  1.00  0.00    -0.237 OA
ATOM     91  O   UNL A   1      45.225  35.814  26.479  1.00  0.00    -0.744 OA
ENDBRANCH  85  88
ENDBRANCH  58  81
ENDBRANCH  32  33
ENDBRANCH  25  27
ENDBRANCH  24  25
ENDBRANCH  23  24
ENDBRANCH   1  23
TORSDOF 19
ENDMDL
