MODEL 1
REMARK VINA RESULT:     -11.9      0.000      0.000
REMARK SMILES COc1cc(OC)cc(-c2cc3nc(C)c(CCC(=O)OCCOC(=O)c4ccc(-c5c6nc(c(-c7cccc(S(=O)(=O)[O-])c7F)c7ccc([nH]7)c(-c7cccc(S(=O)(=O)[O-])c7F)c7nc(c(-c8cccc(S(=O)(=O)[O-])c8F)c8ccc5[nH]8)C=C7)C=C6)cc4)c(C)n3n2)c1
REMARK SMILES IDX 22 1 21 2 19 3 20 4 18 5 17 6 16 7 10 8 11 9 93 10 12 11
REMARK SMILES IDX 92 12 13 13 90 14 14 15 91 16 15 17 9 18 3 19 4 20 94 21
REMARK SMILES IDX 5 22 8 23 2 24 1 25 6 26 7 27 23 28 24 29 25 30 26 31 27 32
REMARK SMILES IDX 28 33 89 34 29 35 88 36 30 37 31 38 32 39 82 40 33 41 87 42
REMARK SMILES IDX 81 43 83 44 34 45 86 46 80 47 79 48 35 50 67 51 47 52 66 53
REMARK SMILES IDX 48 54 51 55 65 56 84 57 49 58 50 59 64 61 85 62 52 63 36 64
REMARK SMILES IDX 37 65 45 66 38 67 40 68 46 69 39 70 41 71 42 72 43 73 44 74
REMARK SMILES IDX 68 75 69 76 77 77 70 78 72 79 78 80 71 81 73 82 74 83 75 84
REMARK SMILES IDX 76 85 53 86 54 87 62 88 55 89 57 90 63 91 56 92 58 93 59 94
REMARK SMILES IDX 60 95 61 96
REMARK H PARENT 83 49 51 60
REMARK Flexibility Score: inf
ROOT
ATOM      1  C   UNL A   1      33.438  30.300  27.289  1.00  0.00     0.274 C 
ENDROOT
BRANCH   1   2
ATOM      2  O   UNL A   1      33.125  30.047  25.901  1.00  0.00    -0.462 OA
BRANCH   2   3
ATOM      3  C   UNL A   1      32.137  29.148  25.649  1.00  0.00     0.306 C 
ATOM      4  O   UNL A   1      32.030  28.065  26.219  1.00  0.00    -0.252 OA
BRANCH   3   5
ATOM      5  C   UNL A   1      31.172  29.578  24.546  1.00  0.00     0.127 C 
BRANCH   5   6
ATOM      6  C   UNL A   1      31.321  29.015  23.116  1.00  0.00     0.051 C 
BRANCH   6   7
ATOM      7  C   UNL A   1      31.106  27.529  23.044  1.00  0.00    -0.005 A 
ATOM      8  C   UNL A   1      32.171  23.269  23.711  1.00  0.00     0.095 A 
ATOM      9  C   UNL A   1      30.832  23.560  24.036  1.00  0.00     0.080 A 
ATOM     10  N   UNL A   1      32.752  24.279  23.061  1.00  0.00    -0.166 NA
ATOM     11  C   UNL A   1      30.636  24.861  23.635  1.00  0.00     0.156 A 
ATOM     12  N   UNL A   1      31.840  25.281  23.074  1.00  0.00    -0.219 N 
ATOM     13  N   UNL A   1      29.549  25.679  23.698  1.00  0.00    -0.234 NA
ATOM     14  C   UNL A   1      32.054  26.619  22.717  1.00  0.00     0.046 A 
ATOM     15  C   UNL A   1      29.755  26.931  23.395  1.00  0.00     0.045 A 
ATOM     16  C   UNL A   1      33.407  26.916  22.130  1.00  0.00     0.067 C 
ATOM     17  C   UNL A   1      28.506  27.781  23.257  1.00  0.00     0.067 C 
BRANCH   8  18
ATOM     18  C   UNL A   1      32.925  22.056  23.954  1.00  0.00     0.009 A 
ATOM     19  C   UNL A   1      33.025  19.648  24.134  1.00  0.00     0.123 A 
ATOM     20  C   UNL A   1      34.310  19.763  24.671  1.00  0.00     0.092 A 
ATOM     21  C   UNL A   1      32.322  20.802  23.787  1.00  0.00     0.057 A 
ATOM     22  C   UNL A   1      34.911  21.013  24.846  1.00  0.00     0.123 A 
ATOM     23  C   UNL A   1      34.219  22.161  24.470  1.00  0.00     0.057 A 
BRANCH  19  24
ATOM     24  O   UNL A   1      32.544  18.370  24.053  1.00  0.00    -0.497 OA
ATOM     25  C   UNL A   1      33.510  17.355  23.810  1.00  0.00     0.278 C 
ENDBRANCH  19  24
BRANCH  22  26
ATOM     26  O   UNL A   1      36.166  20.992  25.391  1.00  0.00    -0.497 OA
ATOM     27  C   UNL A   1      37.013  19.932  24.957  1.00  0.00     0.278 C 
ENDBRANCH  22  26
ENDBRANCH   8  18
ENDBRANCH   6   7
ENDBRANCH   5   6
ENDBRANCH   3   5
ENDBRANCH   2   3
ENDBRANCH   1   2
BRANCH   1  28
ATOM     28  C   UNL A   1      33.770  31.772  27.546  1.00  0.00     0.275 C 
BRANCH  28  29
ATOM     29  O   UNL A   1      35.093  32.003  28.049  1.00  0.00    -0.458 OA
BRANCH  29  30
ATOM     30  C   UNL A   1      35.228  31.770  29.366  1.00  0.00     0.338 C 
ATOM     31  O   UNL A   1      34.609  32.308  30.278  1.00  0.00    -0.246 OA
BRANCH  30  32
ATOM     32  C   UNL A   1      36.426  31.021  29.695  1.00  0.00     0.060 A 
ATOM     33  C   UNL A   1      37.557  31.792  30.012  1.00  0.00     0.016 A 
ATOM     34  C   UNL A   1      36.505  29.655  29.417  1.00  0.00     0.016 A 
ATOM     35  C   UNL A   1      38.796  31.213  29.943  1.00  0.00     0.010 A 
ATOM     36  C   UNL A   1      37.749  29.074  29.351  1.00  0.00     0.010 A 
ATOM     37  C   UNL A   1      38.875  29.871  29.573  1.00  0.00    -0.014 A 
BRANCH  37  38
ATOM     38  C   UNL A   1      40.189  29.278  29.571  1.00  0.00     0.031 A 
ATOM     39  C   UNL A   1      40.767  29.126  30.925  1.00  0.00     0.074 A 
ATOM     40  C   UNL A   1      40.748  28.777  28.461  1.00  0.00     0.049 A 
ATOM     41  N   UNL A   1      41.825  29.688  31.411  1.00  0.00    -0.248 NA
ATOM     42  C   UNL A   1      39.972  28.370  31.905  1.00  0.00     0.031 C 
ATOM     43  C   UNL A   1      40.123  28.579  27.152  1.00  0.00     0.029 A 
ATOM     44  N   UNL A   1      41.954  28.170  28.340  1.00  0.00    -0.354 N 
ATOM     45  C   UNL A   1      41.939  29.181  32.703  1.00  0.00     0.074 A 
ATOM     46  C   UNL A   1      40.684  28.550  33.016  1.00  0.00     0.031 C 
ATOM     47  C   UNL A   1      40.847  27.668  26.465  1.00  0.00     0.029 A 
ATOM     48  C   UNL A   1      42.030  27.333  27.239  1.00  0.00     0.049 A 
ATOM     49  H   UNL A   1      42.698  28.310  28.968  1.00  0.00     0.167 HD
ATOM     50  C   UNL A   1      43.136  29.087  33.338  1.00  0.00     0.034 A 
ATOM     51  C   UNL A   1      42.942  26.350  27.061  1.00  0.00     0.034 A 
ATOM     52  C   UNL A   1      44.156  29.875  32.705  1.00  0.00     0.049 A 
ATOM     53  C   UNL A   1      44.089  26.630  27.958  1.00  0.00     0.074 A 
ATOM     54  C   UNL A   1      44.334  31.217  32.437  1.00  0.00     0.029 A 
ATOM     55  N   UNL A   1      45.054  29.204  31.912  1.00  0.00    -0.354 N 
ATOM     56  N   UNL A   1      44.871  27.668  27.831  1.00  0.00    -0.248 NA
ATOM     57  C   UNL A   1      44.137  25.977  29.257  1.00  0.00     0.031 C 
ATOM     58  C   UNL A   1      45.011  31.256  31.183  1.00  0.00     0.029 A 
ATOM     59  C   UNL A   1      45.219  29.938  30.767  1.00  0.00     0.049 A 
ATOM     60  H   UNL A   1      45.498  28.351  32.127  1.00  0.00     0.167 HD
ATOM     61  C   UNL A   1      45.172  28.050  29.134  1.00  0.00     0.074 A 
ATOM     62  C   UNL A   1      44.810  26.898  29.954  1.00  0.00     0.031 C 
ATOM     63  C   UNL A   1      45.407  29.360  29.451  1.00  0.00     0.034 A 
BRANCH  50  64
ATOM     64  C   UNL A   1      43.467  28.007  34.331  1.00  0.00     0.023 A 
ATOM     65  C   UNL A   1      43.885  28.401  35.618  1.00  0.00     0.012 A 
ATOM     66  C   UNL A   1      43.625  26.643  33.992  1.00  0.00     0.148 A 
ATOM     67  C   UNL A   1      44.446  27.484  36.515  1.00  0.00     0.002 A 
ATOM     68  C   UNL A   1      44.091  25.720  34.918  1.00  0.00     0.091 A 
ATOM     69  F   UNL A   1      43.464  26.242  32.725  1.00  0.00    -0.205 F 
ATOM     70  C   UNL A   1      44.531  26.139  36.173  1.00  0.00     0.022 A 
BRANCH  68  71
ATOM     71  S   UNL A   1      44.125  23.969  34.524  1.00  0.00     0.127 S 
ATOM     72  O   UNL A   1      44.826  23.420  35.678  1.00  0.00    -0.237 OA
ATOM     73  O   UNL A   1      42.699  23.643  34.449  1.00  0.00    -0.237 OA
ATOM     74  O   UNL A   1      44.815  23.894  33.241  1.00  0.00    -0.744 OA
ENDBRANCH  68  71
ENDBRANCH  50  64
BRANCH  51  75
ATOM     75  C   UNL A   1      42.738  25.059  26.375  1.00  0.00     0.023 A 
ATOM     76  C   UNL A   1      43.630  24.648  25.370  1.00  0.00     0.012 A 
ATOM     77  C   UNL A   1      41.785  24.125  26.848  1.00  0.00     0.148 A 
ATOM     78  C   UNL A   1      43.578  23.348  24.854  1.00  0.00     0.002 A 
ATOM     79  C   UNL A   1      41.721  22.843  26.318  1.00  0.00     0.091 A 
ATOM     80  F   UNL A   1      40.996  24.471  27.876  1.00  0.00    -0.205 F 
ATOM     81  C   UNL A   1      42.625  22.447  25.326  1.00  0.00     0.022 A 
BRANCH  79  82
ATOM     82  S   UNL A   1      40.512  21.634  26.875  1.00  0.00     0.127 S 
ATOM     83  O   UNL A   1      40.858  20.465  26.066  1.00  0.00    -0.237 OA
ATOM     84  O   UNL A   1      40.835  21.514  28.294  1.00  0.00    -0.237 OA
ATOM     85  O   UNL A   1      39.206  22.206  26.570  1.00  0.00    -0.744 OA
ENDBRANCH  79  82
ENDBRANCH  51  75
BRANCH  63  86
ATOM     86  C   UNL A   1      45.554  30.347  28.314  1.00  0.00     0.023 A 
ATOM     87  C   UNL A   1      44.423  30.882  27.661  1.00  0.00     0.012 A 
ATOM     88  C   UNL A   1      46.818  30.891  28.029  1.00  0.00     0.148 A 
ATOM     89  C   UNL A   1      44.546  31.912  26.728  1.00  0.00     0.002 A 
ATOM     90  C   UNL A   1      46.933  31.949  27.132  1.00  0.00     0.091 A 
ATOM     91  F   UNL A   1      47.883  30.391  28.672  1.00  0.00    -0.205 F 
ATOM     92  C   UNL A   1      45.801  32.454  26.471  1.00  0.00     0.022 A 
BRANCH  90  93
ATOM     93  S   UNL A   1      48.493  32.790  26.847  1.00  0.00     0.127 S 
ATOM     94  O   UNL A   1      48.129  33.775  25.831  1.00  0.00    -0.237 OA
ATOM     95  O   UNL A   1      48.789  33.354  28.166  1.00  0.00    -0.237 OA
ATOM     96  O   UNL A   1      49.431  31.762  26.417  1.00  0.00    -0.744 OA
ENDBRANCH  90  93
ENDBRANCH  63  86
ENDBRANCH  37  38
ENDBRANCH  30  32
ENDBRANCH  29  30
ENDBRANCH  28  29
ENDBRANCH   1  28
TORSDOF 19
ENDMDL
MODEL 2
REMARK VINA RESULT:     -11.7      3.164      7.202
REMARK SMILES COc1cc(OC)cc(-c2cc3nc(C)c(CCC(=O)OCCOC(=O)c4ccc(-c5c6nc(c(-c7cccc(S(=O)(=O)[O-])c7F)c7ccc([nH]7)c(-c7cccc(S(=O)(=O)[O-])c7F)c7nc(c(-c8cccc(S(=O)(=O)[O-])c8F)c8ccc5[nH]8)C=C7)C=C6)cc4)c(C)n3n2)c1
REMARK SMILES IDX 22 1 21 2 19 3 20 4 18 5 17 6 16 7 10 8 11 9 93 10 12 11
REMARK SMILES IDX 92 12 13 13 90 14 14 15 91 16 15 17 9 18 3 19 4 20 94 21
REMARK SMILES IDX 5 22 8 23 2 24 1 25 6 26 7 27 23 28 24 29 25 30 26 31 27 32
REMARK SMILES IDX 28 33 89 34 29 35 88 36 30 37 31 38 32 39 82 40 33 41 87 42
REMARK SMILES IDX 81 43 83 44 34 45 86 46 80 47 79 48 35 50 67 51 47 52 66 53
REMARK SMILES IDX 48 54 51 55 65 56 84 57 49 58 50 59 64 61 85 62 52 63 36 64
REMARK SMILES IDX 37 65 45 66 38 67 40 68 46 69 39 70 41 71 42 72 43 73 44 74
REMARK SMILES IDX 68 75 69 76 77 77 70 78 72 79 78 80 71 81 73 82 74 83 75 84
REMARK SMILES IDX 76 85 53 86 54 87 62 88 55 89 57 90 63 91 56 92 58 93 59 94
REMARK SMILES IDX 60 95 61 96
REMARK H PARENT 83 49 51 60
REMARK Flexibility Score: inf
ROOT
ATOM      1  C   UNL A   1      31.630  31.975  26.781  1.00  0.00     0.274 C 
ENDROOT
BRANCH   1   2
ATOM      2  O   UNL A   1      31.744  30.535  26.790  1.00  0.00    -0.462 OA
BRANCH   2   3
ATOM      3  C   UNL A   1      32.118  29.941  25.626  1.00  0.00     0.306 C 
ATOM      4  O   UNL A   1      33.286  29.744  25.298  1.00  0.00    -0.252 OA
BRANCH   3   5
ATOM      5  C   UNL A   1      30.950  29.568  24.715  1.00  0.00     0.127 C 
BRANCH   5   6
ATOM      6  C   UNL A   1      31.212  29.029  23.293  1.00  0.00     0.051 C 
BRANCH   6   7
ATOM      7  C   UNL A   1      31.171  27.528  23.215  1.00  0.00    -0.005 A 
ATOM      8  C   UNL A   1      32.703  23.417  23.905  1.00  0.00     0.095 A 
ATOM      9  C   UNL A   1      31.333  23.551  24.200  1.00  0.00     0.080 A 
ATOM     10  N   UNL A   1      33.178  24.488  23.268  1.00  0.00    -0.166 NA
ATOM     11  C   UNL A   1      30.997  24.822  23.796  1.00  0.00     0.156 A 
ATOM     12  N   UNL A   1      32.158  25.379  23.261  1.00  0.00    -0.219 N 
ATOM     13  N   UNL A   1      29.823  25.510  23.835  1.00  0.00    -0.234 NA
ATOM     14  C   UNL A   1      32.224  26.734  22.910  1.00  0.00     0.046 A 
ATOM     15  C   UNL A   1      29.890  26.778  23.536  1.00  0.00     0.045 A 
ATOM     16  C   UNL A   1      33.547  27.186  22.353  1.00  0.00     0.067 C 
ATOM     17  C   UNL A   1      28.555  27.479  23.371  1.00  0.00     0.067 C 
BRANCH   8  18
ATOM     18  C   UNL A   1      33.586  22.297  24.165  1.00  0.00     0.009 A 
ATOM     19  C   UNL A   1      33.918  19.943  24.594  1.00  0.00     0.123 A 
ATOM     20  C   UNL A   1      35.252  20.211  24.915  1.00  0.00     0.092 A 
ATOM     21  C   UNL A   1      33.076  20.994  24.231  1.00  0.00     0.057 A 
ATOM     22  C   UNL A   1      35.761  21.512  24.857  1.00  0.00     0.123 A 
ATOM     23  C   UNL A   1      34.926  22.554  24.465  1.00  0.00     0.057 A 
BRANCH  19  24
ATOM     24  O   UNL A   1      33.542  18.634  24.728  1.00  0.00    -0.497 OA
ATOM     25  C   UNL A   1      32.340  18.260  24.065  1.00  0.00     0.278 C 
ENDBRANCH  19  24
BRANCH  22  26
ATOM     26  O   UNL A   1      37.077  21.645  25.206  1.00  0.00    -0.497 OA
ATOM     27  C   UNL A   1      37.886  20.485  25.027  1.00  0.00     0.278 C 
ENDBRANCH  22  26
ENDBRANCH   8  18
ENDBRANCH   6   7
ENDBRANCH   5   6
ENDBRANCH   3   5
ENDBRANCH   2   3
ENDBRANCH   1   2
BRANCH   1  28
ATOM     28  C   UNL A   1      32.726  32.646  27.613  1.00  0.00     0.275 C 
BRANCH  28  29
ATOM     29  O   UNL A   1      32.669  34.079  27.624  1.00  0.00    -0.458 OA
BRANCH  29  30
ATOM     30  C   UNL A   1      33.018  34.633  28.797  1.00  0.00     0.338 C 
ATOM     31  O   UNL A   1      32.421  35.517  29.403  1.00  0.00    -0.246 OA
BRANCH  30  32
ATOM     32  C   UNL A   1      34.379  34.326  29.194  1.00  0.00     0.060 A 
ATOM     33  C   UNL A   1      35.320  34.284  28.152  1.00  0.00     0.016 A 
ATOM     34  C   UNL A   1      34.648  33.819  30.467  1.00  0.00     0.016 A 
ATOM     35  C   UNL A   1      36.506  33.628  28.354  1.00  0.00     0.010 A 
ATOM     36  C   UNL A   1      35.839  33.164  30.669  1.00  0.00     0.010 A 
ATOM     37  C   UNL A   1      36.729  33.042  29.599  1.00  0.00    -0.014 A 
BRANCH  37  38
ATOM     38  C   UNL A   1      38.013  32.416  29.796  1.00  0.00     0.031 A 
ATOM     39  C   UNL A   1      38.061  31.013  29.325  1.00  0.00     0.074 A 
ATOM     40  C   UNL A   1      39.086  33.098  30.220  1.00  0.00     0.049 A 
ATOM     41  N   UNL A   1      38.254  29.942  30.021  1.00  0.00    -0.248 NA
ATOM     42  C   UNL A   1      37.694  30.772  27.921  1.00  0.00     0.031 C 
ATOM     43  C   UNL A   1      39.220  34.545  30.390  1.00  0.00     0.029 A 
ATOM     44  N   UNL A   1      40.344  32.631  30.412  1.00  0.00    -0.354 N 
ATOM     45  C   UNL A   1      38.240  28.904  29.093  1.00  0.00     0.074 A 
ATOM     46  C   UNL A   1      37.696  29.441  27.874  1.00  0.00     0.031 C 
ATOM     47  C   UNL A   1      40.535  34.857  30.391  1.00  0.00     0.029 A 
ATOM     48  C   UNL A   1      41.305  33.626  30.350  1.00  0.00     0.049 A 
ATOM     49  H   UNL A   1      40.552  31.683  30.578  1.00  0.00     0.167 HD
ATOM     50  C   UNL A   1      38.907  27.740  29.302  1.00  0.00     0.034 A 
ATOM     51  C   UNL A   1      42.628  33.428  30.149  1.00  0.00     0.034 A 
ATOM     52  C   UNL A   1      39.293  27.568  30.674  1.00  0.00     0.049 A 
ATOM     53  C   UNL A   1      42.931  32.016  30.486  1.00  0.00     0.074 A 
ATOM     54  C   UNL A   1      38.623  27.470  31.877  1.00  0.00     0.029 A 
ATOM     55  N   UNL A   1      40.604  27.830  30.987  1.00  0.00    -0.354 N 
ATOM     56  N   UNL A   1      42.824  31.521  31.690  1.00  0.00    -0.248 NA
ATOM     57  C   UNL A   1      42.965  31.033  29.415  1.00  0.00     0.031 C 
ATOM     58  C   UNL A   1      39.469  28.117  32.824  1.00  0.00     0.029 A 
ATOM     59  C   UNL A   1      40.611  28.557  32.148  1.00  0.00     0.049 A 
ATOM     60  H   UNL A   1      41.394  27.549  30.470  1.00  0.00     0.167 HD
ATOM     61  C   UNL A   1      42.352  30.226  31.503  1.00  0.00     0.074 A 
ATOM     62  C   UNL A   1      42.591  29.942  30.090  1.00  0.00     0.031 C 
ATOM     63  C   UNL A   1      41.550  29.624  32.433  1.00  0.00     0.034 A 
BRANCH  50  64
ATOM     64  C   UNL A   1      39.514  26.919  28.196  1.00  0.00     0.023 A 
ATOM     65  C   UNL A   1      39.078  25.588  28.048  1.00  0.00     0.012 A 
ATOM     66  C   UNL A   1      40.658  27.309  27.460  1.00  0.00     0.148 A 
ATOM     67  C   UNL A   1      39.757  24.686  27.220  1.00  0.00     0.002 A 
ATOM     68  C   UNL A   1      41.268  26.440  26.567  1.00  0.00     0.091 A 
ATOM     69  F   UNL A   1      41.259  28.477  27.720  1.00  0.00    -0.205 F 
ATOM     70  C   UNL A   1      40.841  25.117  26.463  1.00  0.00     0.022 A 
BRANCH  68  71
ATOM     71  S   UNL A   1      42.612  27.005  25.519  1.00  0.00     0.127 S 
ATOM     72  O   UNL A   1      43.673  27.226  26.494  1.00  0.00    -0.237 OA
ATOM     73  O   UNL A   1      42.813  25.859  24.630  1.00  0.00    -0.237 OA
ATOM     74  O   UNL A   1      42.084  28.187  24.847  1.00  0.00    -0.744 OA
ENDBRANCH  68  71
ENDBRANCH  50  64
BRANCH  51  75
ATOM     75  C   UNL A   1      43.560  34.312  29.422  1.00  0.00     0.023 A 
ATOM     76  C   UNL A   1      44.221  35.349  30.102  1.00  0.00     0.012 A 
ATOM     77  C   UNL A   1      43.967  34.011  28.099  1.00  0.00     0.148 A 
ATOM     78  C   UNL A   1      45.256  36.063  29.487  1.00  0.00     0.002 A 
ATOM     79  C   UNL A   1      44.980  34.736  27.484  1.00  0.00     0.091 A 
ATOM     80  F   UNL A   1      43.417  32.959  27.477  1.00  0.00    -0.205 F 
ATOM     81  C   UNL A   1      45.634  35.759  28.181  1.00  0.00     0.022 A 
BRANCH  79  82
ATOM     82  S   UNL A   1      45.511  34.402  25.800  1.00  0.00     0.127 S 
ATOM     83  O   UNL A   1      46.115  33.075  25.931  1.00  0.00    -0.237 OA
ATOM     84  O   UNL A   1      44.245  34.429  25.072  1.00  0.00    -0.237 OA
ATOM     85  O   UNL A   1      46.458  35.458  25.462  1.00  0.00    -0.744 OA
ENDBRANCH  79  82
ENDBRANCH  51  75
BRANCH  63  86
ATOM     86  C   UNL A   1      41.376  30.313  33.768  1.00  0.00     0.023 A 
ATOM     87  C   UNL A   1      42.347  30.190  34.785  1.00  0.00     0.012 A 
ATOM     88  C   UNL A   1      40.338  31.245  33.936  1.00  0.00     0.148 A 
ATOM     89  C   UNL A   1      42.274  30.953  35.952  1.00  0.00     0.002 A 
ATOM     90  C   UNL A   1      40.292  32.036  35.080  1.00  0.00     0.091 A 
ATOM     91  F   UNL A   1      39.433  31.371  32.954  1.00  0.00    -0.205 F 
ATOM     92  C   UNL A   1      41.252  31.885  36.095  1.00  0.00     0.022 A 
BRANCH  90  93
ATOM     93  S   UNL A   1      39.087  33.351  35.280  1.00  0.00     0.127 S 
ATOM     94  O   UNL A   1      39.386  34.218  34.142  1.00  0.00    -0.237 OA
ATOM     95  O   UNL A   1      37.817  32.629  35.180  1.00  0.00    -0.237 OA
ATOM     96  O   UNL A   1      39.339  33.931  36.593  1.00  0.00    -0.744 OA
ENDBRANCH  90  93
ENDBRANCH  63  86
ENDBRANCH  37  38
ENDBRANCH  30  32
ENDBRANCH  29  30
ENDBRANCH  28  29
ENDBRANCH   1  28
TORSDOF 19
ENDMDL
MODEL 3
REMARK VINA RESULT:     -11.1      1.694      2.079
REMARK SMILES COc1cc(OC)cc(-c2cc3nc(C)c(CCC(=O)OCCOC(=O)c4ccc(-c5c6nc(c(-c7cccc(S(=O)(=O)[O-])c7F)c7ccc([nH]7)c(-c7cccc(S(=O)(=O)[O-])c7F)c7nc(c(-c8cccc(S(=O)(=O)[O-])c8F)c8ccc5[nH]8)C=C7)C=C6)cc4)c(C)n3n2)c1
REMARK SMILES IDX 22 1 21 2 19 3 20 4 18 5 17 6 16 7 10 8 11 9 93 10 12 11
REMARK SMILES IDX 92 12 13 13 90 14 14 15 91 16 15 17 9 18 3 19 4 20 94 21
REMARK SMILES IDX 5 22 8 23 2 24 1 25 6 26 7 27 23 28 24 29 25 30 26 31 27 32
REMARK SMILES IDX 28 33 89 34 29 35 88 36 30 37 31 38 32 39 82 40 33 41 87 42
REMARK SMILES IDX 81 43 83 44 34 45 86 46 80 47 79 48 35 50 67 51 47 52 66 53
REMARK SMILES IDX 48 54 51 55 65 56 84 57 49 58 50 59 64 61 85 62 52 63 36 64
REMARK SMILES IDX 37 65 45 66 38 67 40 68 46 69 39 70 41 71 42 72 43 73 44 74
REMARK SMILES IDX 68 75 69 76 77 77 70 78 72 79 78 80 71 81 73 82 74 83 75 84
REMARK SMILES IDX 76 85 53 86 54 87 62 88 55 89 57 90 63 91 56 92 58 93 59 94
REMARK SMILES IDX 60 95 61 96
REMARK H PARENT 83 49 51 60
REMARK Flexibility Score: inf
ROOT
ATOM      1  C   UNL A   1      33.865  31.670  27.275  1.00  0.00     0.274 C 
ENDROOT
BRANCH   1   2
ATOM      2  O   UNL A   1      32.769  30.728  27.259  1.00  0.00    -0.462 OA
BRANCH   2   3
ATOM      3  C   UNL A   1      32.799  29.768  26.298  1.00  0.00     0.306 C 
ATOM      4  O   UNL A   1      33.801  29.121  26.002  1.00  0.00    -0.252 OA
BRANCH   3   5
ATOM      5  C   UNL A   1      31.471  29.578  25.567  1.00  0.00     0.127 C 
BRANCH   5   6
ATOM      6  C   UNL A   1      31.450  29.281  24.052  1.00  0.00     0.051 C 
BRANCH   6   7
ATOM      7  C   UNL A   1      31.283  27.819  23.742  1.00  0.00    -0.005 A 
ATOM      8  C   UNL A   1      32.261  23.498  24.055  1.00  0.00     0.095 A 
ATOM      9  C   UNL A   1      30.879  23.757  24.124  1.00  0.00     0.080 A 
ATOM     10  N   UNL A   1      32.947  24.579  23.681  1.00  0.00    -0.166 NA
ATOM     11  C   UNL A   1      30.747  25.101  23.865  1.00  0.00     0.156 A 
ATOM     12  N   UNL A   1      32.036  25.579  23.632  1.00  0.00    -0.219 N 
ATOM     13  N   UNL A   1      29.658  25.914  23.804  1.00  0.00    -0.234 NA
ATOM     14  C   UNL A   1      32.295  26.951  23.507  1.00  0.00     0.046 A 
ATOM     15  C   UNL A   1      29.899  27.193  23.718  1.00  0.00     0.045 A 
ATOM     16  C   UNL A   1      33.736  27.309  23.263  1.00  0.00     0.067 C 
ATOM     17  C   UNL A   1      28.692  28.066  23.431  1.00  0.00     0.067 C 
BRANCH   8  18
ATOM     18  C   UNL A   1      32.969  22.256  24.291  1.00  0.00     0.009 A 
ATOM     19  C   UNL A   1      32.980  19.954  25.026  1.00  0.00     0.123 A 
ATOM     20  C   UNL A   1      34.377  19.968  24.981  1.00  0.00     0.092 A 
ATOM     21  C   UNL A   1      32.272  21.109  24.693  1.00  0.00     0.057 A 
ATOM     22  C   UNL A   1      35.075  21.113  24.587  1.00  0.00     0.123 A 
ATOM     23  C   UNL A   1      34.365  22.255  24.227  1.00  0.00     0.057 A 
BRANCH  19  24
ATOM     24  O   UNL A   1      32.426  18.782  25.464  1.00  0.00    -0.497 OA
ATOM     25  C   UNL A   1      32.492  17.685  24.560  1.00  0.00     0.278 C 
ENDBRANCH  19  24
BRANCH  22  26
ATOM     26  O   UNL A   1      36.438  21.003  24.596  1.00  0.00    -0.497 OA
ATOM     27  C   UNL A   1      36.955  19.721  24.942  1.00  0.00     0.278 C 
ENDBRANCH  22  26
ENDBRANCH   8  18
ENDBRANCH   6   7
ENDBRANCH   5   6
ENDBRANCH   3   5
ENDBRANCH   2   3
ENDBRANCH   1   2
BRANCH   1  28
ATOM     28  C   UNL A   1      34.987  31.231  28.219  1.00  0.00     0.275 C 
BRANCH  28  29
ATOM     29  O   UNL A   1      35.399  32.235  29.157  1.00  0.00    -0.458 OA
BRANCH  29  30
ATOM     30  C   UNL A   1      36.074  31.753  30.215  1.00  0.00     0.338 C 
ATOM     31  O   UNL A   1      35.880  32.018  31.397  1.00  0.00    -0.246 OA
BRANCH  30  32
ATOM     32  C   UNL A   1      37.313  31.093  29.851  1.00  0.00     0.060 A 
ATOM     33  C   UNL A   1      37.278  29.689  29.857  1.00  0.00     0.016 A 
ATOM     34  C   UNL A   1      38.509  31.811  29.800  1.00  0.00     0.016 A 
ATOM     35  C   UNL A   1      38.456  28.994  29.923  1.00  0.00     0.010 A 
ATOM     36  C   UNL A   1      39.692  31.113  29.864  1.00  0.00     0.010 A 
ATOM     37  C   UNL A   1      39.645  29.720  29.967  1.00  0.00    -0.014 A 
BRANCH  37  38
ATOM     38  C   UNL A   1      40.868  28.957  29.973  1.00  0.00     0.031 A 
ATOM     39  C   UNL A   1      41.349  28.627  31.334  1.00  0.00     0.074 A 
ATOM     40  C   UNL A   1      41.415  28.470  28.851  1.00  0.00     0.049 A 
ATOM     41  N   UNL A   1      42.444  29.002  31.908  1.00  0.00    -0.248 NA
ATOM     42  C   UNL A   1      40.410  27.913  32.214  1.00  0.00     0.031 C 
ATOM     43  C   UNL A   1      40.840  28.457  27.505  1.00  0.00     0.029 A 
ATOM     44  N   UNL A   1      42.536  27.716  28.732  1.00  0.00    -0.354 N 
ATOM     45  C   UNL A   1      42.422  28.389  33.158  1.00  0.00     0.074 A 
ATOM     46  C   UNL A   1      41.080  27.911  33.365  1.00  0.00     0.031 C 
ATOM     47  C   UNL A   1      41.473  27.511  26.777  1.00  0.00     0.029 A 
ATOM     48  C   UNL A   1      42.559  26.962  27.571  1.00  0.00     0.049 A 
ATOM     49  H   UNL A   1      43.257  27.706  29.401  1.00  0.00     0.167 HD
ATOM     50  C   UNL A   1      43.560  28.086  33.834  1.00  0.00     0.034 A 
ATOM     51  C   UNL A   1      43.342  25.881  27.352  1.00  0.00     0.034 A 
ATOM     52  C   UNL A   1      44.707  28.774  33.311  1.00  0.00     0.049 A 
ATOM     53  C   UNL A   1      44.467  25.934  28.317  1.00  0.00     0.074 A 
ATOM     54  C   UNL A   1      45.075  30.096  33.162  1.00  0.00     0.029 A 
ATOM     55  N   UNL A   1      45.550  28.050  32.506  1.00  0.00    -0.354 N 
ATOM     56  N   UNL A   1      45.384  26.864  28.309  1.00  0.00    -0.248 NA
ATOM     57  C   UNL A   1      44.359  25.185  29.560  1.00  0.00     0.031 C 
ATOM     58  C   UNL A   1      45.816  30.138  31.946  1.00  0.00     0.029 A 
ATOM     59  C   UNL A   1      45.871  28.839  31.433  1.00  0.00     0.049 A 
ATOM     60  H   UNL A   1      45.866  27.131  32.669  1.00  0.00     0.167 HD
ATOM     61  C   UNL A   1      45.663  27.103  29.650  1.00  0.00     0.074 A 
ATOM     62  C   UNL A   1      45.109  25.951  30.357  1.00  0.00     0.031 C 
ATOM     63  C   UNL A   1      46.051  28.341  30.083  1.00  0.00     0.034 A 
BRANCH  50  64
ATOM     64  C   UNL A   1      43.693  26.899  34.749  1.00  0.00     0.023 A 
ATOM     65  C   UNL A   1      43.103  25.686  34.344  1.00  0.00     0.012 A 
ATOM     66  C   UNL A   1      44.150  26.979  36.085  1.00  0.00     0.148 A 
ATOM     67  C   UNL A   1      42.963  24.612  35.231  1.00  0.00     0.002 A 
ATOM     68  C   UNL A   1      44.097  25.880  36.931  1.00  0.00     0.091 A 
ATOM     69  F   UNL A   1      44.511  28.160  36.603  1.00  0.00    -0.205 F 
ATOM     70  C   UNL A   1      43.478  24.702  36.520  1.00  0.00     0.022 A 
BRANCH  68  71
ATOM     71  S   UNL A   1      44.835  25.951  38.566  1.00  0.00     0.127 S 
ATOM     72  O   UNL A   1      43.815  26.671  39.319  1.00  0.00    -0.237 OA
ATOM     73  O   UNL A   1      44.973  24.533  38.903  1.00  0.00    -0.237 OA
ATOM     74  O   UNL A   1      46.108  26.636  38.367  1.00  0.00    -0.744 OA
ENDBRANCH  68  71
ENDBRANCH  50  64
BRANCH  51  75
ATOM     75  C   UNL A   1      43.007  24.684  26.555  1.00  0.00     0.023 A 
ATOM     76  C   UNL A   1      43.828  24.303  25.480  1.00  0.00     0.012 A 
ATOM     77  C   UNL A   1      41.994  23.789  26.975  1.00  0.00     0.148 A 
ATOM     78  C   UNL A   1      43.648  23.069  24.845  1.00  0.00     0.002 A 
ATOM     79  C   UNL A   1      41.804  22.575  26.328  1.00  0.00     0.091 A 
ATOM     80  F   UNL A   1      41.272  24.095  28.063  1.00  0.00    -0.205 F 
ATOM     81  C   UNL A   1      42.639  22.207  25.267  1.00  0.00     0.022 A 
BRANCH  79  82
ATOM     82  S   UNL A   1      40.516  21.419  26.816  1.00  0.00     0.127 S 
ATOM     83  O   UNL A   1      40.876  20.225  26.052  1.00  0.00    -0.237 OA
ATOM     84  O   UNL A   1      40.734  21.314  28.256  1.00  0.00    -0.237 OA
ATOM     85  O   UNL A   1      39.257  22.032  26.410  1.00  0.00    -0.744 OA
ENDBRANCH  79  82
ENDBRANCH  51  75
BRANCH  63  86
ATOM     86  C   UNL A   1      46.387  29.382  29.038  1.00  0.00     0.023 A 
ATOM     87  C   UNL A   1      47.660  29.423  28.431  1.00  0.00     0.012 A 
ATOM     88  C   UNL A   1      45.365  30.195  28.519  1.00  0.00     0.148 A 
ATOM     89  C   UNL A   1      47.921  30.270  27.353  1.00  0.00     0.002 A 
ATOM     90  C   UNL A   1      45.616  31.007  27.416  1.00  0.00     0.091 A 
ATOM     91  F   UNL A   1      44.153  30.132  29.089  1.00  0.00    -0.205 F 
ATOM     92  C   UNL A   1      46.895  31.055  26.838  1.00  0.00     0.022 A 
BRANCH  90  93
ATOM     93  S   UNL A   1      44.314  31.945  26.610  1.00  0.00     0.127 S 
ATOM     94  O   UNL A   1      44.999  32.467  25.430  1.00  0.00    -0.237 OA
ATOM     95  O   UNL A   1      43.313  30.914  26.330  1.00  0.00    -0.237 OA
ATOM     96  O   UNL A   1      43.882  32.945  27.578  1.00  0.00    -0.744 OA
ENDBRANCH  90  93
ENDBRANCH  63  86
ENDBRANCH  37  38
ENDBRANCH  30  32
ENDBRANCH  29  30
ENDBRANCH  28  29
ENDBRANCH   1  28
TORSDOF 19
ENDMDL
