MODEL 1
REMARK VINA RESULT:     -11.8      0.000      0.000
REMARK SMILES Cc1cccc([C@@H](CC(F)(F)F)C(=O)OCCOC(=O)c2ccc(-c3c4nc(c(-c5cccc(S(=O)(=O)[O-])c5F)c5ccc([nH]5)c(-c5cccc(S(=O)(=O)[O-])c5F)c5nc(c(-c6cccc(S(=O)(=O)[O-])c6F)c6ccc3[nH]6)C=C5)C=C4)cc2)c1
REMARK SMILES IDX 17 1 16 2 15 3 13 4 14 5 7 6 6 7 1 8 2 9 3 10 84 11 4 12
REMARK SMILES IDX 5 13 8 14 9 15 10 16 11 17 12 18 18 19 19 20 20 21 21 22
REMARK SMILES IDX 22 23 83 24 23 25 82 26 24 27 25 28 26 29 76 30 27 31 81 32
REMARK SMILES IDX 75 33 77 34 28 35 80 36 74 37 73 38 29 40 61 41 41 42 60 43
REMARK SMILES IDX 42 44 45 45 59 46 78 47 43 48 44 49 58 51 79 52 46 53 30 54
REMARK SMILES IDX 31 55 39 56 32 57 34 58 40 59 33 60 35 61 36 62 37 63 38 64
REMARK SMILES IDX 62 65 63 66 71 67 64 68 66 69 72 70 65 71 67 72 68 73 69 74
REMARK SMILES IDX 70 75 47 76 48 77 56 78 49 79 51 80 57 81 50 82 52 83 53 84
REMARK SMILES IDX 54 85 55 86
REMARK H PARENT 77 39 45 50
REMARK Flexibility Score: inf
ROOT
ATOM      1  C   UNL A   1      34.137  30.208  27.040  1.00  0.00     0.275 C 
ENDROOT
BRANCH   1   2
ATOM      2  C   UNL A   1      33.514  29.030  27.803  1.00  0.00     0.274 C 
BRANCH   2   3
ATOM      3  O   UNL A   1      33.252  27.933  26.934  1.00  0.00    -0.462 OA
BRANCH   3   4
ATOM      4  C   UNL A   1      31.965  27.456  26.970  1.00  0.00     0.313 C 
ATOM      5  O   UNL A   1      31.160  27.768  27.816  1.00  0.00    -0.252 OA
BRANCH   4   6
ATOM      6  C   UNL A   1      31.745  26.488  25.796  1.00  0.00     0.138 C 
BRANCH   6   7
ATOM      7  C   UNL A   1      32.872  25.478  25.734  1.00  0.00    -0.033 A 
ATOM      8  C   UNL A   1      33.847  22.236  27.465  1.00  0.00     0.044 C 
ATOM      9  C   UNL A   1      33.820  23.375  26.491  1.00  0.00    -0.051 A 
ATOM     10  C   UNL A   1      34.719  23.410  25.418  1.00  0.00     0.003 A 
ATOM     11  C   UNL A   1      32.904  24.418  26.650  1.00  0.00     0.008 A 
ATOM     12  C   UNL A   1      34.709  24.474  24.518  1.00  0.00     0.001 A 
ATOM     13  C   UNL A   1      33.798  25.509  24.681  1.00  0.00     0.004 A 
ENDBRANCH   6   7
BRANCH   6  14
ATOM     14  C   UNL A   1      30.346  25.889  25.612  1.00  0.00     0.135 C 
BRANCH  14  15
ATOM     15  C   UNL A   1      29.574  26.291  24.377  1.00  0.00     0.390 C 
ATOM     16  F   UNL A   1      29.845  25.521  23.312  1.00  0.00    -0.171 F 
ATOM     17  F   UNL A   1      28.248  26.193  24.624  1.00  0.00    -0.171 F 
ATOM     18  F   UNL A   1      29.816  27.573  24.032  1.00  0.00    -0.171 F 
ENDBRANCH  14  15
ENDBRANCH   6  14
ENDBRANCH   4   6
ENDBRANCH   3   4
ENDBRANCH   2   3
ENDBRANCH   1   2
BRANCH   1  19
ATOM     19  O   UNL A   1      35.405  30.775  27.506  1.00  0.00    -0.458 OA
BRANCH  19  20
ATOM     20  C   UNL A   1      36.156  30.523  28.617  1.00  0.00     0.338 C 
ATOM     21  O   UNL A   1      35.866  31.000  29.706  1.00  0.00    -0.246 OA
BRANCH  20  22
ATOM     22  C   UNL A   1      37.325  29.644  28.464  1.00  0.00     0.060 A 
ATOM     23  C   UNL A   1      38.152  29.695  27.330  1.00  0.00     0.016 A 
ATOM     24  C   UNL A   1      37.656  28.845  29.538  1.00  0.00     0.016 A 
ATOM     25  C   UNL A   1      39.394  29.045  27.343  1.00  0.00     0.010 A 
ATOM     26  C   UNL A   1      38.949  28.415  29.642  1.00  0.00     0.010 A 
ATOM     27  C   UNL A   1      39.806  28.440  28.526  1.00  0.00    -0.014 A 
BRANCH  27  28
ATOM     28  C   UNL A   1      40.942  27.530  28.678  1.00  0.00     0.031 A 
ATOM     29  C   UNL A   1      40.882  26.079  28.475  1.00  0.00     0.074 A 
ATOM     30  C   UNL A   1      42.106  28.200  28.842  1.00  0.00     0.049 A 
ATOM     31  N   UNL A   1      41.758  25.259  28.938  1.00  0.00    -0.248 NA
ATOM     32  C   UNL A   1      39.828  25.407  27.740  1.00  0.00     0.031 C 
ATOM     33  C   UNL A   1      43.487  27.808  28.673  1.00  0.00     0.029 A 
ATOM     34  N   UNL A   1      42.196  29.517  29.311  1.00  0.00    -0.354 N 
ATOM     35  C   UNL A   1      41.564  24.043  28.305  1.00  0.00     0.074 A 
ATOM     36  C   UNL A   1      40.272  24.148  27.682  1.00  0.00     0.031 C 
ATOM     37  C   UNL A   1      44.262  28.731  29.281  1.00  0.00     0.029 A 
ATOM     38  C   UNL A   1      43.384  29.641  30.013  1.00  0.00     0.049 A 
ATOM     39  H   UNL A   1      41.531  30.230  29.167  1.00  0.00     0.167 HD
ATOM     40  C   UNL A   1      42.613  23.174  28.227  1.00  0.00     0.034 A 
ATOM     41  C   UNL A   1      43.327  29.872  31.360  1.00  0.00     0.034 A 
ATOM     42  C   UNL A   1      43.766  23.744  28.953  1.00  0.00     0.049 A 
ATOM     43  C   UNL A   1      43.825  28.637  32.112  1.00  0.00     0.074 A 
ATOM     44  C   UNL A   1      44.878  24.464  28.549  1.00  0.00     0.029 A 
ATOM     45  N   UNL A   1      43.657  23.955  30.322  1.00  0.00    -0.354 N 
ATOM     46  N   UNL A   1      44.229  27.525  31.555  1.00  0.00    -0.248 NA
ATOM     47  C   UNL A   1      43.757  28.536  33.564  1.00  0.00     0.031 C 
ATOM     48  C   UNL A   1      45.389  25.169  29.683  1.00  0.00     0.029 A 
ATOM     49  C   UNL A   1      44.616  24.850  30.787  1.00  0.00     0.049 A 
ATOM     50  H   UNL A   1      42.983  23.523  30.894  1.00  0.00     0.167 HD
ATOM     51  C   UNL A   1      44.308  26.533  32.499  1.00  0.00     0.074 A 
ATOM     52  C   UNL A   1      43.958  27.221  33.734  1.00  0.00     0.031 C 
ATOM     53  C   UNL A   1      44.593  25.222  32.204  1.00  0.00     0.034 A 
BRANCH  40  54
ATOM     54  C   UNL A   1      42.733  21.991  27.262  1.00  0.00     0.023 A 
ATOM     55  C   UNL A   1      41.803  20.939  27.444  1.00  0.00     0.012 A 
ATOM     56  C   UNL A   1      43.686  21.788  26.229  1.00  0.00     0.148 A 
ATOM     57  C   UNL A   1      41.858  19.736  26.730  1.00  0.00     0.002 A 
ATOM     58  C   UNL A   1      43.765  20.568  25.535  1.00  0.00     0.091 A 
ATOM     59  F   UNL A   1      44.491  22.789  25.860  1.00  0.00    -0.205 F 
ATOM     60  C   UNL A   1      42.855  19.539  25.791  1.00  0.00     0.022 A 
BRANCH  58  61
ATOM     61  S   UNL A   1      45.036  20.192  24.306  1.00  0.00     0.127 S 
ATOM     62  O   UNL A   1      44.838  18.757  24.089  1.00  0.00    -0.237 OA
ATOM     63  O   UNL A   1      44.640  21.030  23.175  1.00  0.00    -0.237 OA
ATOM     64  O   UNL A   1      46.313  20.537  24.917  1.00  0.00    -0.744 OA
ENDBRANCH  58  61
ENDBRANCH  40  54
BRANCH  41  65
ATOM     65  C   UNL A   1      42.111  30.702  31.779  1.00  0.00     0.023 A 
ATOM     66  C   UNL A   1      41.817  31.883  31.038  1.00  0.00     0.012 A 
ATOM     67  C   UNL A   1      41.070  30.164  32.556  1.00  0.00     0.148 A 
ATOM     68  C   UNL A   1      40.508  32.383  30.944  1.00  0.00     0.002 A 
ATOM     69  C   UNL A   1      39.771  30.669  32.461  1.00  0.00     0.091 A 
ATOM     70  F   UNL A   1      41.303  29.112  33.346  1.00  0.00    -0.205 F 
ATOM     71  C   UNL A   1      39.476  31.753  31.631  1.00  0.00     0.022 A 
BRANCH  69  72
ATOM     72  S   UNL A   1      38.444  29.777  33.286  1.00  0.00     0.127 S 
ATOM     73  O   UNL A   1      37.235  30.357  32.702  1.00  0.00    -0.237 OA
ATOM     74  O   UNL A   1      38.674  28.391  32.898  1.00  0.00    -0.237 OA
ATOM     75  O   UNL A   1      38.676  30.117  34.686  1.00  0.00    -0.744 OA
ENDBRANCH  69  72
ENDBRANCH  41  65
BRANCH  53  76
ATOM     76  C   UNL A   1      44.820  24.138  33.258  1.00  0.00     0.023 A 
ATOM     77  C   UNL A   1      43.773  23.331  33.740  1.00  0.00     0.012 A 
ATOM     78  C   UNL A   1      46.078  23.943  33.887  1.00  0.00     0.148 A 
ATOM     79  C   UNL A   1      43.984  22.276  34.632  1.00  0.00     0.002 A 
ATOM     80  C   UNL A   1      46.288  22.908  34.793  1.00  0.00     0.091 A 
ATOM     81  F   UNL A   1      47.072  24.815  33.693  1.00  0.00    -0.205 F 
ATOM     82  C   UNL A   1      45.250  22.044  35.137  1.00  0.00     0.022 A 
BRANCH  80  83
ATOM     83  S   UNL A   1      47.877  22.655  35.592  1.00  0.00     0.127 S 
ATOM     84  O   UNL A   1      47.612  21.457  36.390  1.00  0.00    -0.237 OA
ATOM     85  O   UNL A   1      48.764  22.442  34.448  1.00  0.00    -0.237 OA
ATOM     86  O   UNL A   1      48.148  23.868  36.349  1.00  0.00    -0.744 OA
ENDBRANCH  80  83
ENDBRANCH  53  76
ENDBRANCH  27  28
ENDBRANCH  20  22
ENDBRANCH  19  20
ENDBRANCH   1  19
TORSDOF 17
ENDMDL
MODEL 2
REMARK VINA RESULT:     -11.8      2.323      3.605
REMARK SMILES Cc1cccc([C@@H](CC(F)(F)F)C(=O)OCCOC(=O)c2ccc(-c3c4nc(c(-c5cccc(S(=O)(=O)[O-])c5F)c5ccc([nH]5)c(-c5cccc(S(=O)(=O)[O-])c5F)c5nc(c(-c6cccc(S(=O)(=O)[O-])c6F)c6ccc3[nH]6)C=C5)C=C4)cc2)c1
REMARK SMILES IDX 17 1 16 2 15 3 13 4 14 5 7 6 6 7 1 8 2 9 3 10 84 11 4 12
REMARK SMILES IDX 5 13 8 14 9 15 10 16 11 17 12 18 18 19 19 20 20 21 21 22
REMARK SMILES IDX 22 23 83 24 23 25 82 26 24 27 25 28 26 29 76 30 27 31 81 32
REMARK SMILES IDX 75 33 77 34 28 35 80 36 74 37 73 38 29 40 61 41 41 42 60 43
REMARK SMILES IDX 42 44 45 45 59 46 78 47 43 48 44 49 58 51 79 52 46 53 30 54
REMARK SMILES IDX 31 55 39 56 32 57 34 58 40 59 33 60 35 61 36 62 37 63 38 64
REMARK SMILES IDX 62 65 63 66 71 67 64 68 66 69 72 70 65 71 67 72 68 73 69 74
REMARK SMILES IDX 70 75 47 76 48 77 56 78 49 79 51 80 57 81 50 82 52 83 53 84
REMARK SMILES IDX 54 85 55 86
REMARK H PARENT 77 39 45 50
REMARK Flexibility Score: inf
ROOT
ATOM      1  C   UNL A   1      33.255  30.290  27.198  1.00  0.00     0.275 C 
ENDROOT
BRANCH   1   2
ATOM      2  C   UNL A   1      32.365  29.200  26.581  1.00  0.00     0.274 C 
BRANCH   2   3
ATOM      3  O   UNL A   1      31.433  29.755  25.659  1.00  0.00    -0.462 OA
BRANCH   3   4
ATOM      4  C   UNL A   1      31.519  29.267  24.379  1.00  0.00     0.313 C 
ATOM      5  O   UNL A   1      32.528  29.307  23.715  1.00  0.00    -0.252 OA
BRANCH   4   6
ATOM      6  C   UNL A   1      30.157  28.694  23.957  1.00  0.00     0.138 C 
BRANCH   6   7
ATOM      7  C   UNL A   1      29.348  29.750  23.231  1.00  0.00    -0.033 A 
ATOM      8  C   UNL A   1      29.019  33.538  23.231  1.00  0.00     0.044 C 
ATOM      9  C   UNL A   1      28.883  32.100  22.834  1.00  0.00    -0.051 A 
ATOM     10  C   UNL A   1      28.159  31.747  21.688  1.00  0.00     0.003 A 
ATOM     11  C   UNL A   1      29.468  31.095  23.608  1.00  0.00     0.008 A 
ATOM     12  C   UNL A   1      28.015  30.411  21.322  1.00  0.00     0.001 A 
ATOM     13  C   UNL A   1      28.597  29.415  22.095  1.00  0.00     0.004 A 
ENDBRANCH   6   7
BRANCH   6  14
ATOM     14  C   UNL A   1      30.133  27.313  23.293  1.00  0.00     0.135 C 
BRANCH  14  15
ATOM     15  C   UNL A   1      29.396  26.208  24.013  1.00  0.00     0.390 C 
ATOM     16  F   UNL A   1      29.514  26.278  25.348  1.00  0.00    -0.171 F 
ATOM     17  F   UNL A   1      28.078  26.278  23.716  1.00  0.00    -0.171 F 
ATOM     18  F   UNL A   1      29.821  24.988  23.625  1.00  0.00    -0.171 F 
ENDBRANCH  14  15
ENDBRANCH   6  14
ENDBRANCH   4   6
ENDBRANCH   3   4
ENDBRANCH   2   3
ENDBRANCH   1   2
BRANCH   1  19
ATOM     19  O   UNL A   1      34.668  30.000  27.457  1.00  0.00    -0.458 OA
BRANCH  19  20
ATOM     20  C   UNL A   1      35.690  30.792  27.893  1.00  0.00     0.338 C 
ATOM     21  O   UNL A   1      35.586  32.011  27.920  1.00  0.00    -0.246 OA
BRANCH  20  22
ATOM     22  C   UNL A   1      36.922  30.127  28.343  1.00  0.00     0.060 A 
ATOM     23  C   UNL A   1      36.992  29.435  29.563  1.00  0.00     0.016 A 
ATOM     24  C   UNL A   1      37.982  30.101  27.460  1.00  0.00     0.016 A 
ATOM     25  C   UNL A   1      38.083  28.594  29.826  1.00  0.00     0.010 A 
ATOM     26  C   UNL A   1      38.915  29.114  27.608  1.00  0.00     0.010 A 
ATOM     27  C   UNL A   1      39.024  28.404  28.819  1.00  0.00    -0.014 A 
BRANCH  27  28
ATOM     28  C   UNL A   1      40.330  27.763  28.970  1.00  0.00     0.031 A 
ATOM     29  C   UNL A   1      40.629  26.377  28.591  1.00  0.00     0.074 A 
ATOM     30  C   UNL A   1      41.289  28.649  29.324  1.00  0.00     0.049 A 
ATOM     31  N   UNL A   1      41.641  25.722  29.036  1.00  0.00    -0.248 NA
ATOM     32  C   UNL A   1      39.815  25.593  27.683  1.00  0.00     0.031 C 
ATOM     33  C   UNL A   1      42.731  28.606  29.243  1.00  0.00     0.029 A 
ATOM     34  N   UNL A   1      41.033  29.875  29.953  1.00  0.00    -0.354 N 
ATOM     35  C   UNL A   1      41.783  24.592  28.246  1.00  0.00     0.074 A 
ATOM     36  C   UNL A   1      40.548  24.487  27.519  1.00  0.00     0.031 C 
ATOM     37  C   UNL A   1      43.224  29.588  30.029  1.00  0.00     0.029 A 
ATOM     38  C   UNL A   1      42.109  30.166  30.776  1.00  0.00     0.049 A 
ATOM     39  H   UNL A   1      40.229  30.431  29.831  1.00  0.00     0.167 HD
ATOM     40  C   UNL A   1      43.010  24.002  28.167  1.00  0.00     0.034 A 
ATOM     41  C   UNL A   1      41.910  30.189  32.129  1.00  0.00     0.034 A 
ATOM     42  C   UNL A   1      43.945  24.712  29.064  1.00  0.00     0.049 A 
ATOM     43  C   UNL A   1      42.635  29.008  32.773  1.00  0.00     0.074 A 
ATOM     44  C   UNL A   1      44.880  25.714  28.858  1.00  0.00     0.029 A 
ATOM     45  N   UNL A   1      43.700  24.702  30.431  1.00  0.00    -0.354 N 
ATOM     46  N   UNL A   1      43.327  28.103  32.130  1.00  0.00    -0.248 NA
ATOM     47  C   UNL A   1      42.498  28.694  34.189  1.00  0.00     0.031 C 
ATOM     48  C   UNL A   1      45.133  26.353  30.112  1.00  0.00     0.029 A 
ATOM     49  C   UNL A   1      44.387  25.718  31.090  1.00  0.00     0.049 A 
ATOM     50  H   UNL A   1      43.110  24.054  30.880  1.00  0.00     0.167 HD
ATOM     51  C   UNL A   1      43.576  27.035  32.952  1.00  0.00     0.074 A 
ATOM     52  C   UNL A   1      42.992  27.449  34.220  1.00  0.00     0.031 C 
ATOM     53  C   UNL A   1      44.182  25.875  32.532  1.00  0.00     0.034 A 
BRANCH  40  54
ATOM     54  C   UNL A   1      43.472  23.022  27.085  1.00  0.00     0.023 A 
ATOM     55  C   UNL A   1      44.334  23.547  26.092  1.00  0.00     0.012 A 
ATOM     56  C   UNL A   1      43.115  21.657  26.920  1.00  0.00     0.148 A 
ATOM     57  C   UNL A   1      44.743  22.818  24.970  1.00  0.00     0.002 A 
ATOM     58  C   UNL A   1      43.496  20.934  25.777  1.00  0.00     0.091 A 
ATOM     59  F   UNL A   1      42.454  21.020  27.891  1.00  0.00    -0.205 F 
ATOM     60  C   UNL A   1      44.304  21.517  24.798  1.00  0.00     0.022 A 
BRANCH  58  61
ATOM     61  S   UNL A   1      42.964  19.239  25.437  1.00  0.00     0.127 S 
ATOM     62  O   UNL A   1      43.602  18.971  24.146  1.00  0.00    -0.237 OA
ATOM     63  O   UNL A   1      43.542  18.497  26.557  1.00  0.00    -0.237 OA
ATOM     64  O   UNL A   1      41.509  19.267  25.394  1.00  0.00    -0.744 OA
ENDBRANCH  58  61
ENDBRANCH  40  54
BRANCH  41  65
ATOM     65  C   UNL A   1      40.507  30.658  32.524  1.00  0.00     0.023 A 
ATOM     66  C   UNL A   1      39.603  29.695  33.057  1.00  0.00     0.012 A 
ATOM     67  C   UNL A   1      40.213  32.011  32.772  1.00  0.00     0.148 A 
ATOM     68  C   UNL A   1      38.571  30.064  33.936  1.00  0.00     0.002 A 
ATOM     69  C   UNL A   1      39.183  32.372  33.642  1.00  0.00     0.091 A 
ATOM     70  F   UNL A   1      40.968  32.967  32.224  1.00  0.00    -0.205 F 
ATOM     71  C   UNL A   1      38.383  31.405  34.256  1.00  0.00     0.022 A 
BRANCH  69  72
ATOM     72  S   UNL A   1      39.025  34.101  34.110  1.00  0.00     0.127 S 
ATOM     73  O   UNL A   1      40.375  34.459  34.544  1.00  0.00    -0.237 OA
ATOM     74  O   UNL A   1      38.617  34.752  32.871  1.00  0.00    -0.237 OA
ATOM     75  O   UNL A   1      38.032  34.036  35.177  1.00  0.00    -0.744 OA
ENDBRANCH  69  72
ENDBRANCH  41  65
BRANCH  53  76
ATOM     76  C   UNL A   1      44.589  24.736  33.466  1.00  0.00     0.023 A 
ATOM     77  C   UNL A   1      43.661  23.797  33.952  1.00  0.00     0.012 A 
ATOM     78  C   UNL A   1      45.907  24.610  33.981  1.00  0.00     0.148 A 
ATOM     79  C   UNL A   1      44.035  22.698  34.729  1.00  0.00     0.002 A 
ATOM     80  C   UNL A   1      46.281  23.530  34.774  1.00  0.00     0.091 A 
ATOM     81  F   UNL A   1      46.801  25.585  33.791  1.00  0.00    -0.205 F 
ATOM     82  C   UNL A   1      45.354  22.547  35.117  1.00  0.00     0.022 A 
BRANCH  80  83
ATOM     83  S   UNL A   1      47.945  23.365  35.429  1.00  0.00     0.127 S 
ATOM     84  O   UNL A   1      48.031  24.537  36.301  1.00  0.00    -0.237 OA
ATOM     85  O   UNL A   1      47.870  22.085  36.133  1.00  0.00    -0.237 OA
ATOM     86  O   UNL A   1      48.837  23.369  34.279  1.00  0.00    -0.744 OA
ENDBRANCH  80  83
ENDBRANCH  53  76
ENDBRANCH  27  28
ENDBRANCH  20  22
ENDBRANCH  19  20
ENDBRANCH   1  19
TORSDOF 17
ENDMDL
MODEL 3
REMARK VINA RESULT:     -11.7      4.932     10.757
REMARK SMILES Cc1cccc([C@@H](CC(F)(F)F)C(=O)OCCOC(=O)c2ccc(-c3c4nc(c(-c5cccc(S(=O)(=O)[O-])c5F)c5ccc([nH]5)c(-c5cccc(S(=O)(=O)[O-])c5F)c5nc(c(-c6cccc(S(=O)(=O)[O-])c6F)c6ccc3[nH]6)C=C5)C=C4)cc2)c1
REMARK SMILES IDX 17 1 16 2 15 3 13 4 14 5 7 6 6 7 1 8 2 9 3 10 84 11 4 12
REMARK SMILES IDX 5 13 8 14 9 15 10 16 11 17 12 18 18 19 19 20 20 21 21 22
REMARK SMILES IDX 22 23 83 24 23 25 82 26 24 27 25 28 26 29 76 30 27 31 81 32
REMARK SMILES IDX 75 33 77 34 28 35 80 36 74 37 73 38 29 40 61 41 41 42 60 43
REMARK SMILES IDX 42 44 45 45 59 46 78 47 43 48 44 49 58 51 79 52 46 53 30 54
REMARK SMILES IDX 31 55 39 56 32 57 34 58 40 59 33 60 35 61 36 62 37 63 38 64
REMARK SMILES IDX 62 65 63 66 71 67 64 68 66 69 72 70 65 71 67 72 68 73 69 74
REMARK SMILES IDX 70 75 47 76 48 77 56 78 49 79 51 80 57 81 50 82 52 83 53 84
REMARK SMILES IDX 54 85 55 86
REMARK H PARENT 77 39 45 50
REMARK Flexibility Score: inf
ROOT
ATOM      1  C   UNL A   1      37.714  23.573  25.958  1.00  0.00     0.275 C 
ENDROOT
BRANCH   1   2
ATOM      2  C   UNL A   1      37.447  22.380  25.028  1.00  0.00     0.274 C 
BRANCH   2   3
ATOM      3  O   UNL A   1      36.053  22.217  24.787  1.00  0.00    -0.462 OA
BRANCH   3   4
ATOM      4  C   UNL A   1      35.571  22.880  23.685  1.00  0.00     0.313 C 
ATOM      5  O   UNL A   1      36.259  23.204  22.747  1.00  0.00    -0.252 OA
BRANCH   4   6
ATOM      6  C   UNL A   1      34.064  23.132  23.859  1.00  0.00     0.138 C 
BRANCH   6   7
ATOM      7  C   UNL A   1      33.771  24.617  23.783  1.00  0.00    -0.033 A 
ATOM      8  C   UNL A   1      34.027  27.657  26.052  1.00  0.00     0.044 C 
ATOM      9  C   UNL A   1      33.849  26.805  24.833  1.00  0.00    -0.051 A 
ATOM     10  C   UNL A   1      33.593  27.394  23.588  1.00  0.00     0.003 A 
ATOM     11  C   UNL A   1      33.928  25.413  24.926  1.00  0.00     0.008 A 
ATOM     12  C   UNL A   1      33.412  26.607  22.454  1.00  0.00     0.001 A 
ATOM     13  C   UNL A   1      33.489  25.224  22.551  1.00  0.00     0.004 A 
ENDBRANCH   6   7
BRANCH   6  14
ATOM     14  C   UNL A   1      33.093  22.254  23.062  1.00  0.00     0.135 C 
BRANCH  14  15
ATOM     15  C   UNL A   1      32.596  20.990  23.724  1.00  0.00     0.390 C 
ATOM     16  F   UNL A   1      31.724  21.222  24.717  1.00  0.00    -0.171 F 
ATOM     17  F   UNL A   1      31.972  20.216  22.806  1.00  0.00    -0.171 F 
ATOM     18  F   UNL A   1      33.611  20.258  24.229  1.00  0.00    -0.171 F 
ENDBRANCH  14  15
ENDBRANCH   6  14
ENDBRANCH   4   6
ENDBRANCH   3   4
ENDBRANCH   2   3
ENDBRANCH   1   2
BRANCH   1  19
ATOM     19  O   UNL A   1      39.083  24.074  26.106  1.00  0.00    -0.458 OA
BRANCH  19  20
ATOM     20  C   UNL A   1      39.811  24.410  27.211  1.00  0.00     0.338 C 
ATOM     21  O   UNL A   1      40.677  23.669  27.654  1.00  0.00    -0.246 OA
BRANCH  20  22
ATOM     22  C   UNL A   1      39.527  25.705  27.845  1.00  0.00     0.060 A 
ATOM     23  C   UNL A   1      38.974  25.799  29.133  1.00  0.00     0.016 A 
ATOM     24  C   UNL A   1      39.939  26.839  27.177  1.00  0.00     0.016 A 
ATOM     25  C   UNL A   1      38.973  27.029  29.805  1.00  0.00     0.010 A 
ATOM     26  C   UNL A   1      40.153  27.973  27.908  1.00  0.00     0.010 A 
ATOM     27  C   UNL A   1      39.608  28.108  29.198  1.00  0.00    -0.014 A 
BRANCH  27  28
ATOM     28  C   UNL A   1      39.520  29.507  29.619  1.00  0.00     0.031 A 
ATOM     29  C   UNL A   1      38.518  30.463  29.136  1.00  0.00     0.074 A 
ATOM     30  C   UNL A   1      40.351  29.776  30.652  1.00  0.00     0.049 A 
ATOM     31  N   UNL A   1      38.650  31.739  29.227  1.00  0.00    -0.248 NA
ATOM     32  C   UNL A   1      37.274  30.079  28.496  1.00  0.00     0.031 C 
ATOM     33  C   UNL A   1      40.378  30.842  31.628  1.00  0.00     0.029 A 
ATOM     34  N   UNL A   1      41.491  29.021  30.961  1.00  0.00    -0.354 N 
ATOM     35  C   UNL A   1      37.412  32.304  28.968  1.00  0.00     0.074 A 
ATOM     36  C   UNL A   1      36.633  31.246  28.384  1.00  0.00     0.031 C 
ATOM     37  C   UNL A   1      41.589  30.834  32.224  1.00  0.00     0.029 A 
ATOM     38  C   UNL A   1      42.432  29.876  31.512  1.00  0.00     0.049 A 
ATOM     39  H   UNL A   1      41.602  28.054  30.813  1.00  0.00     0.167 HD
ATOM     40  C   UNL A   1      37.146  33.546  29.465  1.00  0.00     0.034 A 
ATOM     41  C   UNL A   1      43.589  30.106  30.820  1.00  0.00     0.034 A 
ATOM     42  C   UNL A   1      38.352  34.061  30.145  1.00  0.00     0.049 A 
ATOM     43  C   UNL A   1      43.604  31.549  30.314  1.00  0.00     0.074 A 
ATOM     44  C   UNL A   1      38.758  34.080  31.470  1.00  0.00     0.029 A 
ATOM     45  N   UNL A   1      39.500  34.282  29.396  1.00  0.00    -0.354 N 
ATOM     46  N   UNL A   1      42.650  32.424  30.499  1.00  0.00    -0.248 NA
ATOM     47  C   UNL A   1      44.649  32.048  29.432  1.00  0.00     0.031 C 
ATOM     48  C   UNL A   1      40.179  34.240  31.498  1.00  0.00     0.029 A 
ATOM     49  C   UNL A   1      40.636  34.360  30.196  1.00  0.00     0.049 A 
ATOM     50  H   UNL A   1      39.510  34.373  28.415  1.00  0.00     0.167 HD
ATOM     51  C   UNL A   1      42.835  33.498  29.667  1.00  0.00     0.074 A 
ATOM     52  C   UNL A   1      44.086  33.183  28.991  1.00  0.00     0.031 C 
ATOM     53  C   UNL A   1      41.937  34.531  29.545  1.00  0.00     0.034 A 
BRANCH  40  54
ATOM     54  C   UNL A   1      35.758  34.171  29.635  1.00  0.00     0.023 A 
ATOM     55  C   UNL A   1      35.112  34.589  28.446  1.00  0.00     0.012 A 
ATOM     56  C   UNL A   1      35.046  34.425  30.837  1.00  0.00     0.148 A 
ATOM     57  C   UNL A   1      33.900  35.289  28.440  1.00  0.00     0.002 A 
ATOM     58  C   UNL A   1      33.846  35.157  30.835  1.00  0.00     0.091 A 
ATOM     59  F   UNL A   1      35.483  33.913  31.991  1.00  0.00    -0.205 F 
ATOM     60  C   UNL A   1      33.278  35.597  29.637  1.00  0.00     0.022 A 
BRANCH  58  61
ATOM     61  S   UNL A   1      32.959  35.635  32.337  1.00  0.00     0.127 S 
ATOM     62  O   UNL A   1      32.591  34.334  32.902  1.00  0.00    -0.237 OA
ATOM     63  O   UNL A   1      33.985  36.350  33.095  1.00  0.00    -0.237 OA
ATOM     64  O   UNL A   1      31.827  36.444  31.905  1.00  0.00    -0.744 OA
ENDBRANCH  58  61
ENDBRANCH  40  54
BRANCH  41  65
ATOM     65  C   UNL A   1      44.051  28.900  29.998  1.00  0.00     0.023 A 
ATOM     66  C   UNL A   1      44.082  27.626  30.633  1.00  0.00     0.012 A 
ATOM     67  C   UNL A   1      44.047  28.909  28.591  1.00  0.00     0.148 A 
ATOM     68  C   UNL A   1      43.933  26.437  29.900  1.00  0.00     0.002 A 
ATOM     69  C   UNL A   1      43.903  27.723  27.868  1.00  0.00     0.091 A 
ATOM     70  F   UNL A   1      44.111  30.070  27.932  1.00  0.00    -0.205 F 
ATOM     71  C   UNL A   1      43.809  26.489  28.516  1.00  0.00     0.022 A 
BRANCH  69  72
ATOM     72  S   UNL A   1      43.651  27.830  26.091  1.00  0.00     0.127 S 
ATOM     73  O   UNL A   1      42.667  28.904  25.953  1.00  0.00    -0.237 OA
ATOM     74  O   UNL A   1      44.972  28.177  25.580  1.00  0.00    -0.237 OA
ATOM     75  O   UNL A   1      43.153  26.495  25.776  1.00  0.00    -0.744 OA
ENDBRANCH  69  72
ENDBRANCH  41  65
BRANCH  53  76
ATOM     76  C   UNL A   1      42.196  35.797  28.728  1.00  0.00     0.023 A 
ATOM     77  C   UNL A   1      41.858  35.892  27.366  1.00  0.00     0.012 A 
ATOM     78  C   UNL A   1      42.881  36.920  29.265  1.00  0.00     0.148 A 
ATOM     79  C   UNL A   1      42.002  37.073  26.633  1.00  0.00     0.002 A 
ATOM     80  C   UNL A   1      43.047  38.091  28.533  1.00  0.00     0.091 A 
ATOM     81  F   UNL A   1      43.469  36.842  30.462  1.00  0.00    -0.205 F 
ATOM     82  C   UNL A   1      42.571  38.185  27.227  1.00  0.00     0.022 A 
BRANCH  80  83
ATOM     83  S   UNL A   1      43.913  39.515  29.205  1.00  0.00     0.127 S 
ATOM     84  O   UNL A   1      43.159  39.757  30.435  1.00  0.00    -0.237 OA
ATOM     85  O   UNL A   1      45.260  38.983  29.410  1.00  0.00    -0.237 OA
ATOM     86  O   UNL A   1      43.823  40.558  28.195  1.00  0.00    -0.744 OA
ENDBRANCH  80  83
ENDBRANCH  53  76
ENDBRANCH  27  28
ENDBRANCH  20  22
ENDBRANCH  19  20
ENDBRANCH   1  19
TORSDOF 17
ENDMDL
