MODEL 1
REMARK VINA RESULT:     -10.9      0.000      0.000
REMARK SMILES CCCc1cc2c(cc1Cl)C=C(C(=O)OCCOC(=O)c1ccc(-c3c4nc(c(-c5cccc(S(=O)(=O)[O-])c5F)c5ccc([nH]5)c(-c5cccc(S(=O)(=O)[O-])c5F)c5nc(c(-c6cccc(S(=O)(=O)[O-])c6F)c6ccc3[nH]6)C=C5)C=C4)cc1)[C@@H](C(F)(F)F)O2
REMARK SMILES IDX 17 1 16 2 15 3 13 4 14 5 12 6 4 7 5 8 9 9 6 10 8 11 10 12
REMARK SMILES IDX 7 13 89 14 11 15 84 16 3 17 2 18 1 19 85 20 86 21 87 22
REMARK SMILES IDX 88 23 18 24 19 25 20 26 21 27 22 28 83 29 23 30 82 31 24 32
REMARK SMILES IDX 25 33 26 34 76 35 27 36 81 37 75 38 77 39 28 40 80 41 74 42
REMARK SMILES IDX 73 43 29 45 61 46 41 47 60 48 42 49 45 50 59 51 78 52 43 53
REMARK SMILES IDX 44 54 58 56 79 57 46 58 30 59 31 60 39 61 32 62 34 63 40 64
REMARK SMILES IDX 33 65 35 66 36 67 37 68 38 69 62 70 63 71 71 72 64 73 66 74
REMARK SMILES IDX 72 75 65 76 67 77 68 78 69 79 70 80 47 81 48 82 56 83 49 84
REMARK SMILES IDX 51 85 57 86 50 87 52 88 53 89 54 90 55 91
REMARK H PARENT 77 44 45 55
REMARK Flexibility Score: inf
ROOT
ATOM      1  C   UNL A   1      33.305  33.717  28.133  1.00  0.00     0.275 C 
ENDROOT
BRANCH   1   2
ATOM      2  C   UNL A   1      34.042  34.872  28.811  1.00  0.00     0.275 C 
BRANCH   2   3
ATOM      3  O   UNL A   1      33.954  34.783  30.252  1.00  0.00    -0.459 OA
BRANCH   3   4
ATOM      4  C   UNL A   1      34.600  33.733  30.807  1.00  0.00     0.338 C 
ATOM      5  O   UNL A   1      34.246  32.565  30.782  1.00  0.00    -0.246 OA
BRANCH   4   6
ATOM      6  C   UNL A   1      35.853  34.173  31.447  1.00  0.00     0.087 C 
ATOM      7  C   UNL A   1      40.721  34.631  32.630  1.00  0.00    -0.026 A 
ATOM      8  C   UNL A   1      39.514  34.828  33.336  1.00  0.00     0.052 A 
ATOM      9  C   UNL A   1      40.658  34.340  31.257  1.00  0.00     0.045 A 
ATOM     10  C   UNL A   1      38.278  34.683  32.704  1.00  0.00     0.128 A 
ATOM     11  C   UNL A   1      39.424  34.178  30.633  1.00  0.00     0.032 A 
ATOM     12  Cl  UNL A   1      42.067  34.139  30.281  1.00  0.00    -0.084 Cl
ATOM     13  C   UNL A   1      38.241  34.324  31.363  1.00  0.00     0.019 A 
ATOM     14  O   UNL A   1      37.159  34.884  33.463  1.00  0.00    -0.475 OA
ATOM     15  C   UNL A   1      36.975  34.031  30.737  1.00  0.00     0.027 C 
ATOM     16  C   UNL A   1      35.844  34.639  32.874  1.00  0.00     0.316 C 
BRANCH   7  17
ATOM     17  C   UNL A   1      42.027  34.672  33.389  1.00  0.00     0.037 C 
BRANCH  17  18
ATOM     18  C   UNL A   1      42.625  36.082  33.484  1.00  0.00     0.001 C 
ATOM     19  C   UNL A   1      43.920  36.269  32.702  1.00  0.00     0.004 C 
ENDBRANCH  17  18
ENDBRANCH   7  17
BRANCH  16  20
ATOM     20  C   UNL A   1      35.089  33.667  33.795  1.00  0.00     0.430 C 
ATOM     21  F   UNL A   1      35.505  32.390  33.606  1.00  0.00    -0.167 F 
ATOM     22  F   UNL A   1      35.303  33.944  35.104  1.00  0.00    -0.167 F 
ATOM     23  F   UNL A   1      33.753  33.693  33.588  1.00  0.00    -0.167 F 
ENDBRANCH  16  20
ENDBRANCH   4   6
ENDBRANCH   3   4
ENDBRANCH   2   3
ENDBRANCH   1   2
BRANCH   1  24
ATOM     24  O   UNL A   1      34.226  32.906  27.383  1.00  0.00    -0.458 OA
BRANCH  24  25
ATOM     25  C   UNL A   1      34.133  31.575  27.600  1.00  0.00     0.338 C 
ATOM     26  O   UNL A   1      33.156  30.865  27.439  1.00  0.00    -0.246 OA
BRANCH  25  27
ATOM     27  C   UNL A   1      35.448  31.051  28.000  1.00  0.00     0.060 A 
ATOM     28  C   UNL A   1      36.576  31.862  28.014  1.00  0.00     0.016 A 
ATOM     29  C   UNL A   1      35.511  29.765  28.523  1.00  0.00     0.016 A 
ATOM     30  C   UNL A   1      37.767  31.359  28.553  1.00  0.00     0.010 A 
ATOM     31  C   UNL A   1      36.639  29.339  29.213  1.00  0.00     0.010 A 
ATOM     32  C   UNL A   1      37.807  30.107  29.202  1.00  0.00    -0.014 A 
BRANCH  32  33
ATOM     33  C   UNL A   1      39.052  29.598  29.853  1.00  0.00     0.031 A 
ATOM     34  C   UNL A   1      39.432  30.014  31.260  1.00  0.00     0.074 A 
ATOM     35  C   UNL A   1      39.886  28.789  29.163  1.00  0.00     0.049 A 
ATOM     36  N   UNL A   1      40.470  29.652  31.971  1.00  0.00    -0.248 NA
ATOM     37  C   UNL A   1      38.569  30.994  31.944  1.00  0.00     0.031 C 
ATOM     38  C   UNL A   1      39.729  28.411  27.755  1.00  0.00     0.029 A 
ATOM     39  N   UNL A   1      41.025  28.127  29.553  1.00  0.00    -0.354 N 
ATOM     40  C   UNL A   1      40.412  30.396  33.145  1.00  0.00     0.074 A 
ATOM     41  C   UNL A   1      39.267  31.268  33.036  1.00  0.00     0.031 C 
ATOM     42  C   UNL A   1      40.687  27.530  27.425  1.00  0.00     0.029 A 
ATOM     43  C   UNL A   1      41.544  27.302  28.582  1.00  0.00     0.049 A 
ATOM     44  H   UNL A   1      41.431  28.233  30.443  1.00  0.00     0.167 HD
ATOM     45  C   UNL A   1      41.200  30.327  34.243  1.00  0.00     0.034 A 
ATOM     46  C   UNL A   1      42.578  26.437  28.620  1.00  0.00     0.034 A 
ATOM     47  C   UNL A   1      42.261  29.375  34.412  1.00  0.00     0.049 A 
ATOM     48  C   UNL A   1      43.353  26.271  29.895  1.00  0.00     0.074 A 
ATOM     49  C   UNL A   1      43.026  29.133  35.539  1.00  0.00     0.029 A 
ATOM     50  N   UNL A   1      42.689  28.492  33.434  1.00  0.00    -0.354 N 
ATOM     51  N   UNL A   1      43.182  26.880  31.043  1.00  0.00    -0.248 NA
ATOM     52  C   UNL A   1      44.443  25.284  29.894  1.00  0.00     0.031 C 
ATOM     53  C   UNL A   1      43.915  28.096  35.245  1.00  0.00     0.029 A 
ATOM     54  C   UNL A   1      43.702  27.695  33.935  1.00  0.00     0.049 A 
ATOM     55  H   UNL A   1      42.327  28.439  32.521  1.00  0.00     0.167 HD
ATOM     56  C   UNL A   1      44.130  26.343  31.904  1.00  0.00     0.074 A 
ATOM     57  C   UNL A   1      44.860  25.342  31.153  1.00  0.00     0.031 C 
ATOM     58  C   UNL A   1      44.384  26.667  33.194  1.00  0.00     0.034 A 
BRANCH  45  59
ATOM     59  C   UNL A   1      40.875  31.225  35.408  1.00  0.00     0.023 A 
ATOM     60  C   UNL A   1      41.763  32.272  35.732  1.00  0.00     0.012 A 
ATOM     61  C   UNL A   1      39.666  31.096  36.119  1.00  0.00     0.148 A 
ATOM     62  C   UNL A   1      41.465  33.163  36.760  1.00  0.00     0.002 A 
ATOM     63  C   UNL A   1      39.359  32.011  37.120  1.00  0.00     0.091 A 
ATOM     64  F   UNL A   1      38.842  30.089  35.800  1.00  0.00    -0.205 F 
ATOM     65  C   UNL A   1      40.260  33.039  37.447  1.00  0.00     0.022 A 
BRANCH  63  66
ATOM     66  S   UNL A   1      37.809  31.986  38.027  1.00  0.00     0.127 S 
ATOM     67  O   UNL A   1      37.389  30.595  37.857  1.00  0.00    -0.237 OA
ATOM     68  O   UNL A   1      38.242  32.330  39.382  1.00  0.00    -0.237 OA
ATOM     69  O   UNL A   1      36.950  32.974  37.390  1.00  0.00    -0.744 OA
ENDBRANCH  63  66
ENDBRANCH  45  59
BRANCH  46  70
ATOM     70  C   UNL A   1      42.846  25.575  27.435  1.00  0.00     0.023 A 
ATOM     71  C   UNL A   1      43.702  26.054  26.425  1.00  0.00     0.012 A 
ATOM     72  C   UNL A   1      42.341  24.264  27.348  1.00  0.00     0.148 A 
ATOM     73  C   UNL A   1      44.047  25.245  25.343  1.00  0.00     0.002 A 
ATOM     74  C   UNL A   1      42.720  23.449  26.286  1.00  0.00     0.091 A 
ATOM     75  F   UNL A   1      41.529  23.833  28.322  1.00  0.00    -0.205 F 
ATOM     76  C   UNL A   1      43.566  23.941  25.279  1.00  0.00     0.022 A 
BRANCH  74  77
ATOM     77  S   UNL A   1      42.244  21.721  26.169  1.00  0.00     0.127 S 
ATOM     78  O   UNL A   1      42.533  21.240  27.519  1.00  0.00    -0.237 OA
ATOM     79  O   UNL A   1      40.821  21.826  25.844  1.00  0.00    -0.237 OA
ATOM     80  O   UNL A   1      43.069  21.152  25.113  1.00  0.00    -0.744 OA
ENDBRANCH  74  77
ENDBRANCH  46  70
BRANCH  58  81
ATOM     81  C   UNL A   1      45.492  25.944  33.903  1.00  0.00     0.023 A 
ATOM     82  C   UNL A   1      46.814  26.404  33.758  1.00  0.00     0.012 A 
ATOM     83  C   UNL A   1      45.207  24.912  34.819  1.00  0.00     0.148 A 
ATOM     84  C   UNL A   1      47.843  25.843  34.512  1.00  0.00     0.002 A 
ATOM     85  C   UNL A   1      46.232  24.379  35.592  1.00  0.00     0.091 A 
ATOM     86  F   UNL A   1      43.940  24.490  34.931  1.00  0.00    -0.205 F 
ATOM     87  C   UNL A   1      47.550  24.842  35.437  1.00  0.00     0.022 A 
BRANCH  85  88
ATOM     88  S   UNL A   1      45.945  23.145  36.863  1.00  0.00     0.127 S 
ATOM     89  O   UNL A   1      45.347  22.057  36.091  1.00  0.00    -0.237 OA
ATOM     90  O   UNL A   1      47.300  22.876  37.346  1.00  0.00    -0.237 OA
ATOM     91  O   UNL A   1      45.063  23.768  37.841  1.00  0.00    -0.744 OA
ENDBRANCH  85  88
ENDBRANCH  58  81
ENDBRANCH  32  33
ENDBRANCH  25  27
ENDBRANCH  24  25
ENDBRANCH   1  24
TORSDOF 17
ENDMDL
MODEL 2
REMARK VINA RESULT:     -10.8      5.801     12.124
REMARK SMILES CCCc1cc2c(cc1Cl)C=C(C(=O)OCCOC(=O)c1ccc(-c3c4nc(c(-c5cccc(S(=O)(=O)[O-])c5F)c5ccc([nH]5)c(-c5cccc(S(=O)(=O)[O-])c5F)c5nc(c(-c6cccc(S(=O)(=O)[O-])c6F)c6ccc3[nH]6)C=C5)C=C4)cc1)[C@@H](C(F)(F)F)O2
REMARK SMILES IDX 17 1 16 2 15 3 13 4 14 5 12 6 4 7 5 8 9 9 6 10 8 11 10 12
REMARK SMILES IDX 7 13 89 14 11 15 84 16 3 17 2 18 1 19 85 20 86 21 87 22
REMARK SMILES IDX 88 23 18 24 19 25 20 26 21 27 22 28 83 29 23 30 82 31 24 32
REMARK SMILES IDX 25 33 26 34 76 35 27 36 81 37 75 38 77 39 28 40 80 41 74 42
REMARK SMILES IDX 73 43 29 45 61 46 41 47 60 48 42 49 45 50 59 51 78 52 43 53
REMARK SMILES IDX 44 54 58 56 79 57 46 58 30 59 31 60 39 61 32 62 34 63 40 64
REMARK SMILES IDX 33 65 35 66 36 67 37 68 38 69 62 70 63 71 71 72 64 73 66 74
REMARK SMILES IDX 72 75 65 76 67 77 68 78 69 79 70 80 47 81 48 82 56 83 49 84
REMARK SMILES IDX 51 85 57 86 50 87 52 88 53 89 54 90 55 91
REMARK H PARENT 77 44 45 55
REMARK Flexibility Score: inf
ROOT
ATOM      1  C   UNL A   1      37.444  20.484  24.770  1.00  0.00     0.275 C 
ENDROOT
BRANCH   1   2
ATOM      2  C   UNL A   1      35.974  20.350  25.166  1.00  0.00     0.275 C 
BRANCH   2   3
ATOM      3  O   UNL A   1      35.593  21.351  26.138  1.00  0.00    -0.459 OA
BRANCH   3   4
ATOM      4  C   UNL A   1      34.314  21.783  26.054  1.00  0.00     0.338 C 
ATOM      5  O   UNL A   1      33.340  21.278  26.588  1.00  0.00    -0.246 OA
BRANCH   4   6
ATOM      6  C   UNL A   1      34.231  23.005  25.234  1.00  0.00     0.087 C 
ATOM      7  C   UNL A   1      33.358  27.737  23.769  1.00  0.00    -0.026 A 
ATOM      8  C   UNL A   1      33.421  26.496  23.099  1.00  0.00     0.052 A 
ATOM      9  C   UNL A   1      33.699  27.786  25.131  1.00  0.00     0.045 A 
ATOM     10  C   UNL A   1      33.760  25.326  23.781  1.00  0.00     0.128 A 
ATOM     11  C   UNL A   1      34.019  26.615  25.814  1.00  0.00     0.032 A 
ATOM     12  Cl  UNL A   1      33.716  29.255  26.036  1.00  0.00    -0.084 Cl
ATOM     13  C   UNL A   1      34.023  25.389  25.143  1.00  0.00     0.019 A 
ATOM     14  O   UNL A   1      33.790  24.166  23.059  1.00  0.00    -0.475 OA
ATOM     15  C   UNL A   1      34.232  24.170  25.887  1.00  0.00     0.027 C 
ATOM     16  C   UNL A   1      34.034  22.901  23.750  1.00  0.00     0.316 C 
BRANCH   7  17
ATOM     17  C   UNL A   1      32.860  28.949  23.016  1.00  0.00     0.037 C 
BRANCH  17  18
ATOM     18  C   UNL A   1      31.380  28.850  22.625  1.00  0.00     0.001 C 
ATOM     19  C   UNL A   1      30.439  28.573  23.792  1.00  0.00     0.004 C 
ENDBRANCH  17  18
ENDBRANCH   7  17
BRANCH  16  20
ATOM     20  C   UNL A   1      32.894  21.937  23.384  1.00  0.00     0.430 C 
ATOM     21  F   UNL A   1      32.556  22.051  22.076  1.00  0.00    -0.167 F 
ATOM     22  F   UNL A   1      33.249  20.642  23.571  1.00  0.00    -0.167 F 
ATOM     23  F   UNL A   1      31.777  22.160  24.113  1.00  0.00    -0.167 F 
ENDBRANCH  16  20
ENDBRANCH   4   6
ENDBRANCH   3   4
ENDBRANCH   2   3
ENDBRANCH   1   2
BRANCH   1  24
ATOM     24  O   UNL A   1      38.038  21.620  25.423  1.00  0.00    -0.458 OA
BRANCH  24  25
ATOM     25  C   UNL A   1      39.191  21.369  26.083  1.00  0.00     0.338 C 
ATOM     26  O   UNL A   1      39.815  20.323  26.112  1.00  0.00    -0.246 OA
BRANCH  25  27
ATOM     27  C   UNL A   1      39.663  22.602  26.731  1.00  0.00     0.060 A 
ATOM     28  C   UNL A   1      40.717  22.586  27.636  1.00  0.00     0.016 A 
ATOM     29  C   UNL A   1      39.140  23.814  26.296  1.00  0.00     0.016 A 
ATOM     30  C   UNL A   1      41.230  23.803  28.103  1.00  0.00     0.010 A 
ATOM     31  C   UNL A   1      39.767  25.010  26.622  1.00  0.00     0.010 A 
ATOM     32  C   UNL A   1      40.795  25.035  27.570  1.00  0.00    -0.014 A 
BRANCH  32  33
ATOM     33  C   UNL A   1      41.395  26.333  28.000  1.00  0.00     0.031 A 
ATOM     34  C   UNL A   1      42.812  26.712  27.617  1.00  0.00     0.074 A 
ATOM     35  C   UNL A   1      40.685  27.172  28.785  1.00  0.00     0.049 A 
ATOM     36  N   UNL A   1      43.474  27.806  27.899  1.00  0.00    -0.248 NA
ATOM     37  C   UNL A   1      43.608  25.726  26.864  1.00  0.00     0.031 C 
ATOM     38  C   UNL A   1      39.362  26.888  29.351  1.00  0.00     0.029 A 
ATOM     39  N   UNL A   1      40.967  28.439  29.237  1.00  0.00    -0.354 N 
ATOM     40  C   UNL A   1      44.764  27.613  27.413  1.00  0.00     0.074 A 
ATOM     41  C   UNL A   1      44.811  26.280  26.861  1.00  0.00     0.031 C 
ATOM     42  C   UNL A   1      38.919  27.973  30.006  1.00  0.00     0.029 A 
ATOM     43  C   UNL A   1      39.934  29.018  29.937  1.00  0.00     0.049 A 
ATOM     44  H   UNL A   1      41.827  28.889  29.074  1.00  0.00     0.167 HD
ATOM     45  C   UNL A   1      45.803  28.479  27.372  1.00  0.00     0.034 A 
ATOM     46  C   UNL A   1      39.800  30.260  30.446  1.00  0.00     0.034 A 
ATOM     47  C   UNL A   1      45.725  29.846  27.801  1.00  0.00     0.049 A 
ATOM     48  C   UNL A   1      40.912  31.253  30.265  1.00  0.00     0.074 A 
ATOM     49  C   UNL A   1      46.679  30.840  27.675  1.00  0.00     0.029 A 
ATOM     50  N   UNL A   1      44.624  30.417  28.418  1.00  0.00    -0.354 N 
ATOM     51  N   UNL A   1      42.066  31.091  29.666  1.00  0.00    -0.248 NA
ATOM     52  C   UNL A   1      40.698  32.605  30.802  1.00  0.00     0.031 C 
ATOM     53  C   UNL A   1      46.151  32.019  28.209  1.00  0.00     0.029 A 
ATOM     54  C   UNL A   1      44.870  31.755  28.668  1.00  0.00     0.049 A 
ATOM     55  H   UNL A   1      43.793  29.943  28.643  1.00  0.00     0.167 HD
ATOM     56  C   UNL A   1      42.710  32.319  29.742  1.00  0.00     0.074 A 
ATOM     57  C   UNL A   1      41.809  33.225  30.425  1.00  0.00     0.031 C 
ATOM     58  C   UNL A   1      43.946  32.657  29.301  1.00  0.00     0.034 A 
BRANCH  45  59
ATOM     59  C   UNL A   1      47.087  28.018  26.733  1.00  0.00     0.023 A 
ATOM     60  C   UNL A   1      48.131  27.551  27.557  1.00  0.00     0.012 A 
ATOM     61  C   UNL A   1      47.230  27.960  25.333  1.00  0.00     0.148 A 
ATOM     62  C   UNL A   1      49.308  27.056  27.001  1.00  0.00     0.002 A 
ATOM     63  C   UNL A   1      48.393  27.430  24.784  1.00  0.00     0.091 A 
ATOM     64  F   UNL A   1      46.228  28.415  24.568  1.00  0.00    -0.205 F 
ATOM     65  C   UNL A   1      49.435  26.987  25.615  1.00  0.00     0.022 A 
BRANCH  63  66
ATOM     66  S   UNL A   1      48.640  27.234  23.016  1.00  0.00     0.127 S 
ATOM     67  O   UNL A   1      50.050  27.595  22.871  1.00  0.00    -0.237 OA
ATOM     68  O   UNL A   1      48.352  25.813  22.823  1.00  0.00    -0.237 OA
ATOM     69  O   UNL A   1      47.699  28.141  22.372  1.00  0.00    -0.744 OA
ENDBRANCH  63  66
ENDBRANCH  45  59
BRANCH  46  70
ATOM     70  C   UNL A   1      38.504  30.656  31.063  1.00  0.00     0.023 A 
ATOM     71  C   UNL A   1      38.328  30.476  32.449  1.00  0.00     0.012 A 
ATOM     72  C   UNL A   1      37.492  31.286  30.315  1.00  0.00     0.148 A 
ATOM     73  C   UNL A   1      37.164  30.913  33.081  1.00  0.00     0.002 A 
ATOM     74  C   UNL A   1      36.350  31.754  30.957  1.00  0.00     0.091 A 
ATOM     75  F   UNL A   1      37.685  31.444  28.999  1.00  0.00    -0.205 F 
ATOM     76  C   UNL A   1      36.181  31.560  32.337  1.00  0.00     0.022 A 
BRANCH  74  77
ATOM     77  S   UNL A   1      35.077  32.696  30.110  1.00  0.00     0.127 S 
ATOM     78  O   UNL A   1      34.134  32.963  31.195  1.00  0.00    -0.237 OA
ATOM     79  O   UNL A   1      35.828  33.863  29.647  1.00  0.00    -0.237 OA
ATOM     80  O   UNL A   1      34.581  31.831  29.049  1.00  0.00    -0.744 OA
ENDBRANCH  74  77
ENDBRANCH  46  70
BRANCH  58  81
ATOM     81  C   UNL A   1      44.420  34.063  29.529  1.00  0.00     0.023 A 
ATOM     82  C   UNL A   1      45.030  34.390  30.754  1.00  0.00     0.012 A 
ATOM     83  C   UNL A   1      44.395  35.009  28.485  1.00  0.00     0.148 A 
ATOM     84  C   UNL A   1      45.607  35.646  30.941  1.00  0.00     0.002 A 
ATOM     85  C   UNL A   1      45.000  36.246  28.668  1.00  0.00     0.091 A 
ATOM     86  F   UNL A   1      43.802  34.671  27.332  1.00  0.00    -0.205 F 
ATOM     87  C   UNL A   1      45.604  36.566  29.896  1.00  0.00     0.022 A 
BRANCH  85  88
ATOM     88  S   UNL A   1      45.118  37.469  27.358  1.00  0.00     0.127 S 
ATOM     89  O   UNL A   1      43.713  37.655  26.999  1.00  0.00    -0.237 OA
ATOM     90  O   UNL A   1      45.727  38.606  28.049  1.00  0.00    -0.237 OA
ATOM     91  O   UNL A   1      45.948  36.873  26.320  1.00  0.00    -0.744 OA
ENDBRANCH  85  88
ENDBRANCH  58  81
ENDBRANCH  32  33
ENDBRANCH  25  27
ENDBRANCH  24  25
ENDBRANCH   1  24
TORSDOF 17
ENDMDL
MODEL 3
REMARK VINA RESULT:     -10.8      5.615     11.893
REMARK SMILES CCCc1cc2c(cc1Cl)C=C(C(=O)OCCOC(=O)c1ccc(-c3c4nc(c(-c5cccc(S(=O)(=O)[O-])c5F)c5ccc([nH]5)c(-c5cccc(S(=O)(=O)[O-])c5F)c5nc(c(-c6cccc(S(=O)(=O)[O-])c6F)c6ccc3[nH]6)C=C5)C=C4)cc1)[C@@H](C(F)(F)F)O2
REMARK SMILES IDX 17 1 16 2 15 3 13 4 14 5 12 6 4 7 5 8 9 9 6 10 8 11 10 12
REMARK SMILES IDX 7 13 89 14 11 15 84 16 3 17 2 18 1 19 85 20 86 21 87 22
REMARK SMILES IDX 88 23 18 24 19 25 20 26 21 27 22 28 83 29 23 30 82 31 24 32
REMARK SMILES IDX 25 33 26 34 76 35 27 36 81 37 75 38 77 39 28 40 80 41 74 42
REMARK SMILES IDX 73 43 29 45 61 46 41 47 60 48 42 49 45 50 59 51 78 52 43 53
REMARK SMILES IDX 44 54 58 56 79 57 46 58 30 59 31 60 39 61 32 62 34 63 40 64
REMARK SMILES IDX 33 65 35 66 36 67 37 68 38 69 62 70 63 71 71 72 64 73 66 74
REMARK SMILES IDX 72 75 65 76 67 77 68 78 69 79 70 80 47 81 48 82 56 83 49 84
REMARK SMILES IDX 51 85 57 86 50 87 52 88 53 89 54 90 55 91
REMARK H PARENT 77 44 45 55
REMARK Flexibility Score: inf
ROOT
ATOM      1  C   UNL A   1      37.490  20.383  24.831  1.00  0.00     0.275 C 
ENDROOT
BRANCH   1   2
ATOM      2  C   UNL A   1      35.977  20.366  25.049  1.00  0.00     0.275 C 
BRANCH   2   3
ATOM      3  O   UNL A   1      35.319  21.395  24.275  1.00  0.00    -0.459 OA
BRANCH   3   4
ATOM      4  C   UNL A   1      33.974  21.446  24.406  1.00  0.00     0.338 C 
ATOM      5  O   UNL A   1      33.191  20.524  24.241  1.00  0.00    -0.246 OA
BRANCH   4   6
ATOM      6  C   UNL A   1      33.543  22.793  24.821  1.00  0.00     0.087 C 
ATOM      7  C   UNL A   1      33.284  27.790  25.336  1.00  0.00    -0.026 A 
ATOM      8  C   UNL A   1      32.903  26.697  26.144  1.00  0.00     0.052 A 
ATOM      9  C   UNL A   1      33.758  27.535  24.038  1.00  0.00     0.045 A 
ATOM     10  C   UNL A   1      33.043  25.383  25.692  1.00  0.00     0.128 A 
ATOM     11  C   UNL A   1      33.914  26.225  23.596  1.00  0.00     0.032 A 
ATOM     12  Cl  UNL A   1      34.196  28.794  22.942  1.00  0.00    -0.084 Cl
ATOM     13  C   UNL A   1      33.581  25.155  24.432  1.00  0.00     0.019 A 
ATOM     14  O   UNL A   1      32.656  24.384  26.541  1.00  0.00    -0.475 OA
ATOM     15  C   UNL A   1      33.864  23.805  24.011  1.00  0.00     0.027 C 
ATOM     16  C   UNL A   1      32.883  22.993  26.154  1.00  0.00     0.316 C 
BRANCH   7  17
ATOM     17  C   UNL A   1      33.235  29.183  25.920  1.00  0.00     0.037 C 
BRANCH  17  18
ATOM     18  C   UNL A   1      31.944  29.936  25.574  1.00  0.00     0.001 C 
ATOM     19  C   UNL A   1      31.035  29.206  24.593  1.00  0.00     0.004 C 
ENDBRANCH  17  18
ENDBRANCH   7  17
BRANCH  16  20
ATOM     20  C   UNL A   1      33.660  22.309  27.291  1.00  0.00     0.430 C 
ATOM     21  F   UNL A   1      33.179  22.677  28.504  1.00  0.00    -0.167 F 
ATOM     22  F   UNL A   1      33.550  20.959  27.236  1.00  0.00    -0.167 F 
ATOM     23  F   UNL A   1      34.978  22.610  27.269  1.00  0.00    -0.167 F 
ENDBRANCH  16  20
ENDBRANCH   4   6
ENDBRANCH   3   4
ENDBRANCH   2   3
ENDBRANCH   1   2
BRANCH   1  24
ATOM     24  O   UNL A   1      38.077  21.527  25.476  1.00  0.00    -0.458 OA
BRANCH  24  25
ATOM     25  C   UNL A   1      39.249  21.295  26.110  1.00  0.00     0.338 C 
ATOM     26  O   UNL A   1      39.893  20.260  26.120  1.00  0.00    -0.246 OA
BRANCH  25  27
ATOM     27  C   UNL A   1      39.712  22.534  26.752  1.00  0.00     0.060 A 
ATOM     28  C   UNL A   1      40.755  22.527  27.671  1.00  0.00     0.016 A 
ATOM     29  C   UNL A   1      39.194  23.741  26.300  1.00  0.00     0.016 A 
ATOM     30  C   UNL A   1      41.261  23.749  28.132  1.00  0.00     0.010 A 
ATOM     31  C   UNL A   1      39.816  24.941  26.623  1.00  0.00     0.010 A 
ATOM     32  C   UNL A   1      40.832  24.975  27.583  1.00  0.00    -0.014 A 
BRANCH  32  33
ATOM     33  C   UNL A   1      41.426  26.278  28.009  1.00  0.00     0.031 A 
ATOM     34  C   UNL A   1      42.851  26.649  27.650  1.00  0.00     0.074 A 
ATOM     35  C   UNL A   1      40.701  27.128  28.769  1.00  0.00     0.049 A 
ATOM     36  N   UNL A   1      43.509  27.746  27.932  1.00  0.00    -0.248 NA
ATOM     37  C   UNL A   1      43.660  25.653  26.925  1.00  0.00     0.031 C 
ATOM     38  C   UNL A   1      39.367  26.853  29.312  1.00  0.00     0.029 A 
ATOM     39  N   UNL A   1      40.976  28.400  29.211  1.00  0.00    -0.354 N 
ATOM     40  C   UNL A   1      44.808  27.545  27.474  1.00  0.00     0.074 A 
ATOM     41  C   UNL A   1      44.864  26.205  26.940  1.00  0.00     0.031 C 
ATOM     42  C   UNL A   1      38.913  27.947  29.944  1.00  0.00     0.029 A 
ATOM     43  C   UNL A   1      39.931  28.990  29.882  1.00  0.00     0.049 A 
ATOM     44  H   UNL A   1      41.840  28.847  29.060  1.00  0.00     0.167 HD
ATOM     45  C   UNL A   1      45.849  28.408  27.443  1.00  0.00     0.034 A 
ATOM     46  C   UNL A   1      39.789  30.238  30.372  1.00  0.00     0.034 A 
ATOM     47  C   UNL A   1      45.766  29.781  27.853  1.00  0.00     0.049 A 
ATOM     48  C   UNL A   1      40.906  31.227  30.202  1.00  0.00     0.074 A 
ATOM     49  C   UNL A   1      46.724  30.772  27.734  1.00  0.00     0.029 A 
ATOM     50  N   UNL A   1      44.654  30.362  28.440  1.00  0.00    -0.354 N 
ATOM     51  N   UNL A   1      42.072  31.056  29.628  1.00  0.00    -0.248 NA
ATOM     52  C   UNL A   1      40.683  32.586  30.717  1.00  0.00     0.031 C 
ATOM     53  C   UNL A   1      46.187  31.958  28.242  1.00  0.00     0.029 A 
ATOM     54  C   UNL A   1      44.897  31.702  28.679  1.00  0.00     0.049 A 
ATOM     55  H   UNL A   1      43.817  29.892  28.654  1.00  0.00     0.167 HD
ATOM     56  C   UNL A   1      42.717  32.283  29.701  1.00  0.00     0.074 A 
ATOM     57  C   UNL A   1      41.804  33.199  30.355  1.00  0.00     0.031 C 
ATOM     58  C   UNL A   1      43.961  32.614  29.282  1.00  0.00     0.034 A 
BRANCH  45  59
ATOM     59  C   UNL A   1      47.145  27.937  26.836  1.00  0.00     0.023 A 
ATOM     60  C   UNL A   1      48.158  27.446  27.684  1.00  0.00     0.012 A 
ATOM     61  C   UNL A   1      47.328  27.895  25.440  1.00  0.00     0.148 A 
ATOM     62  C   UNL A   1      49.344  26.941  27.156  1.00  0.00     0.002 A 
ATOM     63  C   UNL A   1      48.500  27.356  24.919  1.00  0.00     0.091 A 
ATOM     64  F   UNL A   1      46.356  28.374  24.653  1.00  0.00    -0.205 F 
ATOM     65  C   UNL A   1      49.511  26.887  25.774  1.00  0.00     0.022 A 
BRANCH  63  66
ATOM     66  S   UNL A   1      48.796  27.179  23.156  1.00  0.00     0.127 S 
ATOM     67  O   UNL A   1      50.256  27.229  23.094  1.00  0.00    -0.237 OA
ATOM     68  O   UNL A   1      48.220  25.863  22.881  1.00  0.00    -0.237 OA
ATOM     69  O   UNL A   1      48.110  28.293  22.515  1.00  0.00    -0.744 OA
ENDBRANCH  63  66
ENDBRANCH  45  59
BRANCH  46  70
ATOM     70  C   UNL A   1      38.481  30.644  30.959  1.00  0.00     0.023 A 
ATOM     71  C   UNL A   1      38.269  30.459  32.339  1.00  0.00     0.012 A 
ATOM     72  C   UNL A   1      37.496  31.288  30.188  1.00  0.00     0.148 A 
ATOM     73  C   UNL A   1      37.092  30.904  32.942  1.00  0.00     0.002 A 
ATOM     74  C   UNL A   1      36.342  31.763  30.803  1.00  0.00     0.091 A 
ATOM     75  F   UNL A   1      37.723  31.450  28.878  1.00  0.00    -0.205 F 
ATOM     76  C   UNL A   1      36.135  31.565  32.177  1.00  0.00     0.022 A 
BRANCH  74  77
ATOM     77  S   UNL A   1      35.100  32.723  29.929  1.00  0.00     0.127 S 
ATOM     78  O   UNL A   1      34.630  31.763  28.932  1.00  0.00    -0.237 OA
ATOM     79  O   UNL A   1      34.146  33.018  30.998  1.00  0.00    -0.237 OA
ATOM     80  O   UNL A   1      35.797  33.886  29.398  1.00  0.00    -0.744 OA
ENDBRANCH  74  77
ENDBRANCH  46  70
BRANCH  58  81
ATOM     81  C   UNL A   1      44.434  34.022  29.501  1.00  0.00     0.023 A 
ATOM     82  C   UNL A   1      45.045  34.356  30.724  1.00  0.00     0.012 A 
ATOM     83  C   UNL A   1      44.406  34.962  28.453  1.00  0.00     0.148 A 
ATOM     84  C   UNL A   1      45.620  35.614  30.904  1.00  0.00     0.002 A 
ATOM     85  C   UNL A   1      45.009  36.201  28.628  1.00  0.00     0.091 A 
ATOM     86  F   UNL A   1      43.811  34.617  27.302  1.00  0.00    -0.205 F 
ATOM     87  C   UNL A   1      45.614  36.529  29.853  1.00  0.00     0.022 A 
BRANCH  85  88
ATOM     88  S   UNL A   1      45.122  37.418  27.311  1.00  0.00     0.127 S 
ATOM     89  O   UNL A   1      45.852  38.500  27.970  1.00  0.00    -0.237 OA
ATOM     90  O   UNL A   1      45.886  36.699  26.291  1.00  0.00    -0.237 OA
ATOM     91  O   UNL A   1      43.752  37.735  26.934  1.00  0.00    -0.744 OA
ENDBRANCH  85  88
ENDBRANCH  58  81
ENDBRANCH  32  33
ENDBRANCH  25  27
ENDBRANCH  24  25
ENDBRANCH   1  24
TORSDOF 17
ENDMDL
