MODEL 1
REMARK VINA RESULT:     -10.8      0.000      0.000
REMARK SMILES CSCc1ccc(C(=O)N[C@](C)(C(=O)OCCOC(=O)c2ccc(-c3c4nc(c(-c5cccc(S(=O)(=O)[O-])c5F)c5ccc([nH]5)c(-c5cccc(S(=O)(=O)[O-])c5F)c5nc(c(-c6cccc(S(=O)(=O)[O-])c6F)c6ccc3[nH]6)C=C5)C=C4)cc2)C(F)(F)F)o1
REMARK SMILES IDX 16 1 15 2 13 3 14 4 11 5 12 6 10 7 8 8 9 9 7 11 4 12 5 13
REMARK SMILES IDX 88 14 6 15 3 16 2 17 1 18 84 19 85 20 86 21 87 22 17 23
REMARK SMILES IDX 18 24 19 25 20 26 21 27 22 28 83 29 23 30 82 31 24 32 25 33
REMARK SMILES IDX 26 34 76 35 27 36 81 37 75 38 77 39 28 40 80 41 74 42 73 43
REMARK SMILES IDX 29 45 61 46 41 47 60 48 42 49 45 50 59 51 78 52 43 53 44 54
REMARK SMILES IDX 58 56 79 57 46 58 30 59 31 60 39 61 32 62 34 63 40 64 33 65
REMARK SMILES IDX 35 66 36 67 37 68 38 69 62 70 63 71 71 72 64 73 66 74 72 75
REMARK SMILES IDX 65 76 67 77 68 78 69 79 70 80 47 81 48 82 56 83 49 84 51 85
REMARK SMILES IDX 57 86 50 87 52 88 53 89 54 90 55 91
REMARK H PARENT 10 10 77 44 45 55
REMARK Flexibility Score: inf
ROOT
ATOM      1  C   UNL A   1      35.854  20.713  24.745  1.00  0.00     0.274 C 
ENDROOT
BRANCH   1   2
ATOM      2  O   UNL A   1      35.519  22.081  24.397  1.00  0.00    -0.460 OA
BRANCH   2   3
ATOM      3  C   UNL A   1      34.828  22.761  25.361  1.00  0.00     0.341 C 
ATOM      4  O   UNL A   1      34.892  22.421  26.520  1.00  0.00    -0.249 OA
BRANCH   3   5
ATOM      5  C   UNL A   1      33.846  23.825  24.822  1.00  0.00     0.231 C 
ATOM      6  C   UNL A   1      33.938  23.893  23.271  1.00  0.00     0.058 C 
BRANCH   5   7
ATOM      7  N   UNL A   1      32.431  23.440  25.184  1.00  0.00    -0.326 N 
ATOM      8  C   UNL A   1      31.679  22.282  25.271  1.00  0.00     0.288 C 
ATOM      9  O   UNL A   1      30.577  22.479  25.799  1.00  0.00    -0.266 OA
ATOM     10  H   UNL A   1      31.895  24.232  25.425  1.00  0.00     0.165 HD
BRANCH   8  11
ATOM     11  C   UNL A   1      32.055  20.982  24.738  1.00  0.00     0.191 A 
ATOM     12  C   UNL A   1      32.470  18.796  24.951  1.00  0.00     0.114 A 
ATOM     13  C   UNL A   1      32.430  19.066  23.609  1.00  0.00     0.047 A 
ATOM     14  O   UNL A   1      32.213  19.946  25.651  1.00  0.00    -0.455 OA
ATOM     15  C   UNL A   1      32.331  20.461  23.492  1.00  0.00     0.056 A 
BRANCH  12  16
ATOM     16  C   UNL A   1      32.711  17.546  25.717  1.00  0.00     0.144 C 
BRANCH  16  17
ATOM     17  S   UNL A   1      33.417  16.219  24.677  1.00  0.00    -0.157 SA
ATOM     18  C   UNL A   1      32.603  14.760  25.402  1.00  0.00     0.085 C 
ENDBRANCH  16  17
ENDBRANCH  12  16
ENDBRANCH   8  11
ENDBRANCH   5   7
BRANCH   5  19
ATOM     19  C   UNL A   1      34.237  25.244  25.279  1.00  0.00     0.422 C 
ATOM     20  F   UNL A   1      33.474  25.673  26.309  1.00  0.00    -0.168 F 
ATOM     21  F   UNL A   1      35.522  25.246  25.733  1.00  0.00    -0.168 F 
ATOM     22  F   UNL A   1      34.194  26.183  24.323  1.00  0.00    -0.168 F 
ENDBRANCH   5  19
ENDBRANCH   3   5
ENDBRANCH   2   3
ENDBRANCH   1   2
BRANCH   1  23
ATOM     23  C   UNL A   1      37.348  20.455  25.000  1.00  0.00     0.275 C 
BRANCH  23  24
ATOM     24  O   UNL A   1      38.036  21.578  25.588  1.00  0.00    -0.458 OA
BRANCH  24  25
ATOM     25  C   UNL A   1      39.238  21.282  26.137  1.00  0.00     0.338 C 
ATOM     26  O   UNL A   1      39.835  20.220  26.025  1.00  0.00    -0.246 OA
BRANCH  25  27
ATOM     27  C   UNL A   1      39.862  22.485  26.729  1.00  0.00     0.060 A 
ATOM     28  C   UNL A   1      39.509  23.713  26.161  1.00  0.00     0.016 A 
ATOM     29  C   UNL A   1      40.807  22.445  27.752  1.00  0.00     0.016 A 
ATOM     30  C   UNL A   1      40.061  24.905  26.605  1.00  0.00     0.010 A 
ATOM     31  C   UNL A   1      41.397  23.646  28.182  1.00  0.00     0.010 A 
ATOM     32  C   UNL A   1      41.030  24.879  27.605  1.00  0.00    -0.014 A 
BRANCH  32  33
ATOM     33  C   UNL A   1      41.729  26.134  27.958  1.00  0.00     0.031 A 
ATOM     34  C   UNL A   1      40.967  27.230  28.636  1.00  0.00     0.074 A 
ATOM     35  C   UNL A   1      43.047  26.281  27.725  1.00  0.00     0.049 A 
ATOM     36  N   UNL A   1      41.352  28.444  28.926  1.00  0.00    -0.248 NA
ATOM     37  C   UNL A   1      39.600  26.906  29.072  1.00  0.00     0.031 C 
ATOM     38  C   UNL A   1      43.928  25.241  27.204  1.00  0.00     0.029 A 
ATOM     39  N   UNL A   1      43.864  27.373  27.869  1.00  0.00    -0.354 N 
ATOM     40  C   UNL A   1      40.273  29.037  29.564  1.00  0.00     0.074 A 
ATOM     41  C   UNL A   1      39.213  28.052  29.614  1.00  0.00     0.031 C 
ATOM     42  C   UNL A   1      45.146  25.766  26.993  1.00  0.00     0.029 A 
ATOM     43  C   UNL A   1      45.109  27.186  27.316  1.00  0.00     0.049 A 
ATOM     44  H   UNL A   1      43.589  28.203  28.320  1.00  0.00     0.167 HD
ATOM     45  C   UNL A   1      40.183  30.285  30.078  1.00  0.00     0.034 A 
ATOM     46  C   UNL A   1      46.084  28.073  27.040  1.00  0.00     0.034 A 
ATOM     47  C   UNL A   1      41.244  31.254  30.031  1.00  0.00     0.049 A 
ATOM     48  C   UNL A   1      45.906  29.503  27.469  1.00  0.00     0.074 A 
ATOM     49  C   UNL A   1      41.254  32.543  30.533  1.00  0.00     0.029 A 
ATOM     50  N   UNL A   1      42.479  31.045  29.435  1.00  0.00    -0.354 N 
ATOM     51  N   UNL A   1      44.903  30.046  28.116  1.00  0.00    -0.248 NA
ATOM     52  C   UNL A   1      47.002  30.434  27.168  1.00  0.00     0.031 C 
ATOM     53  C   UNL A   1      42.486  33.124  30.213  1.00  0.00     0.029 A 
ATOM     54  C   UNL A   1      43.253  32.188  29.535  1.00  0.00     0.049 A 
ATOM     55  H   UNL A   1      42.762  30.207  29.004  1.00  0.00     0.167 HD
ATOM     56  C   UNL A   1      45.272  31.365  28.353  1.00  0.00     0.074 A 
ATOM     57  C   UNL A   1      46.587  31.541  27.770  1.00  0.00     0.031 C 
ATOM     58  C   UNL A   1      44.583  32.336  29.002  1.00  0.00     0.034 A 
BRANCH  45  59
ATOM     59  C   UNL A   1      38.887  30.668  30.732  1.00  0.00     0.023 A 
ATOM     60  C   UNL A   1      38.688  30.402  32.102  1.00  0.00     0.012 A 
ATOM     61  C   UNL A   1      37.876  31.316  29.998  1.00  0.00     0.148 A 
ATOM     62  C   UNL A   1      37.490  30.750  32.724  1.00  0.00     0.002 A 
ATOM     63  C   UNL A   1      36.700  31.694  30.632  1.00  0.00     0.091 A 
ATOM     64  F   UNL A   1      38.078  31.534  28.689  1.00  0.00    -0.205 F 
ATOM     65  C   UNL A   1      36.501  31.404  31.993  1.00  0.00     0.022 A 
BRANCH  63  66
ATOM     66  S   UNL A   1      35.393  32.588  29.787  1.00  0.00     0.127 S 
ATOM     67  O   UNL A   1      36.136  33.687  29.172  1.00  0.00    -0.237 OA
ATOM     68  O   UNL A   1      34.895  31.586  28.844  1.00  0.00    -0.237 OA
ATOM     69  O   UNL A   1      34.440  32.976  30.818  1.00  0.00    -0.744 OA
ENDBRANCH  63  66
ENDBRANCH  45  59
BRANCH  46  70
ATOM     70  C   UNL A   1      47.296  27.632  26.295  1.00  0.00     0.023 A 
ATOM     71  C   UNL A   1      47.402  27.872  24.914  1.00  0.00     0.012 A 
ATOM     72  C   UNL A   1      48.357  26.987  26.965  1.00  0.00     0.148 A 
ATOM     73  C   UNL A   1      48.535  27.459  24.209  1.00  0.00     0.002 A 
ATOM     74  C   UNL A   1      49.500  26.616  26.265  1.00  0.00     0.091 A 
ATOM     75  F   UNL A   1      48.230  26.752  28.279  1.00  0.00    -0.205 F 
ATOM     76  C   UNL A   1      49.586  26.842  24.884  1.00  0.00     0.022 A 
BRANCH  74  77
ATOM     77  S   UNL A   1      50.929  25.896  27.084  1.00  0.00     0.127 S 
ATOM     78  O   UNL A   1      51.842  25.686  25.964  1.00  0.00    -0.237 OA
ATOM     79  O   UNL A   1      51.324  26.956  28.011  1.00  0.00    -0.237 OA
ATOM     80  O   UNL A   1      50.438  24.688  27.738  1.00  0.00    -0.744 OA
ENDBRANCH  74  77
ENDBRANCH  46  70
BRANCH  58  81
ATOM     81  C   UNL A   1      45.255  33.671  29.178  1.00  0.00     0.023 A 
ATOM     82  C   UNL A   1      46.025  33.925  30.328  1.00  0.00     0.012 A 
ATOM     83  C   UNL A   1      45.193  34.638  28.156  1.00  0.00     0.148 A 
ATOM     84  C   UNL A   1      46.705  35.135  30.470  1.00  0.00     0.002 A 
ATOM     85  C   UNL A   1      45.911  35.821  28.282  1.00  0.00     0.091 A 
ATOM     86  F   UNL A   1      44.438  34.382  27.078  1.00  0.00    -0.205 F 
ATOM     87  C   UNL A   1      46.658  36.075  29.444  1.00  0.00     0.022 A 
BRANCH  85  88
ATOM     88  S   UNL A   1      45.989  37.045  26.970  1.00  0.00     0.127 S 
ATOM     89  O   UNL A   1      44.576  37.368  26.778  1.00  0.00    -0.237 OA
ATOM     90  O   UNL A   1      46.780  38.110  27.588  1.00  0.00    -0.237 OA
ATOM     91  O   UNL A   1      46.637  36.388  25.844  1.00  0.00    -0.744 OA
ENDBRANCH  85  88
ENDBRANCH  58  81
ENDBRANCH  32  33
ENDBRANCH  25  27
ENDBRANCH  24  25
ENDBRANCH  23  24
ENDBRANCH   1  23
TORSDOF 19
ENDMDL
MODEL 2
REMARK VINA RESULT:     -10.8      1.833      2.968
REMARK SMILES CSCc1ccc(C(=O)N[C@](C)(C(=O)OCCOC(=O)c2ccc(-c3c4nc(c(-c5cccc(S(=O)(=O)[O-])c5F)c5ccc([nH]5)c(-c5cccc(S(=O)(=O)[O-])c5F)c5nc(c(-c6cccc(S(=O)(=O)[O-])c6F)c6ccc3[nH]6)C=C5)C=C4)cc2)C(F)(F)F)o1
REMARK SMILES IDX 16 1 15 2 13 3 14 4 11 5 12 6 10 7 8 8 9 9 7 11 4 12 5 13
REMARK SMILES IDX 88 14 6 15 3 16 2 17 1 18 84 19 85 20 86 21 87 22 17 23
REMARK SMILES IDX 18 24 19 25 20 26 21 27 22 28 83 29 23 30 82 31 24 32 25 33
REMARK SMILES IDX 26 34 76 35 27 36 81 37 75 38 77 39 28 40 80 41 74 42 73 43
REMARK SMILES IDX 29 45 61 46 41 47 60 48 42 49 45 50 59 51 78 52 43 53 44 54
REMARK SMILES IDX 58 56 79 57 46 58 30 59 31 60 39 61 32 62 34 63 40 64 33 65
REMARK SMILES IDX 35 66 36 67 37 68 38 69 62 70 63 71 71 72 64 73 66 74 72 75
REMARK SMILES IDX 65 76 67 77 68 78 69 79 70 80 47 81 48 82 56 83 49 84 51 85
REMARK SMILES IDX 57 86 50 87 52 88 53 89 54 90 55 91
REMARK H PARENT 10 10 77 44 45 55
REMARK Flexibility Score: inf
ROOT
ATOM      1  C   UNL A   1      35.953  20.123  24.965  1.00  0.00     0.274 C 
ENDROOT
BRANCH   1   2
ATOM      2  O   UNL A   1      35.379  21.385  24.540  1.00  0.00    -0.460 OA
BRANCH   2   3
ATOM      3  C   UNL A   1      34.696  22.058  25.516  1.00  0.00     0.341 C 
ATOM      4  O   UNL A   1      34.718  21.670  26.661  1.00  0.00    -0.249 OA
BRANCH   3   5
ATOM      5  C   UNL A   1      33.777  23.188  25.000  1.00  0.00     0.231 C 
ATOM      6  C   UNL A   1      33.391  22.920  23.517  1.00  0.00     0.058 C 
BRANCH   5   7
ATOM      7  N   UNL A   1      32.503  23.215  25.810  1.00  0.00    -0.326 N 
ATOM      8  C   UNL A   1      31.274  23.850  25.759  1.00  0.00     0.288 C 
ATOM      9  O   UNL A   1      30.476  23.391  26.586  1.00  0.00    -0.266 OA
ATOM     10  H   UNL A   1      32.562  22.617  26.590  1.00  0.00     0.165 HD
BRANCH   8  11
ATOM     11  C   UNL A   1      30.940  24.987  24.916  1.00  0.00     0.191 A 
ATOM     12  C   UNL A   1      31.003  27.162  24.402  1.00  0.00     0.114 A 
ATOM     13  C   UNL A   1      30.477  26.511  23.318  1.00  0.00     0.047 A 
ATOM     14  O   UNL A   1      31.317  26.245  25.372  1.00  0.00    -0.455 OA
ATOM     15  C   UNL A   1      30.295  25.177  23.713  1.00  0.00     0.056 A 
BRANCH  12  16
ATOM     16  C   UNL A   1      31.284  28.596  24.675  1.00  0.00     0.144 C 
BRANCH  16  17
ATOM     17  S   UNL A   1      33.076  28.948  24.754  1.00  0.00    -0.157 SA
ATOM     18  C   UNL A   1      33.550  28.644  23.022  1.00  0.00     0.085 C 
ENDBRANCH  16  17
ENDBRANCH  12  16
ENDBRANCH   8  11
ENDBRANCH   5   7
BRANCH   5  19
ATOM     19  C   UNL A   1      34.510  24.542  24.953  1.00  0.00     0.422 C 
ATOM     20  F   UNL A   1      35.851  24.390  24.870  1.00  0.00    -0.168 F 
ATOM     21  F   UNL A   1      34.138  25.232  23.838  1.00  0.00    -0.168 F 
ATOM     22  F   UNL A   1      34.257  25.363  25.983  1.00  0.00    -0.168 F 
ENDBRANCH   5  19
ENDBRANCH   3   5
ENDBRANCH   2   3
ENDBRANCH   1   2
BRANCH   1  23
ATOM     23  C   UNL A   1      37.487  20.050  24.887  1.00  0.00     0.275 C 
BRANCH  23  24
ATOM     24  O   UNL A   1      38.150  21.189  25.472  1.00  0.00    -0.458 OA
BRANCH  24  25
ATOM     25  C   UNL A   1      39.319  20.906  26.096  1.00  0.00     0.338 C 
ATOM     26  O   UNL A   1      39.924  19.844  26.036  1.00  0.00    -0.246 OA
BRANCH  25  27
ATOM     27  C   UNL A   1      39.904  22.120  26.703  1.00  0.00     0.060 A 
ATOM     28  C   UNL A   1      39.553  23.340  26.116  1.00  0.00     0.016 A 
ATOM     29  C   UNL A   1      40.813  22.099  27.758  1.00  0.00     0.016 A 
ATOM     30  C   UNL A   1      40.072  24.543  26.574  1.00  0.00     0.010 A 
ATOM     31  C   UNL A   1      41.370  23.310  28.203  1.00  0.00     0.010 A 
ATOM     32  C   UNL A   1      41.006  24.535  27.608  1.00  0.00    -0.014 A 
BRANCH  32  33
ATOM     33  C   UNL A   1      41.675  25.802  27.978  1.00  0.00     0.031 A 
ATOM     34  C   UNL A   1      40.879  26.881  28.645  1.00  0.00     0.074 A 
ATOM     35  C   UNL A   1      42.993  25.974  27.772  1.00  0.00     0.049 A 
ATOM     36  N   UNL A   1      41.235  28.100  28.947  1.00  0.00    -0.248 NA
ATOM     37  C   UNL A   1      39.510  26.529  29.053  1.00  0.00     0.031 C 
ATOM     38  C   UNL A   1      43.905  24.954  27.265  1.00  0.00     0.029 A 
ATOM     39  N   UNL A   1      43.786  27.081  27.936  1.00  0.00    -0.354 N 
ATOM     40  C   UNL A   1      40.133  28.670  29.566  1.00  0.00     0.074 A 
ATOM     41  C   UNL A   1      39.091  27.665  29.591  1.00  0.00     0.031 C 
ATOM     42  C   UNL A   1      45.116  25.502  27.079  1.00  0.00     0.029 A 
ATOM     43  C   UNL A   1      45.046  26.920  27.406  1.00  0.00     0.049 A 
ATOM     44  H   UNL A   1      43.487  27.904  28.384  1.00  0.00     0.167 HD
ATOM     45  C   UNL A   1      40.009  29.915  30.082  1.00  0.00     0.034 A 
ATOM     46  C   UNL A   1      46.009  27.827  27.152  1.00  0.00     0.034 A 
ATOM     47  C   UNL A   1      41.051  30.903  30.060  1.00  0.00     0.049 A 
ATOM     48  C   UNL A   1      45.795  29.251  27.583  1.00  0.00     0.074 A 
ATOM     49  C   UNL A   1      41.028  32.190  30.566  1.00  0.00     0.029 A 
ATOM     50  N   UNL A   1      42.301  30.720  29.487  1.00  0.00    -0.354 N 
ATOM     51  N   UNL A   1      44.769  29.773  28.212  1.00  0.00    -0.248 NA
ATOM     52  C   UNL A   1      46.879  30.203  27.306  1.00  0.00     0.031 C 
ATOM     53  C   UNL A   1      42.254  32.796  30.272  1.00  0.00     0.029 A 
ATOM     54  C   UNL A   1      43.051  31.877  29.606  1.00  0.00     0.049 A 
ATOM     55  H   UNL A   1      42.609  29.889  29.059  1.00  0.00     0.167 HD
ATOM     56  C   UNL A   1      45.109  31.097  28.461  1.00  0.00     0.074 A 
ATOM     57  C   UNL A   1      46.431  31.300  27.904  1.00  0.00     0.031 C 
ATOM     58  C   UNL A   1      44.389  32.052  29.099  1.00  0.00     0.034 A 
BRANCH  45  59
ATOM     59  C   UNL A   1      38.692  30.270  30.712  1.00  0.00     0.023 A 
ATOM     60  C   UNL A   1      38.441  29.920  32.055  1.00  0.00     0.012 A 
ATOM     61  C   UNL A   1      37.716  30.975  29.984  1.00  0.00     0.148 A 
ATOM     62  C   UNL A   1      37.225  30.243  32.653  1.00  0.00     0.002 A 
ATOM     63  C   UNL A   1      36.521  31.325  30.599  1.00  0.00     0.091 A 
ATOM     64  F   UNL A   1      37.967  31.272  28.700  1.00  0.00    -0.205 F 
ATOM     65  C   UNL A   1      36.269  30.952  31.930  1.00  0.00     0.022 A 
BRANCH  63  66
ATOM     66  S   UNL A   1      35.254  32.286  29.766  1.00  0.00     0.127 S 
ATOM     67  O   UNL A   1      34.306  32.531  30.852  1.00  0.00    -0.237 OA
ATOM     68  O   UNL A   1      36.000  33.467  29.330  1.00  0.00    -0.237 OA
ATOM     69  O   UNL A   1      34.761  31.448  28.682  1.00  0.00    -0.744 OA
ENDBRANCH  63  66
ENDBRANCH  45  59
BRANCH  46  70
ATOM     70  C   UNL A   1      47.243  27.411  26.430  1.00  0.00     0.023 A 
ATOM     71  C   UNL A   1      47.393  27.704  25.063  1.00  0.00     0.012 A 
ATOM     72  C   UNL A   1      48.282  26.739  27.108  1.00  0.00     0.148 A 
ATOM     73  C   UNL A   1      48.547  27.315  24.379  1.00  0.00     0.002 A 
ATOM     74  C   UNL A   1      49.445  26.392  26.431  1.00  0.00     0.091 A 
ATOM     75  F   UNL A   1      48.113  26.454  28.407  1.00  0.00    -0.205 F 
ATOM     76  C   UNL A   1      49.576  26.671  25.063  1.00  0.00     0.022 A 
BRANCH  74  77
ATOM     77  S   UNL A   1      50.847  25.638  27.266  1.00  0.00     0.127 S 
ATOM     78  O   UNL A   1      50.297  24.347  27.670  1.00  0.00    -0.237 OA
ATOM     79  O   UNL A   1      51.848  25.574  26.200  1.00  0.00    -0.237 OA
ATOM     80  O   UNL A   1      51.193  26.549  28.350  1.00  0.00    -0.744 OA
ENDBRANCH  74  77
ENDBRANCH  46  70
BRANCH  58  81
ATOM     81  C   UNL A   1      45.032  33.399  29.293  1.00  0.00     0.023 A 
ATOM     82  C   UNL A   1      45.797  33.654  30.447  1.00  0.00     0.012 A 
ATOM     83  C   UNL A   1      44.947  34.379  28.285  1.00  0.00     0.148 A 
ATOM     84  C   UNL A   1      46.450  34.876  30.605  1.00  0.00     0.002 A 
ATOM     85  C   UNL A   1      45.640  35.575  28.427  1.00  0.00     0.091 A 
ATOM     86  F   UNL A   1      44.197  34.121  27.204  1.00  0.00    -0.205 F 
ATOM     87  C   UNL A   1      46.382  35.830  29.591  1.00  0.00     0.022 A 
BRANCH  85  88
ATOM     88  S   UNL A   1      45.690  36.819  27.132  1.00  0.00     0.127 S 
ATOM     89  O   UNL A   1      44.277  37.173  27.003  1.00  0.00    -0.237 OA
ATOM     90  O   UNL A   1      46.528  37.857  27.733  1.00  0.00    -0.237 OA
ATOM     91  O   UNL A   1      46.278  36.166  25.969  1.00  0.00    -0.744 OA
ENDBRANCH  85  88
ENDBRANCH  58  81
ENDBRANCH  32  33
ENDBRANCH  25  27
ENDBRANCH  24  25
ENDBRANCH  23  24
ENDBRANCH   1  23
TORSDOF 19
ENDMDL
MODEL 3
REMARK VINA RESULT:     -10.7      5.585     10.074
REMARK SMILES CSCc1ccc(C(=O)N[C@](C)(C(=O)OCCOC(=O)c2ccc(-c3c4nc(c(-c5cccc(S(=O)(=O)[O-])c5F)c5ccc([nH]5)c(-c5cccc(S(=O)(=O)[O-])c5F)c5nc(c(-c6cccc(S(=O)(=O)[O-])c6F)c6ccc3[nH]6)C=C5)C=C4)cc2)C(F)(F)F)o1
REMARK SMILES IDX 16 1 15 2 13 3 14 4 11 5 12 6 10 7 8 8 9 9 7 11 4 12 5 13
REMARK SMILES IDX 88 14 6 15 3 16 2 17 1 18 84 19 85 20 86 21 87 22 17 23
REMARK SMILES IDX 18 24 19 25 20 26 21 27 22 28 83 29 23 30 82 31 24 32 25 33
REMARK SMILES IDX 26 34 76 35 27 36 81 37 75 38 77 39 28 40 80 41 74 42 73 43
REMARK SMILES IDX 29 45 61 46 41 47 60 48 42 49 45 50 59 51 78 52 43 53 44 54
REMARK SMILES IDX 58 56 79 57 46 58 30 59 31 60 39 61 32 62 34 63 40 64 33 65
REMARK SMILES IDX 35 66 36 67 37 68 38 69 62 70 63 71 71 72 64 73 66 74 72 75
REMARK SMILES IDX 65 76 67 77 68 78 69 79 70 80 47 81 48 82 56 83 49 84 51 85
REMARK SMILES IDX 57 86 50 87 52 88 53 89 54 90 55 91
REMARK H PARENT 10 10 77 44 45 55
REMARK Flexibility Score: inf
ROOT
ATOM      1  C   UNL A   1      31.939  29.065  25.799  1.00  0.00     0.274 C 
ENDROOT
BRANCH   1   2
ATOM      2  O   UNL A   1      31.871  28.847  24.366  1.00  0.00    -0.460 OA
BRANCH   2   3
ATOM      3  C   UNL A   1      32.309  27.619  23.955  1.00  0.00     0.341 C 
ATOM      4  O   UNL A   1      33.448  27.268  24.169  1.00  0.00    -0.249 OA
BRANCH   3   5
ATOM      5  C   UNL A   1      31.318  26.846  23.057  1.00  0.00     0.231 C 
ATOM      6  C   UNL A   1      30.102  27.751  22.711  1.00  0.00     0.058 C 
BRANCH   5   7
ATOM      7  N   UNL A   1      31.995  26.468  21.761  1.00  0.00    -0.326 N 
ATOM      8  C   UNL A   1      32.720  25.401  21.261  1.00  0.00     0.288 C 
ATOM      9  O   UNL A   1      32.914  25.496  20.043  1.00  0.00    -0.266 OA
ATOM     10  H   UNL A   1      31.894  27.177  21.084  1.00  0.00     0.165 HD
BRANCH   8  11
ATOM     11  C   UNL A   1      33.287  24.316  22.047  1.00  0.00     0.191 A 
ATOM     12  C   UNL A   1      34.807  23.468  23.451  1.00  0.00     0.114 A 
ATOM     13  C   UNL A   1      33.805  22.541  23.340  1.00  0.00     0.047 A 
ATOM     14  O   UNL A   1      34.492  24.567  22.694  1.00  0.00    -0.455 OA
ATOM     15  C   UNL A   1      32.943  23.013  22.338  1.00  0.00     0.056 A 
BRANCH  12  16
ATOM     16  C   UNL A   1      36.081  23.484  24.216  1.00  0.00     0.144 C 
BRANCH  16  17
ATOM     17  S   UNL A   1      36.046  22.343  25.644  1.00  0.00    -0.157 SA
ATOM     18  C   UNL A   1      37.200  21.057  25.070  1.00  0.00     0.085 C 
ENDBRANCH  16  17
ENDBRANCH  12  16
ENDBRANCH   8  11
ENDBRANCH   5   7
BRANCH   5  19
ATOM     19  C   UNL A   1      30.691  25.649  23.799  1.00  0.00     0.422 C 
ATOM     20  F   UNL A   1      30.204  24.722  22.944  1.00  0.00    -0.168 F 
ATOM     21  F   UNL A   1      31.643  25.016  24.542  1.00  0.00    -0.168 F 
ATOM     22  F   UNL A   1      29.713  25.962  24.661  1.00  0.00    -0.168 F 
ENDBRANCH   5  19
ENDBRANCH   3   5
ENDBRANCH   2   3
ENDBRANCH   1   2
BRANCH   1  23
ATOM     23  C   UNL A   1      32.083  30.535  26.225  1.00  0.00     0.275 C 
BRANCH  23  24
ATOM     24  O   UNL A   1      32.796  30.709  27.465  1.00  0.00    -0.458 OA
BRANCH  24  25
ATOM     25  C   UNL A   1      33.573  31.817  27.521  1.00  0.00     0.338 C 
ATOM     26  O   UNL A   1      33.191  32.969  27.365  1.00  0.00    -0.246 OA
BRANCH  25  27
ATOM     27  C   UNL A   1      34.930  31.491  28.013  1.00  0.00     0.060 A 
ATOM     28  C   UNL A   1      35.112  30.203  28.526  1.00  0.00     0.016 A 
ATOM     29  C   UNL A   1      35.983  32.402  28.047  1.00  0.00     0.016 A 
ATOM     30  C   UNL A   1      36.329  29.796  29.053  1.00  0.00     0.010 A 
ATOM     31  C   UNL A   1      37.208  32.008  28.611  1.00  0.00     0.010 A 
ATOM     32  C   UNL A   1      37.382  30.705  29.122  1.00  0.00    -0.014 A 
BRANCH  32  33
ATOM     33  C   UNL A   1      38.620  30.315  29.832  1.00  0.00     0.031 A 
ATOM     34  C   UNL A   1      39.505  29.265  29.234  1.00  0.00     0.074 A 
ATOM     35  C   UNL A   1      38.985  30.926  30.974  1.00  0.00     0.049 A 
ATOM     36  N   UNL A   1      40.566  28.696  29.740  1.00  0.00    -0.248 NA
ATOM     37  C   UNL A   1      39.167  28.819  27.873  1.00  0.00     0.031 C 
ATOM     38  C   UNL A   1      38.290  32.055  31.582  1.00  0.00     0.029 A 
ATOM     39  N   UNL A   1      40.015  30.659  31.841  1.00  0.00    -0.354 N 
ATOM     40  C   UNL A   1      41.017  27.813  28.770  1.00  0.00     0.074 A 
ATOM     41  C   UNL A   1      40.110  27.915  27.646  1.00  0.00     0.031 C 
ATOM     42  C   UNL A   1      38.859  32.335  32.765  1.00  0.00     0.029 A 
ATOM     43  C   UNL A   1      39.924  31.371  33.015  1.00  0.00     0.049 A 
ATOM     44  H   UNL A   1      40.742  30.026  31.644  1.00  0.00     0.167 HD
ATOM     45  C   UNL A   1      42.100  27.003  28.809  1.00  0.00     0.034 A 
ATOM     46  C   UNL A   1      40.578  31.218  34.181  1.00  0.00     0.034 A 
ATOM     47  C   UNL A   1      43.000  26.915  29.926  1.00  0.00     0.049 A 
ATOM     48  C   UNL A   1      41.677  30.196  34.268  1.00  0.00     0.074 A 
ATOM     49  C   UNL A   1      44.133  26.132  30.058  1.00  0.00     0.029 A 
ATOM     50  N   UNL A   1      42.861  27.623  31.110  1.00  0.00    -0.354 N 
ATOM     51  N   UNL A   1      42.130  29.398  33.331  1.00  0.00    -0.248 NA
ATOM     52  C   UNL A   1      42.380  30.076  35.552  1.00  0.00     0.031 C 
ATOM     53  C   UNL A   1      44.661  26.344  31.336  1.00  0.00     0.029 A 
ATOM     54  C   UNL A   1      43.873  27.279  31.989  1.00  0.00     0.049 A 
ATOM     55  H   UNL A   1      42.146  28.273  31.298  1.00  0.00     0.167 HD
ATOM     56  C   UNL A   1      43.209  28.726  33.892  1.00  0.00     0.074 A 
ATOM     57  C   UNL A   1      43.334  29.202  35.255  1.00  0.00     0.031 C 
ATOM     58  C   UNL A   1      44.023  27.802  33.323  1.00  0.00     0.034 A 
BRANCH  45  59
ATOM     59  C   UNL A   1      42.363  26.149  27.602  1.00  0.00     0.023 A 
ATOM     60  C   UNL A   1      43.057  26.689  26.499  1.00  0.00     0.012 A 
ATOM     61  C   UNL A   1      41.949  24.805  27.570  1.00  0.00     0.148 A 
ATOM     62  C   UNL A   1      43.309  25.909  25.372  1.00  0.00     0.002 A 
ATOM     63  C   UNL A   1      42.236  24.023  26.459  1.00  0.00     0.091 A 
ATOM     64  F   UNL A   1      41.266  24.322  28.619  1.00  0.00    -0.205 F 
ATOM     65  C   UNL A   1      42.908  24.576  25.355  1.00  0.00     0.022 A 
BRANCH  63  66
ATOM     66  S   UNL A   1      41.808  22.282  26.368  1.00  0.00     0.127 S 
ATOM     67  O   UNL A   1      42.603  21.842  25.223  1.00  0.00    -0.237 OA
ATOM     68  O   UNL A   1      42.273  21.783  27.662  1.00  0.00    -0.237 OA
ATOM     69  O   UNL A   1      40.364  22.233  26.183  1.00  0.00    -0.744 OA
ENDBRANCH  63  66
ENDBRANCH  45  59
BRANCH  46  70
ATOM     70  C   UNL A   1      40.185  32.036  35.362  1.00  0.00     0.023 A 
ATOM     71  C   UNL A   1      40.786  33.287  35.585  1.00  0.00     0.012 A 
ATOM     72  C   UNL A   1      39.196  31.579  36.258  1.00  0.00     0.148 A 
ATOM     73  C   UNL A   1      40.423  34.059  36.692  1.00  0.00     0.002 A 
ATOM     74  C   UNL A   1      38.809  32.370  37.333  1.00  0.00     0.091 A 
ATOM     75  F   UNL A   1      38.646  30.376  36.037  1.00  0.00    -0.205 F 
ATOM     76  C   UNL A   1      39.430  33.607  37.558  1.00  0.00     0.022 A 
BRANCH  74  77
ATOM     77  S   UNL A   1      37.476  31.892  38.440  1.00  0.00     0.127 S 
ATOM     78  O   UNL A   1      38.075  32.127  39.751  1.00  0.00    -0.237 OA
ATOM     79  O   UNL A   1      36.414  32.828  38.071  1.00  0.00    -0.237 OA
ATOM     80  O   UNL A   1      37.179  30.501  38.117  1.00  0.00    -0.744 OA
ENDBRANCH  74  77
ENDBRANCH  46  70
BRANCH  58  81
ATOM     81  C   UNL A   1      45.170  27.281  34.147  1.00  0.00     0.023 A 
ATOM     82  C   UNL A   1      46.359  28.027  34.249  1.00  0.00     0.012 A 
ATOM     83  C   UNL A   1      45.030  26.091  34.888  1.00  0.00     0.148 A 
ATOM     84  C   UNL A   1      47.403  27.584  35.062  1.00  0.00     0.002 A 
ATOM     85  C   UNL A   1      46.055  25.681  35.732  1.00  0.00     0.091 A 
ATOM     86  F   UNL A   1      43.897  25.387  34.759  1.00  0.00    -0.205 F 
ATOM     87  C   UNL A   1      47.246  26.420  35.811  1.00  0.00     0.022 A 
BRANCH  85  88
ATOM     88  S   UNL A   1      45.903  24.251  36.807  1.00  0.00     0.127 S 
ATOM     89  O   UNL A   1      47.260  23.708  36.776  1.00  0.00    -0.237 OA
ATOM     90  O   UNL A   1      45.518  24.861  38.080  1.00  0.00    -0.237 OA
ATOM     91  O   UNL A   1      44.879  23.404  36.209  1.00  0.00    -0.744 OA
ENDBRANCH  85  88
ENDBRANCH  58  81
ENDBRANCH  32  33
ENDBRANCH  25  27
ENDBRANCH  24  25
ENDBRANCH  23  24
ENDBRANCH   1  23
TORSDOF 19
ENDMDL
