MODEL 1
REMARK VINA RESULT:     -10.9      0.000      0.000
REMARK SMILES CCCC[C@H]1C[NH2+]CCN1c1ccc(C(=O)OCCOC(=O)c2ccc(-c3c4nc(c(-c5cccc(S(=O)(=O)[O-])c5F)c5ccc([nH]5)c(-c5cccc(S(=O)(=O)[O-])c5F)c5nc(c(-c6cccc(S(=O)(=O)[O-])c6F)c6ccc3[nH]6)C=C5)C=C4)cc2)cc1
REMARK SMILES IDX 18 1 17 2 15 3 16 4 14 5 11 6 12 7 87 8 13 9 86 10 10 11
REMARK SMILES IDX 5 12 6 13 7 14 9 15 8 16 4 19 3 20 2 21 1 22 19 23 20 24
REMARK SMILES IDX 21 25 22 26 23 27 24 28 85 29 25 30 84 31 26 32 27 33 28 34
REMARK SMILES IDX 78 35 29 36 83 37 77 38 79 39 30 40 82 41 76 42 75 43 31 45
REMARK SMILES IDX 63 46 43 47 62 48 44 49 47 50 61 51 80 52 45 53 46 54 60 56
REMARK SMILES IDX 81 57 48 58 32 59 33 60 41 61 34 62 36 63 42 64 35 65 37 66
REMARK SMILES IDX 38 67 39 68 40 69 64 70 65 71 73 72 66 73 68 74 74 75 67 76
REMARK SMILES IDX 69 77 70 78 71 79 72 80 49 81 50 82 58 83 51 84 53 85 59 86
REMARK SMILES IDX 52 87 54 88 55 89 56 90 57 91
REMARK H PARENT 7 17 7 18 79 44 47 55
REMARK Flexibility Score: inf
ROOT
ATOM      1  C   UNL A   1      34.853  20.553  24.962  1.00  0.00     0.275 C 
ENDROOT
BRANCH   1   2
ATOM      2  O   UNL A   1      33.906  21.635  24.831  1.00  0.00    -0.458 OA
BRANCH   2   3
ATOM      3  C   UNL A   1      33.350  22.059  25.995  1.00  0.00     0.338 C 
ATOM      4  O   UNL A   1      33.373  21.476  27.065  1.00  0.00    -0.246 OA
BRANCH   3   5
ATOM      5  C   UNL A   1      32.764  23.410  25.834  1.00  0.00     0.060 A 
ATOM      6  C   UNL A   1      31.744  26.004  25.452  1.00  0.00     0.037 A 
ATOM      7  C   UNL A   1      32.543  25.406  24.477  1.00  0.00     0.027 A 
ATOM      8  C   UNL A   1      31.453  25.284  26.619  1.00  0.00     0.027 A 
ATOM      9  C   UNL A   1      33.076  24.134  24.679  1.00  0.00     0.018 A 
ATOM     10  C   UNL A   1      31.948  23.987  26.809  1.00  0.00     0.018 A 
BRANCH   6  11
ATOM     11  N   UNL A   1      31.271  27.289  25.235  1.00  0.00    -0.357 N 
ATOM     12  C   UNL A   1      31.065  27.733  23.847  1.00  0.00     0.137 C 
ATOM     13  C   UNL A   1      32.034  28.885  23.460  1.00  0.00     0.285 C 
ATOM     14  N   UNL A   1      32.273  29.941  24.457  1.00  0.00    -0.343 N 
ATOM     15  C   UNL A   1      31.582  28.288  26.262  1.00  0.00     0.178 C 
ATOM     16  C   UNL A   1      32.611  29.319  25.753  1.00  0.00     0.282 C 
ATOM     17  H   UNL A   1      31.431  30.508  24.561  1.00  0.00     0.346 HD
ATOM     18  H   UNL A   1      33.044  30.535  24.150  1.00  0.00     0.346 HD
BRANCH  12  19
ATOM     19  C   UNL A   1      29.571  27.959  23.522  1.00  0.00     0.031 C 
BRANCH  19  20
ATOM     20  C   UNL A   1      29.117  28.995  22.487  1.00  0.00     0.002 C 
BRANCH  20  21
ATOM     21  C   UNL A   1      28.226  30.149  22.944  1.00  0.00    -0.003 C 
ATOM     22  C   UNL A   1      28.936  31.214  23.761  1.00  0.00     0.004 C 
ENDBRANCH  20  21
ENDBRANCH  19  20
ENDBRANCH  12  19
ENDBRANCH   6  11
ENDBRANCH   3   5
ENDBRANCH   2   3
ENDBRANCH   1   2
BRANCH   1  23
ATOM     23  C   UNL A   1      36.271  21.036  24.658  1.00  0.00     0.275 C 
BRANCH  23  24
ATOM     24  O   UNL A   1      37.003  21.171  25.886  1.00  0.00    -0.458 OA
BRANCH  24  25
ATOM     25  C   UNL A   1      38.352  21.093  25.780  1.00  0.00     0.338 C 
ATOM     26  O   UNL A   1      38.990  20.181  25.284  1.00  0.00    -0.246 OA
BRANCH  25  27
ATOM     27  C   UNL A   1      38.970  22.311  26.353  1.00  0.00     0.060 A 
ATOM     28  C   UNL A   1      38.460  23.572  26.052  1.00  0.00     0.016 A 
ATOM     29  C   UNL A   1      40.127  22.204  27.124  1.00  0.00     0.016 A 
ATOM     30  C   UNL A   1      39.146  24.726  26.440  1.00  0.00     0.010 A 
ATOM     31  C   UNL A   1      40.759  23.363  27.596  1.00  0.00     0.010 A 
ATOM     32  C   UNL A   1      40.306  24.642  27.224  1.00  0.00    -0.014 A 
BRANCH  32  33
ATOM     33  C   UNL A   1      41.070  25.873  27.604  1.00  0.00     0.031 A 
ATOM     34  C   UNL A   1      40.428  26.933  28.470  1.00  0.00     0.074 A 
ATOM     35  C   UNL A   1      42.338  26.063  27.184  1.00  0.00     0.049 A 
ATOM     36  N   UNL A   1      40.863  28.131  28.774  1.00  0.00    -0.248 NA
ATOM     37  C   UNL A   1      39.114  26.615  29.054  1.00  0.00     0.031 C 
ATOM     38  C   UNL A   1      43.101  25.142  26.339  1.00  0.00     0.029 A 
ATOM     39  N   UNL A   1      43.214  27.100  27.410  1.00  0.00    -0.354 N 
ATOM     40  C   UNL A   1      39.842  28.739  29.497  1.00  0.00     0.074 A 
ATOM     41  C   UNL A   1      38.771  27.773  29.603  1.00  0.00     0.031 C 
ATOM     42  C   UNL A   1      44.336  25.629  26.155  1.00  0.00     0.029 A 
ATOM     43  C   UNL A   1      44.439  26.934  26.801  1.00  0.00     0.049 A 
ATOM     44  H   UNL A   1      42.987  27.887  27.955  1.00  0.00     0.167 HD
ATOM     45  C   UNL A   1      39.801  29.980  30.040  1.00  0.00     0.034 A 
ATOM     46  C   UNL A   1      45.516  27.744  26.742  1.00  0.00     0.034 A 
ATOM     47  C   UNL A   1      40.903  30.905  30.043  1.00  0.00     0.049 A 
ATOM     48  C   UNL A   1      45.471  29.087  27.416  1.00  0.00     0.074 A 
ATOM     49  C   UNL A   1      40.967  32.163  30.617  1.00  0.00     0.029 A 
ATOM     50  N   UNL A   1      42.142  30.665  29.472  1.00  0.00    -0.354 N 
ATOM     51  N   UNL A   1      44.510  29.623  28.127  1.00  0.00    -0.248 NA
ATOM     52  C   UNL A   1      46.666  29.936  27.285  1.00  0.00     0.031 C 
ATOM     53  C   UNL A   1      42.249  32.682  30.401  1.00  0.00     0.029 A 
ATOM     54  C   UNL A   1      42.981  31.745  29.691  1.00  0.00     0.049 A 
ATOM     55  H   UNL A   1      42.390  29.847  28.983  1.00  0.00     0.167 HD
ATOM     56  C   UNL A   1      44.982  30.867  28.530  1.00  0.00     0.074 A 
ATOM     57  C   UNL A   1      46.333  30.989  28.021  1.00  0.00     0.031 C 
ATOM     58  C   UNL A   1      44.342  31.835  29.229  1.00  0.00     0.034 A 
BRANCH  45  59
ATOM     59  C   UNL A   1      38.528  30.405  30.724  1.00  0.00     0.023 A 
ATOM     60  C   UNL A   1      38.346  30.127  32.092  1.00  0.00     0.012 A 
ATOM     61  C   UNL A   1      37.545  31.136  30.029  1.00  0.00     0.148 A 
ATOM     62  C   UNL A   1      37.193  30.550  32.754  1.00  0.00     0.002 A 
ATOM     63  C   UNL A   1      36.416  31.587  30.704  1.00  0.00     0.091 A 
ATOM     64  F   UNL A   1      37.723  31.369  28.720  1.00  0.00    -0.205 F 
ATOM     65  C   UNL A   1      36.235  31.288  32.064  1.00  0.00     0.022 A 
BRANCH  63  66
ATOM     66  S   UNL A   1      35.170  32.612  29.912  1.00  0.00     0.127 S 
ATOM     67  O   UNL A   1      34.308  32.956  31.042  1.00  0.00    -0.237 OA
ATOM     68  O   UNL A   1      35.964  33.725  29.390  1.00  0.00    -0.237 OA
ATOM     69  O   UNL A   1      34.563  31.774  28.887  1.00  0.00    -0.744 OA
ENDBRANCH  63  66
ENDBRANCH  45  59
BRANCH  46  70
ATOM     70  C   UNL A   1      46.749  27.283  26.041  1.00  0.00     0.023 A 
ATOM     71  C   UNL A   1      46.878  27.503  24.657  1.00  0.00     0.012 A 
ATOM     72  C   UNL A   1      47.811  26.678  26.740  1.00  0.00     0.148 A 
ATOM     73  C   UNL A   1      48.038  27.121  23.980  1.00  0.00     0.002 A 
ATOM     74  C   UNL A   1      48.988  26.359  26.072  1.00  0.00     0.091 A 
ATOM     75  F   UNL A   1      47.660  26.440  28.052  1.00  0.00    -0.205 F 
ATOM     76  C   UNL A   1      49.098  26.566  24.690  1.00  0.00     0.022 A 
BRANCH  74  77
ATOM     77  S   UNL A   1      50.447  25.795  26.957  1.00  0.00     0.127 S 
ATOM     78  O   UNL A   1      50.524  26.755  28.054  1.00  0.00    -0.237 OA
ATOM     79  O   UNL A   1      50.066  24.437  27.353  1.00  0.00    -0.237 OA
ATOM     80  O   UNL A   1      51.526  25.845  25.980  1.00  0.00    -0.744 OA
ENDBRANCH  74  77
ENDBRANCH  46  70
BRANCH  58  81
ATOM     81  C   UNL A   1      45.091  33.114  29.491  1.00  0.00     0.023 A 
ATOM     82  C   UNL A   1      45.862  33.232  30.663  1.00  0.00     0.012 A 
ATOM     83  C   UNL A   1      45.081  34.170  28.558  1.00  0.00     0.148 A 
ATOM     84  C   UNL A   1      46.592  34.393  30.918  1.00  0.00     0.002 A 
ATOM     85  C   UNL A   1      45.840  35.310  28.803  1.00  0.00     0.091 A 
ATOM     86  F   UNL A   1      44.322  34.050  27.460  1.00  0.00    -0.205 F 
ATOM     87  C   UNL A   1      46.590  35.426  29.984  1.00  0.00     0.022 A 
BRANCH  85  88
ATOM     88  S   UNL A   1      45.946  36.650  27.611  1.00  0.00     0.127 S 
ATOM     89  O   UNL A   1      46.424  35.954  26.418  1.00  0.00    -0.237 OA
ATOM     90  O   UNL A   1      44.561  37.115  27.530  1.00  0.00    -0.237 OA
ATOM     91  O   UNL A   1      46.866  37.618  28.193  1.00  0.00    -0.744 OA
ENDBRANCH  85  88
ENDBRANCH  58  81
ENDBRANCH  32  33
ENDBRANCH  25  27
ENDBRANCH  24  25
ENDBRANCH  23  24
ENDBRANCH   1  23
TORSDOF 18
ENDMDL
MODEL 2
REMARK VINA RESULT:     -10.8      5.361      8.731
REMARK SMILES CCCC[C@H]1C[NH2+]CCN1c1ccc(C(=O)OCCOC(=O)c2ccc(-c3c4nc(c(-c5cccc(S(=O)(=O)[O-])c5F)c5ccc([nH]5)c(-c5cccc(S(=O)(=O)[O-])c5F)c5nc(c(-c6cccc(S(=O)(=O)[O-])c6F)c6ccc3[nH]6)C=C5)C=C4)cc2)cc1
REMARK SMILES IDX 18 1 17 2 15 3 16 4 14 5 11 6 12 7 87 8 13 9 86 10 10 11
REMARK SMILES IDX 5 12 6 13 7 14 9 15 8 16 4 19 3 20 2 21 1 22 19 23 20 24
REMARK SMILES IDX 21 25 22 26 23 27 24 28 85 29 25 30 84 31 26 32 27 33 28 34
REMARK SMILES IDX 78 35 29 36 83 37 77 38 79 39 30 40 82 41 76 42 75 43 31 45
REMARK SMILES IDX 63 46 43 47 62 48 44 49 47 50 61 51 80 52 45 53 46 54 60 56
REMARK SMILES IDX 81 57 48 58 32 59 33 60 41 61 34 62 36 63 42 64 35 65 37 66
REMARK SMILES IDX 38 67 39 68 40 69 64 70 65 71 73 72 66 73 68 74 74 75 67 76
REMARK SMILES IDX 69 77 70 78 71 79 72 80 49 81 50 82 58 83 51 84 53 85 59 86
REMARK SMILES IDX 52 87 54 88 55 89 56 90 57 91
REMARK H PARENT 7 17 7 18 79 44 47 55
REMARK Flexibility Score: inf
ROOT
ATOM      1  C   UNL A   1      31.705  32.053  26.586  1.00  0.00     0.275 C 
ENDROOT
BRANCH   1   2
ATOM      2  O   UNL A   1      32.237  31.058  27.486  1.00  0.00    -0.458 OA
BRANCH   2   3
ATOM      3  C   UNL A   1      33.336  30.401  27.034  1.00  0.00     0.338 C 
ATOM      4  O   UNL A   1      34.479  30.824  27.020  1.00  0.00    -0.246 OA
BRANCH   3   5
ATOM      5  C   UNL A   1      32.990  29.019  26.624  1.00  0.00     0.060 A 
ATOM      6  C   UNL A   1      32.417  26.405  25.756  1.00  0.00     0.037 A 
ATOM      7  C   UNL A   1      33.659  26.984  25.491  1.00  0.00     0.027 A 
ATOM      8  C   UNL A   1      31.466  27.149  26.470  1.00  0.00     0.027 A 
ATOM      9  C   UNL A   1      33.933  28.291  25.892  1.00  0.00     0.018 A 
ATOM     10  C   UNL A   1      31.751  28.446  26.916  1.00  0.00     0.018 A 
BRANCH   6  11
ATOM     11  N   UNL A   1      32.165  25.121  25.300  1.00  0.00    -0.357 N 
ATOM     12  C   UNL A   1      33.222  24.427  24.547  1.00  0.00     0.137 C 
ATOM     13  C   UNL A   1      32.806  24.171  23.071  1.00  0.00     0.285 C 
ATOM     14  N   UNL A   1      31.424  23.732  22.817  1.00  0.00    -0.343 N 
ATOM     15  C   UNL A   1      30.764  24.777  25.039  1.00  0.00     0.178 C 
ATOM     16  C   UNL A   1      30.490  24.628  23.529  1.00  0.00     0.282 C 
ATOM     17  H   UNL A   1      31.303  22.777  23.154  1.00  0.00     0.346 HD
ATOM     18  H   UNL A   1      31.233  23.763  21.815  1.00  0.00     0.346 HD
BRANCH  12  19
ATOM     19  C   UNL A   1      33.786  23.212  25.318  1.00  0.00     0.031 C 
BRANCH  19  20
ATOM     20  C   UNL A   1      34.621  22.130  24.622  1.00  0.00     0.002 C 
BRANCH  20  21
ATOM     21  C   UNL A   1      34.192  20.670  24.759  1.00  0.00    -0.003 C 
ATOM     22  C   UNL A   1      32.790  20.370  24.258  1.00  0.00     0.004 C 
ENDBRANCH  20  21
ENDBRANCH  19  20
ENDBRANCH  12  19
ENDBRANCH   6  11
ENDBRANCH   3   5
ENDBRANCH   2   3
ENDBRANCH   1   2
BRANCH   1  23
ATOM     23  C   UNL A   1      32.462  33.373  26.732  1.00  0.00     0.275 C 
BRANCH  23  24
ATOM     24  O   UNL A   1      32.194  33.935  28.026  1.00  0.00    -0.458 OA
BRANCH  24  25
ATOM     25  C   UNL A   1      33.196  34.670  28.568  1.00  0.00     0.338 C 
ATOM     26  O   UNL A   1      33.219  35.882  28.698  1.00  0.00    -0.246 OA
BRANCH  25  27
ATOM     27  C   UNL A   1      34.291  33.776  29.008  1.00  0.00     0.060 A 
ATOM     28  C   UNL A   1      34.028  32.694  29.846  1.00  0.00     0.016 A 
ATOM     29  C   UNL A   1      35.610  34.070  28.660  1.00  0.00     0.016 A 
ATOM     30  C   UNL A   1      35.076  31.960  30.407  1.00  0.00     0.010 A 
ATOM     31  C   UNL A   1      36.654  33.271  29.146  1.00  0.00     0.010 A 
ATOM     32  C   UNL A   1      36.408  32.233  30.064  1.00  0.00    -0.014 A 
BRANCH  32  33
ATOM     33  C   UNL A   1      37.537  31.479  30.697  1.00  0.00     0.031 A 
ATOM     34  C   UNL A   1      37.883  31.702  32.152  1.00  0.00     0.074 A 
ATOM     35  C   UNL A   1      38.266  30.592  29.988  1.00  0.00     0.049 A 
ATOM     36  N   UNL A   1      38.915  31.270  32.834  1.00  0.00    -0.248 NA
ATOM     37  C   UNL A   1      36.963  32.540  32.939  1.00  0.00     0.031 C 
ATOM     38  C   UNL A   1      38.067  30.264  28.575  1.00  0.00     0.029 A 
ATOM     39  N   UNL A   1      39.328  29.800  30.360  1.00  0.00    -0.354 N 
ATOM     40  C   UNL A   1      38.817  31.857  34.091  1.00  0.00     0.074 A 
ATOM     41  C   UNL A   1      37.617  32.664  34.085  1.00  0.00     0.031 C 
ATOM     42  C   UNL A   1      38.941  29.314  28.213  1.00  0.00     0.029 A 
ATOM     43  C   UNL A   1      39.818  29.014  29.341  1.00  0.00     0.049 A 
ATOM     44  H   UNL A   1      39.703  29.795  31.270  1.00  0.00     0.167 HD
ATOM     45  C   UNL A   1      39.639  31.727  35.161  1.00  0.00     0.034 A 
ATOM     46  C   UNL A   1      40.867  28.167  29.301  1.00  0.00     0.034 A 
ATOM     47  C   UNL A   1      40.768  30.838  35.219  1.00  0.00     0.049 A 
ATOM     48  C   UNL A   1      41.720  27.984  30.526  1.00  0.00     0.074 A 
ATOM     49  C   UNL A   1      41.623  30.602  36.282  1.00  0.00     0.029 A 
ATOM     50  N   UNL A   1      41.183  30.014  34.185  1.00  0.00    -0.354 N 
ATOM     51  N   UNL A   1      41.585  28.520  31.713  1.00  0.00    -0.248 NA
ATOM     52  C   UNL A   1      42.869  27.073  30.405  1.00  0.00     0.031 C 
ATOM     53  C   UNL A   1      42.552  29.629  35.893  1.00  0.00     0.029 A 
ATOM     54  C   UNL A   1      42.274  29.261  34.588  1.00  0.00     0.049 A 
ATOM     55  H   UNL A   1      40.765  29.971  33.294  1.00  0.00     0.167 HD
ATOM     56  C   UNL A   1      42.625  28.011  32.482  1.00  0.00     0.074 A 
ATOM     57  C   UNL A   1      43.358  27.089  31.639  1.00  0.00     0.031 C 
ATOM     58  C   UNL A   1      42.963  28.306  33.760  1.00  0.00     0.034 A 
BRANCH  45  59
ATOM     59  C   UNL A   1      39.324  32.538  36.391  1.00  0.00     0.023 A 
ATOM     60  C   UNL A   1      39.892  33.817  36.547  1.00  0.00     0.012 A 
ATOM     61  C   UNL A   1      38.413  32.062  37.355  1.00  0.00     0.148 A 
ATOM     62  C   UNL A   1      39.577  34.601  37.658  1.00  0.00     0.002 A 
ATOM     63  C   UNL A   1      38.075  32.865  38.439  1.00  0.00     0.091 A 
ATOM     64  F   UNL A   1      37.901  30.832  37.202  1.00  0.00    -0.205 F 
ATOM     65  C   UNL A   1      38.663  34.131  38.596  1.00  0.00     0.022 A 
BRANCH  63  66
ATOM     66  S   UNL A   1      36.846  32.370  39.654  1.00  0.00     0.127 S 
ATOM     67  O   UNL A   1      37.365  31.075  40.089  1.00  0.00    -0.237 OA
ATOM     68  O   UNL A   1      36.946  33.434  40.653  1.00  0.00    -0.237 OA
ATOM     69  O   UNL A   1      35.578  32.335  38.939  1.00  0.00    -0.744 OA
ENDBRANCH  63  66
ENDBRANCH  45  59
BRANCH  46  70
ATOM     70  C   UNL A   1      41.145  27.395  28.055  1.00  0.00     0.023 A 
ATOM     71  C   UNL A   1      41.779  28.037  26.974  1.00  0.00     0.012 A 
ATOM     72  C   UNL A   1      40.838  26.025  27.953  1.00  0.00     0.148 A 
ATOM     73  C   UNL A   1      42.091  27.331  25.810  1.00  0.00     0.002 A 
ATOM     74  C   UNL A   1      41.209  25.314  26.817  1.00  0.00     0.091 A 
ATOM     75  F   UNL A   1      40.201  25.435  28.976  1.00  0.00    -0.205 F 
ATOM     76  C   UNL A   1      41.823  25.967  25.740  1.00  0.00     0.022 A 
BRANCH  74  77
ATOM     77  S   UNL A   1      41.040  23.526  26.732  1.00  0.00     0.127 S 
ATOM     78  O   UNL A   1      41.931  23.192  25.626  1.00  0.00    -0.237 OA
ATOM     79  O   UNL A   1      41.513  23.106  28.053  1.00  0.00    -0.237 OA
ATOM     80  O   UNL A   1      39.620  23.291  26.509  1.00  0.00    -0.744 OA
ENDBRANCH  74  77
ENDBRANCH  46  70
BRANCH  58  81
ATOM     81  C   UNL A   1      44.178  27.626  34.332  1.00  0.00     0.023 A 
ATOM     82  C   UNL A   1      45.441  28.227  34.174  1.00  0.00     0.012 A 
ATOM     83  C   UNL A   1      44.067  26.432  35.072  1.00  0.00     0.148 A 
ATOM     84  C   UNL A   1      46.581  27.637  34.719  1.00  0.00     0.002 A 
ATOM     85  C   UNL A   1      45.203  25.869  35.643  1.00  0.00     0.091 A 
ATOM     86  F   UNL A   1      42.860  25.860  35.192  1.00  0.00    -0.205 F 
ATOM     87  C   UNL A   1      46.461  26.465  35.462  1.00  0.00     0.022 A 
BRANCH  85  88
ATOM     88  S   UNL A   1      45.114  24.401  36.676  1.00  0.00     0.127 S 
ATOM     89  O   UNL A   1      46.515  24.206  37.042  1.00  0.00    -0.237 OA
ATOM     90  O   UNL A   1      44.252  24.837  37.776  1.00  0.00    -0.237 OA
ATOM     91  O   UNL A   1      44.528  23.367  35.833  1.00  0.00    -0.744 OA
ENDBRANCH  85  88
ENDBRANCH  58  81
ENDBRANCH  32  33
ENDBRANCH  25  27
ENDBRANCH  24  25
ENDBRANCH  23  24
ENDBRANCH   1  23
TORSDOF 18
ENDMDL
MODEL 3
REMARK VINA RESULT:     -10.7      5.193     10.083
REMARK SMILES CCCC[C@H]1C[NH2+]CCN1c1ccc(C(=O)OCCOC(=O)c2ccc(-c3c4nc(c(-c5cccc(S(=O)(=O)[O-])c5F)c5ccc([nH]5)c(-c5cccc(S(=O)(=O)[O-])c5F)c5nc(c(-c6cccc(S(=O)(=O)[O-])c6F)c6ccc3[nH]6)C=C5)C=C4)cc2)cc1
REMARK SMILES IDX 18 1 17 2 15 3 16 4 14 5 11 6 12 7 87 8 13 9 86 10 10 11
REMARK SMILES IDX 5 12 6 13 7 14 9 15 8 16 4 19 3 20 2 21 1 22 19 23 20 24
REMARK SMILES IDX 21 25 22 26 23 27 24 28 85 29 25 30 84 31 26 32 27 33 28 34
REMARK SMILES IDX 78 35 29 36 83 37 77 38 79 39 30 40 82 41 76 42 75 43 31 45
REMARK SMILES IDX 63 46 43 47 62 48 44 49 47 50 61 51 80 52 45 53 46 54 60 56
REMARK SMILES IDX 81 57 48 58 32 59 33 60 41 61 34 62 36 63 42 64 35 65 37 66
REMARK SMILES IDX 38 67 39 68 40 69 64 70 65 71 73 72 66 73 68 74 74 75 67 76
REMARK SMILES IDX 69 77 70 78 71 79 72 80 49 81 50 82 58 83 51 84 53 85 59 86
REMARK SMILES IDX 52 87 54 88 55 89 56 90 57 91
REMARK H PARENT 7 17 7 18 79 44 47 55
REMARK Flexibility Score: inf
ROOT
ATOM      1  C   UNL A   1      31.091  30.359  25.133  1.00  0.00     0.275 C 
ENDROOT
BRANCH   1   2
ATOM      2  O   UNL A   1      31.540  29.387  24.164  1.00  0.00    -0.458 OA
BRANCH   2   3
ATOM      3  C   UNL A   1      30.691  28.349  23.953  1.00  0.00     0.338 C 
ATOM      4  O   UNL A   1      29.585  28.408  23.444  1.00  0.00    -0.246 OA
BRANCH   3   5
ATOM      5  C   UNL A   1      31.323  27.067  24.344  1.00  0.00     0.060 A 
ATOM      6  C   UNL A   1      32.421  24.605  25.151  1.00  0.00     0.037 A 
ATOM      7  C   UNL A   1      31.038  24.780  25.091  1.00  0.00     0.027 A 
ATOM      8  C   UNL A   1      33.250  25.678  24.792  1.00  0.00     0.027 A 
ATOM      9  C   UNL A   1      30.491  26.008  24.724  1.00  0.00     0.018 A 
ATOM     10  C   UNL A   1      32.709  26.901  24.377  1.00  0.00     0.018 A 
BRANCH   6  11
ATOM     11  N   UNL A   1      32.925  23.383  25.567  1.00  0.00    -0.357 N 
ATOM     12  C   UNL A   1      34.167  22.892  24.949  1.00  0.00     0.137 C 
ATOM     13  C   UNL A   1      33.926  21.603  24.114  1.00  0.00     0.285 C 
ATOM     14  N   UNL A   1      33.026  20.583  24.677  1.00  0.00    -0.343 N 
ATOM     15  C   UNL A   1      31.956  22.412  26.083  1.00  0.00     0.178 C 
ATOM     16  C   UNL A   1      31.770  21.228  25.112  1.00  0.00     0.282 C 
ATOM     17  H   UNL A   1      33.475  20.137  25.478  1.00  0.00     0.346 HD
ATOM     18  H   UNL A   1      32.822  19.877  23.969  1.00  0.00     0.346 HD
BRANCH  12  19
ATOM     19  C   UNL A   1      35.340  22.845  25.953  1.00  0.00     0.031 C 
BRANCH  19  20
ATOM     20  C   UNL A   1      36.325  24.011  26.100  1.00  0.00     0.002 C 
BRANCH  20  21
ATOM     21  C   UNL A   1      37.814  23.747  25.880  1.00  0.00    -0.003 C 
ATOM     22  C   UNL A   1      38.736  24.472  26.845  1.00  0.00     0.004 C 
ENDBRANCH  20  21
ENDBRANCH  19  20
ENDBRANCH  12  19
ENDBRANCH   6  11
ENDBRANCH   3   5
ENDBRANCH   2   3
ENDBRANCH   1   2
BRANCH   1  23
ATOM     23  C   UNL A   1      31.816  30.168  26.465  1.00  0.00     0.275 C 
BRANCH  23  24
ATOM     24  O   UNL A   1      33.190  30.557  26.320  1.00  0.00    -0.458 OA
BRANCH  24  25
ATOM     25  C   UNL A   1      33.644  31.464  27.220  1.00  0.00     0.338 C 
ATOM     26  O   UNL A   1      33.064  32.468  27.595  1.00  0.00    -0.246 OA
BRANCH  25  27
ATOM     27  C   UNL A   1      34.979  31.053  27.715  1.00  0.00     0.060 A 
ATOM     28  C   UNL A   1      35.253  29.713  27.981  1.00  0.00     0.016 A 
ATOM     29  C   UNL A   1      35.939  32.022  28.006  1.00  0.00     0.016 A 
ATOM     30  C   UNL A   1      36.442  29.346  28.616  1.00  0.00     0.010 A 
ATOM     31  C   UNL A   1      37.171  31.639  28.552  1.00  0.00     0.010 A 
ATOM     32  C   UNL A   1      37.425  30.302  28.910  1.00  0.00    -0.014 A 
BRANCH  32  33
ATOM     33  C   UNL A   1      38.681  29.920  29.631  1.00  0.00     0.031 A 
ATOM     34  C   UNL A   1      39.667  28.967  28.996  1.00  0.00     0.074 A 
ATOM     35  C   UNL A   1      38.957  30.414  30.857  1.00  0.00     0.049 A 
ATOM     36  N   UNL A   1      40.722  28.395  29.520  1.00  0.00    -0.248 NA
ATOM     37  C   UNL A   1      39.424  28.587  27.594  1.00  0.00     0.031 C 
ATOM     38  C   UNL A   1      38.109  31.339  31.611  1.00  0.00     0.029 A 
ATOM     39  N   UNL A   1      40.033  30.205  31.688  1.00  0.00    -0.354 N 
ATOM     40  C   UNL A   1      41.208  27.523  28.551  1.00  0.00     0.074 A 
ATOM     41  C   UNL A   1      40.342  27.651  27.400  1.00  0.00     0.031 C 
ATOM     42  C   UNL A   1      38.714  31.651  32.767  1.00  0.00     0.029 A 
ATOM     43  C   UNL A   1      39.956  30.892  32.879  1.00  0.00     0.049 A 
ATOM     44  H   UNL A   1      40.788  29.619  31.454  1.00  0.00     0.167 HD
ATOM     45  C   UNL A   1      42.284  26.700  28.604  1.00  0.00     0.034 A 
ATOM     46  C   UNL A   1      40.772  30.898  33.953  1.00  0.00     0.034 A 
ATOM     47  C   UNL A   1      43.219  26.650  29.696  1.00  0.00     0.049 A 
ATOM     48  C   UNL A   1      42.000  30.031  33.957  1.00  0.00     0.074 A 
ATOM     49  C   UNL A   1      44.368  25.885  29.809  1.00  0.00     0.029 A 
ATOM     50  N   UNL A   1      43.134  27.413  30.849  1.00  0.00    -0.354 N 
ATOM     51  N   UNL A   1      42.458  29.245  33.014  1.00  0.00    -0.248 NA
ATOM     52  C   UNL A   1      42.828  30.058  35.173  1.00  0.00     0.031 C 
ATOM     53  C   UNL A   1      44.983  26.192  31.029  1.00  0.00     0.029 A 
ATOM     54  C   UNL A   1      44.215  27.147  31.673  1.00  0.00     0.049 A 
ATOM     55  H   UNL A   1      42.412  28.050  31.053  1.00  0.00     0.167 HD
ATOM     56  C   UNL A   1      43.627  28.688  33.518  1.00  0.00     0.074 A 
ATOM     57  C   UNL A   1      43.832  29.258  34.834  1.00  0.00     0.031 C 
ATOM     58  C   UNL A   1      44.440  27.761  32.956  1.00  0.00     0.034 A 
BRANCH  45  59
ATOM     59  C   UNL A   1      42.543  25.808  27.418  1.00  0.00     0.023 A 
ATOM     60  C   UNL A   1      43.216  26.321  26.293  1.00  0.00     0.012 A 
ATOM     61  C   UNL A   1      42.182  24.446  27.448  1.00  0.00     0.148 A 
ATOM     62  C   UNL A   1      43.503  25.498  25.203  1.00  0.00     0.002 A 
ATOM     63  C   UNL A   1      42.505  23.624  26.374  1.00  0.00     0.091 A 
ATOM     64  F   UNL A   1      41.519  23.981  28.517  1.00  0.00    -0.205 F 
ATOM     65  C   UNL A   1      43.158  24.150  25.248  1.00  0.00     0.022 A 
BRANCH  63  66
ATOM     66  S   UNL A   1      42.169  21.858  26.382  1.00  0.00     0.127 S 
ATOM     67  O   UNL A   1      40.780  21.820  25.929  1.00  0.00    -0.237 OA
ATOM     68  O   UNL A   1      43.140  21.349  25.413  1.00  0.00    -0.237 OA
ATOM     69  O   UNL A   1      42.400  21.419  27.751  1.00  0.00    -0.744 OA
ENDBRANCH  63  66
ENDBRANCH  45  59
BRANCH  46  70
ATOM     70  C   UNL A   1      40.465  31.791  35.108  1.00  0.00     0.023 A 
ATOM     71  C   UNL A   1      41.216  32.967  35.289  1.00  0.00     0.012 A 
ATOM     72  C   UNL A   1      39.406  31.513  35.993  1.00  0.00     0.148 A 
ATOM     73  C   UNL A   1      40.926  33.844  36.337  1.00  0.00     0.002 A 
ATOM     74  C   UNL A   1      39.080  32.422  36.993  1.00  0.00     0.091 A 
ATOM     75  F   UNL A   1      38.720  30.371  35.831  1.00  0.00    -0.205 F 
ATOM     76  C   UNL A   1      39.848  33.581  37.176  1.00  0.00     0.022 A 
BRANCH  74  77
ATOM     77  S   UNL A   1      37.606  32.222  38.002  1.00  0.00     0.127 S 
ATOM     78  O   UNL A   1      37.419  30.774  37.978  1.00  0.00    -0.237 OA
ATOM     79  O   UNL A   1      38.034  32.767  39.291  1.00  0.00    -0.237 OA
ATOM     80  O   UNL A   1      36.582  33.014  37.335  1.00  0.00    -0.744 OA
ENDBRANCH  74  77
ENDBRANCH  46  70
BRANCH  58  81
ATOM     81  C   UNL A   1      45.629  27.302  33.757  1.00  0.00     0.023 A 
ATOM     82  C   UNL A   1      46.846  28.002  33.645  1.00  0.00     0.012 A 
ATOM     83  C   UNL A   1      45.531  26.223  34.657  1.00  0.00     0.148 A 
ATOM     84  C   UNL A   1      47.956  27.620  34.397  1.00  0.00     0.002 A 
ATOM     85  C   UNL A   1      46.633  25.870  35.430  1.00  0.00     0.091 A 
ATOM     86  F   UNL A   1      44.373  25.552  34.733  1.00  0.00    -0.205 F 
ATOM     87  C   UNL A   1      47.847  26.562  35.297  1.00  0.00     0.022 A 
BRANCH  85  88
ATOM     88  S   UNL A   1      46.545  24.567  36.664  1.00  0.00     0.127 S 
ATOM     89  O   UNL A   1      45.637  25.148  37.650  1.00  0.00    -0.237 OA
ATOM     90  O   UNL A   1      45.985  23.447  35.906  1.00  0.00    -0.237 OA
ATOM     91  O   UNL A   1      47.917  24.359  37.110  1.00  0.00    -0.744 OA
ENDBRANCH  85  88
ENDBRANCH  58  81
ENDBRANCH  32  33
ENDBRANCH  25  27
ENDBRANCH  24  25
ENDBRANCH  23  24
ENDBRANCH   1  23
TORSDOF 18
ENDMDL
