MODEL 1
REMARK VINA RESULT:     -12.7      0.000      0.000
REMARK SMILES Cc1cc(C(=O)OCCOC(=O)c2ccc(-c3c4nc(c(-c5cccc(S(=O)(=O)[O-])c5F)c5ccc([nH]5)c(-c5cccc(S(=O)(=O)[O-])c5F)c5nc(c(-c6cccc(S(=O)(=O)[O-])c6F)c6ccc3[nH]6)C=C5)C=C4)cc2)ccc1NC(=O)N1C[C@@H](C)[C@H](C)C1
REMARK SMILES IDX 9 1 8 2 7 3 5 4 6 5 4 6 1 7 2 8 3 9 78 10 77 11 76 12 79 13
REMARK SMILES IDX 80 14 81 16 82 17 83 18 88 19 84 20 86 21 85 22 87 23 10 24
REMARK SMILES IDX 11 25 12 26 13 27 14 28 75 29 15 30 74 31 16 32 17 33 18 34
REMARK SMILES IDX 68 35 19 36 73 37 67 38 69 39 20 40 72 41 66 42 65 43 21 45
REMARK SMILES IDX 53 46 33 47 52 48 34 49 37 50 51 51 70 52 35 53 36 54 50 56
REMARK SMILES IDX 71 57 38 58 22 59 23 60 31 61 24 62 26 63 32 64 25 65 27 66
REMARK SMILES IDX 28 67 29 68 30 69 54 70 55 71 63 72 56 73 58 74 64 75 57 76
REMARK SMILES IDX 59 77 60 78 61 79 62 80 39 81 40 82 48 83 41 84 43 85 49 86
REMARK SMILES IDX 42 87 44 88 45 89 46 90 47 91
REMARK H PARENT 79 15 69 44 37 55
REMARK Flexibility Score: inf
ROOT
ATOM      1  C   UNL A   1      33.823  30.003  27.001  1.00  0.00     0.275 C 
ENDROOT
BRANCH   1   2
ATOM      2  C   UNL A   1      32.755  30.135  25.898  1.00  0.00     0.275 C 
BRANCH   2   3
ATOM      3  O   UNL A   1      31.664  29.219  25.862  1.00  0.00    -0.458 OA
BRANCH   3   4
ATOM      4  C   UNL A   1      31.367  28.603  24.696  1.00  0.00     0.338 C 
ATOM      5  O   UNL A   1      31.235  29.102  23.606  1.00  0.00    -0.246 OA
BRANCH   4   6
ATOM      6  C   UNL A   1      31.328  27.160  24.999  1.00  0.00     0.060 A 
ATOM      7  C   UNL A   1      30.510  23.864  23.307  1.00  0.00     0.046 C 
ATOM      8  C   UNL A   1      30.968  24.834  24.368  1.00  0.00    -0.027 A 
ATOM      9  C   UNL A   1      31.014  26.205  24.032  1.00  0.00     0.021 A 
ATOM     10  C   UNL A   1      31.311  24.429  25.678  1.00  0.00     0.045 A 
ATOM     11  C   UNL A   1      31.661  25.417  26.609  1.00  0.00     0.027 A 
ATOM     12  C   UNL A   1      31.636  26.770  26.294  1.00  0.00     0.018 A 
BRANCH  10  13
ATOM     13  N   UNL A   1      31.402  23.044  25.981  1.00  0.00    -0.308 N 
ATOM     14  C   UNL A   1      32.260  22.104  25.483  1.00  0.00     0.321 C 
ATOM     15  H   UNL A   1      30.753  22.714  26.644  1.00  0.00     0.171 HD
ATOM     16  O   UNL A   1      31.832  20.981  25.212  1.00  0.00    -0.248 OA
ATOM     17  N   UNL A   1      33.554  22.457  25.251  1.00  0.00    -0.324 N 
ATOM     18  C   UNL A   1      34.261  22.039  24.064  1.00  0.00     0.125 C 
ATOM     19  C   UNL A   1      34.448  23.014  26.255  1.00  0.00     0.125 C 
ATOM     20  C   UNL A   1      35.719  22.447  24.287  1.00  0.00     0.010 C 
ATOM     21  C   UNL A   1      35.666  23.460  25.452  1.00  0.00     0.010 C 
ATOM     22  C   UNL A   1      36.353  23.035  23.032  1.00  0.00     0.010 C 
ATOM     23  C   UNL A   1      36.945  23.482  26.276  1.00  0.00     0.010 C 
ENDBRANCH  10  13
ENDBRANCH   4   6
ENDBRANCH   3   4
ENDBRANCH   2   3
ENDBRANCH   1   2
BRANCH   1  24
ATOM     24  O   UNL A   1      34.574  31.134  27.535  1.00  0.00    -0.458 OA
BRANCH  24  25
ATOM     25  C   UNL A   1      35.329  31.300  28.646  1.00  0.00     0.338 C 
ATOM     26  O   UNL A   1      35.086  32.162  29.481  1.00  0.00    -0.246 OA
BRANCH  25  27
ATOM     27  C   UNL A   1      36.455  30.386  28.829  1.00  0.00     0.060 A 
ATOM     28  C   UNL A   1      36.642  29.723  30.054  1.00  0.00     0.016 A 
ATOM     29  C   UNL A   1      37.281  30.151  27.740  1.00  0.00     0.016 A 
ATOM     30  C   UNL A   1      37.635  28.756  30.168  1.00  0.00     0.010 A 
ATOM     31  C   UNL A   1      38.145  29.091  27.794  1.00  0.00     0.010 A 
ATOM     32  C   UNL A   1      38.392  28.472  29.033  1.00  0.00    -0.014 A 
BRANCH  32  33
ATOM     33  C   UNL A   1      39.766  28.001  29.104  1.00  0.00     0.031 A 
ATOM     34  C   UNL A   1      40.178  26.638  28.785  1.00  0.00     0.074 A 
ATOM     35  C   UNL A   1      40.617  29.050  29.186  1.00  0.00     0.049 A 
ATOM     36  N   UNL A   1      41.366  26.204  29.010  1.00  0.00    -0.248 NA
ATOM     37  C   UNL A   1      39.287  25.633  28.224  1.00  0.00     0.031 C 
ATOM     38  C   UNL A   1      41.996  29.186  28.772  1.00  0.00     0.029 A 
ATOM     39  N   UNL A   1      40.314  30.291  29.770  1.00  0.00    -0.354 N 
ATOM     40  C   UNL A   1      41.495  24.990  28.369  1.00  0.00     0.074 A 
ATOM     41  C   UNL A   1      40.143  24.622  28.020  1.00  0.00     0.031 C 
ATOM     42  C   UNL A   1      42.492  30.308  29.332  1.00  0.00     0.029 A 
ATOM     43  C   UNL A   1      41.498  30.798  30.283  1.00  0.00     0.049 A 
ATOM     44  H   UNL A   1      39.429  30.720  29.807  1.00  0.00     0.167 HD
ATOM     45  C   UNL A   1      42.756  24.553  28.080  1.00  0.00     0.034 A 
ATOM     46  C   UNL A   1      41.651  30.947  31.634  1.00  0.00     0.034 A 
ATOM     47  C   UNL A   1      43.750  25.476  28.668  1.00  0.00     0.049 A 
ATOM     48  C   UNL A   1      42.747  30.032  32.141  1.00  0.00     0.074 A 
ATOM     49  C   UNL A   1      44.457  26.539  28.130  1.00  0.00     0.029 A 
ATOM     50  N   UNL A   1      43.870  25.585  30.051  1.00  0.00    -0.354 N 
ATOM     51  N   UNL A   1      43.250  29.046  31.450  1.00  0.00    -0.248 NA
ATOM     52  C   UNL A   1      43.345  30.144  33.465  1.00  0.00     0.031 C 
ATOM     53  C   UNL A   1      44.886  27.365  29.208  1.00  0.00     0.029 A 
ATOM     54  C   UNL A   1      44.487  26.782  30.400  1.00  0.00     0.049 A 
ATOM     55  H   UNL A   1      43.561  24.907  30.695  1.00  0.00     0.167 HD
ATOM     56  C   UNL A   1      44.125  28.339  32.218  1.00  0.00     0.074 A 
ATOM     57  C   UNL A   1      44.202  29.109  33.451  1.00  0.00     0.031 C 
ATOM     58  C   UNL A   1      44.659  27.148  31.806  1.00  0.00     0.034 A 
BRANCH  45  59
ATOM     59  C   UNL A   1      43.152  23.497  27.049  1.00  0.00     0.023 A 
ATOM     60  C   UNL A   1      43.933  23.941  25.954  1.00  0.00     0.012 A 
ATOM     61  C   UNL A   1      42.768  22.134  27.004  1.00  0.00     0.148 A 
ATOM     62  C   UNL A   1      44.251  23.124  24.861  1.00  0.00     0.002 A 
ATOM     63  C   UNL A   1      43.082  21.313  25.912  1.00  0.00     0.091 A 
ATOM     64  F   UNL A   1      42.097  21.593  28.019  1.00  0.00    -0.205 F 
ATOM     65  C   UNL A   1      43.814  21.811  24.833  1.00  0.00     0.022 A 
BRANCH  63  66
ATOM     66  S   UNL A   1      42.554  19.590  25.800  1.00  0.00     0.127 S 
ATOM     67  O   UNL A   1      41.122  19.726  25.530  1.00  0.00    -0.237 OA
ATOM     68  O   UNL A   1      43.341  19.093  24.672  1.00  0.00    -0.237 OA
ATOM     69  O   UNL A   1      42.871  18.974  27.083  1.00  0.00    -0.744 OA
ENDBRANCH  63  66
ENDBRANCH  45  59
BRANCH  46  70
ATOM     70  C   UNL A   1      40.373  31.253  32.379  1.00  0.00     0.023 A 
ATOM     71  C   UNL A   1      39.698  30.165  32.995  1.00  0.00     0.012 A 
ATOM     72  C   UNL A   1      40.026  32.555  32.784  1.00  0.00     0.148 A 
ATOM     73  C   UNL A   1      38.801  30.365  34.052  1.00  0.00     0.002 A 
ATOM     74  C   UNL A   1      39.129  32.745  33.842  1.00  0.00     0.091 A 
ATOM     75  F   UNL A   1      40.617  33.601  32.190  1.00  0.00    -0.205 F 
ATOM     76  C   UNL A   1      38.533  31.654  34.489  1.00  0.00     0.022 A 
BRANCH  74  77
ATOM     77  S   UNL A   1      38.851  34.394  34.509  1.00  0.00     0.127 S 
ATOM     78  O   UNL A   1      38.128  34.132  35.755  1.00  0.00    -0.237 OA
ATOM     79  O   UNL A   1      40.196  34.915  34.717  1.00  0.00    -0.237 OA
ATOM     80  O   UNL A   1      38.056  35.018  33.458  1.00  0.00    -0.744 OA
ENDBRANCH  74  77
ENDBRANCH  46  70
BRANCH  58  81
ATOM     81  C   UNL A   1      45.398  26.210  32.729  1.00  0.00     0.023 A 
ATOM     82  C   UNL A   1      46.802  26.235  32.844  1.00  0.00     0.012 A 
ATOM     83  C   UNL A   1      44.693  25.381  33.631  1.00  0.00     0.148 A 
ATOM     84  C   UNL A   1      47.481  25.412  33.747  1.00  0.00     0.002 A 
ATOM     85  C   UNL A   1      45.366  24.665  34.614  1.00  0.00     0.091 A 
ATOM     86  F   UNL A   1      43.359  25.274  33.539  1.00  0.00    -0.205 F 
ATOM     87  C   UNL A   1      46.762  24.643  34.649  1.00  0.00     0.022 A 
BRANCH  85  88
ATOM     88  S   UNL A   1      44.455  23.907  35.964  1.00  0.00     0.127 S 
ATOM     89  O   UNL A   1      43.639  25.018  36.446  1.00  0.00    -0.237 OA
ATOM     90  O   UNL A   1      43.704  22.848  35.287  1.00  0.00    -0.237 OA
ATOM     91  O   UNL A   1      45.484  23.417  36.872  1.00  0.00    -0.744 OA
ENDBRANCH  85  88
ENDBRANCH  58  81
ENDBRANCH  32  33
ENDBRANCH  25  27
ENDBRANCH  24  25
ENDBRANCH   1  24
TORSDOF 15
ENDMDL
MODEL 2
REMARK VINA RESULT:     -12.7      1.731      2.222
REMARK SMILES Cc1cc(C(=O)OCCOC(=O)c2ccc(-c3c4nc(c(-c5cccc(S(=O)(=O)[O-])c5F)c5ccc([nH]5)c(-c5cccc(S(=O)(=O)[O-])c5F)c5nc(c(-c6cccc(S(=O)(=O)[O-])c6F)c6ccc3[nH]6)C=C5)C=C4)cc2)ccc1NC(=O)N1C[C@@H](C)[C@H](C)C1
REMARK SMILES IDX 9 1 8 2 7 3 5 4 6 5 4 6 1 7 2 8 3 9 78 10 77 11 76 12 79 13
REMARK SMILES IDX 80 14 81 16 82 17 83 18 88 19 84 20 86 21 85 22 87 23 10 24
REMARK SMILES IDX 11 25 12 26 13 27 14 28 75 29 15 30 74 31 16 32 17 33 18 34
REMARK SMILES IDX 68 35 19 36 73 37 67 38 69 39 20 40 72 41 66 42 65 43 21 45
REMARK SMILES IDX 53 46 33 47 52 48 34 49 37 50 51 51 70 52 35 53 36 54 50 56
REMARK SMILES IDX 71 57 38 58 22 59 23 60 31 61 24 62 26 63 32 64 25 65 27 66
REMARK SMILES IDX 28 67 29 68 30 69 54 70 55 71 63 72 56 73 58 74 64 75 57 76
REMARK SMILES IDX 59 77 60 78 61 79 62 80 39 81 40 82 48 83 41 84 43 85 49 86
REMARK SMILES IDX 42 87 44 88 45 89 46 90 47 91
REMARK H PARENT 79 15 69 44 37 55
REMARK Flexibility Score: inf
ROOT
ATOM      1  C   UNL A   1      33.991  30.351  26.996  1.00  0.00     0.275 C 
ENDROOT
BRANCH   1   2
ATOM      2  C   UNL A   1      32.452  30.395  27.066  1.00  0.00     0.275 C 
BRANCH   2   3
ATOM      3  O   UNL A   1      31.687  29.432  26.347  1.00  0.00    -0.458 OA
BRANCH   3   4
ATOM      4  C   UNL A   1      31.566  28.185  26.853  1.00  0.00     0.338 C 
ATOM      5  O   UNL A   1      31.328  27.865  27.991  1.00  0.00    -0.246 OA
BRANCH   4   6
ATOM      6  C   UNL A   1      31.686  27.268  25.704  1.00  0.00     0.060 A 
ATOM      7  C   UNL A   1      33.480  27.018  22.369  1.00  0.00     0.046 C 
ATOM      8  C   UNL A   1      32.618  26.628  23.545  1.00  0.00    -0.027 A 
ATOM      9  C   UNL A   1      32.547  27.523  24.636  1.00  0.00     0.021 A 
ATOM     10  C   UNL A   1      31.860  25.435  23.574  1.00  0.00     0.045 A 
ATOM     11  C   UNL A   1      31.039  25.197  24.686  1.00  0.00     0.027 A 
ATOM     12  C   UNL A   1      30.918  26.113  25.723  1.00  0.00     0.018 A 
BRANCH  10  13
ATOM     13  N   UNL A   1      32.034  24.470  22.547  1.00  0.00    -0.308 N 
ATOM     14  C   UNL A   1      33.145  23.743  22.223  1.00  0.00     0.321 C 
ATOM     15  H   UNL A   1      31.242  24.301  21.988  1.00  0.00     0.171 HD
ATOM     16  O   UNL A   1      33.428  23.570  21.036  1.00  0.00    -0.248 OA
ATOM     17  N   UNL A   1      33.937  23.276  23.227  1.00  0.00    -0.324 N 
ATOM     18  C   UNL A   1      35.378  23.323  23.152  1.00  0.00     0.125 C 
ATOM     19  C   UNL A   1      33.472  22.432  24.318  1.00  0.00     0.125 C 
ATOM     20  C   UNL A   1      35.882  22.516  24.351  1.00  0.00     0.010 C 
ATOM     21  C   UNL A   1      34.654  22.397  25.281  1.00  0.00     0.010 C 
ATOM     22  C   UNL A   1      37.070  23.180  25.035  1.00  0.00     0.010 C 
ATOM     23  C   UNL A   1      34.683  21.141  26.140  1.00  0.00     0.010 C 
ENDBRANCH  10  13
ENDBRANCH   4   6
ENDBRANCH   3   4
ENDBRANCH   2   3
ENDBRANCH   1   2
BRANCH   1  24
ATOM     24  O   UNL A   1      34.860  30.764  28.093  1.00  0.00    -0.458 OA
BRANCH  24  25
ATOM     25  C   UNL A   1      36.130  31.230  28.141  1.00  0.00     0.338 C 
ATOM     26  O   UNL A   1      36.394  32.422  28.068  1.00  0.00    -0.246 OA
BRANCH  25  27
ATOM     27  C   UNL A   1      37.195  30.243  28.305  1.00  0.00     0.060 A 
ATOM     28  C   UNL A   1      37.241  29.428  29.449  1.00  0.00     0.016 A 
ATOM     29  C   UNL A   1      38.108  30.097  27.271  1.00  0.00     0.016 A 
ATOM     30  C   UNL A   1      38.179  28.403  29.527  1.00  0.00     0.010 A 
ATOM     31  C   UNL A   1      38.919  28.995  27.266  1.00  0.00     0.010 A 
ATOM     32  C   UNL A   1      39.025  28.219  28.435  1.00  0.00    -0.014 A 
BRANCH  32  33
ATOM     33  C   UNL A   1      40.366  27.672  28.566  1.00  0.00     0.031 A 
ATOM     34  C   UNL A   1      40.688  26.258  28.402  1.00  0.00     0.074 A 
ATOM     35  C   UNL A   1      41.283  28.666  28.535  1.00  0.00     0.049 A 
ATOM     36  N   UNL A   1      41.847  25.776  28.680  1.00  0.00    -0.248 NA
ATOM     37  C   UNL A   1      39.734  25.256  27.951  1.00  0.00     0.031 C 
ATOM     38  C   UNL A   1      42.667  28.667  28.117  1.00  0.00     0.029 A 
ATOM     39  N   UNL A   1      41.061  29.981  28.976  1.00  0.00    -0.354 N 
ATOM     40  C   UNL A   1      41.895  24.493  28.178  1.00  0.00     0.074 A 
ATOM     41  C   UNL A   1      40.522  24.175  27.865  1.00  0.00     0.031 C 
ATOM     42  C   UNL A   1      43.236  29.809  28.551  1.00  0.00     0.029 A 
ATOM     43  C   UNL A   1      42.276  30.465  29.437  1.00  0.00     0.049 A 
ATOM     44  H   UNL A   1      40.206  30.467  28.960  1.00  0.00     0.167 HD
ATOM     45  C   UNL A   1      43.125  23.946  27.947  1.00  0.00     0.034 A 
ATOM     46  C   UNL A   1      42.441  30.753  30.763  1.00  0.00     0.034 A 
ATOM     47  C   UNL A   1      44.177  24.862  28.434  1.00  0.00     0.049 A 
ATOM     48  C   UNL A   1      43.477  29.831  31.374  1.00  0.00     0.074 A 
ATOM     49  C   UNL A   1      44.951  25.812  27.786  1.00  0.00     0.029 A 
ATOM     50  N   UNL A   1      44.307  25.117  29.797  1.00  0.00    -0.354 N 
ATOM     51  N   UNL A   1      43.914  28.744  30.800  1.00  0.00    -0.248 NA
ATOM     52  C   UNL A   1      44.083  30.051  32.681  1.00  0.00     0.031 C 
ATOM     53  C   UNL A   1      45.434  26.723  28.767  1.00  0.00     0.029 A 
ATOM     54  C   UNL A   1      45.000  26.303  30.014  1.00  0.00     0.049 A 
ATOM     55  H   UNL A   1      43.956  24.536  30.511  1.00  0.00     0.167 HD
ATOM     56  C   UNL A   1      44.743  28.072  31.647  1.00  0.00     0.074 A 
ATOM     57  C   UNL A   1      44.872  28.968  32.787  1.00  0.00     0.031 C 
ATOM     58  C   UNL A   1      45.198  26.811  31.372  1.00  0.00     0.034 A 
BRANCH  45  59
ATOM     59  C   UNL A   1      43.450  22.758  27.041  1.00  0.00     0.023 A 
ATOM     60  C   UNL A   1      44.348  23.003  25.973  1.00  0.00     0.012 A 
ATOM     61  C   UNL A   1      42.903  21.453  27.084  1.00  0.00     0.148 A 
ATOM     62  C   UNL A   1      44.630  22.055  24.980  1.00  0.00     0.002 A 
ATOM     63  C   UNL A   1      43.180  20.502  26.092  1.00  0.00     0.091 A 
ATOM     64  F   UNL A   1      42.107  21.092  28.089  1.00  0.00    -0.205 F 
ATOM     65  C   UNL A   1      44.035  20.806  25.032  1.00  0.00     0.022 A 
BRANCH  63  66
ATOM     66  S   UNL A   1      42.449  18.850  26.089  1.00  0.00     0.127 S 
ATOM     67  O   UNL A   1      43.275  18.153  25.102  1.00  0.00    -0.237 OA
ATOM     68  O   UNL A   1      42.654  18.414  27.471  1.00  0.00    -0.237 OA
ATOM     69  O   UNL A   1      41.053  19.014  25.704  1.00  0.00    -0.744 OA
ENDBRANCH  63  66
ENDBRANCH  45  59
BRANCH  46  70
ATOM     70  C   UNL A   1      41.187  31.221  31.462  1.00  0.00     0.023 A 
ATOM     71  C   UNL A   1      40.606  32.439  31.020  1.00  0.00     0.012 A 
ATOM     72  C   UNL A   1      40.396  30.364  32.250  1.00  0.00     0.148 A 
ATOM     73  C   UNL A   1      39.258  32.735  31.256  1.00  0.00     0.002 A 
ATOM     74  C   UNL A   1      39.049  30.668  32.481  1.00  0.00     0.091 A 
ATOM     75  F   UNL A   1      40.932  29.228  32.716  1.00  0.00    -0.205 F 
ATOM     76  C   UNL A   1      38.473  31.838  31.968  1.00  0.00     0.022 A 
BRANCH  74  77
ATOM     77  S   UNL A   1      37.977  29.474  33.297  1.00  0.00     0.127 S 
ATOM     78  O   UNL A   1      36.653  29.791  32.760  1.00  0.00    -0.237 OA
ATOM     79  O   UNL A   1      38.491  28.185  32.850  1.00  0.00    -0.237 OA
ATOM     80  O   UNL A   1      38.165  29.807  34.704  1.00  0.00    -0.744 OA
ENDBRANCH  74  77
ENDBRANCH  46  70
BRANCH  58  81
ATOM     81  C   UNL A   1      45.877  25.935  32.397  1.00  0.00     0.023 A 
ATOM     82  C   UNL A   1      47.263  26.009  32.636  1.00  0.00     0.012 A 
ATOM     83  C   UNL A   1      45.116  25.123  33.269  1.00  0.00     0.148 A 
ATOM     84  C   UNL A   1      47.881  25.247  33.630  1.00  0.00     0.002 A 
ATOM     85  C   UNL A   1      45.718  24.470  34.338  1.00  0.00     0.091 A 
ATOM     86  F   UNL A   1      43.799  24.970  33.064  1.00  0.00    -0.205 F 
ATOM     87  C   UNL A   1      47.105  24.493  34.498  1.00  0.00     0.022 A 
BRANCH  85  88
ATOM     88  S   UNL A   1      44.710  23.740  35.635  1.00  0.00     0.127 S 
ATOM     89  O   UNL A   1      45.718  23.273  36.582  1.00  0.00    -0.237 OA
ATOM     90  O   UNL A   1      43.917  24.879  36.101  1.00  0.00    -0.237 OA
ATOM     91  O   UNL A   1      43.930  22.712  34.958  1.00  0.00    -0.744 OA
ENDBRANCH  85  88
ENDBRANCH  58  81
ENDBRANCH  32  33
ENDBRANCH  25  27
ENDBRANCH  24  25
ENDBRANCH   1  24
TORSDOF 15
ENDMDL
MODEL 3
REMARK VINA RESULT:     -12.7      3.771      9.839
REMARK SMILES Cc1cc(C(=O)OCCOC(=O)c2ccc(-c3c4nc(c(-c5cccc(S(=O)(=O)[O-])c5F)c5ccc([nH]5)c(-c5cccc(S(=O)(=O)[O-])c5F)c5nc(c(-c6cccc(S(=O)(=O)[O-])c6F)c6ccc3[nH]6)C=C5)C=C4)cc2)ccc1NC(=O)N1C[C@@H](C)[C@H](C)C1
REMARK SMILES IDX 9 1 8 2 7 3 5 4 6 5 4 6 1 7 2 8 3 9 78 10 77 11 76 12 79 13
REMARK SMILES IDX 80 14 81 16 82 17 83 18 88 19 84 20 86 21 85 22 87 23 10 24
REMARK SMILES IDX 11 25 12 26 13 27 14 28 75 29 15 30 74 31 16 32 17 33 18 34
REMARK SMILES IDX 68 35 19 36 73 37 67 38 69 39 20 40 72 41 66 42 65 43 21 45
REMARK SMILES IDX 53 46 33 47 52 48 34 49 37 50 51 51 70 52 35 53 36 54 50 56
REMARK SMILES IDX 71 57 38 58 22 59 23 60 31 61 24 62 26 63 32 64 25 65 27 66
REMARK SMILES IDX 28 67 29 68 30 69 54 70 55 71 63 72 56 73 58 74 64 75 57 76
REMARK SMILES IDX 59 77 60 78 61 79 62 80 39 81 40 82 48 83 41 84 43 85 49 86
REMARK SMILES IDX 42 87 44 88 45 89 46 90 47 91
REMARK H PARENT 79 15 69 44 37 55
REMARK Flexibility Score: inf
ROOT
ATOM      1  C   UNL A   1      38.738  21.448  25.756  1.00  0.00     0.275 C 
ENDROOT
BRANCH   1   2
ATOM      2  C   UNL A   1      37.426  21.228  24.979  1.00  0.00     0.275 C 
BRANCH   2   3
ATOM      3  O   UNL A   1      36.204  21.066  25.694  1.00  0.00    -0.458 OA
BRANCH   3   4
ATOM      4  C   UNL A   1      35.178  20.422  25.095  1.00  0.00     0.338 C 
ATOM      5  O   UNL A   1      35.158  19.294  24.667  1.00  0.00    -0.246 OA
BRANCH   4   6
ATOM      6  C   UNL A   1      34.031  21.347  25.152  1.00  0.00     0.060 A 
ATOM      7  C   UNL A   1      31.610  23.110  22.821  1.00  0.00     0.046 C 
ATOM      8  C   UNL A   1      32.250  22.640  24.105  1.00  0.00    -0.027 A 
ATOM      9  C   UNL A   1      33.331  21.735  24.009  1.00  0.00     0.021 A 
ATOM     10  C   UNL A   1      31.837  23.096  25.377  1.00  0.00     0.045 A 
ATOM     11  C   UNL A   1      32.541  22.649  26.504  1.00  0.00     0.027 A 
ATOM     12  C   UNL A   1      33.648  21.816  26.399  1.00  0.00     0.018 A 
BRANCH  10  13
ATOM     13  N   UNL A   1      30.666  23.892  25.488  1.00  0.00    -0.308 N 
ATOM     14  C   UNL A   1      30.528  25.166  25.963  1.00  0.00     0.321 C 
ATOM     15  H   UNL A   1      29.835  23.465  25.180  1.00  0.00     0.171 HD
ATOM     16  O   UNL A   1      29.559  25.444  26.672  1.00  0.00    -0.248 OA
ATOM     17  N   UNL A   1      31.499  26.078  25.681  1.00  0.00    -0.324 N 
ATOM     18  C   UNL A   1      31.985  27.011  26.671  1.00  0.00     0.125 C 
ATOM     19  C   UNL A   1      31.937  26.425  24.338  1.00  0.00     0.125 C 
ATOM     20  C   UNL A   1      32.888  27.985  25.911  1.00  0.00     0.010 C 
ATOM     21  C   UNL A   1      33.180  27.279  24.569  1.00  0.00     0.010 C 
ATOM     22  C   UNL A   1      34.158  28.318  26.684  1.00  0.00     0.010 C 
ATOM     23  C   UNL A   1      33.450  28.255  23.433  1.00  0.00     0.010 C 
ENDBRANCH  10  13
ENDBRANCH   4   6
ENDBRANCH   3   4
ENDBRANCH   2   3
ENDBRANCH   1   2
BRANCH   1  24
ATOM     24  O   UNL A   1      39.087  22.704  26.412  1.00  0.00    -0.458 OA
BRANCH  24  25
ATOM     25  C   UNL A   1      40.257  23.361  26.589  1.00  0.00     0.338 C 
ATOM     26  O   UNL A   1      41.341  22.837  26.374  1.00  0.00    -0.246 OA
BRANCH  25  27
ATOM     27  C   UNL A   1      40.179  24.751  27.033  1.00  0.00     0.060 A 
ATOM     28  C   UNL A   1      40.802  25.771  26.295  1.00  0.00     0.016 A 
ATOM     29  C   UNL A   1      39.420  25.028  28.161  1.00  0.00     0.016 A 
ATOM     30  C   UNL A   1      40.605  27.100  26.655  1.00  0.00     0.010 A 
ATOM     31  C   UNL A   1      39.088  26.330  28.420  1.00  0.00     0.010 A 
ATOM     32  C   UNL A   1      39.764  27.357  27.736  1.00  0.00    -0.014 A 
BRANCH  32  33
ATOM     33  C   UNL A   1      39.919  28.525  28.589  1.00  0.00     0.031 A 
ATOM     34  C   UNL A   1      38.989  29.649  28.608  1.00  0.00     0.074 A 
ATOM     35  C   UNL A   1      40.829  28.278  29.560  1.00  0.00     0.049 A 
ATOM     36  N   UNL A   1      39.232  30.737  29.249  1.00  0.00    -0.248 NA
ATOM     37  C   UNL A   1      37.729  29.670  27.882  1.00  0.00     0.031 C 
ATOM     38  C   UNL A   1      40.971  28.831  30.888  1.00  0.00     0.029 A 
ATOM     39  N   UNL A   1      41.918  27.400  29.439  1.00  0.00    -0.354 N 
ATOM     40  C   UNL A   1      38.067  31.473  29.275  1.00  0.00     0.074 A 
ATOM     41  C   UNL A   1      37.214  30.835  28.299  1.00  0.00     0.031 C 
ATOM     42  C   UNL A   1      42.191  28.495  31.353  1.00  0.00     0.029 A 
ATOM     43  C   UNL A   1      42.932  27.897  30.245  1.00  0.00     0.049 A 
ATOM     44  H   UNL A   1      41.956  26.585  28.888  1.00  0.00     0.167 HD
ATOM     45  C   UNL A   1      37.936  32.423  30.248  1.00  0.00     0.034 A 
ATOM     46  C   UNL A   1      44.091  28.356  29.684  1.00  0.00     0.034 A 
ATOM     47  C   UNL A   1      39.197  32.531  31.011  1.00  0.00     0.049 A 
ATOM     48  C   UNL A   1      44.241  29.843  29.935  1.00  0.00     0.074 A 
ATOM     49  C   UNL A   1      39.604  31.970  32.211  1.00  0.00     0.029 A 
ATOM     50  N   UNL A   1      40.349  33.012  30.393  1.00  0.00    -0.354 N 
ATOM     51  N   UNL A   1      43.274  30.612  30.355  1.00  0.00    -0.248 NA
ATOM     52  C   UNL A   1      45.480  30.578  29.716  1.00  0.00     0.031 C 
ATOM     53  C   UNL A   1      41.028  31.997  32.242  1.00  0.00     0.029 A 
ATOM     54  C   UNL A   1      41.485  32.616  31.091  1.00  0.00     0.049 A 
ATOM     55  H   UNL A   1      40.358  33.559  29.574  1.00  0.00     0.167 HD
ATOM     56  C   UNL A   1      43.685  31.911  30.367  1.00  0.00     0.074 A 
ATOM     57  C   UNL A   1      45.098  31.829  30.025  1.00  0.00     0.031 C 
ATOM     58  C   UNL A   1      42.820  32.947  30.589  1.00  0.00     0.034 A 
BRANCH  45  59
ATOM     59  C   UNL A   1      36.639  33.060  30.745  1.00  0.00     0.023 A 
ATOM     60  C   UNL A   1      36.268  32.783  32.085  1.00  0.00     0.012 A 
ATOM     61  C   UNL A   1      35.709  33.834  30.009  1.00  0.00     0.148 A 
ATOM     62  C   UNL A   1      35.042  33.177  32.635  1.00  0.00     0.002 A 
ATOM     63  C   UNL A   1      34.480  34.229  30.555  1.00  0.00     0.091 A 
ATOM     64  F   UNL A   1      35.992  34.217  28.766  1.00  0.00    -0.205 F 
ATOM     65  C   UNL A   1      34.139  33.891  31.866  1.00  0.00     0.022 A 
BRANCH  63  66
ATOM     66  S   UNL A   1      33.250  35.165  29.620  1.00  0.00     0.127 S 
ATOM     67  O   UNL A   1      32.912  34.234  28.543  1.00  0.00    -0.237 OA
ATOM     68  O   UNL A   1      32.190  35.364  30.608  1.00  0.00    -0.237 OA
ATOM     69  O   UNL A   1      33.907  36.389  29.178  1.00  0.00    -0.744 OA
ENDBRANCH  63  66
ENDBRANCH  45  59
BRANCH  46  70
ATOM     70  C   UNL A   1      44.488  27.656  28.406  1.00  0.00     0.023 A 
ATOM     71  C   UNL A   1      44.285  28.354  27.185  1.00  0.00     0.012 A 
ATOM     72  C   UNL A   1      45.348  26.542  28.389  1.00  0.00     0.148 A 
ATOM     73  C   UNL A   1      44.999  28.026  26.027  1.00  0.00     0.002 A 
ATOM     74  C   UNL A   1      46.059  26.222  27.226  1.00  0.00     0.091 A 
ATOM     75  F   UNL A   1      45.526  25.840  29.516  1.00  0.00    -0.205 F 
ATOM     76  C   UNL A   1      45.902  26.973  26.053  1.00  0.00     0.022 A 
BRANCH  74  77
ATOM     77  S   UNL A   1      47.322  24.940  27.260  1.00  0.00     0.127 S 
ATOM     78  O   UNL A   1      48.118  25.286  28.439  1.00  0.00    -0.237 OA
ATOM     79  O   UNL A   1      46.560  23.707  27.415  1.00  0.00    -0.237 OA
ATOM     80  O   UNL A   1      47.997  25.144  25.983  1.00  0.00    -0.744 OA
ENDBRANCH  74  77
ENDBRANCH  46  70
BRANCH  58  81
ATOM     81  C   UNL A   1      43.175  34.392  30.334  1.00  0.00     0.023 A 
ATOM     82  C   UNL A   1      43.659  35.230  31.358  1.00  0.00     0.012 A 
ATOM     83  C   UNL A   1      43.188  34.910  29.018  1.00  0.00     0.148 A 
ATOM     84  C   UNL A   1      44.051  36.547  31.108  1.00  0.00     0.002 A 
ATOM     85  C   UNL A   1      43.703  36.174  28.758  1.00  0.00     0.091 A 
ATOM     86  F   UNL A   1      42.694  34.181  28.006  1.00  0.00    -0.205 F 
ATOM     87  C   UNL A   1      44.095  37.013  29.803  1.00  0.00     0.022 A 
BRANCH  85  88
ATOM     88  S   UNL A   1      44.044  36.680  27.067  1.00  0.00     0.127 S 
ATOM     89  O   UNL A   1      44.851  35.569  26.571  1.00  0.00    -0.237 OA
ATOM     90  O   UNL A   1      42.703  36.768  26.485  1.00  0.00    -0.237 OA
ATOM     91  O   UNL A   1      44.719  37.965  27.198  1.00  0.00    -0.744 OA
ENDBRANCH  85  88
ENDBRANCH  58  81
ENDBRANCH  32  33
ENDBRANCH  25  27
ENDBRANCH  24  25
ENDBRANCH   1  24
TORSDOF 15
ENDMDL
