MODEL 1
REMARK VINA RESULT:     -14.1      0.000      0.000
REMARK SMILES Cc1cc(N2CC[NH+]([C@@H](C(=O)OCCOC(=O)c3ccc(-c4c5nc(c(-c6cccc(S(=O)(=O)[O-])c6F)c6ccc([nH]6)c(-c6cccc(S(=O)(=O)[O-])c6F)c6nc(c(-c7cccc(S(=O)(=O)[O-])c7F)c7ccc4[nH]7)C=C6)C=C5)cc3)c3c[nH]c4ccccc34)CC2)nc2ccccc12
REMARK SMILES IDX 14 1 13 2 12 3 10 4 11 5 9 6 8 7 5 8 6 9 91 10 7 11 90 12
REMARK SMILES IDX 4 14 1 15 2 16 3 17 98 18 93 19 97 20 92 21 94 22 96 23
REMARK SMILES IDX 95 24 81 25 82 26 89 27 83 28 84 29 88 30 85 32 87 33 86 34
REMARK SMILES IDX 15 35 16 36 17 37 18 38 19 39 80 40 20 41 79 42 21 43 22 44
REMARK SMILES IDX 23 45 73 46 24 47 78 48 72 49 74 50 25 51 77 52 71 53 70 54
REMARK SMILES IDX 26 56 58 57 38 58 57 59 39 60 42 61 56 62 75 63 40 64 41 65
REMARK SMILES IDX 55 67 76 68 43 69 27 70 28 71 36 72 29 73 31 74 37 75 30 76
REMARK SMILES IDX 32 77 33 78 34 79 35 80 59 81 60 82 68 83 61 84 63 85 69 86
REMARK SMILES IDX 62 87 64 88 65 89 66 90 67 91 44 92 45 93 53 94 46 95 48 96
REMARK SMILES IDX 54 97 47 98 49 99 50 100 51 101 52 102
REMARK H PARENT 8 13 83 31 74 55 42 66
REMARK Flexibility Score: inf
ROOT
ATOM      1  C   UNL A   1      32.108  30.163  26.487  1.00  0.00     0.275 C 
ENDROOT
BRANCH   1   2
ATOM      2  C   UNL A   1      31.766  28.744  26.919  1.00  0.00     0.274 C 
BRANCH   2   3
ATOM      3  O   UNL A   1      32.834  27.824  26.586  1.00  0.00    -0.457 OA
BRANCH   3   4
ATOM      4  C   UNL A   1      32.698  27.131  25.427  1.00  0.00     0.370 C 
ATOM      5  O   UNL A   1      33.659  26.675  24.805  1.00  0.00    -0.245 OA
BRANCH   4   6
ATOM      6  C   UNL A   1      31.289  27.129  24.827  1.00  0.00     0.328 C 
BRANCH   6   7
ATOM      7  N   UNL A   1      30.540  25.822  24.848  1.00  0.00    -0.316 N 
ATOM      8  N   UNL A   1      32.358  23.550  24.838  1.00  0.00    -0.345 N 
ATOM      9  C   UNL A   1      32.098  24.302  23.617  1.00  0.00     0.179 C 
ATOM     10  C   UNL A   1      31.550  23.728  26.038  1.00  0.00     0.179 C 
ATOM     11  C   UNL A   1      30.719  24.949  23.682  1.00  0.00     0.285 C 
ATOM     12  C   UNL A   1      30.692  25.034  26.081  1.00  0.00     0.285 C 
ATOM     13  H   UNL A   1      29.581  26.169  24.809  1.00  0.00     0.349 HD
BRANCH   8  14
ATOM     14  C   UNL A   1      33.096  22.410  24.603  1.00  0.00     0.129 A 
ATOM     15  C   UNL A   1      36.601  21.217  25.317  1.00  0.00     0.045 C 
ATOM     16  C   UNL A   1      35.155  21.197  24.911  1.00  0.00    -0.038 A 
ATOM     17  C   UNL A   1      34.456  22.405  24.875  1.00  0.00     0.051 A 
ATOM     18  C   UNL A   1      34.460  20.003  24.621  1.00  0.00     0.003 A 
ATOM     19  C   UNL A   1      33.081  20.107  24.333  1.00  0.00     0.073 A 
ATOM     20  C   UNL A   1      35.063  18.725  24.627  1.00  0.00     0.010 A 
ATOM     21  N   UNL A   1      32.425  21.276  24.332  1.00  0.00    -0.231 NA
ATOM     22  C   UNL A   1      32.362  18.949  24.069  1.00  0.00     0.029 A 
ATOM     23  C   UNL A   1      34.320  17.578  24.353  1.00  0.00     0.001 A 
ATOM     24  C   UNL A   1      32.966  17.689  24.075  1.00  0.00     0.002 A 
ENDBRANCH   8  14
ENDBRANCH   6   7
BRANCH   6  25
ATOM     25  C   UNL A   1      30.961  27.907  23.560  1.00  0.00     0.046 A 
ATOM     26  C   UNL A   1      31.960  28.527  22.815  1.00  0.00     0.094 A 
ATOM     27  C   UNL A   1      29.716  28.424  23.035  1.00  0.00     0.009 A 
ATOM     28  N   UNL A   1      31.405  29.575  22.138  1.00  0.00    -0.361 N 
ATOM     29  C   UNL A   1      30.048  29.591  22.335  1.00  0.00     0.046 A 
ATOM     30  C   UNL A   1      28.340  28.154  23.206  1.00  0.00     0.011 A 
ATOM     31  H   UNL A   1      31.905  30.221  21.589  1.00  0.00     0.166 HD
ATOM     32  C   UNL A   1      29.111  30.565  21.969  1.00  0.00     0.026 A 
ATOM     33  C   UNL A   1      27.379  29.076  22.758  1.00  0.00     0.001 A 
ATOM     34  C   UNL A   1      27.764  30.289  22.198  1.00  0.00     0.002 A 
ENDBRANCH   6  25
ENDBRANCH   4   6
ENDBRANCH   3   4
ENDBRANCH   2   3
ENDBRANCH   1   2
BRANCH   1  35
ATOM     35  O   UNL A   1      33.522  30.336  26.653  1.00  0.00    -0.458 OA
BRANCH  35  36
ATOM     36  C   UNL A   1      33.893  31.411  27.375  1.00  0.00     0.338 C 
ATOM     37  O   UNL A   1      33.241  32.444  27.529  1.00  0.00    -0.246 OA
BRANCH  36  38
ATOM     38  C   UNL A   1      35.148  31.133  28.105  1.00  0.00     0.060 A 
ATOM     39  C   UNL A   1      36.183  32.073  28.146  1.00  0.00     0.016 A 
ATOM     40  C   UNL A   1      35.361  29.854  28.620  1.00  0.00     0.016 A 
ATOM     41  C   UNL A   1      37.452  31.707  28.584  1.00  0.00     0.010 A 
ATOM     42  C   UNL A   1      36.604  29.519  29.158  1.00  0.00     0.010 A 
ATOM     43  C   UNL A   1      37.669  30.433  29.117  1.00  0.00    -0.014 A 
BRANCH  43  44
ATOM     44  C   UNL A   1      38.979  30.069  29.712  1.00  0.00     0.031 A 
ATOM     45  C   UNL A   1      39.842  29.012  29.087  1.00  0.00     0.074 A 
ATOM     46  C   UNL A   1      39.340  30.637  30.877  1.00  0.00     0.049 A 
ATOM     47  N   UNL A   1      40.879  28.393  29.590  1.00  0.00    -0.248 NA
ATOM     48  C   UNL A   1      39.489  28.586  27.725  1.00  0.00     0.031 C 
ATOM     49  C   UNL A   1      38.578  31.671  31.580  1.00  0.00     0.029 A 
ATOM     50  N   UNL A   1      40.412  30.392  31.698  1.00  0.00    -0.354 N 
ATOM     51  C   UNL A   1      41.266  27.460  28.636  1.00  0.00     0.074 A 
ATOM     52  C   UNL A   1      40.362  27.609  27.513  1.00  0.00     0.031 C 
ATOM     53  C   UNL A   1      39.188  31.955  32.735  1.00  0.00     0.029 A 
ATOM     54  C   UNL A   1      40.336  31.070  32.892  1.00  0.00     0.049 A 
ATOM     55  H   UNL A   1      41.157  29.796  31.457  1.00  0.00     0.167 HD
ATOM     56  C   UNL A   1      42.284  26.568  28.695  1.00  0.00     0.034 A 
ATOM     57  C   UNL A   1      41.063  30.954  34.019  1.00  0.00     0.034 A 
ATOM     58  C   UNL A   1      43.207  26.469  29.801  1.00  0.00     0.049 A 
ATOM     59  C   UNL A   1      42.204  29.988  34.051  1.00  0.00     0.074 A 
ATOM     60  C   UNL A   1      44.299  25.629  29.940  1.00  0.00     0.029 A 
ATOM     61  N   UNL A   1      43.152  27.239  30.955  1.00  0.00    -0.354 N 
ATOM     62  N   UNL A   1      42.585  29.138  33.130  1.00  0.00    -0.248 NA
ATOM     63  C   UNL A   1      43.036  29.985  35.261  1.00  0.00     0.031 C 
ATOM     64  C   UNL A   1      44.902  25.889  31.178  1.00  0.00     0.029 A 
ATOM     65  C   UNL A   1      44.196  26.904  31.804  1.00  0.00     0.049 A 
ATOM     66  H   UNL A   1      42.471  27.924  31.144  1.00  0.00     0.167 HD
ATOM     67  C   UNL A   1      43.710  28.504  33.638  1.00  0.00     0.074 A 
ATOM     68  C   UNL A   1      43.965  29.093  34.940  1.00  0.00     0.031 C 
ATOM     69  C   UNL A   1      44.453  27.515  33.085  1.00  0.00     0.034 A 
BRANCH  56  70
ATOM     70  C   UNL A   1      42.488  25.646  27.518  1.00  0.00     0.023 A 
ATOM     71  C   UNL A   1      43.234  26.089  26.408  1.00  0.00     0.012 A 
ATOM     72  C   UNL A   1      42.014  24.320  27.543  1.00  0.00     0.148 A 
ATOM     73  C   UNL A   1      43.484  25.237  25.331  1.00  0.00     0.002 A 
ATOM     74  C   UNL A   1      42.302  23.462  26.485  1.00  0.00     0.091 A 
ATOM     75  F   UNL A   1      41.281  23.917  28.592  1.00  0.00    -0.205 F 
ATOM     76  C   UNL A   1      43.029  23.921  25.376  1.00  0.00     0.022 A 
BRANCH  74  77
ATOM     77  S   UNL A   1      41.832  21.726  26.507  1.00  0.00     0.127 S 
ATOM     78  O   UNL A   1      40.388  21.806  26.292  1.00  0.00    -0.237 OA
ATOM     79  O   UNL A   1      42.585  21.181  25.376  1.00  0.00    -0.237 OA
ATOM     80  O   UNL A   1      42.257  21.223  27.806  1.00  0.00    -0.744 OA
ENDBRANCH  74  77
ENDBRANCH  56  70
BRANCH  57  81
ATOM     81  C   UNL A   1      40.701  31.813  35.179  1.00  0.00     0.023 A 
ATOM     82  C   UNL A   1      41.232  33.112  35.271  1.00  0.00     0.012 A 
ATOM     83  C   UNL A   1      39.698  31.407  36.083  1.00  0.00     0.148 A 
ATOM     84  C   UNL A   1      40.759  33.999  36.238  1.00  0.00     0.002 A 
ATOM     85  C   UNL A   1      39.181  32.319  36.994  1.00  0.00     0.091 A 
ATOM     86  F   UNL A   1      39.222  30.157  35.987  1.00  0.00    -0.205 F 
ATOM     87  C   UNL A   1      39.719  33.613  37.082  1.00  0.00     0.022 A 
BRANCH  85  88
ATOM     88  S   UNL A   1      37.711  31.965  37.966  1.00  0.00     0.127 S 
ATOM     89  O   UNL A   1      38.162  32.282  39.318  1.00  0.00    -0.237 OA
ATOM     90  O   UNL A   1      36.739  32.903  37.404  1.00  0.00    -0.237 OA
ATOM     91  O   UNL A   1      37.402  30.564  37.709  1.00  0.00    -0.744 OA
ENDBRANCH  85  88
ENDBRANCH  57  81
BRANCH  69  92
ATOM     92  C   UNL A   1      45.622  27.016  33.891  1.00  0.00     0.023 A 
ATOM     93  C   UNL A   1      46.897  27.583  33.692  1.00  0.00     0.012 A 
ATOM     94  C   UNL A   1      45.460  25.997  34.850  1.00  0.00     0.148 A 
ATOM     95  C   UNL A   1      48.001  27.111  34.403  1.00  0.00     0.002 A 
ATOM     96  C   UNL A   1      46.558  25.560  35.583  1.00  0.00     0.091 A 
ATOM     97  F   UNL A   1      44.245  25.451  35.009  1.00  0.00    -0.205 F 
ATOM     98  C   UNL A   1      47.831  26.107  35.352  1.00  0.00     0.022 A 
BRANCH  96  99
ATOM     99  S   UNL A   1      46.399  24.320  36.871  1.00  0.00     0.127 S 
ATOM    100  O   UNL A   1      46.004  23.139  36.105  1.00  0.00    -0.237 OA
ATOM    101  O   UNL A   1      47.752  24.260  37.427  1.00  0.00    -0.237 OA
ATOM    102  O   UNL A   1      45.398  24.842  37.794  1.00  0.00    -0.744 OA
ENDBRANCH  96  99
ENDBRANCH  69  92
ENDBRANCH  43  44
ENDBRANCH  36  38
ENDBRANCH  35  36
ENDBRANCH   1  35
TORSDOF 17
ENDMDL
MODEL 2
REMARK VINA RESULT:     -13.7      4.796     10.333
REMARK SMILES Cc1cc(N2CC[NH+]([C@@H](C(=O)OCCOC(=O)c3ccc(-c4c5nc(c(-c6cccc(S(=O)(=O)[O-])c6F)c6ccc([nH]6)c(-c6cccc(S(=O)(=O)[O-])c6F)c6nc(c(-c7cccc(S(=O)(=O)[O-])c7F)c7ccc4[nH]7)C=C6)C=C5)cc3)c3c[nH]c4ccccc34)CC2)nc2ccccc12
REMARK SMILES IDX 14 1 13 2 12 3 10 4 11 5 9 6 8 7 5 8 6 9 91 10 7 11 90 12
REMARK SMILES IDX 4 14 1 15 2 16 3 17 98 18 93 19 97 20 92 21 94 22 96 23
REMARK SMILES IDX 95 24 81 25 82 26 89 27 83 28 84 29 88 30 85 32 87 33 86 34
REMARK SMILES IDX 15 35 16 36 17 37 18 38 19 39 80 40 20 41 79 42 21 43 22 44
REMARK SMILES IDX 23 45 73 46 24 47 78 48 72 49 74 50 25 51 77 52 71 53 70 54
REMARK SMILES IDX 26 56 58 57 38 58 57 59 39 60 42 61 56 62 75 63 40 64 41 65
REMARK SMILES IDX 55 67 76 68 43 69 27 70 28 71 36 72 29 73 31 74 37 75 30 76
REMARK SMILES IDX 32 77 33 78 34 79 35 80 59 81 60 82 68 83 61 84 63 85 69 86
REMARK SMILES IDX 62 87 64 88 65 89 66 90 67 91 44 92 45 93 53 94 46 95 48 96
REMARK SMILES IDX 54 97 47 98 49 99 50 100 51 101 52 102
REMARK H PARENT 8 13 83 31 74 55 42 66
REMARK Flexibility Score: inf
ROOT
ATOM      1  C   UNL A   1      37.162  21.596  25.294  1.00  0.00     0.275 C 
ENDROOT
BRANCH   1   2
ATOM      2  C   UNL A   1      36.481  22.210  24.079  1.00  0.00     0.274 C 
BRANCH   2   3
ATOM      3  O   UNL A   1      35.952  23.523  24.383  1.00  0.00    -0.457 OA
BRANCH   3   4
ATOM      4  C   UNL A   1      34.630  23.590  24.685  1.00  0.00     0.370 C 
ATOM      5  O   UNL A   1      34.186  24.302  25.587  1.00  0.00    -0.245 OA
BRANCH   4   6
ATOM      6  C   UNL A   1      33.744  22.565  23.971  1.00  0.00     0.328 C 
BRANCH   6   7
ATOM      7  N   UNL A   1      32.776  23.097  22.946  1.00  0.00    -0.316 N 
ATOM      8  N   UNL A   1      31.946  25.815  23.572  1.00  0.00    -0.345 N 
ATOM      9  C   UNL A   1      31.393  24.681  24.300  1.00  0.00     0.179 C 
ATOM     10  C   UNL A   1      32.727  25.640  22.354  1.00  0.00     0.179 C 
ATOM     11  C   UNL A   1      31.430  23.429  23.431  1.00  0.00     0.285 C 
ATOM     12  C   UNL A   1      33.286  24.200  22.117  1.00  0.00     0.285 C 
ATOM     13  H   UNL A   1      32.677  22.272  22.354  1.00  0.00     0.349 HD
BRANCH   8  14
ATOM     14  C   UNL A   1      31.306  26.996  23.880  1.00  0.00     0.129 A 
ATOM     15  C   UNL A   1      32.141  30.158  25.757  1.00  0.00     0.045 C 
ATOM     16  C   UNL A   1      31.411  29.190  24.872  1.00  0.00    -0.038 A 
ATOM     17  C   UNL A   1      31.896  27.886  24.766  1.00  0.00     0.051 A 
ATOM     18  C   UNL A   1      30.288  29.560  24.098  1.00  0.00     0.003 A 
ATOM     19  C   UNL A   1      29.739  28.582  23.240  1.00  0.00     0.073 A 
ATOM     20  C   UNL A   1      29.711  30.850  24.123  1.00  0.00     0.010 A 
ATOM     21  N   UNL A   1      30.242  27.343  23.134  1.00  0.00    -0.231 NA
ATOM     22  C   UNL A   1      28.652  28.921  22.446  1.00  0.00     0.029 A 
ATOM     23  C   UNL A   1      28.616  31.163  23.320  1.00  0.00     0.001 A 
ATOM     24  C   UNL A   1      28.085  30.197  22.478  1.00  0.00     0.002 A 
ENDBRANCH   8  14
ENDBRANCH   6   7
BRANCH   6  25
ATOM     25  C   UNL A   1      33.134  21.384  24.713  1.00  0.00     0.046 A 
ATOM     26  C   UNL A   1      33.147  21.321  26.104  1.00  0.00     0.094 A 
ATOM     27  C   UNL A   1      32.738  20.063  24.274  1.00  0.00     0.009 A 
ATOM     28  N   UNL A   1      33.101  20.009  26.476  1.00  0.00    -0.361 N 
ATOM     29  C   UNL A   1      32.949  19.214  25.369  1.00  0.00     0.046 A 
ATOM     30  C   UNL A   1      32.394  19.450  23.049  1.00  0.00     0.011 A 
ATOM     31  H   UNL A   1      33.166  19.681  27.403  1.00  0.00     0.166 HD
ATOM     32  C   UNL A   1      33.014  17.819  25.262  1.00  0.00     0.026 A 
ATOM     33  C   UNL A   1      32.359  18.050  22.947  1.00  0.00     0.001 A 
ATOM     34  C   UNL A   1      32.719  17.249  24.025  1.00  0.00     0.002 A 
ENDBRANCH   6  25
ENDBRANCH   4   6
ENDBRANCH   3   4
ENDBRANCH   2   3
ENDBRANCH   1   2
BRANCH   1  35
ATOM     35  O   UNL A   1      38.573  21.805  25.151  1.00  0.00    -0.458 OA
BRANCH  35  36
ATOM     36  C   UNL A   1      39.312  21.546  26.247  1.00  0.00     0.338 C 
ATOM     37  O   UNL A   1      39.675  20.433  26.633  1.00  0.00    -0.246 OA
BRANCH  36  38
ATOM     38  C   UNL A   1      39.775  22.805  26.866  1.00  0.00     0.060 A 
ATOM     39  C   UNL A   1      39.342  24.046  26.390  1.00  0.00     0.016 A 
ATOM     40  C   UNL A   1      40.782  22.752  27.831  1.00  0.00     0.016 A 
ATOM     41  C   UNL A   1      39.986  25.216  26.781  1.00  0.00     0.010 A 
ATOM     42  C   UNL A   1      41.355  23.934  28.303  1.00  0.00     0.010 A 
ATOM     43  C   UNL A   1      40.984  25.173  27.760  1.00  0.00    -0.014 A 
BRANCH  43  44
ATOM     44  C   UNL A   1      41.588  26.422  28.286  1.00  0.00     0.031 A 
ATOM     45  C   UNL A   1      40.743  27.462  28.963  1.00  0.00     0.074 A 
ATOM     46  C   UNL A   1      42.896  26.651  28.064  1.00  0.00     0.049 A 
ATOM     47  N   UNL A   1      41.042  28.701  29.256  1.00  0.00    -0.248 NA
ATOM     48  C   UNL A   1      39.382  27.062  29.349  1.00  0.00     0.031 C 
ATOM     49  C   UNL A   1      43.814  25.716  27.411  1.00  0.00     0.029 A 
ATOM     50  N   UNL A   1      43.667  27.758  28.319  1.00  0.00    -0.354 N 
ATOM     51  C   UNL A   1      39.890  29.252  29.804  1.00  0.00     0.074 A 
ATOM     52  C   UNL A   1      38.890  28.202  29.819  1.00  0.00     0.031 C 
ATOM     53  C   UNL A   1      45.014  26.293  27.293  1.00  0.00     0.029 A 
ATOM     54  C   UNL A   1      44.930  27.662  27.786  1.00  0.00     0.049 A 
ATOM     55  H   UNL A   1      43.349  28.537  28.830  1.00  0.00     0.167 HD
ATOM     56  C   UNL A   1      39.691  30.514  30.253  1.00  0.00     0.034 A 
ATOM     57  C   UNL A   1      45.900  28.586  27.644  1.00  0.00     0.034 A 
ATOM     58  C   UNL A   1      40.714  31.533  30.277  1.00  0.00     0.049 A 
ATOM     59  C   UNL A   1      45.673  29.964  28.179  1.00  0.00     0.074 A 
ATOM     60  C   UNL A   1      40.628  32.831  30.752  1.00  0.00     0.029 A 
ATOM     61  N   UNL A   1      42.012  31.368  29.812  1.00  0.00    -0.354 N 
ATOM     62  N   UNL A   1      44.593  30.462  28.729  1.00  0.00    -0.248 NA
ATOM     63  C   UNL A   1      46.803  30.898  28.104  1.00  0.00     0.031 C 
ATOM     64  C   UNL A   1      41.872  33.450  30.573  1.00  0.00     0.029 A 
ATOM     65  C   UNL A   1      42.739  32.534  30.000  1.00  0.00     0.049 A 
ATOM     66  H   UNL A   1      42.365  30.544  29.407  1.00  0.00     0.167 HD
ATOM     67  C   UNL A   1      44.913  31.766  29.081  1.00  0.00     0.074 A 
ATOM     68  C   UNL A   1      46.301  31.968  28.706  1.00  0.00     0.031 C 
ATOM     69  C   UNL A   1      44.125  32.713  29.647  1.00  0.00     0.034 A 
BRANCH  56  70
ATOM     70  C   UNL A   1      38.328  30.867  30.796  1.00  0.00     0.023 A 
ATOM     71  C   UNL A   1      38.024  30.599  32.145  1.00  0.00     0.012 A 
ATOM     72  C   UNL A   1      37.379  31.536  29.997  1.00  0.00     0.148 A 
ATOM     73  C   UNL A   1      36.791  30.966  32.685  1.00  0.00     0.002 A 
ATOM     74  C   UNL A   1      36.167  31.937  30.553  1.00  0.00     0.091 A 
ATOM     75  F   UNL A   1      37.667  31.762  28.707  1.00  0.00    -0.205 F 
ATOM     76  C   UNL A   1      35.868  31.646  31.893  1.00  0.00     0.022 A 
BRANCH  74  77
ATOM     77  S   UNL A   1      34.963  32.899  29.626  1.00  0.00     0.127 S 
ATOM     78  O   UNL A   1      34.421  31.895  28.711  1.00  0.00    -0.237 OA
ATOM     79  O   UNL A   1      34.034  33.333  30.671  1.00  0.00    -0.237 OA
ATOM     80  O   UNL A   1      35.718  33.981  29.010  1.00  0.00    -0.744 OA
ENDBRANCH  74  77
ENDBRANCH  56  70
BRANCH  57  81
ATOM     81  C   UNL A   1      47.163  28.179  26.973  1.00  0.00     0.023 A 
ATOM     82  C   UNL A   1      48.173  27.549  27.722  1.00  0.00     0.012 A 
ATOM     83  C   UNL A   1      47.284  28.255  25.570  1.00  0.00     0.148 A 
ATOM     84  C   UNL A   1      49.279  26.988  27.081  1.00  0.00     0.002 A 
ATOM     85  C   UNL A   1      48.349  27.630  24.935  1.00  0.00     0.091 A 
ATOM     86  F   UNL A   1      46.318  28.878  24.881  1.00  0.00    -0.205 F 
ATOM     87  C   UNL A   1      49.355  27.006  25.690  1.00  0.00     0.022 A 
BRANCH  85  88
ATOM     88  S   UNL A   1      48.410  27.432  23.150  1.00  0.00     0.127 S 
ATOM     89  O   UNL A   1      49.717  27.996  22.830  1.00  0.00    -0.237 OA
ATOM     90  O   UNL A   1      48.311  25.979  22.999  1.00  0.00    -0.237 OA
ATOM     91  O   UNL A   1      47.257  28.162  22.637  1.00  0.00    -0.744 OA
ENDBRANCH  85  88
ENDBRANCH  57  81
BRANCH  69  92
ATOM     92  C   UNL A   1      44.759  34.055  29.902  1.00  0.00     0.023 A 
ATOM     93  C   UNL A   1      45.424  34.289  31.123  1.00  0.00     0.012 A 
ATOM     94  C   UNL A   1      44.705  35.078  28.936  1.00  0.00     0.148 A 
ATOM     95  C   UNL A   1      45.987  35.536  31.395  1.00  0.00     0.002 A 
ATOM     96  C   UNL A   1      45.304  36.305  29.199  1.00  0.00     0.091 A 
ATOM     97  F   UNL A   1      44.047  34.847  27.791  1.00  0.00    -0.205 F 
ATOM     98  C   UNL A   1      45.934  36.540  30.432  1.00  0.00     0.022 A 
BRANCH  96  99
ATOM     99  S   UNL A   1      45.335  37.621  27.977  1.00  0.00     0.127 S 
ATOM    100  O   UNL A   1      43.913  37.915  27.815  1.00  0.00    -0.237 OA
ATOM    101  O   UNL A   1      46.100  38.669  28.655  1.00  0.00    -0.237 OA
ATOM    102  O   UNL A   1      46.003  37.054  26.812  1.00  0.00    -0.744 OA
ENDBRANCH  96  99
ENDBRANCH  69  92
ENDBRANCH  43  44
ENDBRANCH  36  38
ENDBRANCH  35  36
ENDBRANCH   1  35
TORSDOF 17
ENDMDL
MODEL 3
REMARK VINA RESULT:     -13.6      4.973     10.463
REMARK SMILES Cc1cc(N2CC[NH+]([C@@H](C(=O)OCCOC(=O)c3ccc(-c4c5nc(c(-c6cccc(S(=O)(=O)[O-])c6F)c6ccc([nH]6)c(-c6cccc(S(=O)(=O)[O-])c6F)c6nc(c(-c7cccc(S(=O)(=O)[O-])c7F)c7ccc4[nH]7)C=C6)C=C5)cc3)c3c[nH]c4ccccc34)CC2)nc2ccccc12
REMARK SMILES IDX 14 1 13 2 12 3 10 4 11 5 9 6 8 7 5 8 6 9 91 10 7 11 90 12
REMARK SMILES IDX 4 14 1 15 2 16 3 17 98 18 93 19 97 20 92 21 94 22 96 23
REMARK SMILES IDX 95 24 81 25 82 26 89 27 83 28 84 29 88 30 85 32 87 33 86 34
REMARK SMILES IDX 15 35 16 36 17 37 18 38 19 39 80 40 20 41 79 42 21 43 22 44
REMARK SMILES IDX 23 45 73 46 24 47 78 48 72 49 74 50 25 51 77 52 71 53 70 54
REMARK SMILES IDX 26 56 58 57 38 58 57 59 39 60 42 61 56 62 75 63 40 64 41 65
REMARK SMILES IDX 55 67 76 68 43 69 27 70 28 71 36 72 29 73 31 74 37 75 30 76
REMARK SMILES IDX 32 77 33 78 34 79 35 80 59 81 60 82 68 83 61 84 63 85 69 86
REMARK SMILES IDX 62 87 64 88 65 89 66 90 67 91 44 92 45 93 53 94 46 95 48 96
REMARK SMILES IDX 54 97 47 98 49 99 50 100 51 101 52 102
REMARK H PARENT 8 13 83 31 74 55 42 66
REMARK Flexibility Score: inf
ROOT
ATOM      1  C   UNL A   1      37.472  21.403  24.774  1.00  0.00     0.275 C 
ENDROOT
BRANCH   1   2
ATOM      2  C   UNL A   1      36.010  21.813  24.663  1.00  0.00     0.274 C 
BRANCH   2   3
ATOM      3  O   UNL A   1      35.316  21.624  25.921  1.00  0.00    -0.457 OA
BRANCH   3   4
ATOM      4  C   UNL A   1      34.089  21.048  25.855  1.00  0.00     0.370 C 
ATOM      5  O   UNL A   1      33.485  20.648  26.852  1.00  0.00    -0.245 OA
BRANCH   4   6
ATOM      6  C   UNL A   1      33.587  20.737  24.443  1.00  0.00     0.328 C 
BRANCH   6   7
ATOM      7  N   UNL A   1      32.511  21.635  23.888  1.00  0.00    -0.316 N 
ATOM      8  N   UNL A   1      33.166  24.445  24.267  1.00  0.00    -0.345 N 
ATOM      9  C   UNL A   1      32.676  23.637  25.376  1.00  0.00     0.179 C 
ATOM     10  C   UNL A   1      33.113  23.972  22.889  1.00  0.00     0.179 C 
ATOM     11  C   UNL A   1      31.815  22.493  24.854  1.00  0.00     0.285 C 
ATOM     12  C   UNL A   1      32.906  22.432  22.716  1.00  0.00     0.285 C 
ATOM     13  H   UNL A   1      31.837  20.932  23.582  1.00  0.00     0.349 HD
BRANCH   8  14
ATOM     14  C   UNL A   1      33.249  25.781  24.589  1.00  0.00     0.129 A 
ATOM     15  C   UNL A   1      33.918  29.008  22.756  1.00  0.00     0.045 C 
ATOM     16  C   UNL A   1      33.523  28.059  23.850  1.00  0.00    -0.038 A 
ATOM     17  C   UNL A   1      33.697  26.690  23.641  1.00  0.00     0.051 A 
ATOM     18  C   UNL A   1      32.930  28.490  25.058  1.00  0.00     0.003 A 
ATOM     19  C   UNL A   1      32.526  27.495  25.975  1.00  0.00     0.073 A 
ATOM     20  C   UNL A   1      32.705  29.848  25.378  1.00  0.00     0.010 A 
ATOM     21  N   UNL A   1      32.678  26.184  25.738  1.00  0.00    -0.231 NA
ATOM     22  C   UNL A   1      31.917  27.883  27.160  1.00  0.00     0.029 A 
ATOM     23  C   UNL A   1      32.095  30.212  26.578  1.00  0.00     0.001 A 
ATOM     24  C   UNL A   1      31.699  29.228  27.471  1.00  0.00     0.002 A 
ENDBRANCH   8  14
ENDBRANCH   6   7
BRANCH   6  25
ATOM     25  C   UNL A   1      33.378  19.305  23.968  1.00  0.00     0.046 A 
ATOM     26  C   UNL A   1      32.197  18.918  23.342  1.00  0.00     0.094 A 
ATOM     27  C   UNL A   1      34.071  18.072  24.272  1.00  0.00     0.009 A 
ATOM     28  N   UNL A   1      32.018  17.580  23.547  1.00  0.00    -0.361 N 
ATOM     29  C   UNL A   1      33.106  17.059  24.200  1.00  0.00     0.046 A 
ATOM     30  C   UNL A   1      35.343  17.706  24.765  1.00  0.00     0.011 A 
ATOM     31  H   UNL A   1      31.226  17.066  23.268  1.00  0.00     0.166 HD
ATOM     32  C   UNL A   1      33.284  15.783  24.749  1.00  0.00     0.026 A 
ATOM     33  C   UNL A   1      35.569  16.400  25.232  1.00  0.00     0.001 A 
ATOM     34  C   UNL A   1      34.536  15.471  25.274  1.00  0.00     0.002 A 
ENDBRANCH   6  25
ENDBRANCH   4   6
ENDBRANCH   3   4
ENDBRANCH   2   3
ENDBRANCH   1   2
BRANCH   1  35
ATOM     35  O   UNL A   1      37.973  21.919  26.014  1.00  0.00    -0.458 OA
BRANCH  35  36
ATOM     36  C   UNL A   1      39.257  21.621  26.289  1.00  0.00     0.338 C 
ATOM     37  O   UNL A   1      39.810  20.537  26.097  1.00  0.00    -0.246 OA
BRANCH  36  38
ATOM     38  C   UNL A   1      39.986  22.832  26.723  1.00  0.00     0.060 A 
ATOM     39  C   UNL A   1      40.883  22.789  27.795  1.00  0.00     0.016 A 
ATOM     40  C   UNL A   1      39.650  24.061  26.157  1.00  0.00     0.016 A 
ATOM     41  C   UNL A   1      41.347  23.966  28.374  1.00  0.00     0.010 A 
ATOM     42  C   UNL A   1      40.199  25.237  26.670  1.00  0.00     0.010 A 
ATOM     43  C   UNL A   1      41.028  25.202  27.802  1.00  0.00    -0.014 A 
BRANCH  43  44
ATOM     44  C   UNL A   1      41.620  26.458  28.324  1.00  0.00     0.031 A 
ATOM     45  C   UNL A   1      40.765  27.492  28.997  1.00  0.00     0.074 A 
ATOM     46  C   UNL A   1      42.926  26.699  28.101  1.00  0.00     0.049 A 
ATOM     47  N   UNL A   1      41.052  28.735  29.285  1.00  0.00    -0.248 NA
ATOM     48  C   UNL A   1      39.408  27.081  29.385  1.00  0.00     0.031 C 
ATOM     49  C   UNL A   1      43.853  25.771  27.452  1.00  0.00     0.029 A 
ATOM     50  N   UNL A   1      43.686  27.814  28.351  1.00  0.00    -0.354 N 
ATOM     51  C   UNL A   1      39.895  29.277  29.831  1.00  0.00     0.074 A 
ATOM     52  C   UNL A   1      38.905  28.218  29.850  1.00  0.00     0.031 C 
ATOM     53  C   UNL A   1      45.048  26.358  27.331  1.00  0.00     0.029 A 
ATOM     54  C   UNL A   1      44.950  27.728  27.819  1.00  0.00     0.049 A 
ATOM     55  H   UNL A   1      43.360  28.592  28.860  1.00  0.00     0.167 HD
ATOM     56  C   UNL A   1      39.684  30.539  30.276  1.00  0.00     0.034 A 
ATOM     57  C   UNL A   1      45.911  28.661  27.674  1.00  0.00     0.034 A 
ATOM     58  C   UNL A   1      40.697  31.567  30.295  1.00  0.00     0.049 A 
ATOM     59  C   UNL A   1      45.671  30.039  28.204  1.00  0.00     0.074 A 
ATOM     60  C   UNL A   1      40.598  32.866  30.767  1.00  0.00     0.029 A 
ATOM     61  N   UNL A   1      41.996  31.414  29.832  1.00  0.00    -0.354 N 
ATOM     62  N   UNL A   1      44.586  30.529  28.752  1.00  0.00    -0.248 NA
ATOM     63  C   UNL A   1      46.791  30.983  28.125  1.00  0.00     0.031 C 
ATOM     64  C   UNL A   1      41.836  33.497  30.585  1.00  0.00     0.029 A 
ATOM     65  C   UNL A   1      42.712  32.587  30.016  1.00  0.00     0.049 A 
ATOM     66  H   UNL A   1      42.357  30.591  29.429  1.00  0.00     0.167 HD
ATOM     67  C   UNL A   1      44.893  31.837  29.099  1.00  0.00     0.074 A 
ATOM     68  C   UNL A   1      46.279  32.051  28.724  1.00  0.00     0.031 C 
ATOM     69  C   UNL A   1      44.097  32.779  29.661  1.00  0.00     0.034 A 
BRANCH  56  70
ATOM     70  C   UNL A   1      38.317  30.881  30.817  1.00  0.00     0.023 A 
ATOM     71  C   UNL A   1      38.013  30.606  32.165  1.00  0.00     0.012 A 
ATOM     72  C   UNL A   1      37.365  31.545  30.019  1.00  0.00     0.148 A 
ATOM     73  C   UNL A   1      36.776  30.963  32.704  1.00  0.00     0.002 A 
ATOM     74  C   UNL A   1      36.150  31.936  30.574  1.00  0.00     0.091 A 
ATOM     75  F   UNL A   1      37.654  31.777  28.730  1.00  0.00    -0.205 F 
ATOM     76  C   UNL A   1      35.850  31.639  31.913  1.00  0.00     0.022 A 
BRANCH  74  77
ATOM     77  S   UNL A   1      34.940  32.893  29.647  1.00  0.00     0.127 S 
ATOM     78  O   UNL A   1      34.392  31.883  28.743  1.00  0.00    -0.237 OA
ATOM     79  O   UNL A   1      34.017  33.334  30.695  1.00  0.00    -0.237 OA
ATOM     80  O   UNL A   1      35.692  33.970  29.020  1.00  0.00    -0.744 OA
ENDBRANCH  74  77
ENDBRANCH  56  70
BRANCH  57  81
ATOM     81  C   UNL A   1      47.178  28.264  27.004  1.00  0.00     0.023 A 
ATOM     82  C   UNL A   1      48.209  27.682  27.763  1.00  0.00     0.012 A 
ATOM     83  C   UNL A   1      47.286  28.300  25.599  1.00  0.00     0.148 A 
ATOM     84  C   UNL A   1      49.322  27.127  27.130  1.00  0.00     0.002 A 
ATOM     85  C   UNL A   1      48.361  27.681  24.974  1.00  0.00     0.091 A 
ATOM     86  F   UNL A   1      46.299  28.878  24.900  1.00  0.00    -0.205 F 
ATOM     87  C   UNL A   1      49.387  27.105  25.738  1.00  0.00     0.022 A 
BRANCH  85  88
ATOM     88  S   UNL A   1      48.411  27.430  23.195  1.00  0.00     0.127 S 
ATOM     89  O   UNL A   1      49.725  27.966  22.853  1.00  0.00    -0.237 OA
ATOM     90  O   UNL A   1      48.292  25.975  23.088  1.00  0.00    -0.237 OA
ATOM     91  O   UNL A   1      47.267  28.160  22.665  1.00  0.00    -0.744 OA
ENDBRANCH  85  88
ENDBRANCH  57  81
BRANCH  69  92
ATOM     92  C   UNL A   1      44.717  34.127  29.912  1.00  0.00     0.023 A 
ATOM     93  C   UNL A   1      45.374  34.374  31.134  1.00  0.00     0.012 A 
ATOM     94  C   UNL A   1      44.659  35.144  28.939  1.00  0.00     0.148 A 
ATOM     95  C   UNL A   1      45.925  35.627  31.401  1.00  0.00     0.002 A 
ATOM     96  C   UNL A   1      45.245  36.378  29.198  1.00  0.00     0.091 A 
ATOM     97  F   UNL A   1      44.008  34.901  27.793  1.00  0.00    -0.205 F 
ATOM     98  C   UNL A   1      45.868  36.626  30.432  1.00  0.00     0.022 A 
BRANCH  96  99
ATOM     99  S   UNL A   1      45.271  37.687  27.969  1.00  0.00     0.127 S 
ATOM    100  O   UNL A   1      45.963  37.040  26.856  1.00  0.00    -0.237 OA
ATOM    101  O   UNL A   1      43.848  37.938  27.738  1.00  0.00    -0.237 OA
ATOM    102  O   UNL A   1      45.978  38.797  28.597  1.00  0.00    -0.744 OA
ENDBRANCH  96  99
ENDBRANCH  69  92
ENDBRANCH  43  44
ENDBRANCH  36  38
ENDBRANCH  35  36
ENDBRANCH   1  35
TORSDOF 17
ENDMDL
