MODEL 1
REMARK VINA RESULT:     -10.6      0.000      0.000
REMARK SMILES O=C(Cn1cccc1C(=O)OCCOC(=O)c1ccc(-c2c3nc(c(-c4cccc(S(=O)(=O)[O-])c4F)c4ccc([nH]4)c(-c4cccc(S(=O)(=O)[O-])c4F)c4nc(c(-c5cccc(S(=O)(=O)[O-])c5F)c5ccc2[nH]5)C=C4)C=C3)cc1)NCC1CCCC1
REMARK SMILES IDX 12 1 11 2 9 3 10 4 8 5 4 6 5 7 6 8 7 9 3 10 2 11 1 12 80 13
REMARK SMILES IDX 81 15 82 16 83 17 86 18 84 19 85 20 13 21 14 22 15 23 16 24
REMARK SMILES IDX 17 25 18 26 79 27 19 28 78 29 20 30 21 31 22 32 72 33 23 34
REMARK SMILES IDX 77 35 71 36 73 37 24 38 76 39 70 40 69 41 25 43 57 44 37 45
REMARK SMILES IDX 56 46 38 47 41 48 55 49 74 50 39 51 40 52 54 54 75 55 42 56
REMARK SMILES IDX 26 57 27 58 35 59 28 60 30 61 36 62 29 63 31 64 32 65 33 66
REMARK SMILES IDX 34 67 58 68 59 69 67 70 60 71 62 72 68 73 61 74 63 75 64 76
REMARK SMILES IDX 65 77 66 78 43 79 44 80 52 81 45 82 47 83 53 84 46 85 48 86
REMARK SMILES IDX 49 87 50 88 51 89
REMARK H PARENT 80 14 73 42 41 53
REMARK Flexibility Score: inf
ROOT
ATOM      1  C   UNL A   1      40.223  21.038  26.117  1.00  0.00     0.275 C 
ENDROOT
BRANCH   1   2
ATOM      2  O   UNL A   1      41.583  21.443  25.880  1.00  0.00    -0.457 OA
BRANCH   2   3
ATOM      3  C   UNL A   1      42.538  20.802  26.610  1.00  0.00     0.355 C 
ATOM      4  O   UNL A   1      42.489  20.640  27.815  1.00  0.00    -0.244 OA
BRANCH   3   5
ATOM      5  C   UNL A   1      43.581  20.260  25.745  1.00  0.00     0.128 A 
ATOM      6  N   UNL A   1      44.761  20.842  25.311  1.00  0.00    -0.333 N 
ATOM      7  C   UNL A   1      45.421  19.976  24.463  1.00  0.00     0.087 A 
ATOM      8  C   UNL A   1      44.650  18.851  24.305  1.00  0.00     0.020 A 
ATOM      9  C   UNL A   1      43.504  19.024  25.107  1.00  0.00     0.035 A 
BRANCH   6  10
ATOM     10  C   UNL A   1      45.352  22.103  25.751  1.00  0.00     0.222 C 
BRANCH  10  11
ATOM     11  C   UNL A   1      44.737  23.371  25.192  1.00  0.00     0.239 C 
ATOM     12  O   UNL A   1      45.042  23.761  24.061  1.00  0.00    -0.273 OA
ATOM     13  N   UNL A   1      43.737  23.966  25.935  1.00  0.00    -0.354 N 
ATOM     14  H   UNL A   1      43.434  23.537  26.768  1.00  0.00     0.163 HD
BRANCH  13  15
ATOM     15  C   UNL A   1      43.124  25.211  25.510  1.00  0.00     0.119 C 
BRANCH  15  16
ATOM     16  C   UNL A   1      43.451  26.400  26.415  1.00  0.00     0.008 C 
ATOM     17  C   UNL A   1      44.579  26.079  27.397  1.00  0.00     0.005 C 
ATOM     18  C   UNL A   1      43.987  27.645  25.712  1.00  0.00     0.005 C 
ATOM     19  C   UNL A   1      45.033  27.440  27.908  1.00  0.00     0.000 C 
ATOM     20  C   UNL A   1      44.680  28.442  26.811  1.00  0.00     0.000 C 
ENDBRANCH  15  16
ENDBRANCH  13  15
ENDBRANCH  10  11
ENDBRANCH   6  10
ENDBRANCH   3   5
ENDBRANCH   2   3
ENDBRANCH   1   2
BRANCH   1  21
ATOM     21  C   UNL A   1      39.273  22.237  26.145  1.00  0.00     0.275 C 
BRANCH  21  22
ATOM     22  O   UNL A   1      39.708  23.287  27.018  1.00  0.00    -0.458 OA
BRANCH  22  23
ATOM     23  C   UNL A   1      38.907  24.373  27.003  1.00  0.00     0.338 C 
ATOM     24  O   UNL A   1      37.870  24.508  26.372  1.00  0.00    -0.246 OA
BRANCH  23  25
ATOM     25  C   UNL A   1      39.485  25.515  27.696  1.00  0.00     0.060 A 
ATOM     26  C   UNL A   1      39.162  25.665  29.050  1.00  0.00     0.016 A 
ATOM     27  C   UNL A   1      40.054  26.551  26.949  1.00  0.00     0.016 A 
ATOM     28  C   UNL A   1      39.333  26.897  29.647  1.00  0.00     0.010 A 
ATOM     29  C   UNL A   1      40.195  27.792  27.542  1.00  0.00     0.010 A 
ATOM     30  C   UNL A   1      39.809  27.964  28.877  1.00  0.00    -0.014 A 
BRANCH  30  31
ATOM     31  C   UNL A   1      39.984  29.264  29.544  1.00  0.00     0.031 A 
ATOM     32  C   UNL A   1      38.776  30.175  29.292  1.00  0.00     0.074 A 
ATOM     33  C   UNL A   1      41.181  29.453  30.178  1.00  0.00     0.049 A 
ATOM     34  N   UNL A   1      38.728  31.463  29.114  1.00  0.00    -0.248 NA
ATOM     35  C   UNL A   1      37.441  29.554  29.065  1.00  0.00     0.031 C 
ATOM     36  C   UNL A   1      42.233  28.419  30.326  1.00  0.00     0.029 A 
ATOM     37  N   UNL A   1      41.770  30.523  30.821  1.00  0.00    -0.354 N 
ATOM     38  C   UNL A   1      37.359  31.806  29.010  1.00  0.00     0.074 A 
ATOM     39  C   UNL A   1      36.640  30.588  28.808  1.00  0.00     0.031 C 
ATOM     40  C   UNL A   1      43.327  28.921  30.940  1.00  0.00     0.029 A 
ATOM     41  C   UNL A   1      43.097  30.313  31.277  1.00  0.00     0.049 A 
ATOM     42  H   UNL A   1      41.298  31.377  30.956  1.00  0.00     0.167 HD
ATOM     43  C   UNL A   1      36.880  33.055  29.281  1.00  0.00     0.034 A 
ATOM     44  C   UNL A   1      43.962  31.204  31.858  1.00  0.00     0.034 A 
ATOM     45  C   UNL A   1      37.952  33.891  29.709  1.00  0.00     0.049 A 
ATOM     46  C   UNL A   1      43.177  32.425  32.076  1.00  0.00     0.074 A 
ATOM     47  C   UNL A   1      38.976  34.516  29.052  1.00  0.00     0.029 A 
ATOM     48  N   UNL A   1      38.219  33.856  31.058  1.00  0.00    -0.354 N 
ATOM     49  N   UNL A   1      42.264  32.554  32.990  1.00  0.00    -0.248 NA
ATOM     50  C   UNL A   1      43.354  33.561  31.163  1.00  0.00     0.031 C 
ATOM     51  C   UNL A   1      40.031  34.505  29.988  1.00  0.00     0.029 A 
ATOM     52  C   UNL A   1      39.570  34.010  31.215  1.00  0.00     0.049 A 
ATOM     53  H   UNL A   1      37.558  33.742  31.779  1.00  0.00     0.167 HD
ATOM     54  C   UNL A   1      41.526  33.606  32.510  1.00  0.00     0.074 A 
ATOM     55  C   UNL A   1      42.403  34.359  31.642  1.00  0.00     0.031 C 
ATOM     56  C   UNL A   1      40.177  33.478  32.414  1.00  0.00     0.034 A 
BRANCH  43  57
ATOM     57  C   UNL A   1      35.490  33.619  29.458  1.00  0.00     0.023 A 
ATOM     58  C   UNL A   1      34.760  33.817  28.252  1.00  0.00     0.012 A 
ATOM     59  C   UNL A   1      34.978  34.210  30.625  1.00  0.00     0.148 A 
ATOM     60  C   UNL A   1      33.644  34.647  28.179  1.00  0.00     0.002 A 
ATOM     61  C   UNL A   1      33.826  35.000  30.557  1.00  0.00     0.091 A 
ATOM     62  F   UNL A   1      35.646  34.090  31.777  1.00  0.00    -0.205 F 
ATOM     63  C   UNL A   1      33.182  35.249  29.334  1.00  0.00     0.022 A 
BRANCH  61  64
ATOM     64  S   UNL A   1      33.084  35.761  32.006  1.00  0.00     0.127 S 
ATOM     65  O   UNL A   1      31.985  36.525  31.422  1.00  0.00    -0.237 OA
ATOM     66  O   UNL A   1      32.662  34.592  32.784  1.00  0.00    -0.237 OA
ATOM     67  O   UNL A   1      34.152  36.529  32.633  1.00  0.00    -0.744 OA
ENDBRANCH  61  64
ENDBRANCH  43  57
BRANCH  44  68
ATOM     68  C   UNL A   1      45.428  31.276  32.231  1.00  0.00     0.023 A 
ATOM     69  C   UNL A   1      45.906  31.569  33.515  1.00  0.00     0.012 A 
ATOM     70  C   UNL A   1      46.426  30.937  31.262  1.00  0.00     0.148 A 
ATOM     71  C   UNL A   1      47.275  31.439  33.835  1.00  0.00     0.002 A 
ATOM     72  C   UNL A   1      47.749  30.689  31.606  1.00  0.00     0.091 A 
ATOM     73  F   UNL A   1      46.102  30.875  29.966  1.00  0.00    -0.205 F 
ATOM     74  C   UNL A   1      48.186  30.956  32.899  1.00  0.00     0.022 A 
BRANCH  72  75
ATOM     75  S   UNL A   1      48.892  29.879  30.469  1.00  0.00     0.127 S 
ATOM     76  O   UNL A   1      50.027  29.566  31.335  1.00  0.00    -0.237 OA
ATOM     77  O   UNL A   1      48.105  28.720  30.045  1.00  0.00    -0.237 OA
ATOM     78  O   UNL A   1      49.170  30.838  29.408  1.00  0.00    -0.744 OA
ENDBRANCH  72  75
ENDBRANCH  44  68
BRANCH  56  79
ATOM     79  C   UNL A   1      39.576  32.462  33.394  1.00  0.00     0.023 A 
ATOM     80  C   UNL A   1      39.184  31.212  32.872  1.00  0.00     0.012 A 
ATOM     81  C   UNL A   1      39.247  32.722  34.746  1.00  0.00     0.148 A 
ATOM     82  C   UNL A   1      38.471  30.282  33.637  1.00  0.00     0.002 A 
ATOM     83  C   UNL A   1      38.523  31.799  35.510  1.00  0.00     0.091 A 
ATOM     84  F   UNL A   1      39.639  33.872  35.285  1.00  0.00    -0.205 F 
ATOM     85  C   UNL A   1      38.135  30.577  34.952  1.00  0.00     0.022 A 
BRANCH  83  86
ATOM     86  S   UNL A   1      37.973  32.104  37.202  1.00  0.00     0.127 S 
ATOM     87  O   UNL A   1      39.222  32.443  37.887  1.00  0.00    -0.237 OA
ATOM     88  O   UNL A   1      37.061  33.233  37.032  1.00  0.00    -0.237 OA
ATOM     89  O   UNL A   1      37.357  30.870  37.671  1.00  0.00    -0.744 OA
ENDBRANCH  83  86
ENDBRANCH  56  79
ENDBRANCH  30  31
ENDBRANCH  23  25
ENDBRANCH  22  23
ENDBRANCH  21  22
ENDBRANCH   1  21
TORSDOF 18
ENDMDL
MODEL 2
REMARK VINA RESULT:     -10.5      3.358      5.890
REMARK SMILES O=C(Cn1cccc1C(=O)OCCOC(=O)c1ccc(-c2c3nc(c(-c4cccc(S(=O)(=O)[O-])c4F)c4ccc([nH]4)c(-c4cccc(S(=O)(=O)[O-])c4F)c4nc(c(-c5cccc(S(=O)(=O)[O-])c5F)c5ccc2[nH]5)C=C4)C=C3)cc1)NCC1CCCC1
REMARK SMILES IDX 12 1 11 2 9 3 10 4 8 5 4 6 5 7 6 8 7 9 3 10 2 11 1 12 80 13
REMARK SMILES IDX 81 15 82 16 83 17 86 18 84 19 85 20 13 21 14 22 15 23 16 24
REMARK SMILES IDX 17 25 18 26 79 27 19 28 78 29 20 30 21 31 22 32 72 33 23 34
REMARK SMILES IDX 77 35 71 36 73 37 24 38 76 39 70 40 69 41 25 43 57 44 37 45
REMARK SMILES IDX 56 46 38 47 41 48 55 49 74 50 39 51 40 52 54 54 75 55 42 56
REMARK SMILES IDX 26 57 27 58 35 59 28 60 30 61 36 62 29 63 31 64 32 65 33 66
REMARK SMILES IDX 34 67 58 68 59 69 67 70 60 71 62 72 68 73 61 74 63 75 64 76
REMARK SMILES IDX 65 77 66 78 43 79 44 80 52 81 45 82 47 83 53 84 46 85 48 86
REMARK SMILES IDX 49 87 50 88 51 89
REMARK H PARENT 80 14 73 42 41 53
REMARK Flexibility Score: inf
ROOT
ATOM      1  C   UNL A   1      36.924  23.177  25.460  1.00  0.00     0.275 C 
ENDROOT
BRANCH   1   2
ATOM      2  O   UNL A   1      35.949  24.161  25.850  1.00  0.00    -0.457 OA
BRANCH   2   3
ATOM      3  C   UNL A   1      34.873  24.303  25.026  1.00  0.00     0.355 C 
ATOM      4  O   UNL A   1      34.945  24.410  23.815  1.00  0.00    -0.244 OA
BRANCH   3   5
ATOM      5  C   UNL A   1      33.626  24.221  25.777  1.00  0.00     0.128 A 
ATOM      6  N   UNL A   1      33.043  23.133  26.408  1.00  0.00    -0.333 N 
ATOM      7  C   UNL A   1      31.834  23.509  26.956  1.00  0.00     0.087 A 
ATOM      8  C   UNL A   1      31.604  24.826  26.644  1.00  0.00     0.020 A 
ATOM      9  C   UNL A   1      32.723  25.273  25.912  1.00  0.00     0.035 A 
BRANCH   6  10
ATOM     10  C   UNL A   1      33.620  21.810  26.626  1.00  0.00     0.222 C 
BRANCH  10  11
ATOM     11  C   UNL A   1      33.709  20.900  25.417  1.00  0.00     0.239 C 
ATOM     12  O   UNL A   1      34.812  20.573  24.968  1.00  0.00    -0.273 OA
ATOM     13  N   UNL A   1      32.529  20.353  24.953  1.00  0.00    -0.354 N 
ATOM     14  H   UNL A   1      31.689  20.537  25.433  1.00  0.00     0.163 HD
BRANCH  13  15
ATOM     15  C   UNL A   1      32.505  19.513  23.770  1.00  0.00     0.119 C 
BRANCH  15  16
ATOM     16  C   UNL A   1      32.525  18.014  24.076  1.00  0.00     0.008 C 
ATOM     17  C   UNL A   1      33.737  17.319  23.455  1.00  0.00     0.005 C 
ATOM     18  C   UNL A   1      32.663  17.637  25.550  1.00  0.00     0.005 C 
ATOM     19  C   UNL A   1      33.815  15.980  24.178  1.00  0.00     0.000 C 
ATOM     20  C   UNL A   1      33.151  16.194  25.536  1.00  0.00     0.000 C 
ENDBRANCH  15  16
ENDBRANCH  13  15
ENDBRANCH  10  11
ENDBRANCH   6  10
ENDBRANCH   3   5
ENDBRANCH   2   3
ENDBRANCH   1   2
BRANCH   1  21
ATOM     21  C   UNL A   1      38.351  23.710  25.596  1.00  0.00     0.275 C 
BRANCH  21  22
ATOM     22  O   UNL A   1      38.863  23.632  26.933  1.00  0.00    -0.458 OA
BRANCH  22  23
ATOM     23  C   UNL A   1      39.986  24.354  27.128  1.00  0.00     0.338 C 
ATOM     24  O   UNL A   1      41.137  23.956  27.038  1.00  0.00    -0.246 OA
BRANCH  23  25
ATOM     25  C   UNL A   1      39.721  25.683  27.660  1.00  0.00     0.060 A 
ATOM     26  C   UNL A   1      40.305  26.763  26.984  1.00  0.00     0.016 A 
ATOM     27  C   UNL A   1      39.187  25.812  28.945  1.00  0.00     0.016 A 
ATOM     28  C   UNL A   1      40.432  27.971  27.639  1.00  0.00     0.010 A 
ATOM     29  C   UNL A   1      39.344  27.015  29.608  1.00  0.00     0.010 A 
ATOM     30  C   UNL A   1      39.988  28.077  28.962  1.00  0.00    -0.014 A 
BRANCH  30  31
ATOM     31  C   UNL A   1      40.134  29.380  29.630  1.00  0.00     0.031 A 
ATOM     32  C   UNL A   1      38.920  30.276  29.353  1.00  0.00     0.074 A 
ATOM     33  C   UNL A   1      41.317  29.585  30.286  1.00  0.00     0.049 A 
ATOM     34  N   UNL A   1      38.860  31.563  29.170  1.00  0.00    -0.248 NA
ATOM     35  C   UNL A   1      37.598  29.639  29.101  1.00  0.00     0.031 C 
ATOM     36  C   UNL A   1      42.378  28.563  30.456  1.00  0.00     0.029 A 
ATOM     37  N   UNL A   1      41.880  30.663  30.938  1.00  0.00    -0.354 N 
ATOM     38  C   UNL A   1      37.489  31.890  29.040  1.00  0.00     0.074 A 
ATOM     39  C   UNL A   1      36.790  30.663  28.828  1.00  0.00     0.031 C 
ATOM     40  C   UNL A   1      43.454  29.080  31.089  1.00  0.00     0.029 A 
ATOM     41  C   UNL A   1      43.201  30.470  31.419  1.00  0.00     0.049 A 
ATOM     42  H   UNL A   1      41.396  31.512  31.061  1.00  0.00     0.167 HD
ATOM     43  C   UNL A   1      36.991  33.133  29.299  1.00  0.00     0.034 A 
ATOM     44  C   UNL A   1      44.044  31.372  32.013  1.00  0.00     0.034 A 
ATOM     45  C   UNL A   1      38.045  33.983  29.745  1.00  0.00     0.049 A 
ATOM     46  C   UNL A   1      43.240  32.584  32.214  1.00  0.00     0.074 A 
ATOM     47  C   UNL A   1      39.074  34.618  29.107  1.00  0.00     0.029 A 
ATOM     48  N   UNL A   1      38.286  33.954  31.099  1.00  0.00    -0.354 N 
ATOM     49  N   UNL A   1      42.309  32.704  33.110  1.00  0.00    -0.248 NA
ATOM     50  C   UNL A   1      43.421  33.720  31.302  1.00  0.00     0.031 C 
ATOM     51  C   UNL A   1      40.110  34.622  30.062  1.00  0.00     0.029 A 
ATOM     52  C   UNL A   1      39.632  34.124  31.282  1.00  0.00     0.049 A 
ATOM     53  H   UNL A   1      37.613  33.833  31.808  1.00  0.00     0.167 HD
ATOM     54  C   UNL A   1      41.568  33.747  32.614  1.00  0.00     0.074 A 
ATOM     55  C   UNL A   1      42.452  34.508  31.761  1.00  0.00     0.031 C 
ATOM     56  C   UNL A   1      40.223  33.602  32.493  1.00  0.00     0.034 A 
BRANCH  43  57
ATOM     57  C   UNL A   1      35.592  33.681  29.449  1.00  0.00     0.023 A 
ATOM     58  C   UNL A   1      34.889  33.884  28.228  1.00  0.00     0.012 A 
ATOM     59  C   UNL A   1      35.045  34.255  30.609  1.00  0.00     0.148 A 
ATOM     60  C   UNL A   1      33.766  34.704  28.137  1.00  0.00     0.002 A 
ATOM     61  C   UNL A   1      33.887  35.033  30.521  1.00  0.00     0.091 A 
ATOM     62  F   UNL A   1      35.687  34.129  31.775  1.00  0.00    -0.205 F 
ATOM     63  C   UNL A   1      33.270  35.288  29.286  1.00  0.00     0.022 A 
BRANCH  61  64
ATOM     64  S   UNL A   1      33.102  35.771  31.960  1.00  0.00     0.127 S 
ATOM     65  O   UNL A   1      31.988  36.500  31.361  1.00  0.00    -0.237 OA
ATOM     66  O   UNL A   1      32.707  34.590  32.733  1.00  0.00    -0.237 OA
ATOM     67  O   UNL A   1      34.138  36.572  32.600  1.00  0.00    -0.744 OA
ENDBRANCH  61  64
ENDBRANCH  43  57
BRANCH  44  68
ATOM     68  C   UNL A   1      45.502  31.463  32.414  1.00  0.00     0.023 A 
ATOM     69  C   UNL A   1      45.953  31.836  33.687  1.00  0.00     0.012 A 
ATOM     70  C   UNL A   1      46.519  31.057  31.492  1.00  0.00     0.148 A 
ATOM     71  C   UNL A   1      47.313  31.722  34.046  1.00  0.00     0.002 A 
ATOM     72  C   UNL A   1      47.833  30.827  31.882  1.00  0.00     0.091 A 
ATOM     73  F   UNL A   1      46.224  30.913  30.196  1.00  0.00    -0.205 F 
ATOM     74  C   UNL A   1      48.243  31.175  33.163  1.00  0.00     0.022 A 
BRANCH  72  75
ATOM     75  S   UNL A   1      48.997  29.940  30.825  1.00  0.00     0.127 S 
ATOM     76  O   UNL A   1      48.256  28.724  30.495  1.00  0.00    -0.237 OA
ATOM     77  O   UNL A   1      49.156  30.882  29.716  1.00  0.00    -0.237 OA
ATOM     78  O   UNL A   1      50.202  29.733  31.618  1.00  0.00    -0.744 OA
ENDBRANCH  72  75
ENDBRANCH  44  68
BRANCH  56  79
ATOM     79  C   UNL A   1      39.616  32.581  33.464  1.00  0.00     0.023 A 
ATOM     80  C   UNL A   1      39.181  31.353  32.924  1.00  0.00     0.012 A 
ATOM     81  C   UNL A   1      39.320  32.820  34.827  1.00  0.00     0.148 A 
ATOM     82  C   UNL A   1      38.459  30.425  33.684  1.00  0.00     0.002 A 
ATOM     83  C   UNL A   1      38.588  31.900  35.587  1.00  0.00     0.091 A 
ATOM     84  F   UNL A   1      39.753  33.948  35.382  1.00  0.00    -0.205 F 
ATOM     85  C   UNL A   1      38.157  30.701  35.011  1.00  0.00     0.022 A 
BRANCH  83  86
ATOM     86  S   UNL A   1      38.081  32.183  37.296  1.00  0.00     0.127 S 
ATOM     87  O   UNL A   1      37.372  30.945  37.628  1.00  0.00    -0.237 OA
ATOM     88  O   UNL A   1      39.365  32.337  37.978  1.00  0.00    -0.237 OA
ATOM     89  O   UNL A   1      37.232  33.368  37.290  1.00  0.00    -0.744 OA
ENDBRANCH  83  86
ENDBRANCH  56  79
ENDBRANCH  30  31
ENDBRANCH  23  25
ENDBRANCH  22  23
ENDBRANCH  21  22
ENDBRANCH   1  21
TORSDOF 18
ENDMDL
MODEL 3
REMARK VINA RESULT:     -10.4      4.987     11.750
REMARK SMILES O=C(Cn1cccc1C(=O)OCCOC(=O)c1ccc(-c2c3nc(c(-c4cccc(S(=O)(=O)[O-])c4F)c4ccc([nH]4)c(-c4cccc(S(=O)(=O)[O-])c4F)c4nc(c(-c5cccc(S(=O)(=O)[O-])c5F)c5ccc2[nH]5)C=C4)C=C3)cc1)NCC1CCCC1
REMARK SMILES IDX 12 1 11 2 9 3 10 4 8 5 4 6 5 7 6 8 7 9 3 10 2 11 1 12 80 13
REMARK SMILES IDX 81 15 82 16 83 17 86 18 84 19 85 20 13 21 14 22 15 23 16 24
REMARK SMILES IDX 17 25 18 26 79 27 19 28 78 29 20 30 21 31 22 32 72 33 23 34
REMARK SMILES IDX 77 35 71 36 73 37 24 38 76 39 70 40 69 41 25 43 57 44 37 45
REMARK SMILES IDX 56 46 38 47 41 48 55 49 74 50 39 51 40 52 54 54 75 55 42 56
REMARK SMILES IDX 26 57 27 58 35 59 28 60 30 61 36 62 29 63 31 64 32 65 33 66
REMARK SMILES IDX 34 67 58 68 59 69 67 70 60 71 62 72 68 73 61 74 63 75 64 76
REMARK SMILES IDX 65 77 66 78 43 79 44 80 52 81 45 82 47 83 53 84 46 85 48 86
REMARK SMILES IDX 49 87 50 88 51 89
REMARK H PARENT 80 14 73 42 41 53
REMARK Flexibility Score: inf
ROOT
ATOM      1  C   UNL A   1      33.409  29.098  26.544  1.00  0.00     0.275 C 
ENDROOT
BRANCH   1   2
ATOM      2  O   UNL A   1      33.413  27.736  26.079  1.00  0.00    -0.457 OA
BRANCH   2   3
ATOM      3  C   UNL A   1      32.367  26.959  26.479  1.00  0.00     0.355 C 
ATOM      4  O   UNL A   1      31.526  27.304  27.288  1.00  0.00    -0.244 OA
BRANCH   3   5
ATOM      5  C   UNL A   1      32.343  25.699  25.746  1.00  0.00     0.128 A 
ATOM      6  N   UNL A   1      32.348  25.470  24.379  1.00  0.00    -0.333 N 
ATOM      7  C   UNL A   1      32.268  24.115  24.135  1.00  0.00     0.087 A 
ATOM      8  C   UNL A   1      32.163  23.462  25.338  1.00  0.00     0.020 A 
ATOM      9  C   UNL A   1      32.213  24.448  26.344  1.00  0.00     0.035 A 
BRANCH   6  10
ATOM     10  C   UNL A   1      32.550  26.444  23.309  1.00  0.00     0.222 C 
BRANCH  10  11
ATOM     11  C   UNL A   1      31.304  26.963  22.620  1.00  0.00     0.239 C 
ATOM     12  O   UNL A   1      31.027  26.588  21.476  1.00  0.00    -0.273 OA
ATOM     13  N   UNL A   1      30.443  27.735  23.374  1.00  0.00    -0.354 N 
ATOM     14  H   UNL A   1      30.642  27.892  24.326  1.00  0.00     0.163 HD
BRANCH  13  15
ATOM     15  C   UNL A   1      29.251  28.322  22.788  1.00  0.00     0.119 C 
BRANCH  15  16
ATOM     16  C   UNL A   1      29.129  29.830  23.018  1.00  0.00     0.008 C 
ATOM     17  C   UNL A   1      29.329  30.623  21.726  1.00  0.00     0.005 C 
ATOM     18  C   UNL A   1      27.763  30.324  23.487  1.00  0.00     0.005 C 
ATOM     19  C   UNL A   1      28.783  32.009  22.046  1.00  0.00     0.000 C 
ATOM     20  C   UNL A   1      27.755  31.812  23.158  1.00  0.00     0.000 C 
ENDBRANCH  15  16
ENDBRANCH  13  15
ENDBRANCH  10  11
ENDBRANCH   6  10
ENDBRANCH   3   5
ENDBRANCH   2   3
ENDBRANCH   1   2
BRANCH   1  21
ATOM     21  C   UNL A   1      34.445  29.322  27.646  1.00  0.00     0.275 C 
BRANCH  21  22
ATOM     22  O   UNL A   1      35.437  30.299  27.303  1.00  0.00    -0.458 OA
BRANCH  22  23
ATOM     23  C   UNL A   1      36.334  30.529  28.284  1.00  0.00     0.338 C 
ATOM     24  O   UNL A   1      36.363  31.490  29.038  1.00  0.00    -0.246 OA
BRANCH  23  25
ATOM     25  C   UNL A   1      37.444  29.586  28.273  1.00  0.00     0.060 A 
ATOM     26  C   UNL A   1      37.692  28.887  29.461  1.00  0.00     0.016 A 
ATOM     27  C   UNL A   1      38.377  29.640  27.234  1.00  0.00     0.016 A 
ATOM     28  C   UNL A   1      38.928  28.303  29.647  1.00  0.00     0.010 A 
ATOM     29  C   UNL A   1      39.624  29.079  27.436  1.00  0.00     0.010 A 
ATOM     30  C   UNL A   1      39.900  28.438  28.650  1.00  0.00    -0.014 A 
BRANCH  30  31
ATOM     31  C   UNL A   1      41.206  27.799  28.877  1.00  0.00     0.031 A 
ATOM     32  C   UNL A   1      41.179  26.328  28.441  1.00  0.00     0.074 A 
ATOM     33  C   UNL A   1      42.152  28.575  29.488  1.00  0.00     0.049 A 
ATOM     34  N   UNL A   1      41.765  25.294  28.968  1.00  0.00    -0.248 NA
ATOM     35  C   UNL A   1      40.257  25.920  27.345  1.00  0.00     0.031 C 
ATOM     36  C   UNL A   1      41.983  30.010  29.821  1.00  0.00     0.029 A 
ATOM     37  N   UNL A   1      43.430  28.344  29.957  1.00  0.00    -0.354 N 
ATOM     38  C   UNL A   1      41.480  24.194  28.124  1.00  0.00     0.074 A 
ATOM     39  C   UNL A   1      40.417  24.599  27.260  1.00  0.00     0.031 C 
ATOM     40  C   UNL A   1      43.062  30.488  30.479  1.00  0.00     0.029 A 
ATOM     41  C   UNL A   1      44.049  29.434  30.622  1.00  0.00     0.049 A 
ATOM     42  H   UNL A   1      43.882  27.478  29.837  1.00  0.00     0.167 HD
ATOM     43  C   UNL A   1      42.261  23.076  28.065  1.00  0.00     0.034 A 
ATOM     44  C   UNL A   1      45.257  29.479  31.267  1.00  0.00     0.034 A 
ATOM     45  C   UNL A   1      43.382  23.235  28.932  1.00  0.00     0.049 A 
ATOM     46  C   UNL A   1      45.892  28.182  30.997  1.00  0.00     0.074 A 
ATOM     47  C   UNL A   1      43.537  23.172  30.289  1.00  0.00     0.029 A 
ATOM     48  N   UNL A   1      44.473  23.854  28.367  1.00  0.00    -0.354 N 
ATOM     49  N   UNL A   1      46.397  27.840  29.851  1.00  0.00    -0.248 NA
ATOM     50  C   UNL A   1      45.894  27.157  32.047  1.00  0.00     0.031 C 
ATOM     51  C   UNL A   1      44.558  24.107  30.553  1.00  0.00     0.029 A 
ATOM     52  C   UNL A   1      45.079  24.594  29.347  1.00  0.00     0.049 A 
ATOM     53  H   UNL A   1      44.765  23.778  27.430  1.00  0.00     0.167 HD
ATOM     54  C   UNL A   1      46.415  26.471  29.945  1.00  0.00     0.074 A 
ATOM     55  C   UNL A   1      46.438  26.158  31.356  1.00  0.00     0.031 C 
ATOM     56  C   UNL A   1      45.871  25.733  28.943  1.00  0.00     0.034 A 
BRANCH  43  57
ATOM     57  C   UNL A   1      42.310  21.892  27.129  1.00  0.00     0.023 A 
ATOM     58  C   UNL A   1      41.352  20.873  27.393  1.00  0.00     0.012 A 
ATOM     59  C   UNL A   1      43.353  21.580  26.241  1.00  0.00     0.148 A 
ATOM     60  C   UNL A   1      41.477  19.579  26.893  1.00  0.00     0.002 A 
ATOM     61  C   UNL A   1      43.445  20.294  25.699  1.00  0.00     0.091 A 
ATOM     62  F   UNL A   1      44.303  22.487  25.991  1.00  0.00    -0.205 F 
ATOM     63  C   UNL A   1      42.533  19.286  26.052  1.00  0.00     0.022 A 
BRANCH  61  64
ATOM     64  S   UNL A   1      44.724  19.824  24.528  1.00  0.00     0.127 S 
ATOM     65  O   UNL A   1      45.941  20.018  25.310  1.00  0.00    -0.237 OA
ATOM     66  O   UNL A   1      44.394  18.420  24.261  1.00  0.00    -0.237 OA
ATOM     67  O   UNL A   1      44.539  20.699  23.378  1.00  0.00    -0.744 OA
ENDBRANCH  61  64
ENDBRANCH  43  57
BRANCH  44  68
ATOM     68  C   UNL A   1      46.015  30.417  32.183  1.00  0.00     0.023 A 
ATOM     69  C   UNL A   1      47.365  30.759  32.026  1.00  0.00     0.012 A 
ATOM     70  C   UNL A   1      45.323  31.096  33.235  1.00  0.00     0.148 A 
ATOM     71  C   UNL A   1      47.957  31.778  32.803  1.00  0.00     0.002 A 
ATOM     72  C   UNL A   1      45.869  32.180  33.912  1.00  0.00     0.091 A 
ATOM     73  F   UNL A   1      44.113  30.673  33.618  1.00  0.00    -0.205 F 
ATOM     74  C   UNL A   1      47.201  32.519  33.710  1.00  0.00     0.022 A 
BRANCH  72  75
ATOM     75  S   UNL A   1      44.857  33.270  34.935  1.00  0.00     0.127 S 
ATOM     76  O   UNL A   1      45.759  34.393  35.183  1.00  0.00    -0.237 OA
ATOM     77  O   UNL A   1      43.744  33.563  34.032  1.00  0.00    -0.237 OA
ATOM     78  O   UNL A   1      44.487  32.502  36.117  1.00  0.00    -0.744 OA
ENDBRANCH  72  75
ENDBRANCH  44  68
BRANCH  56  79
ATOM     79  C   UNL A   1      45.864  26.441  27.581  1.00  0.00     0.023 A 
ATOM     80  C   UNL A   1      44.622  26.902  27.098  1.00  0.00     0.012 A 
ATOM     81  C   UNL A   1      46.969  26.541  26.703  1.00  0.00     0.148 A 
ATOM     82  C   UNL A   1      44.474  27.404  25.799  1.00  0.00     0.002 A 
ATOM     83  C   UNL A   1      46.822  27.030  25.400  1.00  0.00     0.091 A 
ATOM     84  F   UNL A   1      48.164  26.156  27.140  1.00  0.00    -0.205 F 
ATOM     85  C   UNL A   1      45.571  27.461  24.949  1.00  0.00     0.022 A 
BRANCH  83  86
ATOM     86  S   UNL A   1      48.160  27.087  24.189  1.00  0.00     0.127 S 
ATOM     87  O   UNL A   1      47.483  27.579  22.988  1.00  0.00    -0.237 OA
ATOM     88  O   UNL A   1      49.081  28.049  24.792  1.00  0.00    -0.237 OA
ATOM     89  O   UNL A   1      48.671  25.728  24.066  1.00  0.00    -0.744 OA
ENDBRANCH  83  86
ENDBRANCH  56  79
ENDBRANCH  30  31
ENDBRANCH  23  25
ENDBRANCH  22  23
ENDBRANCH  21  22
ENDBRANCH   1  21
TORSDOF 18
ENDMDL
