MODEL 1
REMARK VINA RESULT:     -11.6      0.000      0.000
REMARK SMILES Cc1cc(C)c2c(O[C@@H](C)C(=O)OCCOC(=O)c3ccc(-c4c5nc(c(-c6cccc(S(=O)(=O)[O-])c6F)c6ccc([nH]6)c(-c6cccc(S(=O)(=O)[O-])c6F)c6nc(c(-c7cccc(S(=O)(=O)[O-])c7F)c7ccc4[nH]7)C=C6)C=C5)cc3)nsc2n1
REMARK SMILES IDX 15 1 14 2 13 3 11 4 12 5 9 6 10 7 8 8 7 9 1 10 2 11 3 12
REMARK SMILES IDX 85 13 4 14 84 15 5 16 6 17 83 18 82 19 16 20 17 21 18 22
REMARK SMILES IDX 19 23 20 24 81 25 21 26 80 27 22 28 23 29 24 30 74 31 25 32
REMARK SMILES IDX 79 33 73 34 75 35 26 36 78 37 72 38 71 39 27 41 59 42 39 43
REMARK SMILES IDX 58 44 40 45 43 46 57 47 76 48 41 49 42 50 56 52 77 53 44 54
REMARK SMILES IDX 28 55 29 56 37 57 30 58 32 59 38 60 31 61 33 62 34 63 35 64
REMARK SMILES IDX 36 65 60 66 61 67 69 68 62 69 64 70 70 71 63 72 65 73 66 74
REMARK SMILES IDX 67 75 68 76 45 77 46 78 54 79 47 80 49 81 55 82 48 83 50 84
REMARK SMILES IDX 51 85 52 86 53 87
REMARK H PARENT 75 40 43 51
REMARK Flexibility Score: inf
ROOT
ATOM      1  C   UNL A   1      37.811  20.223  24.896  1.00  0.00     0.275 C 
ENDROOT
BRANCH   1   2
ATOM      2  C   UNL A   1      36.506  20.977  25.046  1.00  0.00     0.274 C 
BRANCH   2   3
ATOM      3  O   UNL A   1      36.749  22.379  24.837  1.00  0.00    -0.459 OA
BRANCH   3   4
ATOM      4  C   UNL A   1      36.178  23.014  23.783  1.00  0.00     0.347 C 
ATOM      5  O   UNL A   1      36.610  22.965  22.635  1.00  0.00    -0.248 OA
BRANCH   4   6
ATOM      6  C   UNL A   1      34.921  23.827  24.196  1.00  0.00     0.281 C 
ATOM      7  C   UNL A   1      34.835  24.006  25.716  1.00  0.00     0.066 C 
BRANCH   6   8
ATOM      8  O   UNL A   1      33.580  23.686  23.810  1.00  0.00    -0.462 OA
BRANCH   8   9
ATOM      9  C   UNL A   1      32.941  24.619  23.077  1.00  0.00     0.236 A 
ATOM     10  C   UNL A   1      29.238  28.912  22.798  1.00  0.00     0.067 C 
ATOM     11  C   UNL A   1      30.208  27.791  23.015  1.00  0.00     0.039 A 
ATOM     12  C   UNL A   1      30.440  27.322  24.296  1.00  0.00     0.027 A 
ATOM     13  N   UNL A   1      30.857  27.341  21.937  1.00  0.00    -0.240 NA
ATOM     14  C   UNL A   1      31.390  26.308  24.546  1.00  0.00    -0.034 A 
ATOM     15  C   UNL A   1      31.712  26.329  22.176  1.00  0.00     0.147 A 
ATOM     16  C   UNL A   1      31.523  25.939  26.003  1.00  0.00     0.045 C 
ATOM     17  C   UNL A   1      32.033  25.723  23.401  1.00  0.00     0.078 A 
ATOM     18  S   UNL A   1      32.589  25.636  20.899  1.00  0.00    -0.012 S 
ATOM     19  N   UNL A   1      33.374  24.533  21.820  1.00  0.00    -0.153 NA
ENDBRANCH   8   9
ENDBRANCH   6   8
ENDBRANCH   4   6
ENDBRANCH   3   4
ENDBRANCH   2   3
ENDBRANCH   1   2
BRANCH   1  20
ATOM     20  O   UNL A   1      38.842  20.966  25.533  1.00  0.00    -0.458 OA
BRANCH  20  21
ATOM     21  C   UNL A   1      39.972  20.270  25.788  1.00  0.00     0.338 C 
ATOM     22  O   UNL A   1      40.179  19.085  25.613  1.00  0.00    -0.246 OA
BRANCH  21  23
ATOM     23  C   UNL A   1      40.911  21.142  26.478  1.00  0.00     0.060 A 
ATOM     24  C   UNL A   1      40.865  21.126  27.875  1.00  0.00     0.016 A 
ATOM     25  C   UNL A   1      41.563  22.145  25.748  1.00  0.00     0.016 A 
ATOM     26  C   UNL A   1      41.308  22.239  28.543  1.00  0.00     0.010 A 
ATOM     27  C   UNL A   1      41.977  23.264  26.413  1.00  0.00     0.010 A 
ATOM     28  C   UNL A   1      41.773  23.319  27.788  1.00  0.00    -0.014 A 
BRANCH  28  29
ATOM     29  C   UNL A   1      42.128  24.523  28.490  1.00  0.00     0.031 A 
ATOM     30  C   UNL A   1      41.167  25.618  28.270  1.00  0.00     0.074 A 
ATOM     31  C   UNL A   1      43.162  24.556  29.345  1.00  0.00     0.049 A 
ATOM     32  N   UNL A   1      41.370  26.732  27.651  1.00  0.00    -0.248 NA
ATOM     33  C   UNL A   1      39.761  25.362  28.620  1.00  0.00     0.031 C 
ATOM     34  C   UNL A   1      43.943  23.425  29.857  1.00  0.00     0.029 A 
ATOM     35  N   UNL A   1      43.623  25.610  30.065  1.00  0.00    -0.354 N 
ATOM     36  C   UNL A   1      40.163  27.415  27.745  1.00  0.00     0.074 A 
ATOM     37  C   UNL A   1      39.171  26.452  28.134  1.00  0.00     0.031 C 
ATOM     38  C   UNL A   1      44.593  23.817  30.976  1.00  0.00     0.029 A 
ATOM     39  C   UNL A   1      44.373  25.240  31.171  1.00  0.00     0.049 A 
ATOM     40  H   UNL A   1      43.442  26.547  29.824  1.00  0.00     0.167 HD
ATOM     41  C   UNL A   1      40.126  28.772  27.770  1.00  0.00     0.034 A 
ATOM     42  C   UNL A   1      44.684  26.046  32.213  1.00  0.00     0.034 A 
ATOM     43  C   UNL A   1      41.359  29.344  27.295  1.00  0.00     0.049 A 
ATOM     44  C   UNL A   1      44.502  27.445  31.754  1.00  0.00     0.074 A 
ATOM     45  C   UNL A   1      42.063  29.301  26.110  1.00  0.00     0.029 A 
ATOM     46  N   UNL A   1      42.236  29.791  28.253  1.00  0.00    -0.354 N 
ATOM     47  N   UNL A   1      45.245  28.020  30.850  1.00  0.00    -0.248 NA
ATOM     48  C   UNL A   1      43.236  28.106  32.032  1.00  0.00     0.031 C 
ATOM     49  C   UNL A   1      43.435  29.336  26.489  1.00  0.00     0.029 A 
ATOM     50  C   UNL A   1      43.502  29.429  27.881  1.00  0.00     0.049 A 
ATOM     51  H   UNL A   1      41.994  30.287  29.068  1.00  0.00     0.167 HD
ATOM     52  C   UNL A   1      44.370  28.839  30.147  1.00  0.00     0.074 A 
ATOM     53  C   UNL A   1      43.197  28.961  31.005  1.00  0.00     0.031 C 
ATOM     54  C   UNL A   1      44.558  29.093  28.817  1.00  0.00     0.034 A 
BRANCH  41  55
ATOM     55  C   UNL A   1      39.128  29.576  28.567  1.00  0.00     0.023 A 
ATOM     56  C   UNL A   1      39.284  29.584  29.969  1.00  0.00     0.012 A 
ATOM     57  C   UNL A   1      37.919  30.105  28.055  1.00  0.00     0.148 A 
ATOM     58  C   UNL A   1      38.276  30.055  30.816  1.00  0.00     0.002 A 
ATOM     59  C   UNL A   1      36.963  30.663  28.895  1.00  0.00     0.091 A 
ATOM     60  F   UNL A   1      37.604  29.951  26.766  1.00  0.00    -0.205 F 
ATOM     61  C   UNL A   1      37.121  30.610  30.278  1.00  0.00     0.022 A 
BRANCH  59  62
ATOM     62  S   UNL A   1      35.495  31.461  28.234  1.00  0.00     0.127 S 
ATOM     63  O   UNL A   1      36.075  32.536  27.437  1.00  0.00    -0.237 OA
ATOM     64  O   UNL A   1      34.886  30.376  27.463  1.00  0.00    -0.237 OA
ATOM     65  O   UNL A   1      34.717  31.867  29.400  1.00  0.00    -0.744 OA
ENDBRANCH  59  62
ENDBRANCH  41  55
BRANCH  42  66
ATOM     66  C   UNL A   1      44.858  25.716  33.645  1.00  0.00     0.023 A 
ATOM     67  C   UNL A   1      46.160  25.503  34.138  1.00  0.00     0.012 A 
ATOM     68  C   UNL A   1      43.811  25.897  34.577  1.00  0.00     0.148 A 
ATOM     69  C   UNL A   1      46.424  25.522  35.511  1.00  0.00     0.002 A 
ATOM     70  C   UNL A   1      44.077  25.906  35.944  1.00  0.00     0.091 A 
ATOM     71  F   UNL A   1      42.577  26.159  34.127  1.00  0.00    -0.205 F 
ATOM     72  C   UNL A   1      45.385  25.735  36.413  1.00  0.00     0.022 A 
BRANCH  70  73
ATOM     73  S   UNL A   1      42.792  26.205  37.166  1.00  0.00     0.127 S 
ATOM     74  O   UNL A   1      42.277  27.513  36.756  1.00  0.00    -0.237 OA
ATOM     75  O   UNL A   1      41.883  25.087  36.926  1.00  0.00    -0.237 OA
ATOM     76  O   UNL A   1      43.468  26.209  38.458  1.00  0.00    -0.744 OA
ENDBRANCH  70  73
ENDBRANCH  42  66
BRANCH  54  77
ATOM     77  C   UNL A   1      45.889  28.724  28.204  1.00  0.00     0.023 A 
ATOM     78  C   UNL A   1      47.013  29.574  28.281  1.00  0.00     0.012 A 
ATOM     79  C   UNL A   1      46.063  27.417  27.714  1.00  0.00     0.148 A 
ATOM     80  C   UNL A   1      48.274  29.138  27.865  1.00  0.00     0.002 A 
ATOM     81  C   UNL A   1      47.328  26.969  27.354  1.00  0.00     0.091 A 
ATOM     82  F   UNL A   1      44.987  26.617  27.645  1.00  0.00    -0.205 F 
ATOM     83  C   UNL A   1      48.435  27.829  27.417  1.00  0.00     0.022 A 
BRANCH  81  84
ATOM     84  S   UNL A   1      47.626  25.253  26.916  1.00  0.00     0.127 S 
ATOM     85  O   UNL A   1      47.039  25.171  25.580  1.00  0.00    -0.237 OA
ATOM     86  O   UNL A   1      49.087  25.168  26.947  1.00  0.00    -0.237 OA
ATOM     87  O   UNL A   1      46.965  24.459  27.945  1.00  0.00    -0.744 OA
ENDBRANCH  81  84
ENDBRANCH  54  77
ENDBRANCH  28  29
ENDBRANCH  21  23
ENDBRANCH  20  21
ENDBRANCH   1  20
TORSDOF 16
ENDMDL
MODEL 2
REMARK VINA RESULT:     -11.5      3.319      7.950
REMARK SMILES Cc1cc(C)c2c(O[C@@H](C)C(=O)OCCOC(=O)c3ccc(-c4c5nc(c(-c6cccc(S(=O)(=O)[O-])c6F)c6ccc([nH]6)c(-c6cccc(S(=O)(=O)[O-])c6F)c6nc(c(-c7cccc(S(=O)(=O)[O-])c7F)c7ccc4[nH]7)C=C6)C=C5)cc3)nsc2n1
REMARK SMILES IDX 15 1 14 2 13 3 11 4 12 5 9 6 10 7 8 8 7 9 1 10 2 11 3 12
REMARK SMILES IDX 85 13 4 14 84 15 5 16 6 17 83 18 82 19 16 20 17 21 18 22
REMARK SMILES IDX 19 23 20 24 81 25 21 26 80 27 22 28 23 29 24 30 74 31 25 32
REMARK SMILES IDX 79 33 73 34 75 35 26 36 78 37 72 38 71 39 27 41 59 42 39 43
REMARK SMILES IDX 58 44 40 45 43 46 57 47 76 48 41 49 42 50 56 52 77 53 44 54
REMARK SMILES IDX 28 55 29 56 37 57 30 58 32 59 38 60 31 61 33 62 34 63 35 64
REMARK SMILES IDX 36 65 60 66 61 67 69 68 62 69 64 70 70 71 63 72 65 73 66 74
REMARK SMILES IDX 67 75 68 76 45 77 46 78 54 79 47 80 49 81 55 82 48 83 50 84
REMARK SMILES IDX 51 85 52 86 53 87
REMARK H PARENT 75 40 43 51
REMARK Flexibility Score: inf
ROOT
ATOM      1  C   UNL A   1      33.567  31.195  27.626  1.00  0.00     0.275 C 
ENDROOT
BRANCH   1   2
ATOM      2  C   UNL A   1      33.033  30.189  26.627  1.00  0.00     0.274 C 
BRANCH   2   3
ATOM      3  O   UNL A   1      33.292  28.861  27.117  1.00  0.00    -0.459 OA
BRANCH   3   4
ATOM      4  C   UNL A   1      32.286  27.952  27.167  1.00  0.00     0.347 C 
ATOM      5  O   UNL A   1      31.279  28.079  27.857  1.00  0.00    -0.248 OA
BRANCH   4   6
ATOM      6  C   UNL A   1      32.560  26.720  26.261  1.00  0.00     0.281 C 
ATOM      7  C   UNL A   1      33.812  26.917  25.398  1.00  0.00     0.066 C 
BRANCH   6   8
ATOM      8  O   UNL A   1      31.699  25.999  25.422  1.00  0.00    -0.462 OA
BRANCH   8   9
ATOM      9  C   UNL A   1      31.487  24.677  25.576  1.00  0.00     0.236 A 
ATOM     10  C   UNL A   1      32.613  19.340  24.005  1.00  0.00     0.067 C 
ATOM     11  C   UNL A   1      32.429  20.788  24.339  1.00  0.00     0.039 A 
ATOM     12  C   UNL A   1      33.198  21.744  23.699  1.00  0.00     0.027 A 
ATOM     13  N   UNL A   1      31.555  21.075  25.308  1.00  0.00    -0.240 NA
ATOM     14  C   UNL A   1      33.094  23.113  24.030  1.00  0.00    -0.034 A 
ATOM     15  C   UNL A   1      31.415  22.387  25.571  1.00  0.00     0.147 A 
ATOM     16  C   UNL A   1      34.024  24.005  23.245  1.00  0.00     0.045 C 
ATOM     17  C   UNL A   1      32.089  23.474  24.993  1.00  0.00     0.078 A 
ATOM     18  S   UNL A   1      30.319  22.906  26.759  1.00  0.00    -0.012 S 
ATOM     19  N   UNL A   1      30.620  24.504  26.573  1.00  0.00    -0.153 NA
ENDBRANCH   8   9
ENDBRANCH   6   8
ENDBRANCH   4   6
ENDBRANCH   3   4
ENDBRANCH   2   3
ENDBRANCH   1   2
BRANCH   1  20
ATOM     20  O   UNL A   1      34.724  30.650  28.247  1.00  0.00    -0.458 OA
BRANCH  20  21
ATOM     21  C   UNL A   1      35.529  31.555  28.847  1.00  0.00     0.338 C 
ATOM     22  O   UNL A   1      35.210  32.578  29.421  1.00  0.00    -0.246 OA
BRANCH  21  23
ATOM     23  C   UNL A   1      36.914  31.203  28.571  1.00  0.00     0.060 A 
ATOM     24  C   UNL A   1      37.124  30.028  27.844  1.00  0.00     0.016 A 
ATOM     25  C   UNL A   1      37.931  31.850  29.286  1.00  0.00     0.016 A 
ATOM     26  C   UNL A   1      38.326  29.384  28.000  1.00  0.00     0.010 A 
ATOM     27  C   UNL A   1      39.116  31.193  29.463  1.00  0.00     0.010 A 
ATOM     28  C   UNL A   1      39.261  29.940  28.878  1.00  0.00    -0.014 A 
BRANCH  28  29
ATOM     29  C   UNL A   1      40.470  29.201  29.122  1.00  0.00     0.031 A 
ATOM     30  C   UNL A   1      40.682  28.907  30.550  1.00  0.00     0.074 A 
ATOM     31  C   UNL A   1      41.225  28.738  28.113  1.00  0.00     0.049 A 
ATOM     32  N   UNL A   1      41.614  29.362  31.318  1.00  0.00    -0.248 NA
ATOM     33  C   UNL A   1      39.622  28.165  31.251  1.00  0.00     0.031 C 
ATOM     34  C   UNL A   1      40.896  28.708  26.684  1.00  0.00     0.029 A 
ATOM     35  N   UNL A   1      42.388  28.043  28.185  1.00  0.00    -0.354 N 
ATOM     36  C   UNL A   1      41.380  28.765  32.552  1.00  0.00     0.074 A 
ATOM     37  C   UNL A   1      40.043  28.240  32.512  1.00  0.00     0.031 C 
ATOM     38  C   UNL A   1      41.704  27.814  26.071  1.00  0.00     0.029 A 
ATOM     39  C   UNL A   1      42.674  27.322  27.035  1.00  0.00     0.049 A 
ATOM     40  H   UNL A   1      42.972  28.050  28.977  1.00  0.00     0.167 HD
ATOM     41  C   UNL A   1      42.400  28.501  33.408  1.00  0.00     0.034 A 
ATOM     42  C   UNL A   1      43.578  26.320  26.943  1.00  0.00     0.034 A 
ATOM     43  C   UNL A   1      43.582  29.250  33.068  1.00  0.00     0.049 A 
ATOM     44  C   UNL A   1      44.498  26.451  28.100  1.00  0.00     0.074 A 
ATOM     45  C   UNL A   1      43.896  30.589  32.974  1.00  0.00     0.029 A 
ATOM     46  N   UNL A   1      44.563  28.571  32.389  1.00  0.00    -0.354 N 
ATOM     47  N   UNL A   1      45.335  27.438  28.259  1.00  0.00    -0.248 NA
ATOM     48  C   UNL A   1      44.225  25.668  29.295  1.00  0.00     0.031 C 
ATOM     49  C   UNL A   1      44.827  30.680  31.900  1.00  0.00     0.029 A 
ATOM     50  C   UNL A   1      45.058  29.392  31.412  1.00  0.00     0.049 A 
ATOM     51  H   UNL A   1      44.860  27.650  32.573  1.00  0.00     0.167 HD
ATOM     52  C   UNL A   1      45.348  27.669  29.629  1.00  0.00     0.074 A 
ATOM     53  C   UNL A   1      44.769  26.466  30.218  1.00  0.00     0.031 C 
ATOM     54  C   UNL A   1      45.550  28.924  30.130  1.00  0.00     0.034 A 
BRANCH  41  55
ATOM     55  C   UNL A   1      42.450  27.299  34.318  1.00  0.00     0.023 A 
ATOM     56  C   UNL A   1      41.957  27.465  35.629  1.00  0.00     0.012 A 
ATOM     57  C   UNL A   1      43.172  26.110  34.052  1.00  0.00     0.148 A 
ATOM     58  C   UNL A   1      42.202  26.520  36.630  1.00  0.00     0.002 A 
ATOM     59  C   UNL A   1      43.327  25.129  35.023  1.00  0.00     0.091 A 
ATOM     60  F   UNL A   1      43.844  25.967  32.906  1.00  0.00    -0.205 F 
ATOM     61  C   UNL A   1      42.875  25.343  36.324  1.00  0.00     0.022 A 
BRANCH  59  62
ATOM     62  S   UNL A   1      44.120  23.562  34.644  1.00  0.00     0.127 S 
ATOM     63  O   UNL A   1      43.165  22.963  33.719  1.00  0.00    -0.237 OA
ATOM     64  O   UNL A   1      45.379  24.001  34.040  1.00  0.00    -0.237 OA
ATOM     65  O   UNL A   1      44.284  22.890  35.929  1.00  0.00    -0.744 OA
ENDBRANCH  59  62
ENDBRANCH  41  55
BRANCH  42  66
ATOM     66  C   UNL A   1      43.557  25.100  26.105  1.00  0.00     0.023 A 
ATOM     67  C   UNL A   1      44.576  24.916  25.150  1.00  0.00     0.012 A 
ATOM     68  C   UNL A   1      42.736  23.996  26.428  1.00  0.00     0.148 A 
ATOM     69  C   UNL A   1      44.806  23.663  24.573  1.00  0.00     0.002 A 
ATOM     70  C   UNL A   1      42.964  22.752  25.845  1.00  0.00     0.091 A 
ATOM     71  F   UNL A   1      41.800  24.135  27.376  1.00  0.00    -0.205 F 
ATOM     72  C   UNL A   1      44.009  22.579  24.928  1.00  0.00     0.022 A 
BRANCH  70  73
ATOM     73  S   UNL A   1      41.994  21.301  26.277  1.00  0.00     0.127 S 
ATOM     74  O   UNL A   1      42.276  21.159  27.707  1.00  0.00    -0.237 OA
ATOM     75  O   UNL A   1      40.638  21.740  25.961  1.00  0.00    -0.237 OA
ATOM     76  O   UNL A   1      42.518  20.216  25.456  1.00  0.00    -0.744 OA
ENDBRANCH  70  73
ENDBRANCH  42  66
BRANCH  54  77
ATOM     77  C   UNL A   1      46.060  29.992  29.190  1.00  0.00     0.023 A 
ATOM     78  C   UNL A   1      47.432  30.138  28.894  1.00  0.00     0.012 A 
ATOM     79  C   UNL A   1      45.125  30.731  28.444  1.00  0.00     0.148 A 
ATOM     80  C   UNL A   1      47.862  31.011  27.891  1.00  0.00     0.002 A 
ATOM     81  C   UNL A   1      45.552  31.556  27.410  1.00  0.00     0.091 A 
ATOM     82  F   UNL A   1      43.823  30.584  28.735  1.00  0.00    -0.205 F 
ATOM     83  C   UNL A   1      46.920  31.708  27.137  1.00  0.00     0.022 A 
BRANCH  81  84
ATOM     84  S   UNL A   1      44.384  32.359  26.307  1.00  0.00     0.127 S 
ATOM     85  O   UNL A   1      43.869  33.441  27.142  1.00  0.00    -0.237 OA
ATOM     86  O   UNL A   1      45.240  32.793  25.202  1.00  0.00    -0.237 OA
ATOM     87  O   UNL A   1      43.416  31.333  25.938  1.00  0.00    -0.744 OA
ENDBRANCH  81  84
ENDBRANCH  54  77
ENDBRANCH  28  29
ENDBRANCH  21  23
ENDBRANCH  20  21
ENDBRANCH   1  20
TORSDOF 16
ENDMDL
MODEL 3
REMARK VINA RESULT:     -11.5      1.503      1.743
REMARK SMILES Cc1cc(C)c2c(O[C@@H](C)C(=O)OCCOC(=O)c3ccc(-c4c5nc(c(-c6cccc(S(=O)(=O)[O-])c6F)c6ccc([nH]6)c(-c6cccc(S(=O)(=O)[O-])c6F)c6nc(c(-c7cccc(S(=O)(=O)[O-])c7F)c7ccc4[nH]7)C=C6)C=C5)cc3)nsc2n1
REMARK SMILES IDX 15 1 14 2 13 3 11 4 12 5 9 6 10 7 8 8 7 9 1 10 2 11 3 12
REMARK SMILES IDX 85 13 4 14 84 15 5 16 6 17 83 18 82 19 16 20 17 21 18 22
REMARK SMILES IDX 19 23 20 24 81 25 21 26 80 27 22 28 23 29 24 30 74 31 25 32
REMARK SMILES IDX 79 33 73 34 75 35 26 36 78 37 72 38 71 39 27 41 59 42 39 43
REMARK SMILES IDX 58 44 40 45 43 46 57 47 76 48 41 49 42 50 56 52 77 53 44 54
REMARK SMILES IDX 28 55 29 56 37 57 30 58 32 59 38 60 31 61 33 62 34 63 35 64
REMARK SMILES IDX 36 65 60 66 61 67 69 68 62 69 64 70 70 71 63 72 65 73 66 74
REMARK SMILES IDX 67 75 68 76 45 77 46 78 54 79 47 80 49 81 55 82 48 83 50 84
REMARK SMILES IDX 51 85 52 86 53 87
REMARK H PARENT 75 40 43 51
REMARK Flexibility Score: inf
ROOT
ATOM      1  C   UNL A   1      37.565  20.010  24.868  1.00  0.00     0.275 C 
ENDROOT
BRANCH   1   2
ATOM      2  C   UNL A   1      36.311  20.855  24.966  1.00  0.00     0.274 C 
BRANCH   2   3
ATOM      3  O   UNL A   1      36.668  22.241  24.824  1.00  0.00    -0.459 OA
BRANCH   3   4
ATOM      4  C   UNL A   1      36.247  22.940  23.741  1.00  0.00     0.347 C 
ATOM      5  O   UNL A   1      36.757  22.855  22.628  1.00  0.00    -0.248 OA
BRANCH   4   6
ATOM      6  C   UNL A   1      35.052  23.876  24.072  1.00  0.00     0.281 C 
ATOM      7  C   UNL A   1      35.081  24.337  25.534  1.00  0.00     0.066 C 
BRANCH   6   8
ATOM      8  O   UNL A   1      33.683  23.732  23.804  1.00  0.00    -0.462 OA
BRANCH   8   9
ATOM      9  C   UNL A   1      32.994  24.636  23.079  1.00  0.00     0.236 A 
ATOM     10  C   UNL A   1      29.109  28.767  22.849  1.00  0.00     0.067 C 
ATOM     11  C   UNL A   1      30.129  27.689  23.054  1.00  0.00     0.039 A 
ATOM     12  C   UNL A   1      30.400  27.234  24.332  1.00  0.00     0.027 A 
ATOM     13  N   UNL A   1      30.780  27.264  21.967  1.00  0.00    -0.240 NA
ATOM     14  C   UNL A   1      31.396  26.261  24.569  1.00  0.00    -0.034 A 
ATOM     15  C   UNL A   1      31.680  26.290  22.195  1.00  0.00     0.147 A 
ATOM     16  C   UNL A   1      31.567  25.903  26.025  1.00  0.00     0.045 C 
ATOM     17  C   UNL A   1      32.045  25.701  23.415  1.00  0.00     0.078 A 
ATOM     18  S   UNL A   1      32.565  25.630  20.905  1.00  0.00    -0.012 S 
ATOM     19  N   UNL A   1      33.411  24.564  21.815  1.00  0.00    -0.153 NA
ENDBRANCH   8   9
ENDBRANCH   6   8
ENDBRANCH   4   6
ENDBRANCH   3   4
ENDBRANCH   2   3
ENDBRANCH   1   2
BRANCH   1  20
ATOM     20  O   UNL A   1      38.664  20.769  25.353  1.00  0.00    -0.458 OA
BRANCH  20  21
ATOM     21  C   UNL A   1      39.756  20.044  25.684  1.00  0.00     0.338 C 
ATOM     22  O   UNL A   1      39.910  18.842  25.602  1.00  0.00    -0.246 OA
BRANCH  21  23
ATOM     23  C   UNL A   1      40.723  20.924  26.326  1.00  0.00     0.060 A 
ATOM     24  C   UNL A   1      40.809  20.841  27.718  1.00  0.00     0.016 A 
ATOM     25  C   UNL A   1      41.264  21.985  25.588  1.00  0.00     0.016 A 
ATOM     26  C   UNL A   1      41.271  21.940  28.397  1.00  0.00     0.010 A 
ATOM     27  C   UNL A   1      41.696  23.089  26.267  1.00  0.00     0.010 A 
ATOM     28  C   UNL A   1      41.621  23.072  27.656  1.00  0.00    -0.014 A 
BRANCH  28  29
ATOM     29  C   UNL A   1      41.996  24.256  28.381  1.00  0.00     0.031 A 
ATOM     30  C   UNL A   1      41.014  25.347  28.242  1.00  0.00     0.074 A 
ATOM     31  C   UNL A   1      43.068  24.275  29.189  1.00  0.00     0.049 A 
ATOM     32  N   UNL A   1      41.177  26.483  27.652  1.00  0.00    -0.248 NA
ATOM     33  C   UNL A   1      39.629  25.063  28.647  1.00  0.00     0.031 C 
ATOM     34  C   UNL A   1      43.884  23.137  29.626  1.00  0.00     0.029 A 
ATOM     35  N   UNL A   1      43.550  25.309  29.921  1.00  0.00    -0.354 N 
ATOM     36  C   UNL A   1      39.968  27.148  27.823  1.00  0.00     0.074 A 
ATOM     37  C   UNL A   1      39.005  26.161  28.226  1.00  0.00     0.031 C 
ATOM     38  C   UNL A   1      44.580  23.499  30.726  1.00  0.00     0.029 A 
ATOM     39  C   UNL A   1      44.355  24.912  30.979  1.00  0.00     0.049 A 
ATOM     40  H   UNL A   1      43.349  26.252  29.720  1.00  0.00     0.167 HD
ATOM     41  C   UNL A   1      39.917  28.503  27.896  1.00  0.00     0.034 A 
ATOM     42  C   UNL A   1      44.705  25.687  32.031  1.00  0.00     0.034 A 
ATOM     43  C   UNL A   1      41.121  29.104  27.385  1.00  0.00     0.049 A 
ATOM     44  C   UNL A   1      44.487  27.098  31.628  1.00  0.00     0.074 A 
ATOM     45  C   UNL A   1      41.770  29.109  26.168  1.00  0.00     0.029 A 
ATOM     46  N   UNL A   1      42.036  29.530  28.316  1.00  0.00    -0.354 N 
ATOM     47  N   UNL A   1      45.181  27.712  30.711  1.00  0.00    -0.248 NA
ATOM     48  C   UNL A   1      43.228  27.735  31.986  1.00  0.00     0.031 C 
ATOM     49  C   UNL A   1      43.158  29.149  26.484  1.00  0.00     0.029 A 
ATOM     50  C   UNL A   1      43.288  29.196  27.874  1.00  0.00     0.049 A 
ATOM     51  H   UNL A   1      41.827  29.997  29.157  1.00  0.00     0.167 HD
ATOM     52  C   UNL A   1      44.266  28.543  30.076  1.00  0.00     0.074 A 
ATOM     53  C   UNL A   1      43.133  28.622  30.992  1.00  0.00     0.031 C 
ATOM     54  C   UNL A   1      44.390  28.843  28.749  1.00  0.00     0.034 A 
BRANCH  41  55
ATOM     55  C   UNL A   1      38.949  29.267  28.764  1.00  0.00     0.023 A 
ATOM     56  C   UNL A   1      39.019  29.043  30.155  1.00  0.00     0.012 A 
ATOM     57  C   UNL A   1      37.826  29.986  28.287  1.00  0.00     0.148 A 
ATOM     58  C   UNL A   1      38.008  29.474  31.019  1.00  0.00     0.002 A 
ATOM     59  C   UNL A   1      36.875  30.499  29.161  1.00  0.00     0.091 A 
ATOM     60  F   UNL A   1      37.578  30.064  26.977  1.00  0.00    -0.205 F 
ATOM     61  C   UNL A   1      36.942  30.216  30.524  1.00  0.00     0.022 A 
BRANCH  59  62
ATOM     62  S   UNL A   1      35.527  31.529  28.570  1.00  0.00     0.127 S 
ATOM     63  O   UNL A   1      34.884  31.921  29.819  1.00  0.00    -0.237 OA
ATOM     64  O   UNL A   1      36.249  32.600  27.881  1.00  0.00    -0.237 OA
ATOM     65  O   UNL A   1      34.747  30.675  27.681  1.00  0.00    -0.744 OA
ENDBRANCH  59  62
ENDBRANCH  41  55
BRANCH  42  66
ATOM     66  C   UNL A   1      44.948  25.313  33.442  1.00  0.00     0.023 A 
ATOM     67  C   UNL A   1      43.860  24.877  34.224  1.00  0.00     0.012 A 
ATOM     68  C   UNL A   1      46.254  25.099  33.936  1.00  0.00     0.148 A 
ATOM     69  C   UNL A   1      44.064  24.202  35.432  1.00  0.00     0.002 A 
ATOM     70  C   UNL A   1      46.452  24.434  35.144  1.00  0.00     0.091 A 
ATOM     71  F   UNL A   1      47.302  25.453  33.181  1.00  0.00    -0.205 F 
ATOM     72  C   UNL A   1      45.359  23.971  35.886  1.00  0.00     0.022 A 
BRANCH  70  73
ATOM     73  S   UNL A   1      48.096  24.074  35.779  1.00  0.00     0.127 S 
ATOM     74  O   UNL A   1      48.655  23.233  34.719  1.00  0.00    -0.237 OA
ATOM     75  O   UNL A   1      48.681  25.408  35.874  1.00  0.00    -0.237 OA
ATOM     76  O   UNL A   1      47.888  23.379  37.043  1.00  0.00    -0.744 OA
ENDBRANCH  70  73
ENDBRANCH  42  66
BRANCH  54  77
ATOM     77  C   UNL A   1      45.695  28.510  28.063  1.00  0.00     0.023 A 
ATOM     78  C   UNL A   1      46.824  29.353  28.149  1.00  0.00     0.012 A 
ATOM     79  C   UNL A   1      45.845  27.236  27.488  1.00  0.00     0.148 A 
ATOM     80  C   UNL A   1      48.066  28.942  27.659  1.00  0.00     0.002 A 
ATOM     81  C   UNL A   1      47.094  26.809  27.052  1.00  0.00     0.091 A 
ATOM     82  F   UNL A   1      44.765  26.443  27.411  1.00  0.00    -0.205 F 
ATOM     83  C   UNL A   1      48.205  27.662  27.125  1.00  0.00     0.022 A 
BRANCH  81  84
ATOM     84  S   UNL A   1      47.368  25.123  26.499  1.00  0.00     0.127 S 
ATOM     85  O   UNL A   1      46.384  24.988  25.427  1.00  0.00    -0.237 OA
ATOM     86  O   UNL A   1      48.761  25.160  26.049  1.00  0.00    -0.237 OA
ATOM     87  O   UNL A   1      47.146  24.279  27.667  1.00  0.00    -0.744 OA
ENDBRANCH  81  84
ENDBRANCH  54  77
ENDBRANCH  28  29
ENDBRANCH  21  23
ENDBRANCH  20  21
ENDBRANCH   1  20
TORSDOF 16
ENDMDL
