MODEL 1
REMARK VINA RESULT:     -12.3      0.000      0.000
REMARK SMILES CC(=O)Nc1cccc(NC(=O)N[C@H](C(=O)OCCOC(=O)c2ccc(-c3c4nc(c(-c5cccc(S(=O)(=O)[O-])c5F)c5ccc([nH]5)c(-c5cccc(S(=O)(=O)[O-])c5F)c5nc(c(-c6cccc(S(=O)(=O)[O-])c6F)c6ccc3[nH]6)C=C5)C=C4)cc2)C(C)C)c1
REMARK SMILES IDX 18 1 17 2 15 3 16 4 14 5 13 6 10 7 11 8 12 10 9 12 5 13 6 14
REMARK SMILES IDX 89 15 7 16 8 17 4 18 1 19 2 20 3 21 86 23 87 24 88 25 19 26
REMARK SMILES IDX 20 27 21 28 22 29 23 30 24 31 85 32 25 33 84 34 26 35 27 36
REMARK SMILES IDX 28 37 78 38 29 39 83 40 77 41 79 42 30 43 82 44 76 45 75 46
REMARK SMILES IDX 31 48 63 49 43 50 62 51 44 52 47 53 61 54 80 55 45 56 46 57
REMARK SMILES IDX 60 59 81 60 48 61 32 62 33 63 41 64 34 65 36 66 42 67 35 68
REMARK SMILES IDX 37 69 38 70 39 71 40 72 64 73 65 74 73 75 66 76 68 77 74 78
REMARK SMILES IDX 67 79 69 80 70 81 71 82 72 83 49 84 50 85 58 86 51 87 53 88
REMARK SMILES IDX 59 89 52 90 54 91 55 92 56 93 57 94
REMARK H PARENT 10 9 13 11 4 22 79 47 47 58
REMARK Flexibility Score: inf
ROOT
ATOM      1  C   UNL A   1      36.500  19.597  24.719  1.00  0.00     0.274 C 
ENDROOT
BRANCH   1   2
ATOM      2  O   UNL A   1      35.908  20.821  25.189  1.00  0.00    -0.461 OA
BRANCH   2   3
ATOM      3  C   UNL A   1      35.827  21.860  24.314  1.00  0.00     0.329 C 
ATOM      4  O   UNL A   1      36.744  22.225  23.585  1.00  0.00    -0.250 OA
BRANCH   3   5
ATOM      5  C   UNL A   1      34.415  22.487  24.279  1.00  0.00     0.196 C 
BRANCH   5   6
ATOM      6  N   UNL A   1      33.942  22.655  25.664  1.00  0.00    -0.324 N 
ATOM      7  N   UNL A   1      32.145  21.124  25.919  1.00  0.00    -0.308 N 
ATOM      8  C   UNL A   1      32.934  22.122  26.385  1.00  0.00     0.319 C 
ATOM      9  H   UNL A   1      31.242  21.101  26.311  1.00  0.00     0.171 HD
ATOM     10  O   UNL A   1      32.632  22.656  27.454  1.00  0.00    -0.248 OA
ATOM     11  H   UNL A   1      34.481  23.300  26.176  1.00  0.00     0.166 HD
BRANCH   7  12
ATOM     12  C   UNL A   1      32.393  20.122  24.977  1.00  0.00     0.044 A 
ATOM     13  C   UNL A   1      32.599  17.746  24.559  1.00  0.00     0.043 A 
ATOM     14  C   UNL A   1      32.519  18.016  23.184  1.00  0.00     0.026 A 
ATOM     15  C   UNL A   1      32.602  18.819  25.447  1.00  0.00     0.052 A 
ATOM     16  C   UNL A   1      32.438  19.327  22.709  1.00  0.00     0.004 A 
ATOM     17  C   UNL A   1      32.384  20.385  23.608  1.00  0.00     0.026 A 
BRANCH  13  18
ATOM     18  N   UNL A   1      32.668  16.389  24.925  1.00  0.00    -0.326 N 
ATOM     19  C   UNL A   1      35.108  16.012  25.348  1.00  0.00     0.114 C 
ATOM     20  C   UNL A   1      33.693  15.533  25.194  1.00  0.00     0.221 C 
ATOM     21  O   UNL A   1      33.423  14.341  25.373  1.00  0.00    -0.275 OA
ATOM     22  H   UNL A   1      31.783  15.967  25.005  1.00  0.00     0.169 HD
ENDBRANCH  13  18
ENDBRANCH   7  12
ENDBRANCH   5   6
BRANCH   5  23
ATOM     23  C   UNL A   1      34.317  23.756  23.395  1.00  0.00     0.017 C 
ATOM     24  C   UNL A   1      33.268  23.519  22.291  1.00  0.00     0.010 C 
ATOM     25  C   UNL A   1      33.926  25.025  24.154  1.00  0.00     0.010 C 
ENDBRANCH   5  23
ENDBRANCH   3   5
ENDBRANCH   2   3
ENDBRANCH   1   2
BRANCH   1  26
ATOM     26  C   UNL A   1      37.998  19.568  25.024  1.00  0.00     0.275 C 
BRANCH  26  27
ATOM     27  O   UNL A   1      38.395  20.703  25.808  1.00  0.00    -0.458 OA
BRANCH  27  28
ATOM     28  C   UNL A   1      39.649  20.666  26.316  1.00  0.00     0.338 C 
ATOM     29  O   UNL A   1      40.400  19.706  26.371  1.00  0.00    -0.246 OA
BRANCH  28  30
ATOM     30  C   UNL A   1      40.043  22.031  26.695  1.00  0.00     0.060 A 
ATOM     31  C   UNL A   1      39.288  23.106  26.214  1.00  0.00     0.016 A 
ATOM     32  C   UNL A   1      41.172  22.245  27.486  1.00  0.00     0.016 A 
ATOM     33  C   UNL A   1      39.681  24.410  26.495  1.00  0.00     0.010 A 
ATOM     34  C   UNL A   1      41.557  23.550  27.778  1.00  0.00     0.010 A 
ATOM     35  C   UNL A   1      40.828  24.637  27.264  1.00  0.00    -0.014 A 
BRANCH  35  36
ATOM     36  C   UNL A   1      41.331  26.009  27.484  1.00  0.00     0.031 A 
ATOM     37  C   UNL A   1      42.726  26.348  27.045  1.00  0.00     0.074 A 
ATOM     38  C   UNL A   1      40.573  26.908  28.137  1.00  0.00     0.049 A 
ATOM     39  N   UNL A   1      43.430  27.421  27.288  1.00  0.00    -0.248 NA
ATOM     40  C   UNL A   1      43.426  25.333  26.240  1.00  0.00     0.031 C 
ATOM     41  C   UNL A   1      39.205  26.680  28.603  1.00  0.00     0.029 A 
ATOM     42  N   UNL A   1      40.867  28.178  28.559  1.00  0.00    -0.354 N 
ATOM     43  C   UNL A   1      44.673  27.192  26.711  1.00  0.00     0.074 A 
ATOM     44  C   UNL A   1      44.628  25.877  26.110  1.00  0.00     0.031 C 
ATOM     45  C   UNL A   1      38.791  27.761  29.282  1.00  0.00     0.029 A 
ATOM     46  C   UNL A   1      39.877  28.737  29.331  1.00  0.00     0.049 A 
ATOM     47  H   UNL A   1      41.705  28.644  28.331  1.00  0.00     0.167 HD
ATOM     48  C   UNL A   1      45.749  28.011  26.678  1.00  0.00     0.034 A 
ATOM     49  C   UNL A   1      39.866  29.888  30.030  1.00  0.00     0.034 A 
ATOM     50  C   UNL A   1      45.767  29.329  27.255  1.00  0.00     0.049 A 
ATOM     51  C   UNL A   1      41.081  30.777  29.986  1.00  0.00     0.074 A 
ATOM     52  C   UNL A   1      46.787  30.264  27.232  1.00  0.00     0.029 A 
ATOM     53  N   UNL A   1      44.720  29.894  27.966  1.00  0.00    -0.354 N 
ATOM     54  N   UNL A   1      42.215  30.597  29.352  1.00  0.00    -0.248 NA
ATOM     55  C   UNL A   1      41.004  32.044  30.728  1.00  0.00     0.031 C 
ATOM     56  C   UNL A   1      46.365  31.385  27.955  1.00  0.00     0.029 A 
ATOM     57  C   UNL A   1      45.070  31.163  28.396  1.00  0.00     0.049 A 
ATOM     58  H   UNL A   1      43.855  29.458  28.140  1.00  0.00     0.167 HD
ATOM     59  C   UNL A   1      42.968  31.742  29.583  1.00  0.00     0.074 A 
ATOM     60  C   UNL A   1      42.155  32.616  30.403  1.00  0.00     0.031 C 
ATOM     61  C   UNL A   1      44.222  32.041  29.162  1.00  0.00     0.034 A 
BRANCH  48  62
ATOM     62  C   UNL A   1      46.988  27.515  25.982  1.00  0.00     0.023 A 
ATOM     63  C   UNL A   1      47.905  26.701  26.678  1.00  0.00     0.012 A 
ATOM     64  C   UNL A   1      47.220  27.811  24.625  1.00  0.00     0.148 A 
ATOM     65  C   UNL A   1      49.051  26.221  26.046  1.00  0.00     0.002 A 
ATOM     66  C   UNL A   1      48.340  27.290  23.988  1.00  0.00     0.091 A 
ATOM     67  F   UNL A   1      46.350  28.606  23.986  1.00  0.00    -0.205 F 
ATOM     68  C   UNL A   1      49.262  26.506  24.700  1.00  0.00     0.022 A 
BRANCH  66  69
ATOM     69  S   UNL A   1      48.660  27.533  22.237  1.00  0.00     0.127 S 
ATOM     70  O   UNL A   1      49.971  28.180  22.263  1.00  0.00    -0.237 OA
ATOM     71  O   UNL A   1      48.669  26.159  21.732  1.00  0.00    -0.237 OA
ATOM     72  O   UNL A   1      47.567  28.355  21.738  1.00  0.00    -0.744 OA
ENDBRANCH  66  69
ENDBRANCH  48  62
BRANCH  49  73
ATOM     73  C   UNL A   1      38.655  30.278  30.804  1.00  0.00     0.023 A 
ATOM     74  C   UNL A   1      38.534  29.873  32.148  1.00  0.00     0.012 A 
ATOM     75  C   UNL A   1      37.637  31.064  30.230  1.00  0.00     0.148 A 
ATOM     76  C   UNL A   1      37.408  30.215  32.895  1.00  0.00     0.002 A 
ATOM     77  C   UNL A   1      36.544  31.447  30.996  1.00  0.00     0.091 A 
ATOM     78  F   UNL A   1      37.765  31.431  28.947  1.00  0.00    -0.205 F 
ATOM     79  C   UNL A   1      36.418  31.008  32.323  1.00  0.00     0.022 A 
BRANCH  77  80
ATOM     80  S   UNL A   1      35.281  32.571  30.386  1.00  0.00     0.127 S 
ATOM     81  O   UNL A   1      34.793  31.861  29.207  1.00  0.00    -0.237 OA
ATOM     82  O   UNL A   1      34.346  32.612  31.511  1.00  0.00    -0.237 OA
ATOM     83  O   UNL A   1      35.964  33.830  30.127  1.00  0.00    -0.744 OA
ENDBRANCH  77  80
ENDBRANCH  49  73
BRANCH  61  84
ATOM     84  C   UNL A   1      44.781  33.391  29.531  1.00  0.00     0.023 A 
ATOM     85  C   UNL A   1      45.554  33.541  30.698  1.00  0.00     0.012 A 
ATOM     86  C   UNL A   1      44.603  34.494  28.671  1.00  0.00     0.148 A 
ATOM     87  C   UNL A   1      46.116  34.776  31.021  1.00  0.00     0.002 A 
ATOM     88  C   UNL A   1      45.209  35.707  28.972  1.00  0.00     0.091 A 
ATOM     89  F   UNL A   1      43.848  34.334  27.574  1.00  0.00    -0.205 F 
ATOM     90  C   UNL A   1      45.954  35.854  30.154  1.00  0.00     0.022 A 
BRANCH  88  91
ATOM     91  S   UNL A   1      45.140  37.119  27.864  1.00  0.00     0.127 S 
ATOM     92  O   UNL A   1      45.551  38.211  28.746  1.00  0.00    -0.237 OA
ATOM     93  O   UNL A   1      46.123  36.758  26.841  1.00  0.00    -0.237 OA
ATOM     94  O   UNL A   1      43.767  37.188  27.385  1.00  0.00    -0.744 OA
ENDBRANCH  88  91
ENDBRANCH  61  84
ENDBRANCH  35  36
ENDBRANCH  28  30
ENDBRANCH  27  28
ENDBRANCH  26  27
ENDBRANCH   1  26
TORSDOF 18
ENDMDL
MODEL 2
REMARK VINA RESULT:     -12.2      1.478      1.802
REMARK SMILES CC(=O)Nc1cccc(NC(=O)N[C@H](C(=O)OCCOC(=O)c2ccc(-c3c4nc(c(-c5cccc(S(=O)(=O)[O-])c5F)c5ccc([nH]5)c(-c5cccc(S(=O)(=O)[O-])c5F)c5nc(c(-c6cccc(S(=O)(=O)[O-])c6F)c6ccc3[nH]6)C=C5)C=C4)cc2)C(C)C)c1
REMARK SMILES IDX 18 1 17 2 15 3 16 4 14 5 13 6 10 7 11 8 12 10 9 12 5 13 6 14
REMARK SMILES IDX 89 15 7 16 8 17 4 18 1 19 2 20 3 21 86 23 87 24 88 25 19 26
REMARK SMILES IDX 20 27 21 28 22 29 23 30 24 31 85 32 25 33 84 34 26 35 27 36
REMARK SMILES IDX 28 37 78 38 29 39 83 40 77 41 79 42 30 43 82 44 76 45 75 46
REMARK SMILES IDX 31 48 63 49 43 50 62 51 44 52 47 53 61 54 80 55 45 56 46 57
REMARK SMILES IDX 60 59 81 60 48 61 32 62 33 63 41 64 34 65 36 66 42 67 35 68
REMARK SMILES IDX 37 69 38 70 39 71 40 72 64 73 65 74 73 75 66 76 68 77 74 78
REMARK SMILES IDX 67 79 69 80 70 81 71 82 72 83 49 84 50 85 58 86 51 87 53 88
REMARK SMILES IDX 59 89 52 90 54 91 55 92 56 93 57 94
REMARK H PARENT 10 9 13 11 4 22 79 47 47 58
REMARK Flexibility Score: inf
ROOT
ATOM      1  C   UNL A   1      37.629  19.889  24.723  1.00  0.00     0.274 C 
ENDROOT
BRANCH   1   2
ATOM      2  O   UNL A   1      36.763  20.834  25.375  1.00  0.00    -0.461 OA
BRANCH   2   3
ATOM      3  C   UNL A   1      36.609  22.056  24.794  1.00  0.00     0.329 C 
ATOM      4  O   UNL A   1      37.518  22.697  24.278  1.00  0.00    -0.250 OA
BRANCH   3   5
ATOM      5  C   UNL A   1      35.134  22.517  24.785  1.00  0.00     0.196 C 
BRANCH   5   6
ATOM      6  N   UNL A   1      34.644  22.551  26.172  1.00  0.00    -0.324 N 
ATOM      7  N   UNL A   1      32.686  21.206  26.194  1.00  0.00    -0.308 N 
ATOM      8  C   UNL A   1      33.564  22.040  26.802  1.00  0.00     0.319 C 
ATOM      9  H   UNL A   1      31.776  21.230  26.567  1.00  0.00     0.171 HD
ATOM     10  O   UNL A   1      33.291  22.456  27.929  1.00  0.00    -0.248 OA
ATOM     11  H   UNL A   1      35.234  23.058  26.775  1.00  0.00     0.166 HD
BRANCH   7  12
ATOM     12  C   UNL A   1      32.851  20.317  25.129  1.00  0.00     0.044 A 
ATOM     13  C   UNL A   1      33.657  18.150  24.409  1.00  0.00     0.043 A 
ATOM     14  C   UNL A   1      32.939  18.318  23.215  1.00  0.00     0.026 A 
ATOM     15  C   UNL A   1      33.660  19.191  25.335  1.00  0.00     0.052 A 
ATOM     16  C   UNL A   1      32.235  19.496  22.955  1.00  0.00     0.004 A 
ATOM     17  C   UNL A   1      32.199  20.504  23.911  1.00  0.00     0.026 A 
BRANCH  13  18
ATOM     18  N   UNL A   1      34.322  16.921  24.569  1.00  0.00    -0.326 N 
ATOM     19  C   UNL A   1      32.614  15.462  25.680  1.00  0.00     0.114 C 
ATOM     20  C   UNL A   1      34.000  15.744  25.176  1.00  0.00     0.221 C 
ATOM     21  O   UNL A   1      34.871  14.871  25.248  1.00  0.00    -0.275 OA
ATOM     22  H   UNL A   1      35.213  16.908  24.153  1.00  0.00     0.169 HD
ENDBRANCH  13  18
ENDBRANCH   7  12
ENDBRANCH   5   6
BRANCH   5  23
ATOM     23  C   UNL A   1      34.892  23.815  23.973  1.00  0.00     0.017 C 
ATOM     24  C   UNL A   1      33.888  23.519  22.842  1.00  0.00     0.010 C 
ATOM     25  C   UNL A   1      34.344  24.981  24.797  1.00  0.00     0.010 C 
ENDBRANCH   5  23
ENDBRANCH   3   5
ENDBRANCH   2   3
ENDBRANCH   1   2
BRANCH   1  26
ATOM     26  C   UNL A   1      38.711  19.394  25.683  1.00  0.00     0.275 C 
BRANCH  26  27
ATOM     27  O   UNL A   1      39.812  20.313  25.750  1.00  0.00    -0.458 OA
BRANCH  27  28
ATOM     28  C   UNL A   1      40.433  20.411  26.949  1.00  0.00     0.338 C 
ATOM     29  O   UNL A   1      40.811  19.499  27.666  1.00  0.00    -0.246 OA
BRANCH  28  30
ATOM     30  C   UNL A   1      40.712  21.829  27.219  1.00  0.00     0.060 A 
ATOM     31  C   UNL A   1      40.079  22.800  26.435  1.00  0.00     0.016 A 
ATOM     32  C   UNL A   1      41.621  22.192  28.214  1.00  0.00     0.016 A 
ATOM     33  C   UNL A   1      40.381  24.145  26.619  1.00  0.00     0.010 A 
ATOM     34  C   UNL A   1      41.911  23.539  28.406  1.00  0.00     0.010 A 
ATOM     35  C   UNL A   1      41.312  24.518  27.594  1.00  0.00    -0.014 A 
BRANCH  35  36
ATOM     36  C   UNL A   1      41.734  25.927  27.736  1.00  0.00     0.031 A 
ATOM     37  C   UNL A   1      43.112  26.319  27.288  1.00  0.00     0.074 A 
ATOM     38  C   UNL A   1      40.920  26.818  28.328  1.00  0.00     0.049 A 
ATOM     39  N   UNL A   1      43.752  27.442  27.472  1.00  0.00    -0.248 NA
ATOM     40  C   UNL A   1      43.878  25.300  26.550  1.00  0.00     0.031 C 
ATOM     41  C   UNL A   1      39.562  26.540  28.797  1.00  0.00     0.029 A 
ATOM     42  N   UNL A   1      41.137  28.126  28.677  1.00  0.00    -0.354 N 
ATOM     43  C   UNL A   1      45.012  27.251  26.919  1.00  0.00     0.074 A 
ATOM     44  C   UNL A   1      45.048  25.902  26.397  1.00  0.00     0.031 C 
ATOM     45  C   UNL A   1      39.080  27.634  29.408  1.00  0.00     0.029 A 
ATOM     46  C   UNL A   1      40.108  28.671  29.407  1.00  0.00     0.049 A 
ATOM     47  H   UNL A   1      41.949  28.625  28.428  1.00  0.00     0.167 HD
ATOM     48  C   UNL A   1      46.040  28.127  26.846  1.00  0.00     0.034 A 
ATOM     49  C   UNL A   1      40.025  29.859  30.036  1.00  0.00     0.034 A 
ATOM     50  C   UNL A   1      45.978  29.475  27.343  1.00  0.00     0.049 A 
ATOM     51  C   UNL A   1      41.187  30.813  29.948  1.00  0.00     0.074 A 
ATOM     52  C   UNL A   1      46.943  30.464  27.272  1.00  0.00     0.029 A 
ATOM     53  N   UNL A   1      44.893  30.021  28.011  1.00  0.00    -0.354 N 
ATOM     54  N   UNL A   1      42.337  30.660  29.334  1.00  0.00    -0.248 NA
ATOM     55  C   UNL A   1      41.031  32.114  30.612  1.00  0.00     0.031 C 
ATOM     56  C   UNL A   1      46.450  31.600  27.923  1.00  0.00     0.029 A 
ATOM     57  C   UNL A   1      45.165  31.331  28.367  1.00  0.00     0.049 A 
ATOM     58  H   UNL A   1      44.052  29.547  28.204  1.00  0.00     0.167 HD
ATOM     59  C   UNL A   1      43.022  31.858  29.502  1.00  0.00     0.074 A 
ATOM     60  C   UNL A   1      42.151  32.731  30.262  1.00  0.00     0.031 C 
ATOM     61  C   UNL A   1      44.261  32.203  29.073  1.00  0.00     0.034 A 
BRANCH  48  62
ATOM     62  C   UNL A   1      47.313  27.662  26.190  1.00  0.00     0.023 A 
ATOM     63  C   UNL A   1      47.498  27.849  24.805  1.00  0.00     0.012 A 
ATOM     64  C   UNL A   1      48.347  27.085  26.953  1.00  0.00     0.148 A 
ATOM     65  C   UNL A   1      48.675  27.436  24.183  1.00  0.00     0.002 A 
ATOM     66  C   UNL A   1      49.538  26.720  26.334  1.00  0.00     0.091 A 
ATOM     67  F   UNL A   1      48.145  26.893  28.263  1.00  0.00    -0.205 F 
ATOM     68  C   UNL A   1      49.698  26.882  24.949  1.00  0.00     0.022 A 
BRANCH  66  69
ATOM     69  S   UNL A   1      50.944  26.072  27.245  1.00  0.00     0.127 S 
ATOM     70  O   UNL A   1      50.503  24.710  27.542  1.00  0.00    -0.237 OA
ATOM     71  O   UNL A   1      52.019  26.163  26.256  1.00  0.00    -0.237 OA
ATOM     72  O   UNL A   1      51.109  26.941  28.402  1.00  0.00    -0.744 OA
ENDBRANCH  66  69
ENDBRANCH  48  62
BRANCH  49  73
ATOM     73  C   UNL A   1      38.785  30.225  30.776  1.00  0.00     0.023 A 
ATOM     74  C   UNL A   1      38.646  29.838  32.123  1.00  0.00     0.012 A 
ATOM     75  C   UNL A   1      37.757  30.970  30.166  1.00  0.00     0.148 A 
ATOM     76  C   UNL A   1      37.493  30.157  32.839  1.00  0.00     0.002 A 
ATOM     77  C   UNL A   1      36.635  31.332  30.901  1.00  0.00     0.091 A 
ATOM     78  F   UNL A   1      37.903  31.320  28.880  1.00  0.00    -0.205 F 
ATOM     79  C   UNL A   1      36.493  30.910  32.232  1.00  0.00     0.022 A 
BRANCH  77  80
ATOM     80  S   UNL A   1      35.354  32.406  30.244  1.00  0.00     0.127 S 
ATOM     81  O   UNL A   1      34.409  32.461  31.356  1.00  0.00    -0.237 OA
ATOM     82  O   UNL A   1      36.095  33.645  30.003  1.00  0.00    -0.237 OA
ATOM     83  O   UNL A   1      34.870  31.752  29.037  1.00  0.00    -0.744 OA
ENDBRANCH  77  80
ENDBRANCH  49  73
BRANCH  61  84
ATOM     84  C   UNL A   1      44.738  33.602  29.366  1.00  0.00     0.023 A 
ATOM     85  C   UNL A   1      45.430  33.877  30.561  1.00  0.00     0.012 A 
ATOM     86  C   UNL A   1      44.569  34.626  28.411  1.00  0.00     0.148 A 
ATOM     87  C   UNL A   1      45.918  35.159  30.817  1.00  0.00     0.002 A 
ATOM     88  C   UNL A   1      45.104  35.885  28.649  1.00  0.00     0.091 A 
ATOM     89  F   UNL A   1      43.892  34.346  27.287  1.00  0.00    -0.205 F 
ATOM     90  C   UNL A   1      45.766  36.157  29.857  1.00  0.00     0.022 A 
BRANCH  88  91
ATOM     91  S   UNL A   1      45.045  37.202  27.430  1.00  0.00     0.127 S 
ATOM     92  O   UNL A   1      43.651  37.144  26.994  1.00  0.00    -0.237 OA
ATOM     93  O   UNL A   1      45.385  38.380  28.230  1.00  0.00    -0.237 OA
ATOM     94  O   UNL A   1      46.031  36.857  26.415  1.00  0.00    -0.744 OA
ENDBRANCH  88  91
ENDBRANCH  61  84
ENDBRANCH  35  36
ENDBRANCH  28  30
ENDBRANCH  27  28
ENDBRANCH  26  27
ENDBRANCH   1  26
TORSDOF 18
ENDMDL
MODEL 3
REMARK VINA RESULT:     -12.1      6.472      9.921
REMARK SMILES CC(=O)Nc1cccc(NC(=O)N[C@H](C(=O)OCCOC(=O)c2ccc(-c3c4nc(c(-c5cccc(S(=O)(=O)[O-])c5F)c5ccc([nH]5)c(-c5cccc(S(=O)(=O)[O-])c5F)c5nc(c(-c6cccc(S(=O)(=O)[O-])c6F)c6ccc3[nH]6)C=C5)C=C4)cc2)C(C)C)c1
REMARK SMILES IDX 18 1 17 2 15 3 16 4 14 5 13 6 10 7 11 8 12 10 9 12 5 13 6 14
REMARK SMILES IDX 89 15 7 16 8 17 4 18 1 19 2 20 3 21 86 23 87 24 88 25 19 26
REMARK SMILES IDX 20 27 21 28 22 29 23 30 24 31 85 32 25 33 84 34 26 35 27 36
REMARK SMILES IDX 28 37 78 38 29 39 83 40 77 41 79 42 30 43 82 44 76 45 75 46
REMARK SMILES IDX 31 48 63 49 43 50 62 51 44 52 47 53 61 54 80 55 45 56 46 57
REMARK SMILES IDX 60 59 81 60 48 61 32 62 33 63 41 64 34 65 36 66 42 67 35 68
REMARK SMILES IDX 37 69 38 70 39 71 40 72 64 73 65 74 73 75 66 76 68 77 74 78
REMARK SMILES IDX 67 79 69 80 70 81 71 82 72 83 49 84 50 85 58 86 51 87 53 88
REMARK SMILES IDX 59 89 52 90 54 91 55 92 56 93 57 94
REMARK H PARENT 10 9 13 11 4 22 79 47 47 58
REMARK Flexibility Score: inf
ROOT
ATOM      1  C   UNL A   1      31.192  31.638  26.917  1.00  0.00     0.274 C 
ENDROOT
BRANCH   1   2
ATOM      2  O   UNL A   1      31.439  30.937  25.685  1.00  0.00    -0.461 OA
BRANCH   2   3
ATOM      3  C   UNL A   1      32.427  30.000  25.679  1.00  0.00     0.329 C 
ATOM      4  O   UNL A   1      33.548  30.173  26.147  1.00  0.00    -0.250 OA
BRANCH   3   5
ATOM      5  C   UNL A   1      31.955  28.655  25.081  1.00  0.00     0.196 C 
BRANCH   5   6
ATOM      6  N   UNL A   1      32.813  28.326  23.932  1.00  0.00    -0.324 N 
ATOM      7  N   UNL A   1      31.335  27.637  22.205  1.00  0.00    -0.308 N 
ATOM      8  C   UNL A   1      32.583  27.835  22.695  1.00  0.00     0.319 C 
ATOM      9  H   UNL A   1      31.273  26.931  21.522  1.00  0.00     0.171 HD
ATOM     10  O   UNL A   1      33.542  27.422  22.040  1.00  0.00    -0.248 OA
ATOM     11  H   UNL A   1      33.766  28.503  24.102  1.00  0.00     0.166 HD
BRANCH   7  12
ATOM     12  C   UNL A   1      30.122  28.262  22.502  1.00  0.00     0.044 A 
ATOM     13  C   UNL A   1      28.612  30.087  22.002  1.00  0.00     0.043 A 
ATOM     14  C   UNL A   1      27.615  29.415  22.724  1.00  0.00     0.026 A 
ATOM     15  C   UNL A   1      29.888  29.531  21.954  1.00  0.00     0.052 A 
ATOM     16  C   UNL A   1      27.883  28.211  23.377  1.00  0.00     0.004 A 
ATOM     17  C   UNL A   1      29.145  27.636  23.275  1.00  0.00     0.026 A 
BRANCH  13  18
ATOM     18  N   UNL A   1      28.227  31.288  21.376  1.00  0.00    -0.326 N 
ATOM     19  C   UNL A   1      28.822  33.050  23.053  1.00  0.00     0.114 C 
ATOM     20  C   UNL A   1      28.191  32.591  21.770  1.00  0.00     0.221 C 
ATOM     21  O   UNL A   1      27.675  33.415  21.008  1.00  0.00    -0.275 OA
ATOM     22  H   UNL A   1      27.916  31.157  20.451  1.00  0.00     0.169 HD
ENDBRANCH  13  18
ENDBRANCH   7  12
ENDBRANCH   5   6
BRANCH   5  23
ATOM     23  C   UNL A   1      31.804  27.525  26.131  1.00  0.00     0.017 C 
ATOM     24  C   UNL A   1      33.038  26.605  26.057  1.00  0.00     0.010 C 
ATOM     25  C   UNL A   1      31.668  28.018  27.572  1.00  0.00     0.010 C 
ENDBRANCH   5  23
ENDBRANCH   3   5
ENDBRANCH   2   3
ENDBRANCH   1   2
BRANCH   1  26
ATOM     26  C   UNL A   1      31.781  33.048  26.865  1.00  0.00     0.275 C 
BRANCH  26  27
ATOM     27  O   UNL A   1      33.084  33.093  27.466  1.00  0.00    -0.458 OA
BRANCH  27  28
ATOM     28  C   UNL A   1      33.269  34.043  28.413  1.00  0.00     0.338 C 
ATOM     29  O   UNL A   1      32.539  34.986  28.671  1.00  0.00    -0.246 OA
BRANCH  28  30
ATOM     30  C   UNL A   1      34.459  33.694  29.202  1.00  0.00     0.060 A 
ATOM     31  C   UNL A   1      35.681  34.292  28.877  1.00  0.00     0.016 A 
ATOM     32  C   UNL A   1      34.372  32.754  30.230  1.00  0.00     0.016 A 
ATOM     33  C   UNL A   1      36.837  33.924  29.559  1.00  0.00     0.010 A 
ATOM     34  C   UNL A   1      35.527  32.397  30.921  1.00  0.00     0.010 A 
ATOM     35  C   UNL A   1      36.766  32.962  30.572  1.00  0.00    -0.014 A 
BRANCH  35  36
ATOM     36  C   UNL A   1      37.992  32.471  31.235  1.00  0.00     0.031 A 
ATOM     37  C   UNL A   1      38.753  31.341  30.605  1.00  0.00     0.074 A 
ATOM     38  C   UNL A   1      38.367  32.983  32.421  1.00  0.00     0.049 A 
ATOM     39  N   UNL A   1      39.744  30.642  31.091  1.00  0.00    -0.248 NA
ATOM     40  C   UNL A   1      38.327  30.932  29.257  1.00  0.00     0.031 C 
ATOM     41  C   UNL A   1      37.698  34.083  33.115  1.00  0.00     0.029 A 
ATOM     42  N   UNL A   1      39.377  32.611  33.269  1.00  0.00    -0.354 N 
ATOM     43  C   UNL A   1      40.029  29.679  30.131  1.00  0.00     0.074 A 
ATOM     44  C   UNL A   1      39.103  29.880  29.037  1.00  0.00     0.031 C 
ATOM     45  C   UNL A   1      38.292  34.272  34.304  1.00  0.00     0.029 A 
ATOM     46  C   UNL A   1      39.354  33.283  34.468  1.00  0.00     0.049 A 
ATOM     47  H   UNL A   1      40.052  31.931  33.042  1.00  0.00     0.167 HD
ATOM     48  C   UNL A   1      40.984  28.721  30.157  1.00  0.00     0.034 A 
ATOM     49  C   UNL A   1      40.082  33.091  35.584  1.00  0.00     0.034 A 
ATOM     50  C   UNL A   1      41.916  28.553  31.239  1.00  0.00     0.049 A 
ATOM     51  C   UNL A   1      41.132  32.011  35.592  1.00  0.00     0.074 A 
ATOM     52  C   UNL A   1      42.959  27.650  31.344  1.00  0.00     0.029 A 
ATOM     53  N   UNL A   1      41.914  29.300  32.407  1.00  0.00    -0.354 N 
ATOM     54  N   UNL A   1      41.462  31.172  34.639  1.00  0.00    -0.248 NA
ATOM     55  C   UNL A   1      41.932  31.871  36.817  1.00  0.00     0.031 C 
ATOM     56  C   UNL A   1      43.569  27.832  32.590  1.00  0.00     0.029 A 
ATOM     57  C   UNL A   1      42.930  28.873  33.245  1.00  0.00     0.049 A 
ATOM     58  H   UNL A   1      41.282  30.027  32.611  1.00  0.00     0.167 HD
ATOM     59  C   UNL A   1      42.532  30.434  35.133  1.00  0.00     0.074 A 
ATOM     60  C   UNL A   1      42.804  30.937  36.464  1.00  0.00     0.031 C 
ATOM     61  C   UNL A   1      43.222  29.427  34.542  1.00  0.00     0.034 A 
BRANCH  48  62
ATOM     62  C   UNL A   1      41.079  27.792  28.976  1.00  0.00     0.023 A 
ATOM     63  C   UNL A   1      40.190  26.704  28.865  1.00  0.00     0.012 A 
ATOM     64  C   UNL A   1      42.016  28.026  27.950  1.00  0.00     0.148 A 
ATOM     65  C   UNL A   1      40.255  25.842  27.772  1.00  0.00     0.002 A 
ATOM     66  C   UNL A   1      42.043  27.190  26.840  1.00  0.00     0.091 A 
ATOM     67  F   UNL A   1      42.869  29.051  28.083  1.00  0.00    -0.205 F 
ATOM     68  C   UNL A   1      41.173  26.091  26.755  1.00  0.00     0.022 A 
BRANCH  66  69
ATOM     69  S   UNL A   1      43.134  27.473  25.440  1.00  0.00     0.127 S 
ATOM     70  O   UNL A   1      43.405  26.107  24.995  1.00  0.00    -0.237 OA
ATOM     71  O   UNL A   1      42.282  28.250  24.539  1.00  0.00    -0.237 OA
ATOM     72  O   UNL A   1      44.283  28.198  25.965  1.00  0.00    -0.744 OA
ENDBRANCH  66  69
ENDBRANCH  48  62
BRANCH  49  73
ATOM     73  C   UNL A   1      39.866  33.961  36.774  1.00  0.00     0.023 A 
ATOM     74  C   UNL A   1      40.280  35.307  36.728  1.00  0.00     0.012 A 
ATOM     75  C   UNL A   1      39.235  33.476  37.935  1.00  0.00     0.148 A 
ATOM     76  C   UNL A   1      40.100  36.143  37.829  1.00  0.00     0.002 A 
ATOM     77  C   UNL A   1      39.009  34.329  39.008  1.00  0.00     0.091 A 
ATOM     78  F   UNL A   1      38.857  32.190  37.963  1.00  0.00    -0.205 F 
ATOM     79  C   UNL A   1      39.457  35.658  38.965  1.00  0.00     0.022 A 
BRANCH  77  80
ATOM     80  S   UNL A   1      38.079  33.830  40.462  1.00  0.00     0.127 S 
ATOM     81  O   UNL A   1      38.992  32.881  41.091  1.00  0.00    -0.237 OA
ATOM     82  O   UNL A   1      37.925  35.101  41.172  1.00  0.00    -0.237 OA
ATOM     83  O   UNL A   1      36.832  33.268  39.960  1.00  0.00    -0.744 OA
ENDBRANCH  77  80
ENDBRANCH  49  73
BRANCH  61  84
ATOM     84  C   UNL A   1      44.378  28.831  35.304  1.00  0.00     0.023 A 
ATOM     85  C   UNL A   1      45.694  29.255  35.037  1.00  0.00     0.012 A 
ATOM     86  C   UNL A   1      44.145  27.907  36.343  1.00  0.00     0.148 A 
ATOM     87  C   UNL A   1      46.764  28.745  35.771  1.00  0.00     0.002 A 
ATOM     88  C   UNL A   1      45.210  27.444  37.104  1.00  0.00     0.091 A 
ATOM     89  F   UNL A   1      42.886  27.503  36.568  1.00  0.00    -0.205 F 
ATOM     90  C   UNL A   1      46.521  27.850  36.810  1.00  0.00     0.022 A 
BRANCH  88  91
ATOM     91  S   UNL A   1      44.981  26.369  38.525  1.00  0.00     0.127 S 
ATOM     92  O   UNL A   1      45.456  25.086  38.009  1.00  0.00    -0.237 OA
ATOM     93  O   UNL A   1      45.857  26.986  39.523  1.00  0.00    -0.237 OA
ATOM     94  O   UNL A   1      43.563  26.425  38.849  1.00  0.00    -0.744 OA
ENDBRANCH  88  91
ENDBRANCH  61  84
ENDBRANCH  35  36
ENDBRANCH  28  30
ENDBRANCH  27  28
ENDBRANCH  26  27
ENDBRANCH   1  26
TORSDOF 18
ENDMDL
