MODEL 1
REMARK VINA RESULT:     -11.6      0.000      0.000
REMARK SMILES C[C@]1(C(=O)OCCOC(=O)c2ccc(-c3c4nc(c(-c5cccc(S(=O)(=O)[O-])c5F)c5ccc([nH]5)c(-c5cccc(S(=O)(=O)[O-])c5F)c5nc(c(-c6cccc(S(=O)(=O)[O-])c6F)c6ccc3[nH]6)C=C5)C=C4)cc2)COC[C@@H]1NC(=O)[C@H]1C=C[C@@H]([NH3+])C1
REMARK SMILES IDX 6 1 5 2 3 3 4 4 2 5 1 6 74 7 77 8 75 9 76 10 78 11 79 12
REMARK SMILES IDX 80 14 81 15 82 16 86 17 83 18 84 19 85 20 7 24 8 25 9 26
REMARK SMILES IDX 10 27 11 28 12 29 73 30 13 31 72 32 14 33 15 34 16 35 66 36
REMARK SMILES IDX 17 37 71 38 65 39 67 40 18 41 70 42 64 43 63 44 19 46 51 47
REMARK SMILES IDX 31 48 50 49 32 50 35 51 49 52 68 53 33 54 34 55 48 57 69 58
REMARK SMILES IDX 36 59 20 60 21 61 29 62 22 63 24 64 30 65 23 66 25 67 26 68
REMARK SMILES IDX 27 69 28 70 52 71 53 72 61 73 54 74 56 75 62 76 55 77 57 78
REMARK SMILES IDX 58 79 59 80 60 81 37 82 38 83 46 84 39 85 41 86 47 87 40 88
REMARK SMILES IDX 42 89 43 90 44 91 45 92
REMARK H PARENT 78 13 85 21 85 22 85 23 67 45 35 56
REMARK Flexibility Score: inf
ROOT
ATOM      1  C   UNL A   1      36.603  23.131  23.792  1.00  0.00     0.274 C 
ENDROOT
BRANCH   1   2
ATOM      2  O   UNL A   1      35.314  23.563  24.285  1.00  0.00    -0.462 OA
BRANCH   2   3
ATOM      3  C   UNL A   1      34.423  23.987  23.341  1.00  0.00     0.316 C 
ATOM      4  O   UNL A   1      34.417  23.589  22.184  1.00  0.00    -0.251 OA
BRANCH   3   5
ATOM      5  C   UNL A   1      33.516  25.099  23.877  1.00  0.00     0.111 C 
ATOM      6  C   UNL A   1      34.044  25.429  25.277  1.00  0.00     0.028 C 
ATOM      7  C   UNL A   1      33.614  26.312  22.954  1.00  0.00     0.181 C 
ATOM      8  C   UNL A   1      32.034  24.710  23.790  1.00  0.00     0.127 C 
ATOM      9  O   UNL A   1      32.465  26.337  22.098  1.00  0.00    -0.378 OA
ATOM     10  C   UNL A   1      31.462  25.452  22.596  1.00  0.00     0.186 C 
BRANCH   8  11
ATOM     11  N   UNL A   1      31.260  24.759  25.034  1.00  0.00    -0.349 N 
ATOM     12  C   UNL A   1      30.938  23.987  26.091  1.00  0.00     0.227 C 
ATOM     13  H   UNL A   1      30.837  25.643  25.127  1.00  0.00     0.163 HD
ATOM     14  O   UNL A   1      30.070  24.499  26.820  1.00  0.00    -0.274 OA
BRANCH  12  15
ATOM     15  C   UNL A   1      31.441  22.574  26.445  1.00  0.00     0.107 C 
ATOM     16  C   UNL A   1      32.060  21.634  25.472  1.00  0.00    -0.012 C 
ATOM     17  C   UNL A   1      32.573  22.737  27.498  1.00  0.00     0.087 C 
ATOM     18  C   UNL A   1      33.268  21.200  25.840  1.00  0.00     0.033 C 
ATOM     19  C   UNL A   1      33.683  21.734  27.160  1.00  0.00     0.205 C 
BRANCH  19  20
ATOM     20  N   UNL A   1      34.991  22.361  27.103  1.00  0.00    -0.352 N 
ATOM     21  H   UNL A   1      35.208  22.778  28.008  1.00  0.00     0.345 HD
ATOM     22  H   UNL A   1      34.989  23.086  26.386  1.00  0.00     0.345 HD
ATOM     23  H   UNL A   1      35.695  21.659  26.874  1.00  0.00     0.345 HD
ENDBRANCH  19  20
ENDBRANCH  12  15
ENDBRANCH   8  11
ENDBRANCH   3   5
ENDBRANCH   2   3
ENDBRANCH   1   2
BRANCH   1  24
ATOM     24  C   UNL A   1      36.842  21.664  24.130  1.00  0.00     0.275 C 
BRANCH  24  25
ATOM     25  O   UNL A   1      37.163  21.547  25.525  1.00  0.00    -0.458 OA
BRANCH  25  26
ATOM     26  C   UNL A   1      38.461  21.299  25.810  1.00  0.00     0.338 C 
ATOM     27  O   UNL A   1      39.096  20.294  25.537  1.00  0.00    -0.246 OA
BRANCH  26  28
ATOM     28  C   UNL A   1      39.062  22.469  26.476  1.00  0.00     0.060 A 
ATOM     29  C   UNL A   1      38.519  23.738  26.285  1.00  0.00     0.016 A 
ATOM     30  C   UNL A   1      40.262  22.319  27.170  1.00  0.00     0.016 A 
ATOM     31  C   UNL A   1      39.238  24.867  26.678  1.00  0.00     0.010 A 
ATOM     32  C   UNL A   1      40.919  23.449  27.666  1.00  0.00     0.010 A 
ATOM     33  C   UNL A   1      40.442  24.742  27.384  1.00  0.00    -0.014 A 
BRANCH  33  34
ATOM     34  C   UNL A   1      41.217  25.944  27.809  1.00  0.00     0.031 A 
ATOM     35  C   UNL A   1      40.569  27.010  28.660  1.00  0.00     0.074 A 
ATOM     36  C   UNL A   1      42.496  26.107  27.412  1.00  0.00     0.049 A 
ATOM     37  N   UNL A   1      40.995  28.213  28.944  1.00  0.00    -0.248 NA
ATOM     38  C   UNL A   1      39.261  26.687  29.255  1.00  0.00     0.031 C 
ATOM     39  C   UNL A   1      43.261  25.156  26.604  1.00  0.00     0.029 A 
ATOM     40  N   UNL A   1      43.375  27.141  27.624  1.00  0.00    -0.354 N 
ATOM     41  C   UNL A   1      39.977  28.820  29.671  1.00  0.00     0.074 A 
ATOM     42  C   UNL A   1      38.917  27.844  29.804  1.00  0.00     0.031 C 
ATOM     43  C   UNL A   1      44.497  25.636  26.408  1.00  0.00     0.029 A 
ATOM     44  C   UNL A   1      44.589  26.966  26.999  1.00  0.00     0.049 A 
ATOM     45  H   UNL A   1      43.158  27.932  28.170  1.00  0.00     0.167 HD
ATOM     46  C   UNL A   1      39.931  30.071  30.188  1.00  0.00     0.034 A 
ATOM     47  C   UNL A   1      45.645  27.794  26.871  1.00  0.00     0.034 A 
ATOM     48  C   UNL A   1      41.022  31.008  30.141  1.00  0.00     0.049 A 
ATOM     49  C   UNL A   1      45.579  29.166  27.478  1.00  0.00     0.074 A 
ATOM     50  C   UNL A   1      41.084  32.283  30.677  1.00  0.00     0.029 A 
ATOM     51  N   UNL A   1      42.249  30.765  29.544  1.00  0.00    -0.354 N 
ATOM     52  N   UNL A   1      44.618  29.709  28.184  1.00  0.00    -0.248 NA
ATOM     53  C   UNL A   1      46.744  30.038  27.273  1.00  0.00     0.031 C 
ATOM     54  C   UNL A   1      42.352  32.811  30.407  1.00  0.00     0.029 A 
ATOM     55  C   UNL A   1      43.078  31.862  29.705  1.00  0.00     0.049 A 
ATOM     56  H   UNL A   1      42.495  29.935  29.077  1.00  0.00     0.167 HD
ATOM     57  C   UNL A   1      45.067  30.982  28.519  1.00  0.00     0.074 A 
ATOM     58  C   UNL A   1      46.399  31.115  27.966  1.00  0.00     0.031 C 
ATOM     59  C   UNL A   1      44.422  31.961  29.198  1.00  0.00     0.034 A 
BRANCH  46  60
ATOM     60  C   UNL A   1      38.668  30.499  30.888  1.00  0.00     0.023 A 
ATOM     61  C   UNL A   1      38.523  30.268  32.269  1.00  0.00     0.012 A 
ATOM     62  C   UNL A   1      37.657  31.193  30.192  1.00  0.00     0.148 A 
ATOM     63  C   UNL A   1      37.382  30.702  32.944  1.00  0.00     0.002 A 
ATOM     64  C   UNL A   1      36.539  31.654  30.879  1.00  0.00     0.091 A 
ATOM     65  F   UNL A   1      37.800  31.380  28.871  1.00  0.00    -0.205 F 
ATOM     66  C   UNL A   1      36.397  31.403  32.252  1.00  0.00     0.022 A 
BRANCH  64  67
ATOM     67  S   UNL A   1      35.258  32.628  30.079  1.00  0.00     0.127 S 
ATOM     68  O   UNL A   1      36.019  33.778  29.593  1.00  0.00    -0.237 OA
ATOM     69  O   UNL A   1      34.785  31.724  29.030  1.00  0.00    -0.237 OA
ATOM     70  O   UNL A   1      34.275  32.913  31.116  1.00  0.00    -0.744 OA
ENDBRANCH  64  67
ENDBRANCH  46  60
BRANCH  47  71
ATOM     71  C   UNL A   1      46.860  27.328  26.146  1.00  0.00     0.023 A 
ATOM     72  C   UNL A   1      47.002  27.627  24.778  1.00  0.00     0.012 A 
ATOM     73  C   UNL A   1      47.901  26.650  26.811  1.00  0.00     0.148 A 
ATOM     74  C   UNL A   1      48.153  27.252  24.085  1.00  0.00     0.002 A 
ATOM     75  C   UNL A   1      49.070  26.336  26.130  1.00  0.00     0.091 A 
ATOM     76  F   UNL A   1      47.738  26.345  28.108  1.00  0.00    -0.205 F 
ATOM     77  C   UNL A   1      49.193  26.623  24.763  1.00  0.00     0.022 A 
BRANCH  75  78
ATOM     78  S   UNL A   1      50.507  25.675  26.982  1.00  0.00     0.127 S 
ATOM     79  O   UNL A   1      51.506  25.657  25.917  1.00  0.00    -0.237 OA
ATOM     80  O   UNL A   1      50.739  26.674  28.028  1.00  0.00    -0.237 OA
ATOM     81  O   UNL A   1      50.084  24.376  27.488  1.00  0.00    -0.744 OA
ENDBRANCH  75  78
ENDBRANCH  47  71
BRANCH  59  82
ATOM     82  C   UNL A   1      45.151  33.262  29.395  1.00  0.00     0.023 A 
ATOM     83  C   UNL A   1      46.014  33.407  30.499  1.00  0.00     0.012 A 
ATOM     84  C   UNL A   1      45.037  34.308  28.461  1.00  0.00     0.148 A 
ATOM     85  C   UNL A   1      46.734  34.586  30.683  1.00  0.00     0.002 A 
ATOM     86  C   UNL A   1      45.787  35.466  28.631  1.00  0.00     0.091 A 
ATOM     87  F   UNL A   1      44.191  34.159  27.431  1.00  0.00    -0.205 F 
ATOM     88  C   UNL A   1      46.630  35.610  29.745  1.00  0.00     0.022 A 
BRANCH  86  89
ATOM     89  S   UNL A   1      45.767  36.797  27.425  1.00  0.00     0.127 S 
ATOM     90  O   UNL A   1      46.517  36.209  26.317  1.00  0.00    -0.237 OA
ATOM     91  O   UNL A   1      44.338  36.972  27.168  1.00  0.00    -0.237 OA
ATOM     92  O   UNL A   1      46.400  37.934  28.083  1.00  0.00    -0.744 OA
ENDBRANCH  86  89
ENDBRANCH  59  82
ENDBRANCH  33  34
ENDBRANCH  26  28
ENDBRANCH  25  26
ENDBRANCH  24  25
ENDBRANCH   1  24
TORSDOF 17
ENDMDL
MODEL 2
REMARK VINA RESULT:     -11.5      5.176      9.816
REMARK SMILES C[C@]1(C(=O)OCCOC(=O)c2ccc(-c3c4nc(c(-c5cccc(S(=O)(=O)[O-])c5F)c5ccc([nH]5)c(-c5cccc(S(=O)(=O)[O-])c5F)c5nc(c(-c6cccc(S(=O)(=O)[O-])c6F)c6ccc3[nH]6)C=C5)C=C4)cc2)COC[C@@H]1NC(=O)[C@H]1C=C[C@@H]([NH3+])C1
REMARK SMILES IDX 6 1 5 2 3 3 4 4 2 5 1 6 74 7 77 8 75 9 76 10 78 11 79 12
REMARK SMILES IDX 80 14 81 15 82 16 86 17 83 18 84 19 85 20 7 24 8 25 9 26
REMARK SMILES IDX 10 27 11 28 12 29 73 30 13 31 72 32 14 33 15 34 16 35 66 36
REMARK SMILES IDX 17 37 71 38 65 39 67 40 18 41 70 42 64 43 63 44 19 46 51 47
REMARK SMILES IDX 31 48 50 49 32 50 35 51 49 52 68 53 33 54 34 55 48 57 69 58
REMARK SMILES IDX 36 59 20 60 21 61 29 62 22 63 24 64 30 65 23 66 25 67 26 68
REMARK SMILES IDX 27 69 28 70 52 71 53 72 61 73 54 74 56 75 62 76 55 77 57 78
REMARK SMILES IDX 58 79 59 80 60 81 37 82 38 83 46 84 39 85 41 86 47 87 40 88
REMARK SMILES IDX 42 89 43 90 44 91 45 92
REMARK H PARENT 78 13 85 21 85 22 85 23 67 45 35 56
REMARK Flexibility Score: inf
ROOT
ATOM      1  C   UNL A   1      31.787  28.780  27.253  1.00  0.00     0.274 C 
ENDROOT
BRANCH   1   2
ATOM      2  O   UNL A   1      32.111  27.887  26.163  1.00  0.00    -0.462 OA
BRANCH   2   3
ATOM      3  C   UNL A   1      31.112  27.047  25.761  1.00  0.00     0.316 C 
ATOM      4  O   UNL A   1      30.514  26.292  26.515  1.00  0.00    -0.251 OA
BRANCH   3   5
ATOM      5  C   UNL A   1      30.920  27.083  24.241  1.00  0.00     0.111 C 
ATOM      6  C   UNL A   1      30.117  25.826  23.893  1.00  0.00     0.028 C 
ATOM      7  C   UNL A   1      30.149  28.347  23.865  1.00  0.00     0.181 C 
ATOM      8  C   UNL A   1      32.256  27.255  23.507  1.00  0.00     0.127 C 
ATOM      9  O   UNL A   1      31.074  29.323  23.369  1.00  0.00    -0.378 OA
ATOM     10  C   UNL A   1      32.325  28.706  23.068  1.00  0.00     0.186 C 
BRANCH   8  11
ATOM     11  N   UNL A   1      32.597  26.242  22.502  1.00  0.00    -0.349 N 
ATOM     12  C   UNL A   1      33.266  25.079  22.383  1.00  0.00     0.227 C 
ATOM     13  H   UNL A   1      32.213  26.495  21.632  1.00  0.00     0.163 HD
ATOM     14  O   UNL A   1      33.382  24.704  21.203  1.00  0.00    -0.274 OA
BRANCH  12  15
ATOM     15  C   UNL A   1      33.939  24.233  23.481  1.00  0.00     0.107 C 
ATOM     16  C   UNL A   1      34.591  24.797  24.694  1.00  0.00    -0.012 C 
ATOM     17  C   UNL A   1      32.844  23.320  24.100  1.00  0.00     0.087 C 
ATOM     18  C   UNL A   1      34.111  24.303  25.839  1.00  0.00     0.033 C 
ATOM     19  C   UNL A   1      33.067  23.273  25.617  1.00  0.00     0.205 C 
BRANCH  19  20
ATOM     20  N   UNL A   1      31.854  23.564  26.359  1.00  0.00    -0.352 N 
ATOM     21  H   UNL A   1      31.052  23.171  25.867  1.00  0.00     0.345 HD
ATOM     22  H   UNL A   1      31.741  24.574  26.442  1.00  0.00     0.345 HD
ATOM     23  H   UNL A   1      31.918  23.152  27.290  1.00  0.00     0.345 HD
ENDBRANCH  19  20
ENDBRANCH  12  15
ENDBRANCH   8  11
ENDBRANCH   3   5
ENDBRANCH   2   3
ENDBRANCH   1   2
BRANCH   1  24
ATOM     24  C   UNL A   1      31.843  30.232  26.791  1.00  0.00     0.275 C 
BRANCH  24  25
ATOM     25  O   UNL A   1      33.207  30.590  26.522  1.00  0.00    -0.458 OA
BRANCH  25  26
ATOM     26  C   UNL A   1      33.742  31.522  27.342  1.00  0.00     0.338 C 
ATOM     27  O   UNL A   1      33.209  32.542  27.745  1.00  0.00    -0.246 OA
BRANCH  26  28
ATOM     28  C   UNL A   1      35.096  31.109  27.756  1.00  0.00     0.060 A 
ATOM     29  C   UNL A   1      35.370  29.767  28.013  1.00  0.00     0.016 A 
ATOM     30  C   UNL A   1      36.053  32.084  28.035  1.00  0.00     0.016 A 
ATOM     31  C   UNL A   1      36.551  29.412  28.666  1.00  0.00     0.010 A 
ATOM     32  C   UNL A   1      37.284  31.708  28.581  1.00  0.00     0.010 A 
ATOM     33  C   UNL A   1      37.531  30.373  28.949  1.00  0.00    -0.014 A 
BRANCH  33  34
ATOM     34  C   UNL A   1      38.798  30.002  29.646  1.00  0.00     0.031 A 
ATOM     35  C   UNL A   1      39.755  29.017  29.019  1.00  0.00     0.074 A 
ATOM     36  C   UNL A   1      39.087  30.520  30.858  1.00  0.00     0.049 A 
ATOM     37  N   UNL A   1      40.781  28.407  29.554  1.00  0.00    -0.248 NA
ATOM     38  C   UNL A   1      39.516  28.657  27.611  1.00  0.00     0.031 C 
ATOM     39  C   UNL A   1      38.269  31.495  31.581  1.00  0.00     0.029 A 
ATOM     40  N   UNL A   1      40.144  30.286  31.703  1.00  0.00    -0.354 N 
ATOM     41  C   UNL A   1      41.254  27.530  28.585  1.00  0.00     0.074 A 
ATOM     42  C   UNL A   1      40.415  27.701  27.418  1.00  0.00     0.031 C 
ATOM     43  C   UNL A   1      38.862  31.794  32.745  1.00  0.00     0.029 A 
ATOM     44  C   UNL A   1      40.055  30.969  32.895  1.00  0.00     0.049 A 
ATOM     45  H   UNL A   1      40.893  29.687  31.479  1.00  0.00     0.167 HD
ATOM     46  C   UNL A   1      42.296  26.667  28.655  1.00  0.00     0.034 A 
ATOM     47  C   UNL A   1      40.816  30.911  34.006  1.00  0.00     0.034 A 
ATOM     48  C   UNL A   1      43.190  26.566  29.778  1.00  0.00     0.049 A 
ATOM     49  C   UNL A   1      41.982  29.966  34.048  1.00  0.00     0.074 A 
ATOM     50  C   UNL A   1      44.301  25.752  29.921  1.00  0.00     0.029 A 
ATOM     51  N   UNL A   1      43.091  27.316  30.939  1.00  0.00    -0.354 N 
ATOM     52  N   UNL A   1      42.429  29.166  33.111  1.00  0.00    -0.248 NA
ATOM     53  C   UNL A   1      42.752  29.918  35.299  1.00  0.00     0.031 C 
ATOM     54  C   UNL A   1      44.877  26.013  31.170  1.00  0.00     0.029 A 
ATOM     55  C   UNL A   1      44.124  26.991  31.801  1.00  0.00     0.049 A 
ATOM     56  H   UNL A   1      42.390  27.982  31.122  1.00  0.00     0.167 HD
ATOM     57  C   UNL A   1      43.538  28.528  33.653  1.00  0.00     0.074 A 
ATOM     58  C   UNL A   1      43.715  29.060  34.989  1.00  0.00     0.031 C 
ATOM     59  C   UNL A   1      44.322  27.568  33.105  1.00  0.00     0.034 A 
BRANCH  46  60
ATOM     60  C   UNL A   1      42.557  25.779  27.467  1.00  0.00     0.023 A 
ATOM     61  C   UNL A   1      43.325  26.262  26.390  1.00  0.00     0.012 A 
ATOM     62  C   UNL A   1      42.104  24.444  27.450  1.00  0.00     0.148 A 
ATOM     63  C   UNL A   1      43.620  25.437  25.305  1.00  0.00     0.002 A 
ATOM     64  C   UNL A   1      42.432  23.618  26.381  1.00  0.00     0.091 A 
ATOM     65  F   UNL A   1      41.351  24.010  28.472  1.00  0.00    -0.205 F 
ATOM     66  C   UNL A   1      43.183  24.115  25.305  1.00  0.00     0.022 A 
BRANCH  64  67
ATOM     67  S   UNL A   1      41.971  21.881  26.336  1.00  0.00     0.127 S 
ATOM     68  O   UNL A   1      40.548  21.960  26.012  1.00  0.00    -0.237 OA
ATOM     69  O   UNL A   1      42.813  21.361  25.257  1.00  0.00    -0.237 OA
ATOM     70  O   UNL A   1      42.292  21.354  27.656  1.00  0.00    -0.744 OA
ENDBRANCH  64  67
ENDBRANCH  46  60
BRANCH  47  71
ATOM     71  C   UNL A   1      40.497  31.794  35.163  1.00  0.00     0.023 A 
ATOM     72  C   UNL A   1      41.272  32.948  35.382  1.00  0.00     0.012 A 
ATOM     73  C   UNL A   1      39.397  31.535  36.005  1.00  0.00     0.148 A 
ATOM     74  C   UNL A   1      40.964  33.823  36.425  1.00  0.00     0.002 A 
ATOM     75  C   UNL A   1      39.058  32.443  37.001  1.00  0.00     0.091 A 
ATOM     76  F   UNL A   1      38.686  30.416  35.802  1.00  0.00    -0.205 F 
ATOM     77  C   UNL A   1      39.849  33.580  37.222  1.00  0.00     0.022 A 
BRANCH  75  78
ATOM     78  S   UNL A   1      37.544  32.275  37.953  1.00  0.00     0.127 S 
ATOM     79  O   UNL A   1      37.374  30.826  37.994  1.00  0.00    -0.237 OA
ATOM     80  O   UNL A   1      37.909  32.889  39.232  1.00  0.00    -0.237 OA
ATOM     81  O   UNL A   1      36.540  33.020  37.206  1.00  0.00    -0.744 OA
ENDBRANCH  75  78
ENDBRANCH  47  71
BRANCH  59  82
ATOM     82  C   UNL A   1      45.453  27.037  33.941  1.00  0.00     0.023 A 
ATOM     83  C   UNL A   1      46.708  27.673  33.886  1.00  0.00     0.012 A 
ATOM     84  C   UNL A   1      45.259  25.960  34.826  1.00  0.00     0.148 A 
ATOM     85  C   UNL A   1      47.762  27.228  34.682  1.00  0.00     0.002 A 
ATOM     86  C   UNL A   1      46.305  25.546  35.644  1.00  0.00     0.091 A 
ATOM     87  F   UNL A   1      44.064  25.352  34.846  1.00  0.00    -0.205 F 
ATOM     88  C   UNL A   1      47.558  26.174  35.568  1.00  0.00     0.022 A 
BRANCH  86  89
ATOM     89  S   UNL A   1      46.097  24.247  36.867  1.00  0.00     0.127 S 
ATOM     90  O   UNL A   1      45.769  23.095  36.029  1.00  0.00    -0.237 OA
ATOM     91  O   UNL A   1      47.417  24.187  37.496  1.00  0.00    -0.237 OA
ATOM     92  O   UNL A   1      45.034  24.706  37.753  1.00  0.00    -0.744 OA
ENDBRANCH  86  89
ENDBRANCH  59  82
ENDBRANCH  33  34
ENDBRANCH  26  28
ENDBRANCH  25  26
ENDBRANCH  24  25
ENDBRANCH   1  24
TORSDOF 17
ENDMDL
MODEL 3
REMARK VINA RESULT:     -11.5      1.790      2.604
REMARK SMILES C[C@]1(C(=O)OCCOC(=O)c2ccc(-c3c4nc(c(-c5cccc(S(=O)(=O)[O-])c5F)c5ccc([nH]5)c(-c5cccc(S(=O)(=O)[O-])c5F)c5nc(c(-c6cccc(S(=O)(=O)[O-])c6F)c6ccc3[nH]6)C=C5)C=C4)cc2)COC[C@@H]1NC(=O)[C@H]1C=C[C@@H]([NH3+])C1
REMARK SMILES IDX 6 1 5 2 3 3 4 4 2 5 1 6 74 7 77 8 75 9 76 10 78 11 79 12
REMARK SMILES IDX 80 14 81 15 82 16 86 17 83 18 84 19 85 20 7 24 8 25 9 26
REMARK SMILES IDX 10 27 11 28 12 29 73 30 13 31 72 32 14 33 15 34 16 35 66 36
REMARK SMILES IDX 17 37 71 38 65 39 67 40 18 41 70 42 64 43 63 44 19 46 51 47
REMARK SMILES IDX 31 48 50 49 32 50 35 51 49 52 68 53 33 54 34 55 48 57 69 58
REMARK SMILES IDX 36 59 20 60 21 61 29 62 22 63 24 64 30 65 23 66 25 67 26 68
REMARK SMILES IDX 27 69 28 70 52 71 53 72 61 73 54 74 56 75 62 76 55 77 57 78
REMARK SMILES IDX 58 79 59 80 60 81 37 82 38 83 46 84 39 85 41 86 47 87 40 88
REMARK SMILES IDX 42 89 43 90 44 91 45 92
REMARK H PARENT 78 13 85 21 85 22 85 23 67 45 35 56
REMARK Flexibility Score: inf
ROOT
ATOM      1  C   UNL A   1      36.097  20.155  25.001  1.00  0.00     0.274 C 
ENDROOT
BRANCH   1   2
ATOM      2  O   UNL A   1      35.253  21.135  25.646  1.00  0.00    -0.462 OA
BRANCH   2   3
ATOM      3  C   UNL A   1      34.193  21.587  24.914  1.00  0.00     0.316 C 
ATOM      4  O   UNL A   1      33.476  20.863  24.236  1.00  0.00    -0.251 OA
BRANCH   3   5
ATOM      5  C   UNL A   1      34.087  23.115  24.955  1.00  0.00     0.111 C 
ATOM      6  C   UNL A   1      34.543  23.528  26.358  1.00  0.00     0.028 C 
ATOM      7  C   UNL A   1      35.002  23.708  23.885  1.00  0.00     0.181 C 
ATOM      8  C   UNL A   1      32.693  23.596  24.530  1.00  0.00     0.127 C 
ATOM      9  O   UNL A   1      34.209  24.083  22.752  1.00  0.00    -0.378 OA
ATOM     10  C   UNL A   1      32.826  24.104  23.106  1.00  0.00     0.186 C 
BRANCH   8  11
ATOM     11  N   UNL A   1      31.969  24.453  25.474  1.00  0.00    -0.349 N 
ATOM     12  C   UNL A   1      31.876  25.744  25.846  1.00  0.00     0.227 C 
ATOM     13  H   UNL A   1      31.350  23.907  26.010  1.00  0.00     0.163 HD
ATOM     14  O   UNL A   1      31.182  25.907  26.865  1.00  0.00    -0.274 OA
BRANCH  12  15
ATOM     15  C   UNL A   1      32.560  26.980  25.231  1.00  0.00     0.107 C 
ATOM     16  C   UNL A   1      31.862  28.255  24.913  1.00  0.00    -0.012 C 
ATOM     17  C   UNL A   1      33.651  27.452  26.232  1.00  0.00     0.087 C 
ATOM     18  C   UNL A   1      32.417  29.327  25.486  1.00  0.00     0.033 C 
ATOM     19  C   UNL A   1      33.629  28.986  26.270  1.00  0.00     0.205 C 
BRANCH  19  20
ATOM     20  N   UNL A   1      33.557  29.500  27.626  1.00  0.00    -0.352 N 
ATOM     21  H   UNL A   1      32.842  30.224  27.677  1.00  0.00     0.345 HD
ATOM     22  H   UNL A   1      34.460  29.894  27.888  1.00  0.00     0.345 HD
ATOM     23  H   UNL A   1      33.319  28.741  28.265  1.00  0.00     0.345 HD
ENDBRANCH  19  20
ENDBRANCH  12  15
ENDBRANCH   8  11
ENDBRANCH   3   5
ENDBRANCH   2   3
ENDBRANCH   1   2
BRANCH   1  24
ATOM     24  C   UNL A   1      37.438  20.772  24.616  1.00  0.00     0.275 C 
BRANCH  24  25
ATOM     25  O   UNL A   1      37.835  21.708  25.629  1.00  0.00    -0.458 OA
BRANCH  25  26
ATOM     26  C   UNL A   1      39.067  21.519  26.153  1.00  0.00     0.338 C 
ATOM     27  O   UNL A   1      39.748  20.509  26.087  1.00  0.00    -0.246 OA
BRANCH  26  28
ATOM     28  C   UNL A   1      39.536  22.758  26.799  1.00  0.00     0.060 A 
ATOM     29  C   UNL A   1      38.958  23.982  26.466  1.00  0.00     0.016 A 
ATOM     30  C   UNL A   1      40.658  22.717  27.626  1.00  0.00     0.016 A 
ATOM     31  C   UNL A   1      39.575  25.171  26.856  1.00  0.00     0.010 A 
ATOM     32  C   UNL A   1      41.202  23.910  28.112  1.00  0.00     0.010 A 
ATOM     33  C   UNL A   1      40.699  25.155  27.694  1.00  0.00    -0.014 A 
BRANCH  33  34
ATOM     34  C   UNL A   1      41.365  26.421  28.117  1.00  0.00     0.031 A 
ATOM     35  C   UNL A   1      40.594  27.473  28.878  1.00  0.00     0.074 A 
ATOM     36  C   UNL A   1      42.655  26.654  27.798  1.00  0.00     0.049 A 
ATOM     37  N   UNL A   1      40.923  28.712  29.138  1.00  0.00    -0.248 NA
ATOM     38  C   UNL A   1      39.272  27.087  29.399  1.00  0.00     0.031 C 
ATOM     39  C   UNL A   1      43.532  25.725  27.082  1.00  0.00     0.029 A 
ATOM     40  N   UNL A   1      43.450  27.751  28.023  1.00  0.00    -0.354 N 
ATOM     41  C   UNL A   1      39.821  29.277  29.770  1.00  0.00     0.074 A 
ATOM     42  C   UNL A   1      38.818  28.239  29.875  1.00  0.00     0.031 C 
ATOM     43  C   UNL A   1      44.746  26.279  26.947  1.00  0.00     0.029 A 
ATOM     44  C   UNL A   1      44.712  27.633  27.486  1.00  0.00     0.049 A 
ATOM     45  H   UNL A   1      43.147  28.545  28.519  1.00  0.00     0.167 HD
ATOM     46  C   UNL A   1      39.660  30.541  30.229  1.00  0.00     0.034 A 
ATOM     47  C   UNL A   1      45.719  28.524  27.392  1.00  0.00     0.034 A 
ATOM     48  C   UNL A   1      40.690  31.546  30.214  1.00  0.00     0.049 A 
ATOM     49  C   UNL A   1      45.525  29.911  27.934  1.00  0.00     0.074 A 
ATOM     50  C   UNL A   1      40.633  32.842  30.699  1.00  0.00     0.029 A 
ATOM     51  N   UNL A   1      41.967  31.363  29.710  1.00  0.00    -0.354 N 
ATOM     52  N   UNL A   1      44.486  30.415  28.553  1.00  0.00    -0.248 NA
ATOM     53  C   UNL A   1      46.643  30.850  27.769  1.00  0.00     0.031 C 
ATOM     54  C   UNL A   1      41.880  33.442  30.490  1.00  0.00     0.029 A 
ATOM     55  C   UNL A   1      42.712  32.518  29.877  1.00  0.00     0.049 A 
ATOM     56  H   UNL A   1      42.297  30.534  29.294  1.00  0.00     0.167 HD
ATOM     57  C   UNL A   1      44.829  31.727  28.862  1.00  0.00     0.074 A 
ATOM     58  C   UNL A   1      46.184  31.927  28.392  1.00  0.00     0.031 C 
ATOM     59  C   UNL A   1      44.078  32.686  29.455  1.00  0.00     0.034 A 
BRANCH  46  60
ATOM     60  C   UNL A   1      38.327  30.910  30.826  1.00  0.00     0.023 A 
ATOM     61  C   UNL A   1      38.066  30.624  32.180  1.00  0.00     0.012 A 
ATOM     62  C   UNL A   1      37.364  31.605  30.067  1.00  0.00     0.148 A 
ATOM     63  C   UNL A   1      36.857  31.003  32.763  1.00  0.00     0.002 A 
ATOM     64  C   UNL A   1      36.177  32.012  30.666  1.00  0.00     0.091 A 
ATOM     65  F   UNL A   1      37.620  31.846  28.772  1.00  0.00    -0.205 F 
ATOM     66  C   UNL A   1      35.919  31.705  32.011  1.00  0.00     0.022 A 
BRANCH  64  67
ATOM     67  S   UNL A   1      34.945  32.984  29.788  1.00  0.00     0.127 S 
ATOM     68  O   UNL A   1      34.405  32.001  28.850  1.00  0.00    -0.237 OA
ATOM     69  O   UNL A   1      34.027  33.370  30.861  1.00  0.00    -0.237 OA
ATOM     70  O   UNL A   1      35.673  34.095  29.190  1.00  0.00    -0.744 OA
ENDBRANCH  64  67
ENDBRANCH  46  60
BRANCH  47  71
ATOM     71  C   UNL A   1      47.008  28.113  26.768  1.00  0.00     0.023 A 
ATOM     72  C   UNL A   1      48.061  27.671  27.591  1.00  0.00     0.012 A 
ATOM     73  C   UNL A   1      47.177  28.095  25.369  1.00  0.00     0.148 A 
ATOM     74  C   UNL A   1      49.261  27.229  27.032  1.00  0.00     0.002 A 
ATOM     75  C   UNL A   1      48.350  27.594  24.819  1.00  0.00     0.091 A 
ATOM     76  F   UNL A   1      46.175  28.548  24.600  1.00  0.00    -0.205 F 
ATOM     77  C   UNL A   1      49.399  27.174  25.648  1.00  0.00     0.022 A 
BRANCH  75  78
ATOM     78  S   UNL A   1      48.528  27.344  23.048  1.00  0.00     0.127 S 
ATOM     79  O   UNL A   1      48.279  25.912  22.920  1.00  0.00    -0.237 OA
ATOM     80  O   UNL A   1      47.475  28.204  22.503  1.00  0.00    -0.237 OA
ATOM     81  O   UNL A   1      49.878  27.794  22.735  1.00  0.00    -0.744 OA
ENDBRANCH  75  78
ENDBRANCH  47  71
BRANCH  59  82
ATOM     82  C   UNL A   1      44.707  34.039  29.644  1.00  0.00     0.023 A 
ATOM     83  C   UNL A   1      45.410  34.312  30.834  1.00  0.00     0.012 A 
ATOM     84  C   UNL A   1      44.663  35.010  28.626  1.00  0.00     0.148 A 
ATOM     85  C   UNL A   1      46.039  35.541  31.018  1.00  0.00     0.002 A 
ATOM     86  C   UNL A   1      45.324  36.220  28.802  1.00  0.00     0.091 A 
ATOM     87  F   UNL A   1      43.968  34.740  27.512  1.00  0.00    -0.205 F 
ATOM     88  C   UNL A   1      46.006  36.491  30.000  1.00  0.00     0.022 A 
BRANCH  86  89
ATOM     89  S   UNL A   1      45.395  37.462  27.506  1.00  0.00     0.127 S 
ATOM     90  O   UNL A   1      46.141  38.536  28.159  1.00  0.00    -0.237 OA
ATOM     91  O   UNL A   1      46.125  36.771  26.443  1.00  0.00    -0.237 OA
ATOM     92  O   UNL A   1      44.008  37.766  27.177  1.00  0.00    -0.744 OA
ENDBRANCH  86  89
ENDBRANCH  59  82
ENDBRANCH  33  34
ENDBRANCH  26  28
ENDBRANCH  25  26
ENDBRANCH  24  25
ENDBRANCH   1  24
TORSDOF 17
ENDMDL
