MODEL 1
REMARK VINA RESULT:     -11.4      0.000      0.000
REMARK SMILES COCC[C@@]1(C(=O)OCCOC(=O)c2ccc(-c3c4nc(c(-c5cccc(S(=O)(=O)[O-])c5F)c5ccc([nH]5)c(-c5cccc(S(=O)(=O)[O-])c5F)c5nc(c(-c6cccc(S(=O)(=O)[O-])c6F)c6ccc3[nH]6)C=C5)C=C4)cc2)CCCN(C(=O)NCc2ccc(OC)cc2)C1
REMARK SMILES IDX 9 1 8 2 6 3 7 4 5 5 77 6 93 7 78 8 80 9 79 10 4 11 3 12 2 13
REMARK SMILES IDX 1 14 81 15 82 16 83 17 84 19 85 20 86 21 92 22 87 23 91 24
REMARK SMILES IDX 88 25 89 26 90 27 10 28 11 29 12 30 13 31 14 32 15 33 76 34
REMARK SMILES IDX 16 35 75 36 17 37 18 38 19 39 69 40 20 41 74 42 68 43 70 44
REMARK SMILES IDX 21 45 73 46 67 47 66 48 22 50 54 51 34 52 53 53 35 54 38 55
REMARK SMILES IDX 52 56 71 57 36 58 37 59 51 61 72 62 39 63 23 64 24 65 32 66
REMARK SMILES IDX 25 67 27 68 33 69 26 70 28 71 29 72 30 73 31 74 55 75 56 76
REMARK SMILES IDX 64 77 57 78 59 79 65 80 58 81 60 82 61 83 62 84 63 85 40 86
REMARK SMILES IDX 41 87 49 88 42 89 44 90 50 91 43 92 45 93 46 94 47 95 48 96
REMARK H PARENT 83 18 70 49 38 60
REMARK Flexibility Score: inf
ROOT
ATOM      1  C   UNL A   1      32.264  28.419  26.712  1.00  0.00     0.274 C 
ENDROOT
BRANCH   1   2
ATOM      2  O   UNL A   1      31.524  27.624  25.766  1.00  0.00    -0.462 OA
BRANCH   2   3
ATOM      3  C   UNL A   1      31.797  27.863  24.455  1.00  0.00     0.314 C 
ATOM      4  O   UNL A   1      32.887  28.236  24.039  1.00  0.00    -0.252 OA
BRANCH   3   5
ATOM      5  C   UNL A   1      30.599  27.554  23.541  1.00  0.00     0.088 C 
ATOM      6  C   UNL A   1      29.659  26.562  24.290  1.00  0.00     0.022 C 
ATOM      7  C   UNL A   1      31.093  26.927  22.218  1.00  0.00     0.140 C 
ATOM      8  C   UNL A   1      30.218  25.135  24.356  1.00  0.00     0.023 C 
ATOM      9  N   UNL A   1      31.591  25.555  22.389  1.00  0.00    -0.324 N 
ATOM     10  C   UNL A   1      30.593  24.658  22.959  1.00  0.00     0.121 C 
BRANCH   5  11
ATOM     11  C   UNL A   1      29.886  28.908  23.256  1.00  0.00     0.049 C 
BRANCH  11  12
ATOM     12  C   UNL A   1      30.284  29.636  21.967  1.00  0.00     0.161 C 
BRANCH  12  13
ATOM     13  O   UNL A   1      29.247  30.499  21.501  1.00  0.00    -0.385 OA
ATOM     14  C   UNL A   1      27.949  30.144  21.960  1.00  0.00     0.194 C 
ENDBRANCH  12  13
ENDBRANCH  11  12
ENDBRANCH   5  11
BRANCH   9  15
ATOM     15  C   UNL A   1      32.872  25.297  21.998  1.00  0.00     0.317 C 
ATOM     16  O   UNL A   1      33.268  25.552  20.854  1.00  0.00    -0.249 OA
ATOM     17  N   UNL A   1      33.809  24.763  22.791  1.00  0.00    -0.334 N 
ATOM     18  H   UNL A   1      34.657  24.635  22.306  1.00  0.00     0.165 HD
BRANCH  17  19
ATOM     19  C   UNL A   1      33.917  24.320  24.163  1.00  0.00     0.153 C 
BRANCH  19  20
ATOM     20  C   UNL A   1      33.371  22.928  24.395  1.00  0.00    -0.028 A 
ATOM     21  C   UNL A   1      33.402  22.379  25.684  1.00  0.00     0.009 A 
ATOM     22  C   UNL A   1      32.906  22.122  23.344  1.00  0.00     0.009 A 
ATOM     23  C   UNL A   1      32.975  21.065  25.910  1.00  0.00     0.047 A 
ATOM     24  C   UNL A   1      32.480  20.808  23.572  1.00  0.00     0.047 A 
ATOM     25  C   UNL A   1      32.523  20.270  24.855  1.00  0.00     0.118 A 
BRANCH  25  26
ATOM     26  O   UNL A   1      32.159  18.998  25.205  1.00  0.00    -0.497 OA
ATOM     27  C   UNL A   1      32.546  17.956  24.316  1.00  0.00     0.278 C 
ENDBRANCH  25  26
ENDBRANCH  19  20
ENDBRANCH  17  19
ENDBRANCH   9  15
ENDBRANCH   3   5
ENDBRANCH   2   3
ENDBRANCH   1   2
BRANCH   1  28
ATOM     28  C   UNL A   1      31.795  29.873  26.712  1.00  0.00     0.275 C 
BRANCH  28  29
ATOM     29  O   UNL A   1      32.814  30.753  26.205  1.00  0.00    -0.458 OA
BRANCH  29  30
ATOM     30  C   UNL A   1      33.203  31.739  27.046  1.00  0.00     0.338 C 
ATOM     31  O   UNL A   1      32.625  32.787  27.278  1.00  0.00    -0.246 OA
BRANCH  30  32
ATOM     32  C   UNL A   1      34.466  31.362  27.697  1.00  0.00     0.060 A 
ATOM     33  C   UNL A   1      34.662  30.040  28.095  1.00  0.00     0.016 A 
ATOM     34  C   UNL A   1      35.411  32.341  28.007  1.00  0.00     0.016 A 
ATOM     35  C   UNL A   1      35.777  29.699  28.859  1.00  0.00     0.010 A 
ATOM     36  C   UNL A   1      36.566  31.982  28.710  1.00  0.00     0.010 A 
ATOM     37  C   UNL A   1      36.751  30.662  29.158  1.00  0.00    -0.014 A 
BRANCH  37  38
ATOM     38  C   UNL A   1      37.989  30.279  29.887  1.00  0.00     0.031 A 
ATOM     39  C   UNL A   1      39.003  29.362  29.261  1.00  0.00     0.074 A 
ATOM     40  C   UNL A   1      38.170  30.721  31.147  1.00  0.00     0.049 A 
ATOM     41  N   UNL A   1      40.072  28.830  29.798  1.00  0.00    -0.248 NA
ATOM     42  C   UNL A   1      38.789  28.989  27.854  1.00  0.00     0.031 C 
ATOM     43  C   UNL A   1      37.253  31.603  31.872  1.00  0.00     0.029 A 
ATOM     44  N   UNL A   1      39.170  30.466  32.053  1.00  0.00    -0.354 N 
ATOM     45  C   UNL A   1      40.633  28.025  28.815  1.00  0.00     0.074 A 
ATOM     46  C   UNL A   1      39.787  28.140  27.645  1.00  0.00     0.031 C 
ATOM     47  C   UNL A   1      37.723  31.804  33.112  1.00  0.00     0.029 A 
ATOM     48  C   UNL A   1      38.944  31.024  33.289  1.00  0.00     0.049 A 
ATOM     49  H   UNL A   1      39.971  29.934  31.838  1.00  0.00     0.167 HD
ATOM     50  C   UNL A   1      41.758  27.271  28.876  1.00  0.00     0.034 A 
ATOM     51  C   UNL A   1      39.616  30.895  34.450  1.00  0.00     0.034 A 
ATOM     52  C   UNL A   1      42.625  27.197  30.022  1.00  0.00     0.049 A 
ATOM     53  C   UNL A   1      40.849  30.039  34.493  1.00  0.00     0.074 A 
ATOM     54  C   UNL A   1      43.827  26.521  30.148  1.00  0.00     0.029 A 
ATOM     55  N   UNL A   1      42.385  27.811  31.241  1.00  0.00    -0.354 N 
ATOM     56  N   UNL A   1      41.429  29.380  33.520  1.00  0.00    -0.248 NA
ATOM     57  C   UNL A   1      41.532  29.923  35.789  1.00  0.00     0.031 C 
ATOM     58  C   UNL A   1      44.305  26.714  31.450  1.00  0.00     0.029 A 
ATOM     59  C   UNL A   1      43.406  27.518  32.130  1.00  0.00     0.049 A 
ATOM     60  H   UNL A   1      41.603  28.375  31.445  1.00  0.00     0.167 HD
ATOM     61  C   UNL A   1      42.551  28.784  34.080  1.00  0.00     0.074 A 
ATOM     62  C   UNL A   1      42.589  29.186  35.471  1.00  0.00     0.031 C 
ATOM     63  C   UNL A   1      43.457  27.959  33.500  1.00  0.00     0.034 A 
BRANCH  50  64
ATOM     64  C   UNL A   1      42.151  26.493  27.649  1.00  0.00     0.023 A 
ATOM     65  C   UNL A   1      42.890  27.130  26.632  1.00  0.00     0.012 A 
ATOM     66  C   UNL A   1      41.870  25.117  27.541  1.00  0.00     0.148 A 
ATOM     67  C   UNL A   1      43.325  26.415  25.517  1.00  0.00     0.002 A 
ATOM     68  C   UNL A   1      42.335  24.402  26.442  1.00  0.00     0.091 A 
ATOM     69  F   UNL A   1      41.147  24.534  28.508  1.00  0.00    -0.205 F 
ATOM     70  C   UNL A   1      43.058  25.051  25.427  1.00  0.00     0.022 A 
BRANCH  68  71
ATOM     71  S   UNL A   1      42.100  22.629  26.274  1.00  0.00     0.127 S 
ATOM     72  O   UNL A   1      40.642  22.526  26.253  1.00  0.00    -0.237 OA
ATOM     73  O   UNL A   1      42.749  22.348  24.993  1.00  0.00    -0.237 OA
ATOM     74  O   UNL A   1      42.757  22.029  27.428  1.00  0.00    -0.744 OA
ENDBRANCH  68  71
ENDBRANCH  50  64
BRANCH  51  75
ATOM     75  C   UNL A   1      39.137  31.616  35.661  1.00  0.00     0.023 A 
ATOM     76  C   UNL A   1      38.214  30.987  36.518  1.00  0.00     0.012 A 
ATOM     77  C   UNL A   1      39.626  32.894  35.994  1.00  0.00     0.148 A 
ATOM     78  C   UNL A   1      37.773  31.628  37.677  1.00  0.00     0.002 A 
ATOM     79  C   UNL A   1      39.226  33.501  37.178  1.00  0.00     0.091 A 
ATOM     80  F   UNL A   1      40.485  33.488  35.153  1.00  0.00    -0.205 F 
ATOM     81  C   UNL A   1      38.289  32.876  38.014  1.00  0.00     0.022 A 
BRANCH  79  82
ATOM     82  S   UNL A   1      39.955  35.041  37.750  1.00  0.00     0.127 S 
ATOM     83  O   UNL A   1      39.797  35.901  36.580  1.00  0.00    -0.237 OA
ATOM     84  O   UNL A   1      39.099  35.385  38.887  1.00  0.00    -0.237 OA
ATOM     85  O   UNL A   1      41.324  34.705  38.118  1.00  0.00    -0.744 OA
ENDBRANCH  79  82
ENDBRANCH  51  75
BRANCH  63  86
ATOM     86  C   UNL A   1      44.569  27.433  34.367  1.00  0.00     0.023 A 
ATOM     87  C   UNL A   1      45.776  28.154  34.453  1.00  0.00     0.012 A 
ATOM     88  C   UNL A   1      44.403  26.266  35.138  1.00  0.00     0.148 A 
ATOM     89  C   UNL A   1      46.811  27.710  35.275  1.00  0.00     0.002 A 
ATOM     90  C   UNL A   1      45.426  25.850  35.985  1.00  0.00     0.091 A 
ATOM     91  F   UNL A   1      43.257  25.579  35.025  1.00  0.00    -0.205 F 
ATOM     92  C   UNL A   1      46.632  26.565  36.048  1.00  0.00     0.022 A 
BRANCH  90  93
ATOM     93  S   UNL A   1      45.248  24.433  37.076  1.00  0.00     0.127 S 
ATOM     94  O   UNL A   1      46.567  24.372  37.703  1.00  0.00    -0.237 OA
ATOM     95  O   UNL A   1      44.168  24.856  37.968  1.00  0.00    -0.237 OA
ATOM     96  O   UNL A   1      44.908  23.309  36.213  1.00  0.00    -0.744 OA
ENDBRANCH  90  93
ENDBRANCH  63  86
ENDBRANCH  37  38
ENDBRANCH  30  32
ENDBRANCH  29  30
ENDBRANCH  28  29
ENDBRANCH   1  28
TORSDOF 21
ENDMDL
MODEL 2
REMARK VINA RESULT:     -11.4      1.715      2.087
REMARK SMILES COCC[C@@]1(C(=O)OCCOC(=O)c2ccc(-c3c4nc(c(-c5cccc(S(=O)(=O)[O-])c5F)c5ccc([nH]5)c(-c5cccc(S(=O)(=O)[O-])c5F)c5nc(c(-c6cccc(S(=O)(=O)[O-])c6F)c6ccc3[nH]6)C=C5)C=C4)cc2)CCCN(C(=O)NCc2ccc(OC)cc2)C1
REMARK SMILES IDX 9 1 8 2 6 3 7 4 5 5 77 6 93 7 78 8 80 9 79 10 4 11 3 12 2 13
REMARK SMILES IDX 1 14 81 15 82 16 83 17 84 19 85 20 86 21 92 22 87 23 91 24
REMARK SMILES IDX 88 25 89 26 90 27 10 28 11 29 12 30 13 31 14 32 15 33 76 34
REMARK SMILES IDX 16 35 75 36 17 37 18 38 19 39 69 40 20 41 74 42 68 43 70 44
REMARK SMILES IDX 21 45 73 46 67 47 66 48 22 50 54 51 34 52 53 53 35 54 38 55
REMARK SMILES IDX 52 56 71 57 36 58 37 59 51 61 72 62 39 63 23 64 24 65 32 66
REMARK SMILES IDX 25 67 27 68 33 69 26 70 28 71 29 72 30 73 31 74 55 75 56 76
REMARK SMILES IDX 64 77 57 78 59 79 65 80 58 81 60 82 61 83 62 84 63 85 40 86
REMARK SMILES IDX 41 87 49 88 42 89 44 90 50 91 43 92 45 93 46 94 47 95 48 96
REMARK H PARENT 83 18 70 49 38 60
REMARK Flexibility Score: inf
ROOT
ATOM      1  C   UNL A   1      32.197  28.687  26.904  1.00  0.00     0.274 C 
ENDROOT
BRANCH   1   2
ATOM      2  O   UNL A   1      31.243  28.145  25.970  1.00  0.00    -0.462 OA
BRANCH   2   3
ATOM      3  C   UNL A   1      31.637  28.126  24.669  1.00  0.00     0.314 C 
ATOM      4  O   UNL A   1      32.793  28.297  24.301  1.00  0.00    -0.252 OA
BRANCH   3   5
ATOM      5  C   UNL A   1      30.477  27.808  23.709  1.00  0.00     0.088 C 
ATOM      6  C   UNL A   1      29.601  26.696  24.359  1.00  0.00     0.022 C 
ATOM      7  C   UNL A   1      31.035  27.324  22.351  1.00  0.00     0.140 C 
ATOM      8  C   UNL A   1      30.259  25.311  24.325  1.00  0.00     0.023 C 
ATOM      9  N   UNL A   1      31.627  25.981  22.425  1.00  0.00    -0.324 N 
ATOM     10  C   UNL A   1      30.688  24.973  22.903  1.00  0.00     0.121 C 
BRANCH   5  11
ATOM     11  C   UNL A   1      29.674  29.126  23.516  1.00  0.00     0.049 C 
BRANCH  11  12
ATOM     12  C   UNL A   1      28.248  28.989  22.972  1.00  0.00     0.161 C 
BRANCH  12  13
ATOM     13  O   UNL A   1      27.802  30.188  22.338  1.00  0.00    -0.385 OA
ATOM     14  C   UNL A   1      27.645  31.288  23.225  1.00  0.00     0.194 C 
ENDBRANCH  12  13
ENDBRANCH  11  12
ENDBRANCH   5  11
BRANCH   9  15
ATOM     15  C   UNL A   1      32.929  25.845  22.042  1.00  0.00     0.317 C 
ATOM     16  O   UNL A   1      33.293  26.073  20.882  1.00  0.00    -0.249 OA
ATOM     17  N   UNL A   1      33.921  25.468  22.858  1.00  0.00    -0.334 N 
ATOM     18  H   UNL A   1      34.777  25.407  22.376  1.00  0.00     0.165 HD
BRANCH  17  19
ATOM     19  C   UNL A   1      34.078  25.124  24.254  1.00  0.00     0.153 C 
BRANCH  19  20
ATOM     20  C   UNL A   1      35.137  24.072  24.502  1.00  0.00    -0.028 A 
ATOM     21  C   UNL A   1      35.760  23.447  23.413  1.00  0.00     0.009 A 
ATOM     22  C   UNL A   1      35.464  23.630  25.793  1.00  0.00     0.009 A 
ATOM     23  C   UNL A   1      36.685  22.417  23.615  1.00  0.00     0.047 A 
ATOM     24  C   UNL A   1      36.390  22.598  25.994  1.00  0.00     0.047 A 
ATOM     25  C   UNL A   1      36.996  21.979  24.904  1.00  0.00     0.118 A 
BRANCH  25  26
ATOM     26  O   UNL A   1      37.895  20.949  24.963  1.00  0.00    -0.497 OA
ATOM     27  C   UNL A   1      37.360  19.632  24.914  1.00  0.00     0.278 C 
ENDBRANCH  25  26
ENDBRANCH  19  20
ENDBRANCH  17  19
ENDBRANCH   9  15
ENDBRANCH   3   5
ENDBRANCH   2   3
ENDBRANCH   1   2
BRANCH   1  28
ATOM     28  C   UNL A   1      32.146  30.214  26.934  1.00  0.00     0.275 C 
BRANCH  28  29
ATOM     29  O   UNL A   1      33.420  30.788  26.592  1.00  0.00    -0.458 OA
BRANCH  29  30
ATOM     30  C   UNL A   1      33.888  31.722  27.451  1.00  0.00     0.338 C 
ATOM     31  O   UNL A   1      33.347  32.764  27.780  1.00  0.00    -0.246 OA
BRANCH  30  32
ATOM     32  C   UNL A   1      35.189  31.295  27.984  1.00  0.00     0.060 A 
ATOM     33  C   UNL A   1      35.338  29.992  28.460  1.00  0.00     0.016 A 
ATOM     34  C   UNL A   1      36.229  32.216  28.110  1.00  0.00     0.016 A 
ATOM     35  C   UNL A   1      36.508  29.619  29.118  1.00  0.00     0.010 A 
ATOM     36  C   UNL A   1      37.431  31.818  28.706  1.00  0.00     0.010 A 
ATOM     37  C   UNL A   1      37.575  30.522  29.232  1.00  0.00    -0.014 A 
BRANCH  37  38
ATOM     38  C   UNL A   1      38.860  30.095  29.845  1.00  0.00     0.031 A 
ATOM     39  C   UNL A   1      39.729  29.062  29.183  1.00  0.00     0.074 A 
ATOM     40  C   UNL A   1      39.217  30.606  31.041  1.00  0.00     0.049 A 
ATOM     41  N   UNL A   1      40.814  28.487  29.637  1.00  0.00    -0.248 NA
ATOM     42  C   UNL A   1      39.328  28.612  27.841  1.00  0.00     0.031 C 
ATOM     43  C   UNL A   1      38.453  31.604  31.793  1.00  0.00     0.029 A 
ATOM     44  N   UNL A   1      40.296  30.337  31.847  1.00  0.00    -0.354 N 
ATOM     45  C   UNL A   1      41.200  27.576  28.662  1.00  0.00     0.074 A 
ATOM     46  C   UNL A   1      40.234  27.676  27.588  1.00  0.00     0.031 C 
ATOM     47  C   UNL A   1      39.077  31.852  32.954  1.00  0.00     0.029 A 
ATOM     48  C   UNL A   1      40.254  30.994  33.054  1.00  0.00     0.049 A 
ATOM     49  H   UNL A   1      41.028  29.732  31.585  1.00  0.00     0.167 HD
ATOM     50  C   UNL A   1      42.270  26.744  28.655  1.00  0.00     0.034 A 
ATOM     51  C   UNL A   1      41.046  30.893  34.139  1.00  0.00     0.034 A 
ATOM     52  C   UNL A   1      43.257  26.681  29.700  1.00  0.00     0.049 A 
ATOM     53  C   UNL A   1      42.214  29.950  34.110  1.00  0.00     0.074 A 
ATOM     54  C   UNL A   1      44.417  25.925  29.743  1.00  0.00     0.029 A 
ATOM     55  N   UNL A   1      43.203  27.394  30.888  1.00  0.00    -0.354 N 
ATOM     56  N   UNL A   1      42.630  29.183  33.131  1.00  0.00    -0.248 NA
ATOM     57  C   UNL A   1      43.033  29.871  35.327  1.00  0.00     0.031 C 
ATOM     58  C   UNL A   1      45.055  26.169  30.965  1.00  0.00     0.029 A 
ATOM     59  C   UNL A   1      44.298  27.084  31.678  1.00  0.00     0.049 A 
ATOM     60  H   UNL A   1      42.492  28.029  31.134  1.00  0.00     0.167 HD
ATOM     61  C   UNL A   1      43.766  28.542  33.607  1.00  0.00     0.074 A 
ATOM     62  C   UNL A   1      43.993  29.034  34.951  1.00  0.00     0.031 C 
ATOM     63  C   UNL A   1      44.539  27.612  32.996  1.00  0.00     0.034 A 
BRANCH  50  64
ATOM     64  C   UNL A   1      42.463  25.855  27.455  1.00  0.00     0.023 A 
ATOM     65  C   UNL A   1      43.100  26.370  26.309  1.00  0.00     0.012 A 
ATOM     66  C   UNL A   1      42.098  24.496  27.493  1.00  0.00     0.148 A 
ATOM     67  C   UNL A   1      43.352  25.551  25.209  1.00  0.00     0.002 A 
ATOM     68  C   UNL A   1      42.382  23.676  26.405  1.00  0.00     0.091 A 
ATOM     69  F   UNL A   1      41.472  24.031  28.584  1.00  0.00    -0.205 F 
ATOM     70  C   UNL A   1      43.004  24.203  25.261  1.00  0.00     0.022 A 
BRANCH  68  71
ATOM     71  S   UNL A   1      42.034  21.914  26.409  1.00  0.00     0.127 S 
ATOM     72  O   UNL A   1      42.316  21.560  27.799  1.00  0.00    -0.237 OA
ATOM     73  O   UNL A   1      40.615  21.875  26.047  1.00  0.00    -0.237 OA
ATOM     74  O   UNL A   1      42.926  21.329  25.417  1.00  0.00    -0.744 OA
ENDBRANCH  68  71
ENDBRANCH  50  64
BRANCH  51  75
ATOM     75  C   UNL A   1      40.762  31.731  35.337  1.00  0.00     0.023 A 
ATOM     76  C   UNL A   1      41.693  32.711  35.728  1.00  0.00     0.012 A 
ATOM     77  C   UNL A   1      39.560  31.596  36.058  1.00  0.00     0.148 A 
ATOM     78  C   UNL A   1      41.439  33.531  36.828  1.00  0.00     0.002 A 
ATOM     79  C   UNL A   1      39.288  32.454  37.116  1.00  0.00     0.091 A 
ATOM     80  F   UNL A   1      38.697  30.639  35.687  1.00  0.00    -0.205 F 
ATOM     81  C   UNL A   1      40.232  33.413  37.513  1.00  0.00     0.022 A 
BRANCH  79  82
ATOM     82  S   UNL A   1      37.698  32.457  37.952  1.00  0.00     0.127 S 
ATOM     83  O   UNL A   1      37.618  31.087  38.451  1.00  0.00    -0.237 OA
ATOM     84  O   UNL A   1      37.892  33.478  38.984  1.00  0.00    -0.237 OA
ATOM     85  O   UNL A   1      36.727  32.824  36.930  1.00  0.00    -0.744 OA
ENDBRANCH  79  82
ENDBRANCH  51  75
BRANCH  63  86
ATOM     86  C   UNL A   1      45.706  27.062  33.771  1.00  0.00     0.023 A 
ATOM     87  C   UNL A   1      46.901  27.805  33.838  1.00  0.00     0.012 A 
ATOM     88  C   UNL A   1      45.604  25.849  34.479  1.00  0.00     0.148 A 
ATOM     89  C   UNL A   1      47.987  27.337  34.577  1.00  0.00     0.002 A 
ATOM     90  C   UNL A   1      46.678  25.408  35.247  1.00  0.00     0.091 A 
ATOM     91  F   UNL A   1      44.467  25.144  34.385  1.00  0.00    -0.205 F 
ATOM     92  C   UNL A   1      47.871  26.146  35.290  1.00  0.00     0.022 A 
BRANCH  90  93
ATOM     93  S   UNL A   1      46.586  23.927  36.259  1.00  0.00     0.127 S 
ATOM     94  O   UNL A   1      46.701  22.871  35.255  1.00  0.00    -0.237 OA
ATOM     95  O   UNL A   1      47.754  24.069  37.130  1.00  0.00    -0.237 OA
ATOM     96  O   UNL A   1      45.308  24.000  36.954  1.00  0.00    -0.744 OA
ENDBRANCH  90  93
ENDBRANCH  63  86
ENDBRANCH  37  38
ENDBRANCH  30  32
ENDBRANCH  29  30
ENDBRANCH  28  29
ENDBRANCH   1  28
TORSDOF 21
ENDMDL
MODEL 3
REMARK VINA RESULT:     -11.0      1.677      7.658
REMARK SMILES COCC[C@@]1(C(=O)OCCOC(=O)c2ccc(-c3c4nc(c(-c5cccc(S(=O)(=O)[O-])c5F)c5ccc([nH]5)c(-c5cccc(S(=O)(=O)[O-])c5F)c5nc(c(-c6cccc(S(=O)(=O)[O-])c6F)c6ccc3[nH]6)C=C5)C=C4)cc2)CCCN(C(=O)NCc2ccc(OC)cc2)C1
REMARK SMILES IDX 9 1 8 2 6 3 7 4 5 5 77 6 93 7 78 8 80 9 79 10 4 11 3 12 2 13
REMARK SMILES IDX 1 14 81 15 82 16 83 17 84 19 85 20 86 21 92 22 87 23 91 24
REMARK SMILES IDX 88 25 89 26 90 27 10 28 11 29 12 30 13 31 14 32 15 33 76 34
REMARK SMILES IDX 16 35 75 36 17 37 18 38 19 39 69 40 20 41 74 42 68 43 70 44
REMARK SMILES IDX 21 45 73 46 67 47 66 48 22 50 54 51 34 52 53 53 35 54 38 55
REMARK SMILES IDX 52 56 71 57 36 58 37 59 51 61 72 62 39 63 23 64 24 65 32 66
REMARK SMILES IDX 25 67 27 68 33 69 26 70 28 71 29 72 30 73 31 74 55 75 56 76
REMARK SMILES IDX 64 77 57 78 59 79 65 80 58 81 60 82 61 83 62 84 63 85 40 86
REMARK SMILES IDX 41 87 49 88 42 89 44 90 50 91 43 92 45 93 46 94 47 95 48 96
REMARK H PARENT 83 18 70 49 38 60
REMARK Flexibility Score: inf
ROOT
ATOM      1  C   UNL A   1      31.971  28.712  26.594  1.00  0.00     0.274 C 
ENDROOT
BRANCH   1   2
ATOM      2  O   UNL A   1      31.005  28.118  25.705  1.00  0.00    -0.462 OA
BRANCH   2   3
ATOM      3  C   UNL A   1      31.418  27.936  24.423  1.00  0.00     0.314 C 
ATOM      4  O   UNL A   1      32.562  28.145  24.035  1.00  0.00    -0.252 OA
BRANCH   3   5
ATOM      5  C   UNL A   1      30.303  27.379  23.520  1.00  0.00     0.088 C 
ATOM      6  C   UNL A   1      29.538  26.280  24.316  1.00  0.00     0.022 C 
ATOM      7  C   UNL A   1      30.916  26.779  22.235  1.00  0.00     0.140 C 
ATOM      8  C   UNL A   1      30.332  24.976  24.460  1.00  0.00     0.023 C 
ATOM      9  N   UNL A   1      31.640  25.524  22.480  1.00  0.00    -0.324 N 
ATOM     10  C   UNL A   1      30.803  24.499  23.093  1.00  0.00     0.121 C 
BRANCH   5  11
ATOM     11  C   UNL A   1      29.373  28.574  23.161  1.00  0.00     0.049 C 
BRANCH  11  12
ATOM     12  C   UNL A   1      29.937  29.615  22.187  1.00  0.00     0.161 C 
BRANCH  12  13
ATOM     13  O   UNL A   1      29.178  30.824  22.202  1.00  0.00    -0.385 OA
ATOM     14  C   UNL A   1      27.899  30.696  22.810  1.00  0.00     0.194 C 
ENDBRANCH  12  13
ENDBRANCH  11  12
ENDBRANCH   5  11
BRANCH   9  15
ATOM     15  C   UNL A   1      32.951  25.471  22.110  1.00  0.00     0.317 C 
ATOM     16  O   UNL A   1      33.309  25.702  20.949  1.00  0.00    -0.249 OA
ATOM     17  N   UNL A   1      33.958  25.176  22.941  1.00  0.00    -0.334 N 
ATOM     18  H   UNL A   1      34.821  25.166  22.467  1.00  0.00     0.165 HD
BRANCH  17  19
ATOM     19  C   UNL A   1      34.126  24.869  24.344  1.00  0.00     0.153 C 
BRANCH  19  20
ATOM     20  C   UNL A   1      35.228  23.868  24.617  1.00  0.00    -0.028 A 
ATOM     21  C   UNL A   1      35.064  22.534  24.220  1.00  0.00     0.009 A 
ATOM     22  C   UNL A   1      36.386  24.208  25.334  1.00  0.00     0.009 A 
ATOM     23  C   UNL A   1      36.035  21.574  24.530  1.00  0.00     0.047 A 
ATOM     24  C   UNL A   1      37.356  23.246  25.643  1.00  0.00     0.047 A 
ATOM     25  C   UNL A   1      37.179  21.921  25.252  1.00  0.00     0.118 A 
BRANCH  25  26
ATOM     26  O   UNL A   1      38.035  20.886  25.511  1.00  0.00    -0.497 OA
ATOM     27  C   UNL A   1      37.738  19.641  24.889  1.00  0.00     0.278 C 
ENDBRANCH  25  26
ENDBRANCH  19  20
ENDBRANCH  17  19
ENDBRANCH   9  15
ENDBRANCH   3   5
ENDBRANCH   2   3
ENDBRANCH   1   2
BRANCH   1  28
ATOM     28  C   UNL A   1      31.873  30.236  26.592  1.00  0.00     0.275 C 
BRANCH  28  29
ATOM     29  O   UNL A   1      33.145  30.844  26.302  1.00  0.00    -0.458 OA
BRANCH  29  30
ATOM     30  C   UNL A   1      33.580  31.747  27.210  1.00  0.00     0.338 C 
ATOM     31  O   UNL A   1      33.051  32.800  27.521  1.00  0.00    -0.246 OA
BRANCH  30  32
ATOM     32  C   UNL A   1      34.827  31.268  27.824  1.00  0.00     0.060 A 
ATOM     33  C   UNL A   1      34.935  29.927  28.193  1.00  0.00     0.016 A 
ATOM     34  C   UNL A   1      35.847  32.170  28.128  1.00  0.00     0.016 A 
ATOM     35  C   UNL A   1      36.040  29.492  28.924  1.00  0.00     0.010 A 
ATOM     36  C   UNL A   1      36.988  31.715  28.797  1.00  0.00     0.010 A 
ATOM     37  C   UNL A   1      37.087  30.376  29.217  1.00  0.00    -0.014 A 
BRANCH  37  38
ATOM     38  C   UNL A   1      38.310  29.891  29.909  1.00  0.00     0.031 A 
ATOM     39  C   UNL A   1      38.690  30.413  31.267  1.00  0.00     0.074 A 
ATOM     40  C   UNL A   1      39.114  29.012  29.278  1.00  0.00     0.049 A 
ATOM     41  N   UNL A   1      39.780  30.192  31.957  1.00  0.00    -0.248 NA
ATOM     42  C   UNL A   1      37.726  31.300  31.936  1.00  0.00     0.031 C 
ATOM     43  C   UNL A   1      38.865  28.441  27.952  1.00  0.00     0.029 A 
ATOM     44  N   UNL A   1      40.317  28.466  29.654  1.00  0.00    -0.354 N 
ATOM     45  C   UNL A   1      39.658  30.946  33.118  1.00  0.00     0.074 A 
ATOM     46  C   UNL A   1      38.383  31.630  33.041  1.00  0.00     0.031 C 
ATOM     47  C   UNL A   1      39.887  27.640  27.619  1.00  0.00     0.029 A 
ATOM     48  C   UNL A   1      40.888  27.680  28.680  1.00  0.00     0.049 A 
ATOM     49  H   UNL A   1      40.731  28.622  30.534  1.00  0.00     0.167 HD
ATOM     50  C   UNL A   1      40.520  31.047  34.158  1.00  0.00     0.034 A 
ATOM     51  C   UNL A   1      42.098  27.089  28.624  1.00  0.00     0.034 A 
ATOM     52  C   UNL A   1      41.763  30.328  34.256  1.00  0.00     0.049 A 
ATOM     53  C   UNL A   1      43.040  27.232  29.784  1.00  0.00     0.074 A 
ATOM     54  C   UNL A   1      42.663  30.308  35.309  1.00  0.00     0.029 A 
ATOM     55  N   UNL A   1      42.286  29.508  33.269  1.00  0.00    -0.354 N 
ATOM     56  N   UNL A   1      42.855  27.853  30.923  1.00  0.00    -0.248 NA
ATOM     57  C   UNL A   1      44.350  26.578  29.660  1.00  0.00     0.031 C 
ATOM     58  C   UNL A   1      43.739  29.488  34.950  1.00  0.00     0.029 A 
ATOM     59  C   UNL A   1      43.504  28.990  33.679  1.00  0.00     0.049 A 
ATOM     60  H   UNL A   1      41.855  29.320  32.404  1.00  0.00     0.167 HD
ATOM     61  C   UNL A   1      44.017  27.654  31.658  1.00  0.00     0.074 A 
ATOM     62  C   UNL A   1      44.888  26.826  30.848  1.00  0.00     0.031 C 
ATOM     63  C   UNL A   1      44.343  28.132  32.883  1.00  0.00     0.034 A 
BRANCH  50  64
ATOM     64  C   UNL A   1      40.133  31.937  35.309  1.00  0.00     0.023 A 
ATOM     65  C   UNL A   1      40.669  33.237  35.388  1.00  0.00     0.012 A 
ATOM     66  C   UNL A   1      39.177  31.523  36.257  1.00  0.00     0.148 A 
ATOM     67  C   UNL A   1      40.277  34.106  36.406  1.00  0.00     0.002 A 
ATOM     68  C   UNL A   1      38.765  32.406  37.250  1.00  0.00     0.091 A 
ATOM     69  F   UNL A   1      38.696  30.275  36.178  1.00  0.00    -0.205 F 
ATOM     70  C   UNL A   1      39.318  33.695  37.329  1.00  0.00     0.022 A 
BRANCH  68  71
ATOM     71  S   UNL A   1      37.486  31.990  38.440  1.00  0.00     0.127 S 
ATOM     72  O   UNL A   1      37.189  30.604  38.082  1.00  0.00    -0.237 OA
ATOM     73  O   UNL A   1      38.182  32.153  39.718  1.00  0.00    -0.237 OA
ATOM     74  O   UNL A   1      36.407  32.943  38.215  1.00  0.00    -0.744 OA
ENDBRANCH  68  71
ENDBRANCH  50  64
BRANCH  51  75
ATOM     75  C   UNL A   1      42.470  26.288  27.424  1.00  0.00     0.023 A 
ATOM     76  C   UNL A   1      43.187  26.904  26.381  1.00  0.00     0.012 A 
ATOM     77  C   UNL A   1      42.163  24.917  27.334  1.00  0.00     0.148 A 
ATOM     78  C   UNL A   1      43.576  26.170  25.260  1.00  0.00     0.002 A 
ATOM     79  C   UNL A   1      42.604  24.180  26.242  1.00  0.00     0.091 A 
ATOM     80  F   UNL A   1      41.458  24.354  28.326  1.00  0.00    -0.205 F 
ATOM     81  C   UNL A   1      43.298  24.807  25.197  1.00  0.00     0.022 A 
BRANCH  79  82
ATOM     82  S   UNL A   1      42.410  22.396  26.159  1.00  0.00     0.127 S 
ATOM     83  O   UNL A   1      40.959  22.255  26.080  1.00  0.00    -0.237 OA
ATOM     84  O   UNL A   1      43.128  22.063  24.927  1.00  0.00    -0.237 OA
ATOM     85  O   UNL A   1      43.038  21.883  27.369  1.00  0.00    -0.744 OA
ENDBRANCH  79  82
ENDBRANCH  51  75
BRANCH  63  86
ATOM     86  C   UNL A   1      45.700  27.773  33.429  1.00  0.00     0.023 A 
ATOM     87  C   UNL A   1      46.784  28.647  33.210  1.00  0.00     0.012 A 
ATOM     88  C   UNL A   1      45.891  26.613  34.203  1.00  0.00     0.148 A 
ATOM     89  C   UNL A   1      48.043  28.358  33.733  1.00  0.00     0.002 A 
ATOM     90  C   UNL A   1      47.142  26.352  34.754  1.00  0.00     0.091 A 
ATOM     91  F   UNL A   1      44.854  25.782  34.381  1.00  0.00    -0.205 F 
ATOM     92  C   UNL A   1      48.220  27.218  34.513  1.00  0.00     0.022 A 
BRANCH  90  93
ATOM     93  S   UNL A   1      47.437  24.950  35.838  1.00  0.00     0.127 S 
ATOM     94  O   UNL A   1      46.398  24.016  35.408  1.00  0.00    -0.237 OA
ATOM     95  O   UNL A   1      48.799  24.554  35.477  1.00  0.00    -0.237 OA
ATOM     96  O   UNL A   1      47.301  25.462  37.195  1.00  0.00    -0.744 OA
ENDBRANCH  90  93
ENDBRANCH  63  86
ENDBRANCH  37  38
ENDBRANCH  30  32
ENDBRANCH  29  30
ENDBRANCH  28  29
ENDBRANCH   1  28
TORSDOF 21
ENDMDL
