MODEL 1
REMARK VINA RESULT:     -14.2      0.000      0.000
REMARK SMILES O=C(OCCOC(=O)c1nccnc1C(=O)Nc1n[nH]c2ncccc12)c1ccc(-c2c3nc(c(-c4cccc(S(=O)(=O)[O-])c4F)c4ccc([nH]4)c(-c4cccc(S(=O)(=O)[O-])c4F)c4nc(c(-c5cccc(S(=O)(=O)[O-])c5F)c5ccc2[nH]5)C=C4)C=C3)cc1
REMARK SMILES IDX 4 1 3 2 2 3 1 4 27 5 28 6 89 7 29 8 88 9 30 10 31 11 32 12
REMARK SMILES IDX 82 13 33 14 87 15 81 16 83 17 34 18 86 19 80 20 79 21 35 23
REMARK SMILES IDX 67 24 47 25 66 26 48 27 51 28 65 29 84 30 49 31 50 32 64 34
REMARK SMILES IDX 85 35 52 36 36 37 37 38 45 39 38 40 40 41 46 42 39 43 41 44
REMARK SMILES IDX 42 45 43 46 44 47 68 48 69 49 77 50 70 51 72 52 78 53 71 54
REMARK SMILES IDX 73 55 74 56 75 57 76 58 53 59 54 60 62 61 55 62 57 63 63 64
REMARK SMILES IDX 56 65 58 66 59 67 60 68 61 69 5 70 6 71 7 72 8 73 9 74 10 75
REMARK SMILES IDX 14 76 11 77 13 78 12 79 15 80 16 81 17 82 18 84 19 85 26 86
REMARK SMILES IDX 20 87 21 88 25 89 22 91 24 92 23 93
REMARK H PARENT 83 22 51 33 17 83 20 90
REMARK Flexibility Score: inf
ROOT
ATOM      1  C   UNL A   1      39.353  19.172  25.756  1.00  0.00     0.275 C 
ENDROOT
BRANCH   1   2
ATOM      2  O   UNL A   1      40.890  19.385  25.803  1.00  0.00    -0.458 OA
BRANCH   2   3
ATOM      3  C   UNL A   1      41.844  20.390  25.952  1.00  0.00     0.338 C 
ATOM      4  O   UNL A   1      42.997  20.236  25.559  1.00  0.00    -0.246 OA
BRANCH   3   5
ATOM      5  C   UNL A   1      41.611  21.514  26.945  1.00  0.00     0.060 A 
ATOM      6  C   UNL A   1      40.407  22.153  26.919  1.00  0.00     0.016 A 
ATOM      7  C   UNL A   1      42.402  21.937  27.997  1.00  0.00     0.016 A 
ATOM      8  C   UNL A   1      40.266  23.495  27.278  1.00  0.00     0.010 A 
ATOM      9  C   UNL A   1      42.164  23.222  28.573  1.00  0.00     0.010 A 
ATOM     10  C   UNL A   1      41.244  24.124  27.987  1.00  0.00    -0.014 A 
BRANCH  10  11
ATOM     11  C   UNL A   1      41.436  25.627  27.965  1.00  0.00     0.031 A 
ATOM     12  C   UNL A   1      42.656  26.095  27.226  1.00  0.00     0.074 A 
ATOM     13  C   UNL A   1      40.595  26.644  28.292  1.00  0.00     0.049 A 
ATOM     14  N   UNL A   1      43.426  27.120  27.433  1.00  0.00    -0.248 NA
ATOM     15  C   UNL A   1      43.067  25.248  26.090  1.00  0.00     0.031 C 
ATOM     16  C   UNL A   1      39.156  26.591  28.509  1.00  0.00     0.029 A 
ATOM     17  N   UNL A   1      40.869  27.981  28.530  1.00  0.00    -0.354 N 
ATOM     18  C   UNL A   1      44.514  26.920  26.597  1.00  0.00     0.074 A 
ATOM     19  C   UNL A   1      44.286  25.700  25.861  1.00  0.00     0.031 C 
ATOM     20  C   UNL A   1      38.705  27.753  29.007  1.00  0.00     0.029 A 
ATOM     21  C   UNL A   1      39.828  28.652  29.149  1.00  0.00     0.049 A 
ATOM     22  H   UNL A   1      41.719  28.412  28.283  1.00  0.00     0.167 HD
ATOM     23  C   UNL A   1      45.615  27.691  26.486  1.00  0.00     0.034 A 
ATOM     24  C   UNL A   1      39.783  29.833  29.799  1.00  0.00     0.034 A 
ATOM     25  C   UNL A   1      45.713  28.978  27.110  1.00  0.00     0.049 A 
ATOM     26  C   UNL A   1      41.029  30.667  29.793  1.00  0.00     0.074 A 
ATOM     27  C   UNL A   1      46.773  29.860  27.118  1.00  0.00     0.029 A 
ATOM     28  N   UNL A   1      44.675  29.581  27.808  1.00  0.00    -0.354 N 
ATOM     29  N   UNL A   1      42.172  30.403  29.207  1.00  0.00    -0.248 NA
ATOM     30  C   UNL A   1      40.984  31.959  30.487  1.00  0.00     0.031 C 
ATOM     31  C   UNL A   1      46.383  30.987  27.850  1.00  0.00     0.029 A 
ATOM     32  C   UNL A   1      45.066  30.825  28.255  1.00  0.00     0.049 A 
ATOM     33  H   UNL A   1      43.789  29.180  27.960  1.00  0.00     0.167 HD
ATOM     34  C   UNL A   1      42.967  31.519  29.408  1.00  0.00     0.074 A 
ATOM     35  C   UNL A   1      42.175  32.459  30.180  1.00  0.00     0.031 C 
ATOM     36  C   UNL A   1      44.233  31.748  28.984  1.00  0.00     0.034 A 
BRANCH  23  37
ATOM     37  C   UNL A   1      46.788  27.094  25.765  1.00  0.00     0.023 A 
ATOM     38  C   UNL A   1      47.673  26.198  26.398  1.00  0.00     0.012 A 
ATOM     39  C   UNL A   1      47.055  27.511  24.446  1.00  0.00     0.148 A 
ATOM     40  C   UNL A   1      48.840  25.785  25.754  1.00  0.00     0.002 A 
ATOM     41  C   UNL A   1      48.182  27.043  23.787  1.00  0.00     0.091 A 
ATOM     42  F   UNL A   1      46.223  28.394  23.875  1.00  0.00    -0.205 F 
ATOM     43  C   UNL A   1      49.089  26.200  24.449  1.00  0.00     0.022 A 
BRANCH  41  44
ATOM     44  S   UNL A   1      48.539  27.456  22.079  1.00  0.00     0.127 S 
ATOM     45  O   UNL A   1      47.341  28.204  21.700  1.00  0.00    -0.237 OA
ATOM     46  O   UNL A   1      49.749  28.266  22.212  1.00  0.00    -0.237 OA
ATOM     47  O   UNL A   1      48.726  26.189  21.387  1.00  0.00    -0.744 OA
ENDBRANCH  41  44
ENDBRANCH  23  37
BRANCH  24  48
ATOM     48  C   UNL A   1      38.548  30.266  30.530  1.00  0.00     0.023 A 
ATOM     49  C   UNL A   1      38.336  29.898  31.872  1.00  0.00     0.012 A 
ATOM     50  C   UNL A   1      37.574  31.061  29.887  1.00  0.00     0.148 A 
ATOM     51  C   UNL A   1      37.175  30.288  32.548  1.00  0.00     0.002 A 
ATOM     52  C   UNL A   1      36.441  31.484  30.578  1.00  0.00     0.091 A 
ATOM     53  F   UNL A   1      37.777  31.398  28.605  1.00  0.00    -0.205 F 
ATOM     54  C   UNL A   1      36.231  31.087  31.906  1.00  0.00     0.022 A 
BRANCH  52  55
ATOM     55  S   UNL A   1      35.232  32.603  29.856  1.00  0.00     0.127 S 
ATOM     56  O   UNL A   1      34.339  32.849  30.985  1.00  0.00    -0.237 OA
ATOM     57  O   UNL A   1      36.068  33.740  29.471  1.00  0.00    -0.237 OA
ATOM     58  O   UNL A   1      34.654  31.878  28.732  1.00  0.00    -0.744 OA
ENDBRANCH  52  55
ENDBRANCH  24  48
BRANCH  36  59
ATOM     59  C   UNL A   1      44.821  33.095  29.279  1.00  0.00     0.023 A 
ATOM     60  C   UNL A   1      45.599  33.292  30.434  1.00  0.00     0.012 A 
ATOM     61  C   UNL A   1      44.683  34.130  28.336  1.00  0.00     0.148 A 
ATOM     62  C   UNL A   1      46.219  34.519  30.655  1.00  0.00     0.002 A 
ATOM     63  C   UNL A   1      45.351  35.326  28.534  1.00  0.00     0.091 A 
ATOM     64  F   UNL A   1      43.913  33.915  27.259  1.00  0.00    -0.205 F 
ATOM     65  C   UNL A   1      46.110  35.528  29.699  1.00  0.00     0.022 A 
BRANCH  63  66
ATOM     66  S   UNL A   1      45.361  36.630  27.302  1.00  0.00     0.127 S 
ATOM     67  O   UNL A   1      43.931  36.858  27.100  1.00  0.00    -0.237 OA
ATOM     68  O   UNL A   1      46.061  37.707  28.001  1.00  0.00    -0.237 OA
ATOM     69  O   UNL A   1      46.073  36.093  26.150  1.00  0.00    -0.744 OA
ENDBRANCH  63  66
ENDBRANCH  36  59
ENDBRANCH  10  11
ENDBRANCH   3   5
ENDBRANCH   2   3
ENDBRANCH   1   2
BRANCH   1  70
ATOM     70  C   UNL A   1      38.182  20.020  24.612  1.00  0.00     0.275 C 
BRANCH  70  71
ATOM     71  O   UNL A   1      36.774  21.417  25.078  1.00  0.00    -0.457 OA
BRANCH  71  72
ATOM     72  C   UNL A   1      35.696  22.390  24.759  1.00  0.00     0.359 C 
ATOM     73  O   UNL A   1      35.952  23.340  24.014  1.00  0.00    -0.244 OA
BRANCH  72  74
ATOM     74  C   UNL A   1      34.271  22.363  25.317  1.00  0.00     0.179 A 
ATOM     75  N   UNL A   1      34.303  22.632  26.671  1.00  0.00    -0.245 NA
ATOM     76  C   UNL A   1      33.025  22.332  24.650  1.00  0.00     0.161 A 
ATOM     77  C   UNL A   1      33.122  22.834  27.323  1.00  0.00     0.132 A 
ATOM     78  N   UNL A   1      31.855  22.436  25.388  1.00  0.00    -0.247 NA
ATOM     79  C   UNL A   1      31.912  22.685  26.703  1.00  0.00     0.132 A 
BRANCH  76  80
ATOM     80  C   UNL A   1      32.577  22.109  23.204  1.00  0.00     0.278 C 
ATOM     81  O   UNL A   1      32.352  20.951  22.820  1.00  0.00    -0.267 OA
ATOM     82  N   UNL A   1      32.425  23.039  22.215  1.00  0.00    -0.303 N 
ATOM     83  H   UNL A   1      32.287  22.683  21.307  1.00  0.00     0.172 HD
BRANCH  82  84
ATOM     84  C   UNL A   1      32.438  24.381  22.324  1.00  0.00     0.164 A 
ATOM     85  N   UNL A   1      33.327  25.027  21.555  1.00  0.00    -0.155 NA
ATOM     86  C   UNL A   1      31.510  25.203  22.990  1.00  0.00     0.063 A 
ATOM     87  N   UNL A   1      32.798  26.226  21.216  1.00  0.00    -0.259 N 
ATOM     88  C   UNL A   1      31.774  26.622  22.007  1.00  0.00     0.157 A 
ATOM     89  C   UNL A   1      30.050  25.255  24.133  1.00  0.00     0.017 A 
ATOM     90  H   UNL A   1      33.128  26.763  20.460  1.00  0.00     0.192 HD
ATOM     91  N   UNL A   1      30.773  27.986  22.005  1.00  0.00    -0.237 NA
ATOM     92  C   UNL A   1      28.971  26.654  24.130  1.00  0.00     0.021 A 
ATOM     93  C   UNL A   1      29.400  27.939  23.061  1.00  0.00     0.113 A 
ENDBRANCH  82  84
ENDBRANCH  76  80
ENDBRANCH  72  74
ENDBRANCH  71  72
ENDBRANCH  70  71
ENDBRANCH   1  70
TORSDOF 16
ENDMDL
MODEL 2
REMARK VINA RESULT:     -14.1      5.156     10.849
REMARK SMILES O=C(OCCOC(=O)c1nccnc1C(=O)Nc1n[nH]c2ncccc12)c1ccc(-c2c3nc(c(-c4cccc(S(=O)(=O)[O-])c4F)c4ccc([nH]4)c(-c4cccc(S(=O)(=O)[O-])c4F)c4nc(c(-c5cccc(S(=O)(=O)[O-])c5F)c5ccc2[nH]5)C=C4)C=C3)cc1
REMARK SMILES IDX 4 1 3 2 2 3 1 4 27 5 28 6 89 7 29 8 88 9 30 10 31 11 32 12
REMARK SMILES IDX 82 13 33 14 87 15 81 16 83 17 34 18 86 19 80 20 79 21 35 23
REMARK SMILES IDX 67 24 47 25 66 26 48 27 51 28 65 29 84 30 49 31 50 32 64 34
REMARK SMILES IDX 85 35 52 36 36 37 37 38 45 39 38 40 40 41 46 42 39 43 41 44
REMARK SMILES IDX 42 45 43 46 44 47 68 48 69 49 77 50 70 51 72 52 78 53 71 54
REMARK SMILES IDX 73 55 74 56 75 57 76 58 53 59 54 60 62 61 55 62 57 63 63 64
REMARK SMILES IDX 56 65 58 66 59 67 60 68 61 69 5 70 6 71 7 72 8 73 9 74 10 75
REMARK SMILES IDX 14 76 11 77 13 78 12 79 15 80 16 81 17 82 18 84 19 85 26 86
REMARK SMILES IDX 20 87 21 88 25 89 22 91 24 92 23 93
REMARK H PARENT 83 22 51 33 17 83 20 90
REMARK Flexibility Score: inf
ROOT
ATOM      1  C   UNL A   1      32.097  33.323  26.780  1.00  0.00     0.275 C 
ENDROOT
BRANCH   1   2
ATOM      2  O   UNL A   1      32.583  34.064  28.055  1.00  0.00    -0.458 OA
BRANCH   2   3
ATOM      3  C   UNL A   1      33.530  33.968  29.073  1.00  0.00     0.338 C 
ATOM      4  O   UNL A   1      33.416  34.613  30.111  1.00  0.00    -0.246 OA
BRANCH   3   5
ATOM      5  C   UNL A   1      34.907  33.402  28.774  1.00  0.00     0.060 A 
ATOM      6  C   UNL A   1      34.982  32.243  28.060  1.00  0.00     0.016 A 
ATOM      7  C   UNL A   1      36.153  33.950  29.010  1.00  0.00     0.016 A 
ATOM      8  C   UNL A   1      36.021  31.327  28.232  1.00  0.00     0.010 A 
ATOM      9  C   UNL A   1      37.303  33.103  28.976  1.00  0.00     0.010 A 
ATOM     10  C   UNL A   1      37.171  31.698  28.861  1.00  0.00    -0.014 A 
BRANCH  10  11
ATOM     11  C   UNL A   1      38.089  30.707  29.545  1.00  0.00     0.031 A 
ATOM     12  C   UNL A   1      38.149  30.831  31.040  1.00  0.00     0.074 A 
ATOM     13  C   UNL A   1      38.695  29.580  29.085  1.00  0.00     0.049 A 
ATOM     14  N   UNL A   1      39.125  30.608  31.867  1.00  0.00    -0.248 NA
ATOM     15  C   UNL A   1      36.907  31.301  31.682  1.00  0.00     0.031 C 
ATOM     16  C   UNL A   1      38.422  28.844  27.859  1.00  0.00     0.029 A 
ATOM     17  N   UNL A   1      39.738  28.847  29.630  1.00  0.00    -0.354 N 
ATOM     18  C   UNL A   1      38.682  31.109  33.081  1.00  0.00     0.074 A 
ATOM     19  C   UNL A   1      37.343  31.612  32.889  1.00  0.00     0.031 C 
ATOM     20  C   UNL A   1      39.353  27.901  27.650  1.00  0.00     0.029 A 
ATOM     21  C   UNL A   1      40.307  27.956  28.735  1.00  0.00     0.049 A 
ATOM     22  H   UNL A   1      40.045  28.950  30.559  1.00  0.00     0.167 HD
ATOM     23  C   UNL A   1      39.362  31.157  34.246  1.00  0.00     0.034 A 
ATOM     24  C   UNL A   1      41.480  27.291  28.755  1.00  0.00     0.034 A 
ATOM     25  C   UNL A   1      40.617  30.491  34.425  1.00  0.00     0.049 A 
ATOM     26  C   UNL A   1      42.317  27.415  29.993  1.00  0.00     0.074 A 
ATOM     27  C   UNL A   1      41.442  30.475  35.531  1.00  0.00     0.029 A 
ATOM     28  N   UNL A   1      41.206  29.677  33.466  1.00  0.00    -0.354 N 
ATOM     29  N   UNL A   1      42.042  28.081  31.089  1.00  0.00    -0.248 NA
ATOM     30  C   UNL A   1      43.589  26.684  30.028  1.00  0.00     0.031 C 
ATOM     31  C   UNL A   1      42.548  29.673  35.227  1.00  0.00     0.029 A 
ATOM     32  C   UNL A   1      42.387  29.154  33.950  1.00  0.00     0.049 A 
ATOM     33  H   UNL A   1      40.836  29.500  32.572  1.00  0.00     0.167 HD
ATOM     34  C   UNL A   1      43.074  27.805  31.969  1.00  0.00     0.074 A 
ATOM     35  C   UNL A   1      43.987  26.916  31.273  1.00  0.00     0.031 C 
ATOM     36  C   UNL A   1      43.246  28.239  33.241  1.00  0.00     0.034 A 
BRANCH  23  37
ATOM     37  C   UNL A   1      38.797  32.038  35.322  1.00  0.00     0.023 A 
ATOM     38  C   UNL A   1      38.882  33.443  35.254  1.00  0.00     0.012 A 
ATOM     39  C   UNL A   1      38.244  31.434  36.469  1.00  0.00     0.148 A 
ATOM     40  C   UNL A   1      38.491  34.227  36.341  1.00  0.00     0.002 A 
ATOM     41  C   UNL A   1      37.796  32.223  37.517  1.00  0.00     0.091 A 
ATOM     42  F   UNL A   1      38.208  30.095  36.531  1.00  0.00    -0.205 F 
ATOM     43  C   UNL A   1      37.941  33.619  37.466  1.00  0.00     0.022 A 
BRANCH  41  44
ATOM     44  S   UNL A   1      36.998  31.533  38.967  1.00  0.00     0.127 S 
ATOM     45  O   UNL A   1      35.820  32.391  39.092  1.00  0.00    -0.237 OA
ATOM     46  O   UNL A   1      36.715  30.165  38.532  1.00  0.00    -0.237 OA
ATOM     47  O   UNL A   1      37.963  31.640  40.051  1.00  0.00    -0.744 OA
ENDBRANCH  41  44
ENDBRANCH  23  37
BRANCH  24  48
ATOM     48  C   UNL A   1      41.938  26.496  27.570  1.00  0.00     0.023 A 
ATOM     49  C   UNL A   1      42.640  27.113  26.516  1.00  0.00     0.012 A 
ATOM     50  C   UNL A   1      41.682  25.110  27.490  1.00  0.00     0.148 A 
ATOM     51  C   UNL A   1      43.053  26.374  25.401  1.00  0.00     0.002 A 
ATOM     52  C   UNL A   1      42.133  24.372  26.399  1.00  0.00     0.091 A 
ATOM     53  F   UNL A   1      41.003  24.533  28.492  1.00  0.00    -0.205 F 
ATOM     54  C   UNL A   1      42.808  25.004  25.345  1.00  0.00     0.022 A 
BRANCH  52  55
ATOM     55  S   UNL A   1      41.953  22.585  26.302  1.00  0.00     0.127 S 
ATOM     56  O   UNL A   1      42.619  22.283  25.038  1.00  0.00    -0.237 OA
ATOM     57  O   UNL A   1      42.670  22.145  27.499  1.00  0.00    -0.237 OA
ATOM     58  O   UNL A   1      40.517  22.337  26.342  1.00  0.00    -0.744 OA
ENDBRANCH  52  55
ENDBRANCH  24  48
BRANCH  36  59
ATOM     59  C   UNL A   1      44.425  27.704  33.994  1.00  0.00     0.023 A 
ATOM     60  C   UNL A   1      45.638  28.415  34.011  1.00  0.00     0.012 A 
ATOM     61  C   UNL A   1      44.277  26.544  34.776  1.00  0.00     0.148 A 
ATOM     62  C   UNL A   1      46.702  27.962  34.787  1.00  0.00     0.002 A 
ATOM     63  C   UNL A   1      45.319  26.133  35.591  1.00  0.00     0.091 A 
ATOM     64  F   UNL A   1      43.116  25.876  34.716  1.00  0.00    -0.205 F 
ATOM     65  C   UNL A   1      46.537  26.833  35.588  1.00  0.00     0.022 A 
BRANCH  63  66
ATOM     66  S   UNL A   1      45.151  24.765  36.739  1.00  0.00     0.127 S 
ATOM     67  O   UNL A   1      43.906  25.105  37.427  1.00  0.00    -0.237 OA
ATOM     68  O   UNL A   1      45.059  23.617  35.837  1.00  0.00    -0.237 OA
ATOM     69  O   UNL A   1      46.347  24.787  37.571  1.00  0.00    -0.744 OA
ENDBRANCH  63  66
ENDBRANCH  36  59
ENDBRANCH  10  11
ENDBRANCH   3   5
ENDBRANCH   2   3
ENDBRANCH   1   2
BRANCH   1  70
ATOM     70  C   UNL A   1      31.380  31.625  26.726  1.00  0.00     0.275 C 
BRANCH  70  71
ATOM     71  O   UNL A   1      32.301  29.899  26.160  1.00  0.00    -0.457 OA
BRANCH  71  72
ATOM     72  C   UNL A   1      32.355  28.441  25.876  1.00  0.00     0.359 C 
ATOM     73  O   UNL A   1      32.559  27.659  26.810  1.00  0.00    -0.244 OA
BRANCH  72  74
ATOM     74  C   UNL A   1      32.232  27.792  24.495  1.00  0.00     0.179 A 
ATOM     75  N   UNL A   1      33.351  28.093  23.744  1.00  0.00    -0.245 NA
ATOM     76  C   UNL A   1      31.320  26.825  24.014  1.00  0.00     0.161 A 
ATOM     77  C   UNL A   1      33.522  27.461  22.548  1.00  0.00     0.132 A 
ATOM     78  N   UNL A   1      31.492  26.300  22.742  1.00  0.00    -0.247 NA
ATOM     79  C   UNL A   1      32.581  26.617  22.027  1.00  0.00     0.132 A 
BRANCH  76  80
ATOM     80  C   UNL A   1      30.022  26.206  24.539  1.00  0.00     0.278 C 
ATOM     81  O   UNL A   1      28.949  26.783  24.309  1.00  0.00    -0.267 OA
ATOM     82  N   UNL A   1      29.871  25.080  25.298  1.00  0.00    -0.303 N 
ATOM     83  H   UNL A   1      28.973  24.933  25.674  1.00  0.00     0.172 HD
BRANCH  82  84
ATOM     84  C   UNL A   1      30.794  24.145  25.595  1.00  0.00     0.164 A 
ATOM     85  N   UNL A   1      30.997  23.912  26.900  1.00  0.00    -0.155 NA
ATOM     86  C   UNL A   1      31.427  23.247  24.717  1.00  0.00     0.063 A 
ATOM     87  N   UNL A   1      31.324  22.606  27.048  1.00  0.00    -0.259 N 
ATOM     88  C   UNL A   1      31.741  22.008  25.908  1.00  0.00     0.157 A 
ATOM     89  C   UNL A   1      31.709  22.774  22.947  1.00  0.00     0.017 A 
ATOM     90  H   UNL A   1      31.264  22.133  27.909  1.00  0.00     0.192 HD
ATOM     91  N   UNL A   1      32.229  20.430  25.544  1.00  0.00    -0.237 NA
ATOM     92  C   UNL A   1      32.191  21.125  22.535  1.00  0.00     0.021 A 
ATOM     93  C   UNL A   1      32.422  20.049  23.864  1.00  0.00     0.113 A 
ENDBRANCH  82  84
ENDBRANCH  76  80
ENDBRANCH  72  74
ENDBRANCH  71  72
ENDBRANCH  70  71
ENDBRANCH   1  70
TORSDOF 16
ENDMDL
MODEL 3
REMARK VINA RESULT:     -13.9      5.178     10.716
REMARK SMILES O=C(OCCOC(=O)c1nccnc1C(=O)Nc1n[nH]c2ncccc12)c1ccc(-c2c3nc(c(-c4cccc(S(=O)(=O)[O-])c4F)c4ccc([nH]4)c(-c4cccc(S(=O)(=O)[O-])c4F)c4nc(c(-c5cccc(S(=O)(=O)[O-])c5F)c5ccc2[nH]5)C=C4)C=C3)cc1
REMARK SMILES IDX 4 1 3 2 2 3 1 4 27 5 28 6 89 7 29 8 88 9 30 10 31 11 32 12
REMARK SMILES IDX 82 13 33 14 87 15 81 16 83 17 34 18 86 19 80 20 79 21 35 23
REMARK SMILES IDX 67 24 47 25 66 26 48 27 51 28 65 29 84 30 49 31 50 32 64 34
REMARK SMILES IDX 85 35 52 36 36 37 37 38 45 39 38 40 40 41 46 42 39 43 41 44
REMARK SMILES IDX 42 45 43 46 44 47 68 48 69 49 77 50 70 51 72 52 78 53 71 54
REMARK SMILES IDX 73 55 74 56 75 57 76 58 53 59 54 60 62 61 55 62 57 63 63 64
REMARK SMILES IDX 56 65 58 66 59 67 60 68 61 69 5 70 6 71 7 72 8 73 9 74 10 75
REMARK SMILES IDX 14 76 11 77 13 78 12 79 15 80 16 81 17 82 18 84 19 85 26 86
REMARK SMILES IDX 20 87 21 88 25 89 22 91 24 92 23 93
REMARK H PARENT 83 22 51 33 17 83 20 90
REMARK Flexibility Score: inf
ROOT
ATOM      1  C   UNL A   1      32.525  33.654  27.282  1.00  0.00     0.275 C 
ENDROOT
BRANCH   1   2
ATOM      2  O   UNL A   1      32.905  34.111  28.716  1.00  0.00    -0.458 OA
BRANCH   2   3
ATOM      3  C   UNL A   1      34.016  34.313  29.533  1.00  0.00     0.338 C 
ATOM      4  O   UNL A   1      34.052  35.235  30.342  1.00  0.00    -0.246 OA
BRANCH   3   5
ATOM      5  C   UNL A   1      35.346  33.674  29.174  1.00  0.00     0.060 A 
ATOM      6  C   UNL A   1      35.328  32.525  28.440  1.00  0.00     0.016 A 
ATOM      7  C   UNL A   1      36.630  34.146  29.370  1.00  0.00     0.016 A 
ATOM      8  C   UNL A   1      36.318  31.548  28.558  1.00  0.00     0.010 A 
ATOM      9  C   UNL A   1      37.727  33.235  29.279  1.00  0.00     0.010 A 
ATOM     10  C   UNL A   1      37.509  31.843  29.148  1.00  0.00    -0.014 A 
BRANCH  10  11
ATOM     11  C   UNL A   1      38.394  30.789  29.781  1.00  0.00     0.031 A 
ATOM     12  C   UNL A   1      38.497  30.868  31.277  1.00  0.00     0.074 A 
ATOM     13  C   UNL A   1      38.933  29.648  29.275  1.00  0.00     0.049 A 
ATOM     14  N   UNL A   1      39.480  30.575  32.073  1.00  0.00    -0.248 NA
ATOM     15  C   UNL A   1      37.295  31.380  31.963  1.00  0.00     0.031 C 
ATOM     16  C   UNL A   1      38.594  28.961  28.038  1.00  0.00     0.029 A 
ATOM     17  N   UNL A   1      39.951  28.850  29.774  1.00  0.00    -0.354 N 
ATOM     18  C   UNL A   1      39.091  31.062  33.311  1.00  0.00     0.074 A 
ATOM     19  C   UNL A   1      37.775  31.635  33.167  1.00  0.00     0.031 C 
ATOM     20  C   UNL A   1      39.472  27.980  27.779  1.00  0.00     0.029 A 
ATOM     21  C   UNL A   1      40.453  27.958  28.841  1.00  0.00     0.049 A 
ATOM     22  H   UNL A   1      40.285  28.911  30.697  1.00  0.00     0.167 HD
ATOM     23  C   UNL A   1      39.801  31.044  34.458  1.00  0.00     0.034 A 
ATOM     24  C   UNL A   1      41.593  27.236  28.813  1.00  0.00     0.034 A 
ATOM     25  C   UNL A   1      41.026  30.312  34.588  1.00  0.00     0.049 A 
ATOM     26  C   UNL A   1      42.464  27.285  30.031  1.00  0.00     0.074 A 
ATOM     27  C   UNL A   1      41.875  30.225  35.671  1.00  0.00     0.029 A 
ATOM     28  N   UNL A   1      41.551  29.499  33.592  1.00  0.00    -0.354 N 
ATOM     29  N   UNL A   1      42.249  27.932  31.152  1.00  0.00    -0.248 NA
ATOM     30  C   UNL A   1      43.699  26.492  30.015  1.00  0.00     0.031 C 
ATOM     31  C   UNL A   1      42.933  29.380  35.317  1.00  0.00     0.029 A 
ATOM     32  C   UNL A   1      42.716  28.905  34.032  1.00  0.00     0.049 A 
ATOM     33  H   UNL A   1      41.151  29.365  32.703  1.00  0.00     0.167 HD
ATOM     34  C   UNL A   1      43.288  27.581  31.998  1.00  0.00     0.074 A 
ATOM     35  C   UNL A   1      44.138  26.670  31.255  1.00  0.00     0.031 C 
ATOM     36  C   UNL A   1      43.511  27.970  33.276  1.00  0.00     0.034 A 
BRANCH  23  37
ATOM     37  C   UNL A   1      39.307  31.921  35.572  1.00  0.00     0.023 A 
ATOM     38  C   UNL A   1      38.285  31.506  36.449  1.00  0.00     0.012 A 
ATOM     39  C   UNL A   1      39.825  33.226  35.685  1.00  0.00     0.148 A 
ATOM     40  C   UNL A   1      37.739  32.400  37.370  1.00  0.00     0.002 A 
ATOM     41  C   UNL A   1      39.323  34.088  36.649  1.00  0.00     0.091 A 
ATOM     42  F   UNL A   1      40.769  33.616  34.816  1.00  0.00    -0.205 F 
ATOM     43  C   UNL A   1      38.263  33.685  37.476  1.00  0.00     0.022 A 
BRANCH  41  44
ATOM     44  S   UNL A   1      39.994  35.730  36.913  1.00  0.00     0.127 S 
ATOM     45  O   UNL A   1      39.565  36.423  35.699  1.00  0.00    -0.237 OA
ATOM     46  O   UNL A   1      39.300  36.146  38.132  1.00  0.00    -0.237 OA
ATOM     47  O   UNL A   1      41.432  35.562  37.058  1.00  0.00    -0.744 OA
ENDBRANCH  41  44
ENDBRANCH  23  37
BRANCH  24  48
ATOM     48  C   UNL A   1      41.982  26.454  27.595  1.00  0.00     0.023 A 
ATOM     49  C   UNL A   1      42.604  27.086  26.501  1.00  0.00     0.012 A 
ATOM     50  C   UNL A   1      41.741  25.065  27.524  1.00  0.00     0.148 A 
ATOM     51  C   UNL A   1      42.952  26.359  25.356  1.00  0.00     0.002 A 
ATOM     52  C   UNL A   1      42.129  24.339  26.401  1.00  0.00     0.091 A 
ATOM     53  F   UNL A   1      41.138  24.474  28.566  1.00  0.00    -0.205 F 
ATOM     54  C   UNL A   1      42.723  24.986  25.309  1.00  0.00     0.022 A 
BRANCH  52  55
ATOM     55  S   UNL A   1      41.968  22.550  26.307  1.00  0.00     0.127 S 
ATOM     56  O   UNL A   1      40.518  22.378  26.313  1.00  0.00    -0.237 OA
ATOM     57  O   UNL A   1      42.620  22.256  25.030  1.00  0.00    -0.237 OA
ATOM     58  O   UNL A   1      42.676  22.034  27.472  1.00  0.00    -0.744 OA
ENDBRANCH  52  55
ENDBRANCH  24  48
BRANCH  36  59
ATOM     59  C   UNL A   1      44.681  27.358  33.984  1.00  0.00     0.023 A 
ATOM     60  C   UNL A   1      45.935  27.994  33.965  1.00  0.00     0.012 A 
ATOM     61  C   UNL A   1      44.489  26.201  34.761  1.00  0.00     0.148 A 
ATOM     62  C   UNL A   1      46.994  27.470  34.700  1.00  0.00     0.002 A 
ATOM     63  C   UNL A   1      45.531  25.720  35.536  1.00  0.00     0.091 A 
ATOM     64  F   UNL A   1      43.288  25.605  34.736  1.00  0.00    -0.205 F 
ATOM     65  C   UNL A   1      46.788  26.345  35.498  1.00  0.00     0.022 A 
BRANCH  63  66
ATOM     66  S   UNL A   1      45.319  24.352  36.678  1.00  0.00     0.127 S 
ATOM     67  O   UNL A   1      44.224  24.834  37.518  1.00  0.00    -0.237 OA
ATOM     68  O   UNL A   1      44.966  23.254  35.780  1.00  0.00    -0.237 OA
ATOM     69  O   UNL A   1      46.598  24.192  37.357  1.00  0.00    -0.744 OA
ENDBRANCH  63  66
ENDBRANCH  36  59
ENDBRANCH  10  11
ENDBRANCH   3   5
ENDBRANCH   2   3
ENDBRANCH   1   2
BRANCH   1  70
ATOM     70  C   UNL A   1      31.392  32.262  26.859  1.00  0.00     0.275 C 
BRANCH  70  71
ATOM     71  O   UNL A   1      31.816  30.270  26.842  1.00  0.00    -0.457 OA
BRANCH  71  72
ATOM     72  C   UNL A   1      31.771  28.896  26.277  1.00  0.00     0.359 C 
ATOM     73  O   UNL A   1      31.529  27.948  27.030  1.00  0.00    -0.244 OA
BRANCH  72  74
ATOM     74  C   UNL A   1      32.054  28.517  24.820  1.00  0.00     0.179 A 
ATOM     75  N   UNL A   1      33.353  28.860  24.500  1.00  0.00    -0.245 NA
ATOM     76  C   UNL A   1      31.308  27.727  23.916  1.00  0.00     0.161 A 
ATOM     77  C   UNL A   1      33.861  28.441  23.305  1.00  0.00     0.132 A 
ATOM     78  N   UNL A   1      31.841  27.427  22.672  1.00  0.00    -0.247 NA
ATOM     79  C   UNL A   1      33.101  27.781  22.380  1.00  0.00     0.132 A 
BRANCH  76  80
ATOM     80  C   UNL A   1      29.899  27.127  23.911  1.00  0.00     0.278 C 
ATOM     81  O   UNL A   1      29.003  27.714  23.285  1.00  0.00    -0.267 OA
ATOM     82  N   UNL A   1      29.455  26.012  24.562  1.00  0.00    -0.303 N 
ATOM     83  H   UNL A   1      28.479  25.878  24.569  1.00  0.00     0.172 HD
BRANCH  82  84
ATOM     84  C   UNL A   1      30.182  25.071  25.194  1.00  0.00     0.164 A 
ATOM     85  N   UNL A   1      29.870  24.851  26.480  1.00  0.00    -0.155 NA
ATOM     86  C   UNL A   1      31.088  24.155  24.630  1.00  0.00     0.063 A 
ATOM     87  N   UNL A   1      30.098  23.544  26.751  1.00  0.00    -0.259 N 
ATOM     88  C   UNL A   1      30.908  22.927  25.859  1.00  0.00     0.157 A 
ATOM     89  C   UNL A   1      32.015  23.658  23.102  1.00  0.00     0.017 A 
ATOM     90  H   UNL A   1      29.708  23.082  27.527  1.00  0.00     0.192 HD
ATOM     91  N   UNL A   1      31.475  21.340  25.719  1.00  0.00    -0.237 NA
ATOM     92  C   UNL A   1      32.594  21.999  22.916  1.00  0.00     0.021 A 
ATOM     93  C   UNL A   1      32.286  20.936  24.241  1.00  0.00     0.113 A 
ENDBRANCH  82  84
ENDBRANCH  76  80
ENDBRANCH  72  74
ENDBRANCH  71  72
ENDBRANCH  70  71
ENDBRANCH   1  70
TORSDOF 16
ENDMDL
