MODEL 1
REMARK VINA RESULT:     -11.7      0.000      0.000
REMARK SMILES C[C@@H]1[C@H](C)CCC[C@@H]1NC(=O)COc1csc(C(=O)OCCOC(=O)c2ccc(-c3c4nc(c(-c5cccc(S(=O)(=O)[O-])c5F)c5ccc([nH]5)c(-c5cccc(S(=O)(=O)[O-])c5F)c5nc(c(-c6cccc(S(=O)(=O)[O-])c6F)c6ccc3[nH]6)C=C5)C=C4)cc2)c1
REMARK SMILES IDX 21 1 20 2 18 3 19 4 17 5 14 6 15 7 89 8 16 9 13 10 12 11
REMARK SMILES IDX 10 12 9 13 11 15 8 16 1 17 2 18 3 19 4 20 5 21 7 22 6 23
REMARK SMILES IDX 22 24 23 25 24 26 25 27 26 28 27 29 88 30 28 31 87 32 29 33
REMARK SMILES IDX 30 34 31 35 81 36 32 37 86 38 80 39 82 40 33 41 85 42 79 43
REMARK SMILES IDX 78 44 34 46 66 47 46 48 65 49 47 50 50 51 64 52 83 53 48 54
REMARK SMILES IDX 49 55 63 57 84 58 51 59 35 60 36 61 44 62 37 63 39 64 45 65
REMARK SMILES IDX 38 66 40 67 41 68 42 69 43 70 67 71 68 72 76 73 69 74 71 75
REMARK SMILES IDX 77 76 70 77 72 78 73 79 74 80 75 81 52 82 53 83 61 84 54 85
REMARK SMILES IDX 56 86 62 87 55 88 57 89 58 90 59 91 60 92
REMARK H PARENT 9 14 82 45 50 56
REMARK Flexibility Score: inf
ROOT
ATOM      1  C   UNL A   1      31.324  31.720  26.869  1.00  0.00     0.275 C 
ENDROOT
BRANCH   1   2
ATOM      2  O   UNL A   1      32.195  30.690  26.368  1.00  0.00    -0.458 OA
BRANCH   2   3
ATOM      3  C   UNL A   1      31.612  29.867  25.456  1.00  0.00     0.348 C 
ATOM      4  O   UNL A   1      30.721  30.191  24.684  1.00  0.00    -0.245 OA
BRANCH   3   5
ATOM      5  C   UNL A   1      32.160  28.542  25.549  1.00  0.00     0.116 A 
ATOM      6  C   UNL A   1      32.397  26.301  25.006  1.00  0.00     0.131 A 
ATOM      7  C   UNL A   1      33.711  26.668  25.210  1.00  0.00     0.112 A 
ATOM      8  C   UNL A   1      31.499  27.356  25.330  1.00  0.00     0.074 A 
ATOM      9  S   UNL A   1      33.840  28.306  25.717  1.00  0.00    -0.133 S 
BRANCH   6  10
ATOM     10  O   UNL A   1      31.929  25.166  24.433  1.00  0.00    -0.483 OA
BRANCH  10  11
ATOM     11  C   UNL A   1      31.873  25.100  23.031  1.00  0.00     0.329 C 
BRANCH  11  12
ATOM     12  C   UNL A   1      32.992  24.426  22.219  1.00  0.00     0.258 C 
ATOM     13  N   UNL A   1      33.830  23.463  22.684  1.00  0.00    -0.350 N 
ATOM     14  H   UNL A   1      34.548  23.255  22.045  1.00  0.00     0.163 HD
ATOM     15  O   UNL A   1      33.225  24.838  21.073  1.00  0.00    -0.271 OA
BRANCH  13  16
ATOM     16  C   UNL A   1      33.926  22.658  23.909  1.00  0.00     0.085 C 
ATOM     17  C   UNL A   1      36.478  23.010  23.550  1.00  0.00     0.010 C 
ATOM     18  C   UNL A   1      35.378  22.429  24.451  1.00  0.00     0.011 C 
ATOM     19  C   UNL A   1      35.676  21.039  25.094  1.00  0.00    -0.009 C 
ATOM     20  C   UNL A   1      37.098  20.513  24.883  1.00  0.00     0.008 C 
ATOM     21  C   UNL A   1      34.653  19.948  24.776  1.00  0.00     0.004 C 
ATOM     22  C   UNL A   1      32.910  21.512  23.947  1.00  0.00     0.025 C 
ATOM     23  C   UNL A   1      33.234  20.440  24.969  1.00  0.00     0.002 C 
ENDBRANCH  13  16
ENDBRANCH  11  12
ENDBRANCH  10  11
ENDBRANCH   6  10
ENDBRANCH   3   5
ENDBRANCH   2   3
ENDBRANCH   1   2
BRANCH   1  24
ATOM     24  C   UNL A   1      32.051  33.058  26.808  1.00  0.00     0.275 C 
BRANCH  24  25
ATOM     25  O   UNL A   1      32.815  33.262  28.014  1.00  0.00    -0.458 OA
BRANCH  25  26
ATOM     26  C   UNL A   1      34.023  33.846  27.839  1.00  0.00     0.338 C 
ATOM     27  O   UNL A   1      34.232  34.968  27.403  1.00  0.00    -0.246 OA
BRANCH  26  28
ATOM     28  C   UNL A   1      35.119  32.917  28.171  1.00  0.00     0.060 A 
ATOM     29  C   UNL A   1      34.889  31.578  28.499  1.00  0.00     0.016 A 
ATOM     30  C   UNL A   1      36.402  33.458  28.292  1.00  0.00     0.016 A 
ATOM     31  C   UNL A   1      35.928  30.811  29.047  1.00  0.00     0.010 A 
ATOM     32  C   UNL A   1      37.448  32.669  28.770  1.00  0.00     0.010 A 
ATOM     33  C   UNL A   1      37.213  31.357  29.212  1.00  0.00    -0.014 A 
BRANCH  33  34
ATOM     34  C   UNL A   1      38.306  30.624  29.917  1.00  0.00     0.031 A 
ATOM     35  C   UNL A   1      38.632  30.963  31.353  1.00  0.00     0.074 A 
ATOM     36  C   UNL A   1      39.052  29.705  29.274  1.00  0.00     0.049 A 
ATOM     37  N   UNL A   1      39.634  30.564  32.098  1.00  0.00    -0.248 NA
ATOM     38  C   UNL A   1      37.719  31.895  32.036  1.00  0.00     0.031 C 
ATOM     39  C   UNL A   1      38.865  29.278  27.889  1.00  0.00     0.029 A 
ATOM     40  N   UNL A   1      40.139  28.981  29.702  1.00  0.00    -0.354 N 
ATOM     41  C   UNL A   1      39.506  31.241  33.307  1.00  0.00     0.074 A 
ATOM     42  C   UNL A   1      38.338  32.086  33.192  1.00  0.00     0.031 C 
ATOM     43  C   UNL A   1      39.798  28.364  27.582  1.00  0.00     0.029 A 
ATOM     44  C   UNL A   1      40.680  28.172  28.731  1.00  0.00     0.049 A 
ATOM     45  H   UNL A   1      40.497  29.037  30.619  1.00  0.00     0.167 HD
ATOM     46  C   UNL A   1      40.274  31.155  34.423  1.00  0.00     0.034 A 
ATOM     47  C   UNL A   1      41.768  27.376  28.755  1.00  0.00     0.034 A 
ATOM     48  C   UNL A   1      41.398  30.268  34.569  1.00  0.00     0.049 A 
ATOM     49  C   UNL A   1      42.594  27.281  30.011  1.00  0.00     0.074 A 
ATOM     50  C   UNL A   1      42.207  30.078  35.676  1.00  0.00     0.029 A 
ATOM     51  N   UNL A   1      41.865  29.413  33.584  1.00  0.00    -0.354 N 
ATOM     52  N   UNL A   1      42.412  27.869  31.167  1.00  0.00    -0.248 NA
ATOM     53  C   UNL A   1      43.760  26.385  29.971  1.00  0.00     0.031 C 
ATOM     54  C   UNL A   1      43.167  29.109  35.357  1.00  0.00     0.029 A 
ATOM     55  C   UNL A   1      42.945  28.685  34.058  1.00  0.00     0.049 A 
ATOM     56  H   UNL A   1      41.485  29.334  32.678  1.00  0.00     0.167 HD
ATOM     57  C   UNL A   1      43.412  27.383  32.005  1.00  0.00     0.074 A 
ATOM     58  C   UNL A   1      44.189  26.442  31.225  1.00  0.00     0.031 C 
ATOM     59  C   UNL A   1      43.669  27.699  33.299  1.00  0.00     0.034 A 
BRANCH  46  60
ATOM     60  C   UNL A   1      39.889  32.019  35.598  1.00  0.00     0.023 A 
ATOM     61  C   UNL A   1      40.525  33.264  35.783  1.00  0.00     0.012 A 
ATOM     62  C   UNL A   1      38.881  31.621  36.498  1.00  0.00     0.148 A 
ATOM     63  C   UNL A   1      40.198  34.077  36.869  1.00  0.00     0.002 A 
ATOM     64  C   UNL A   1      38.529  32.457  37.553  1.00  0.00     0.091 A 
ATOM     65  F   UNL A   1      38.299  30.425  36.325  1.00  0.00    -0.205 F 
ATOM     66  C   UNL A   1      39.195  33.678  37.748  1.00  0.00     0.022 A 
BRANCH  64  67
ATOM     67  S   UNL A   1      37.189  32.058  38.682  1.00  0.00     0.127 S 
ATOM     68  O   UNL A   1      36.096  32.866  38.145  1.00  0.00    -0.237 OA
ATOM     69  O   UNL A   1      37.030  30.615  38.487  1.00  0.00    -0.237 OA
ATOM     70  O   UNL A   1      37.667  32.433  40.006  1.00  0.00    -0.744 OA
ENDBRANCH  64  67
ENDBRANCH  46  60
BRANCH  47  71
ATOM     71  C   UNL A   1      42.096  26.539  27.567  1.00  0.00     0.023 A 
ATOM     72  C   UNL A   1      42.808  27.122  26.500  1.00  0.00     0.012 A 
ATOM     73  C   UNL A   1      41.749  25.176  27.499  1.00  0.00     0.148 A 
ATOM     74  C   UNL A   1      43.150  26.369  25.376  1.00  0.00     0.002 A 
ATOM     75  C   UNL A   1      42.139  24.418  26.401  1.00  0.00     0.091 A 
ATOM     76  F   UNL A   1      41.058  24.646  28.518  1.00  0.00    -0.205 F 
ATOM     77  C   UNL A   1      42.826  25.016  25.332  1.00  0.00     0.022 A 
BRANCH  75  78
ATOM     78  S   UNL A   1      41.882  22.643  26.310  1.00  0.00     0.127 S 
ATOM     79  O   UNL A   1      42.535  22.310  25.046  1.00  0.00    -0.237 OA
ATOM     80  O   UNL A   1      42.582  22.175  27.507  1.00  0.00    -0.237 OA
ATOM     81  O   UNL A   1      40.438  22.451  26.343  1.00  0.00    -0.744 OA
ENDBRANCH  75  78
ENDBRANCH  47  71
BRANCH  59  82
ATOM     82  C   UNL A   1      44.806  26.982  33.981  1.00  0.00     0.023 A 
ATOM     83  C   UNL A   1      46.122  27.472  33.857  1.00  0.00     0.012 A 
ATOM     84  C   UNL A   1      44.563  25.858  34.795  1.00  0.00     0.148 A 
ATOM     85  C   UNL A   1      47.181  26.833  34.503  1.00  0.00     0.002 A 
ATOM     86  C   UNL A   1      45.617  25.252  35.471  1.00  0.00     0.091 A 
ATOM     87  F   UNL A   1      43.310  25.389  34.884  1.00  0.00    -0.205 F 
ATOM     88  C   UNL A   1      46.928  25.732  35.319  1.00  0.00     0.022 A 
BRANCH  86  89
ATOM     89  S   UNL A   1      45.361  23.885  36.609  1.00  0.00     0.127 S 
ATOM     90  O   UNL A   1      44.744  22.885  35.740  1.00  0.00    -0.237 OA
ATOM     91  O   UNL A   1      46.725  23.565  37.032  1.00  0.00    -0.237 OA
ATOM     92  O   UNL A   1      44.513  24.410  37.670  1.00  0.00    -0.744 OA
ENDBRANCH  86  89
ENDBRANCH  59  82
ENDBRANCH  33  34
ENDBRANCH  26  28
ENDBRANCH  25  26
ENDBRANCH  24  25
ENDBRANCH   1  24
TORSDOF 18
ENDMDL
MODEL 2
REMARK VINA RESULT:     -11.6      4.978     10.899
REMARK SMILES C[C@@H]1[C@H](C)CCC[C@@H]1NC(=O)COc1csc(C(=O)OCCOC(=O)c2ccc(-c3c4nc(c(-c5cccc(S(=O)(=O)[O-])c5F)c5ccc([nH]5)c(-c5cccc(S(=O)(=O)[O-])c5F)c5nc(c(-c6cccc(S(=O)(=O)[O-])c6F)c6ccc3[nH]6)C=C5)C=C4)cc2)c1
REMARK SMILES IDX 21 1 20 2 18 3 19 4 17 5 14 6 15 7 89 8 16 9 13 10 12 11
REMARK SMILES IDX 10 12 9 13 11 15 8 16 1 17 2 18 3 19 4 20 5 21 7 22 6 23
REMARK SMILES IDX 22 24 23 25 24 26 25 27 26 28 27 29 88 30 28 31 87 32 29 33
REMARK SMILES IDX 30 34 31 35 81 36 32 37 86 38 80 39 82 40 33 41 85 42 79 43
REMARK SMILES IDX 78 44 34 46 66 47 46 48 65 49 47 50 50 51 64 52 83 53 48 54
REMARK SMILES IDX 49 55 63 57 84 58 51 59 35 60 36 61 44 62 37 63 39 64 45 65
REMARK SMILES IDX 38 66 40 67 41 68 42 69 43 70 67 71 68 72 76 73 69 74 71 75
REMARK SMILES IDX 77 76 70 77 72 78 73 79 74 80 75 81 52 82 53 83 61 84 54 85
REMARK SMILES IDX 56 86 62 87 55 88 57 89 58 90 59 91 60 92
REMARK H PARENT 9 14 82 45 50 56
REMARK Flexibility Score: inf
ROOT
ATOM      1  C   UNL A   1      38.118  20.001  24.842  1.00  0.00     0.275 C 
ENDROOT
BRANCH   1   2
ATOM      2  O   UNL A   1      37.501  21.084  25.562  1.00  0.00    -0.458 OA
BRANCH   2   3
ATOM      3  C   UNL A   1      36.553  21.752  24.852  1.00  0.00     0.348 C 
ATOM      4  O   UNL A   1      36.772  22.465  23.882  1.00  0.00    -0.245 OA
BRANCH   3   5
ATOM      5  C   UNL A   1      35.252  21.540  25.423  1.00  0.00     0.116 A 
ATOM      6  C   UNL A   1      33.171  22.146  26.246  1.00  0.00     0.131 A 
ATOM      7  C   UNL A   1      32.860  20.996  25.552  1.00  0.00     0.112 A 
ATOM      8  C   UNL A   1      34.575  22.381  26.274  1.00  0.00     0.074 A 
ATOM      9  S   UNL A   1      34.263  20.261  24.881  1.00  0.00    -0.133 S 
BRANCH   6  10
ATOM     10  O   UNL A   1      32.319  23.075  26.741  1.00  0.00    -0.483 OA
BRANCH  10  11
ATOM     11  C   UNL A   1      31.239  23.484  25.941  1.00  0.00     0.329 C 
BRANCH  11  12
ATOM     12  C   UNL A   1      30.190  24.480  26.464  1.00  0.00     0.258 C 
ATOM     13  N   UNL A   1      30.149  25.805  26.169  1.00  0.00    -0.350 N 
ATOM     14  H   UNL A   1      29.473  26.283  26.701  1.00  0.00     0.163 HD
ATOM     15  O   UNL A   1      29.357  24.084  27.291  1.00  0.00    -0.271 OA
BRANCH  13  16
ATOM     16  C   UNL A   1      30.866  26.699  25.250  1.00  0.00     0.085 C 
ATOM     17  C   UNL A   1      31.492  27.928  27.455  1.00  0.00     0.010 C 
ATOM     18  C   UNL A   1      31.669  27.859  25.930  1.00  0.00     0.011 C 
ATOM     19  C   UNL A   1      31.702  29.225  25.177  1.00  0.00    -0.009 C 
ATOM     20  C   UNL A   1      31.727  30.465  26.075  1.00  0.00     0.008 C 
ATOM     21  C   UNL A   1      30.647  29.384  24.082  1.00  0.00     0.004 C 
ATOM     22  C   UNL A   1      30.092  26.966  23.956  1.00  0.00     0.025 C 
ATOM     23  C   UNL A   1      30.592  28.168  23.180  1.00  0.00     0.002 C 
ENDBRANCH  13  16
ENDBRANCH  11  12
ENDBRANCH  10  11
ENDBRANCH   6  10
ENDBRANCH   3   5
ENDBRANCH   2   3
ENDBRANCH   1   2
BRANCH   1  24
ATOM     24  C   UNL A   1      39.240  19.417  25.691  1.00  0.00     0.275 C 
BRANCH  24  25
ATOM     25  O   UNL A   1      40.305  20.378  25.833  1.00  0.00    -0.458 OA
BRANCH  25  26
ATOM     26  C   UNL A   1      40.765  20.546  27.095  1.00  0.00     0.338 C 
ATOM     27  O   UNL A   1      41.068  19.662  27.882  1.00  0.00    -0.246 OA
BRANCH  26  28
ATOM     28  C   UNL A   1      40.790  21.972  27.470  1.00  0.00     0.060 A 
ATOM     29  C   UNL A   1      40.011  22.930  26.815  1.00  0.00     0.016 A 
ATOM     30  C   UNL A   1      41.738  22.368  28.417  1.00  0.00     0.016 A 
ATOM     31  C   UNL A   1      40.257  24.293  27.038  1.00  0.00     0.010 A 
ATOM     32  C   UNL A   1      41.928  23.723  28.688  1.00  0.00     0.010 A 
ATOM     33  C   UNL A   1      41.237  24.704  27.958  1.00  0.00    -0.014 A 
BRANCH  33  34
ATOM     34  C   UNL A   1      41.625  26.136  28.121  1.00  0.00     0.031 A 
ATOM     35  C   UNL A   1      42.999  26.595  27.688  1.00  0.00     0.074 A 
ATOM     36  C   UNL A   1      40.794  27.019  28.708  1.00  0.00     0.049 A 
ATOM     37  N   UNL A   1      43.593  27.747  27.881  1.00  0.00    -0.248 NA
ATOM     38  C   UNL A   1      43.822  25.616  26.958  1.00  0.00     0.031 C 
ATOM     39  C   UNL A   1      39.444  26.724  29.186  1.00  0.00     0.029 A 
ATOM     40  N   UNL A   1      40.978  28.344  29.025  1.00  0.00    -0.354 N 
ATOM     41  C   UNL A   1      44.874  27.611  27.355  1.00  0.00     0.074 A 
ATOM     42  C   UNL A   1      44.975  26.260  26.847  1.00  0.00     0.031 C 
ATOM     43  C   UNL A   1      38.919  27.834  29.728  1.00  0.00     0.029 A 
ATOM     44  C   UNL A   1      39.909  28.908  29.680  1.00  0.00     0.049 A 
ATOM     45  H   UNL A   1      41.799  28.841  28.803  1.00  0.00     0.167 HD
ATOM     46  C   UNL A   1      45.871  28.527  27.278  1.00  0.00     0.034 A 
ATOM     47  C   UNL A   1      39.747  30.142  30.196  1.00  0.00     0.034 A 
ATOM     48  C   UNL A   1      45.756  29.892  27.721  1.00  0.00     0.049 A 
ATOM     49  C   UNL A   1      40.860  31.151  30.081  1.00  0.00     0.074 A 
ATOM     50  C   UNL A   1      46.696  30.906  27.643  1.00  0.00     0.029 A 
ATOM     51  N   UNL A   1      44.629  30.439  28.312  1.00  0.00    -0.354 N 
ATOM     52  N   UNL A   1      42.034  31.026  29.513  1.00  0.00    -0.248 NA
ATOM     53  C   UNL A   1      40.611  32.481  30.656  1.00  0.00     0.031 C 
ATOM     54  C   UNL A   1      46.137  32.066  28.191  1.00  0.00     0.029 A 
ATOM     55  C   UNL A   1      44.844  31.778  28.596  1.00  0.00     0.049 A 
ATOM     56  H   UNL A   1      43.797  29.949  28.503  1.00  0.00     0.167 HD
ATOM     57  C   UNL A   1      42.645  32.272  29.621  1.00  0.00     0.074 A 
ATOM     58  C   UNL A   1      41.705  33.140  30.299  1.00  0.00     0.031 C 
ATOM     59  C   UNL A   1      43.878  32.656  29.207  1.00  0.00     0.034 A 
BRANCH  46  60
ATOM     60  C   UNL A   1      47.170  28.089  26.646  1.00  0.00     0.023 A 
ATOM     61  C   UNL A   1      48.281  27.805  27.466  1.00  0.00     0.012 A 
ATOM     62  C   UNL A   1      47.284  27.926  25.251  1.00  0.00     0.148 A 
ATOM     63  C   UNL A   1      49.497  27.411  26.906  1.00  0.00     0.002 A 
ATOM     64  C   UNL A   1      48.486  27.490  24.704  1.00  0.00     0.091 A 
ATOM     65  F   UNL A   1      46.227  28.220  24.481  1.00  0.00    -0.205 F 
ATOM     66  C   UNL A   1      49.597  27.245  25.528  1.00  0.00     0.022 A 
BRANCH  64  67
ATOM     67  S   UNL A   1      48.675  27.168  22.946  1.00  0.00     0.127 S 
ATOM     68  O   UNL A   1      50.114  27.352  22.762  1.00  0.00    -0.237 OA
ATOM     69  O   UNL A   1      48.220  25.782  22.828  1.00  0.00    -0.237 OA
ATOM     70  O   UNL A   1      47.819  28.138  22.276  1.00  0.00    -0.744 OA
ENDBRANCH  64  67
ENDBRANCH  46  60
BRANCH  47  71
ATOM     71  C   UNL A   1      38.440  30.522  30.803  1.00  0.00     0.023 A 
ATOM     72  C   UNL A   1      38.187  30.176  32.145  1.00  0.00     0.012 A 
ATOM     73  C   UNL A   1      37.470  31.248  30.085  1.00  0.00     0.148 A 
ATOM     74  C   UNL A   1      36.983  30.528  32.756  1.00  0.00     0.002 A 
ATOM     75  C   UNL A   1      36.296  31.642  30.715  1.00  0.00     0.091 A 
ATOM     76  F   UNL A   1      37.725  31.553  28.804  1.00  0.00    -0.205 F 
ATOM     77  C   UNL A   1      36.044  31.270  32.046  1.00  0.00     0.022 A 
BRANCH  75  78
ATOM     78  S   UNL A   1      35.083  32.706  29.927  1.00  0.00     0.127 S 
ATOM     79  O   UNL A   1      34.575  31.844  28.862  1.00  0.00    -0.237 OA
ATOM     80  O   UNL A   1      34.143  32.954  31.021  1.00  0.00    -0.237 OA
ATOM     81  O   UNL A   1      35.818  33.884  29.487  1.00  0.00    -0.744 OA
ENDBRANCH  75  78
ENDBRANCH  47  71
BRANCH  59  82
ATOM     82  C   UNL A   1      44.273  34.095  29.422  1.00  0.00     0.023 A 
ATOM     83  C   UNL A   1      45.125  34.439  30.490  1.00  0.00     0.012 A 
ATOM     84  C   UNL A   1      43.846  35.099  28.530  1.00  0.00     0.148 A 
ATOM     85  C   UNL A   1      45.518  35.763  30.687  1.00  0.00     0.002 A 
ATOM     86  C   UNL A   1      44.277  36.409  28.706  1.00  0.00     0.091 A 
ATOM     87  F   UNL A   1      43.016  34.760  27.532  1.00  0.00    -0.205 F 
ATOM     88  C   UNL A   1      45.104  36.745  29.789  1.00  0.00     0.022 A 
BRANCH  86  89
ATOM     89  S   UNL A   1      43.860  37.715  27.543  1.00  0.00     0.127 S 
ATOM     90  O   UNL A   1      45.174  38.083  27.022  1.00  0.00    -0.237 OA
ATOM     91  O   UNL A   1      42.997  37.022  26.585  1.00  0.00    -0.237 OA
ATOM     92  O   UNL A   1      43.182  38.738  28.328  1.00  0.00    -0.744 OA
ENDBRANCH  86  89
ENDBRANCH  59  82
ENDBRANCH  33  34
ENDBRANCH  26  28
ENDBRANCH  25  26
ENDBRANCH  24  25
ENDBRANCH   1  24
TORSDOF 18
ENDMDL
MODEL 3
REMARK VINA RESULT:     -11.5      5.172      8.487
REMARK SMILES C[C@@H]1[C@H](C)CCC[C@@H]1NC(=O)COc1csc(C(=O)OCCOC(=O)c2ccc(-c3c4nc(c(-c5cccc(S(=O)(=O)[O-])c5F)c5ccc([nH]5)c(-c5cccc(S(=O)(=O)[O-])c5F)c5nc(c(-c6cccc(S(=O)(=O)[O-])c6F)c6ccc3[nH]6)C=C5)C=C4)cc2)c1
REMARK SMILES IDX 21 1 20 2 18 3 19 4 17 5 14 6 15 7 89 8 16 9 13 10 12 11
REMARK SMILES IDX 10 12 9 13 11 15 8 16 1 17 2 18 3 19 4 20 5 21 7 22 6 23
REMARK SMILES IDX 22 24 23 25 24 26 25 27 26 28 27 29 88 30 28 31 87 32 29 33
REMARK SMILES IDX 30 34 31 35 81 36 32 37 86 38 80 39 82 40 33 41 85 42 79 43
REMARK SMILES IDX 78 44 34 46 66 47 46 48 65 49 47 50 50 51 64 52 83 53 48 54
REMARK SMILES IDX 49 55 63 57 84 58 51 59 35 60 36 61 44 62 37 63 39 64 45 65
REMARK SMILES IDX 38 66 40 67 41 68 42 69 43 70 67 71 68 72 76 73 69 74 71 75
REMARK SMILES IDX 77 76 70 77 72 78 73 79 74 80 75 81 52 82 53 83 61 84 54 85
REMARK SMILES IDX 56 86 62 87 55 88 57 89 58 90 59 91 60 92
REMARK H PARENT 9 14 82 45 50 56
REMARK Flexibility Score: inf
ROOT
ATOM      1  C   UNL A   1      35.039  21.130  24.924  1.00  0.00     0.275 C 
ENDROOT
BRANCH   1   2
ATOM      2  O   UNL A   1      34.113  20.631  25.906  1.00  0.00    -0.458 OA
BRANCH   2   3
ATOM      3  C   UNL A   1      32.990  20.076  25.376  1.00  0.00     0.348 C 
ATOM      4  O   UNL A   1      32.681  18.896  25.457  1.00  0.00    -0.245 OA
BRANCH   3   5
ATOM      5  C   UNL A   1      32.227  21.065  24.665  1.00  0.00     0.116 A 
ATOM      6  C   UNL A   1      31.421  23.186  24.190  1.00  0.00     0.131 A 
ATOM      7  C   UNL A   1      31.625  22.687  22.921  1.00  0.00     0.112 A 
ATOM      8  C   UNL A   1      31.649  22.198  25.188  1.00  0.00     0.074 A 
ATOM      9  S   UNL A   1      32.161  21.053  22.961  1.00  0.00    -0.133 S 
BRANCH   6  10
ATOM     10  O   UNL A   1      31.183  24.470  24.551  1.00  0.00    -0.483 OA
BRANCH  10  11
ATOM     11  C   UNL A   1      30.802  25.383  23.553  1.00  0.00     0.329 C 
BRANCH  11  12
ATOM     12  C   UNL A   1      31.799  26.408  22.987  1.00  0.00     0.258 C 
ATOM     13  N   UNL A   1      32.354  27.433  23.685  1.00  0.00    -0.350 N 
ATOM     14  H   UNL A   1      32.868  28.041  23.107  1.00  0.00     0.163 HD
ATOM     15  O   UNL A   1      32.065  26.372  21.776  1.00  0.00    -0.271 OA
BRANCH  13  16
ATOM     16  C   UNL A   1      32.376  27.854  25.092  1.00  0.00     0.085 C 
ATOM     17  C   UNL A   1      30.650  29.609  24.252  1.00  0.00     0.010 C 
ATOM     18  C   UNL A   1      31.402  29.025  25.458  1.00  0.00     0.011 C 
ATOM     19  C   UNL A   1      31.907  30.051  26.519  1.00  0.00    -0.009 C 
ATOM     20  C   UNL A   1      31.436  31.493  26.308  1.00  0.00     0.008 C 
ATOM     21  C   UNL A   1      33.412  30.018  26.785  1.00  0.00     0.004 C 
ATOM     22  C   UNL A   1      33.780  27.812  25.703  1.00  0.00     0.025 C 
ATOM     23  C   UNL A   1      33.911  28.603  26.989  1.00  0.00     0.002 C 
ENDBRANCH  13  16
ENDBRANCH  11  12
ENDBRANCH  10  11
ENDBRANCH   6  10
ENDBRANCH   3   5
ENDBRANCH   2   3
ENDBRANCH   1   2
BRANCH   1  24
ATOM     24  C   UNL A   1      36.368  20.401  25.082  1.00  0.00     0.275 C 
BRANCH  24  25
ATOM     25  O   UNL A   1      37.463  21.313  24.860  1.00  0.00    -0.458 OA
BRANCH  25  26
ATOM     26  C   UNL A   1      38.580  21.058  25.580  1.00  0.00     0.338 C 
ATOM     27  O   UNL A   1      39.103  19.967  25.750  1.00  0.00    -0.246 OA
BRANCH  26  28
ATOM     28  C   UNL A   1      39.083  22.279  26.237  1.00  0.00     0.060 A 
ATOM     29  C   UNL A   1      38.472  23.525  26.065  1.00  0.00     0.016 A 
ATOM     30  C   UNL A   1      40.292  22.181  26.929  1.00  0.00     0.016 A 
ATOM     31  C   UNL A   1      39.130  24.684  26.501  1.00  0.00     0.010 A 
ATOM     32  C   UNL A   1      40.907  23.332  27.425  1.00  0.00     0.010 A 
ATOM     33  C   UNL A   1      40.368  24.602  27.163  1.00  0.00    -0.014 A 
BRANCH  33  34
ATOM     34  C   UNL A   1      41.164  25.813  27.518  1.00  0.00     0.031 A 
ATOM     35  C   UNL A   1      40.544  26.895  28.373  1.00  0.00     0.074 A 
ATOM     36  C   UNL A   1      42.408  25.992  27.036  1.00  0.00     0.049 A 
ATOM     37  N   UNL A   1      40.997  28.089  28.666  1.00  0.00    -0.248 NA
ATOM     38  C   UNL A   1      39.225  26.600  28.958  1.00  0.00     0.031 C 
ATOM     39  C   UNL A   1      43.135  25.045  26.193  1.00  0.00     0.029 A 
ATOM     40  N   UNL A   1      43.274  27.052  27.169  1.00  0.00    -0.354 N 
ATOM     41  C   UNL A   1      39.998  28.706  29.413  1.00  0.00     0.074 A 
ATOM     42  C   UNL A   1      38.909  27.759  29.516  1.00  0.00     0.031 C 
ATOM     43  C   UNL A   1      44.337  25.560  25.889  1.00  0.00     0.029 A 
ATOM     44  C   UNL A   1      44.450  26.894  26.476  1.00  0.00     0.049 A 
ATOM     45  H   UNL A   1      43.069  27.850  27.710  1.00  0.00     0.167 HD
ATOM     46  C   UNL A   1      39.990  29.937  29.982  1.00  0.00     0.034 A 
ATOM     47  C   UNL A   1      45.496  27.729  26.316  1.00  0.00     0.034 A 
ATOM     48  C   UNL A   1      41.094  30.859  29.941  1.00  0.00     0.049 A 
ATOM     49  C   UNL A   1      45.474  29.084  26.975  1.00  0.00     0.074 A 
ATOM     50  C   UNL A   1      41.196  32.110  30.526  1.00  0.00     0.029 A 
ATOM     51  N   UNL A   1      42.294  30.627  29.288  1.00  0.00    -0.354 N 
ATOM     52  N   UNL A   1      44.554  29.618  27.740  1.00  0.00    -0.248 NA
ATOM     53  C   UNL A   1      46.653  29.940  26.769  1.00  0.00     0.031 C 
ATOM     54  C   UNL A   1      42.459  32.635  30.223  1.00  0.00     0.029 A 
ATOM     55  C   UNL A   1      43.148  31.704  29.463  1.00  0.00     0.049 A 
ATOM     56  H   UNL A   1      42.510  29.814  28.775  1.00  0.00     0.167 HD
ATOM     57  C   UNL A   1      45.059  30.850  28.142  1.00  0.00     0.074 A 
ATOM     58  C   UNL A   1      46.373  30.978  27.546  1.00  0.00     0.031 C 
ATOM     59  C   UNL A   1      44.481  31.795  28.925  1.00  0.00     0.034 A 
BRANCH  46  60
ATOM     60  C   UNL A   1      38.752  30.342  30.744  1.00  0.00     0.023 A 
ATOM     61  C   UNL A   1      38.606  29.952  32.092  1.00  0.00     0.012 A 
ATOM     62  C   UNL A   1      37.750  31.131  30.145  1.00  0.00     0.148 A 
ATOM     63  C   UNL A   1      37.466  30.300  32.815  1.00  0.00     0.002 A 
ATOM     64  C   UNL A   1      36.637  31.512  30.886  1.00  0.00     0.091 A 
ATOM     65  F   UNL A   1      37.889  31.476  28.857  1.00  0.00    -0.205 F 
ATOM     66  C   UNL A   1      36.486  31.087  32.216  1.00  0.00     0.022 A 
BRANCH  64  67
ATOM     67  S   UNL A   1      35.369  32.596  30.216  1.00  0.00     0.127 S 
ATOM     68  O   UNL A   1      34.402  32.635  31.311  1.00  0.00    -0.237 OA
ATOM     69  O   UNL A   1      36.100  33.846  30.007  1.00  0.00    -0.237 OA
ATOM     70  O   UNL A   1      34.915  31.956  28.989  1.00  0.00    -0.744 OA
ENDBRANCH  64  67
ENDBRANCH  46  60
BRANCH  47  71
ATOM     71  C   UNL A   1      46.696  27.274  25.559  1.00  0.00     0.023 A 
ATOM     72  C   UNL A   1      47.558  26.331  26.153  1.00  0.00     0.012 A 
ATOM     73  C   UNL A   1      46.970  27.731  24.256  1.00  0.00     0.148 A 
ATOM     74  C   UNL A   1      48.683  25.866  25.472  1.00  0.00     0.002 A 
ATOM     75  C   UNL A   1      48.062  27.225  23.561  1.00  0.00     0.091 A 
ATOM     76  F   UNL A   1      46.146  28.641  23.716  1.00  0.00    -0.205 F 
ATOM     77  C   UNL A   1      48.928  26.304  24.173  1.00  0.00     0.022 A 
BRANCH  75  78
ATOM     78  S   UNL A   1      48.390  27.628  21.842  1.00  0.00     0.127 S 
ATOM     79  O   UNL A   1      49.515  28.552  21.960  1.00  0.00    -0.237 OA
ATOM     80  O   UNL A   1      48.724  26.317  21.284  1.00  0.00    -0.237 OA
ATOM     81  O   UNL A   1      47.154  28.204  21.330  1.00  0.00    -0.744 OA
ENDBRANCH  75  78
ENDBRANCH  47  71
BRANCH  59  82
ATOM     82  C   UNL A   1      45.282  33.034  29.235  1.00  0.00     0.023 A 
ATOM     83  C   UNL A   1      46.124  33.063  30.365  1.00  0.00     0.012 A 
ATOM     84  C   UNL A   1      45.245  34.149  28.374  1.00  0.00     0.148 A 
ATOM     85  C   UNL A   1      46.889  34.194  30.651  1.00  0.00     0.002 A 
ATOM     86  C   UNL A   1      46.044  35.255  28.640  1.00  0.00     0.091 A 
ATOM     87  F   UNL A   1      44.421  34.116  27.316  1.00  0.00    -0.205 F 
ATOM     88  C   UNL A   1      46.859  35.284  29.784  1.00  0.00     0.022 A 
BRANCH  86  89
ATOM     89  S   UNL A   1      46.127  36.663  27.526  1.00  0.00     0.127 S 
ATOM     90  O   UNL A   1      46.851  36.101  26.388  1.00  0.00    -0.237 OA
ATOM     91  O   UNL A   1      44.714  36.947  27.269  1.00  0.00    -0.237 OA
ATOM     92  O   UNL A   1      46.823  37.708  28.264  1.00  0.00    -0.744 OA
ENDBRANCH  86  89
ENDBRANCH  59  82
ENDBRANCH  33  34
ENDBRANCH  26  28
ENDBRANCH  25  26
ENDBRANCH  24  25
ENDBRANCH   1  24
TORSDOF 18
ENDMDL
