MODEL 1
REMARK VINA RESULT:     -12.9      0.000      0.000
REMARK SMILES Cc1ccc(C)c(N2C(=O)S[C@H](CC(=O)Nc3ccc(C(=O)OCCOC(=O)c4ccc(-c5c6nc(c(-c7cccc(S(=O)(=O)[O-])c7F)c7ccc([nH]7)c(-c7cccc(S(=O)(=O)[O-])c7F)c7nc(c(-c8cccc(S(=O)(=O)[O-])c8F)c8ccc5[nH]8)C=C7)C=C6)cc4)c(O)c3)C2=O)c1
REMARK SMILES IDX 24 1 23 2 21 3 22 4 20 5 17 6 18 7 94 8 19 9 92 10 16 11
REMARK SMILES IDX 14 12 15 13 13 15 12 16 8 17 9 18 95 19 10 20 11 21 96 22
REMARK SMILES IDX 7 23 1 24 2 25 3 26 97 27 4 28 5 29 6 30 93 31 25 33 26 34
REMARK SMILES IDX 27 35 28 36 29 37 30 38 91 39 31 40 90 41 32 42 33 43 34 44
REMARK SMILES IDX 84 45 35 46 89 47 83 48 85 49 36 50 88 51 82 52 81 53 37 55
REMARK SMILES IDX 69 56 49 57 68 58 50 59 53 60 67 61 86 62 51 63 52 64 66 66
REMARK SMILES IDX 87 67 54 68 38 69 39 70 47 71 40 72 42 73 48 74 41 75 43 76
REMARK SMILES IDX 44 77 45 78 46 79 70 80 71 81 79 82 72 83 74 84 80 85 73 86
REMARK SMILES IDX 75 87 76 88 77 89 78 90 55 91 56 92 64 93 57 94 59 95 65 96
REMARK SMILES IDX 58 97 60 98 61 99 62 100 63 101
REMARK H PARENT 16 14 93 32 85 54 53 65
REMARK Flexibility Score: inf
ROOT
ATOM      1  C   UNL A   1      31.826  30.592  25.947  1.00  0.00     0.275 C 
ENDROOT
BRANCH   1   2
ATOM      2  O   UNL A   1      32.424  29.637  25.069  1.00  0.00    -0.458 OA
BRANCH   2   3
ATOM      3  C   UNL A   1      31.538  29.070  24.217  1.00  0.00     0.342 C 
ATOM      4  O   UNL A   1      31.065  29.548  23.205  1.00  0.00    -0.246 OA
BRANCH   3   5
ATOM      5  C   UNL A   1      31.062  27.820  24.798  1.00  0.00     0.101 A 
ATOM      6  C   UNL A   1      29.994  25.554  25.999  1.00  0.00     0.044 A 
ATOM      7  C   UNL A   1      31.103  26.199  26.549  1.00  0.00     0.027 A 
ATOM      8  C   UNL A   1      29.519  25.957  24.752  1.00  0.00     0.073 A 
ATOM      9  C   UNL A   1      31.613  27.356  25.983  1.00  0.00     0.022 A 
ATOM     10  C   UNL A   1      30.069  27.087  24.146  1.00  0.00     0.132 A 
BRANCH   6  11
ATOM     11  N   UNL A   1      29.387  24.489  26.680  1.00  0.00    -0.326 N 
ATOM     12  C   UNL A   1      29.898  23.222  26.862  1.00  0.00     0.226 C 
ATOM     13  O   UNL A   1      29.157  22.291  27.179  1.00  0.00    -0.275 OA
ATOM     14  H   UNL A   1      28.499  24.666  27.069  1.00  0.00     0.169 HD
BRANCH  12  15
ATOM     15  C   UNL A   1      31.413  23.059  26.888  1.00  0.00     0.125 C 
BRANCH  15  16
ATOM     16  C   UNL A   1      31.965  21.908  26.058  1.00  0.00     0.156 C 
ATOM     17  N   UNL A   1      34.252  22.317  25.450  1.00  0.00    -0.240 N 
ATOM     18  C   UNL A   1      33.667  22.680  24.257  1.00  0.00     0.293 C 
ATOM     19  C   UNL A   1      33.434  21.742  26.407  1.00  0.00     0.248 C 
ATOM     20  O   UNL A   1      34.164  23.179  23.274  1.00  0.00    -0.261 OA
ATOM     21  S   UNL A   1      31.971  22.206  24.271  1.00  0.00    -0.050 SA
ATOM     22  O   UNL A   1      33.798  21.171  27.433  1.00  0.00    -0.273 OA
BRANCH  17  23
ATOM     23  C   UNL A   1      35.660  22.224  25.548  1.00  0.00     0.056 A 
ATOM     24  C   UNL A   1      38.613  24.456  26.506  1.00  0.00     0.044 C 
ATOM     25  C   UNL A   1      37.799  23.269  26.077  1.00  0.00    -0.049 A 
ATOM     26  C   UNL A   1      38.450  22.091  25.701  1.00  0.00     0.004 A 
ATOM     27  C   UNL A   1      36.398  23.322  26.019  1.00  0.00     0.030 A 
ATOM     28  C   UNL A   1      37.720  20.993  25.248  1.00  0.00     0.006 A 
ATOM     29  C   UNL A   1      36.322  21.046  25.154  1.00  0.00    -0.027 A 
ATOM     30  C   UNL A   1      35.606  19.829  24.637  1.00  0.00     0.046 C 
ENDBRANCH  17  23
ENDBRANCH  15  16
ENDBRANCH  12  15
ENDBRANCH   6  11
BRANCH  10  31
ATOM     31  O   UNL A   1      29.583  27.444  22.920  1.00  0.00    -0.507 OA
ATOM     32  H   UNL A   1      29.892  27.012  22.149  1.00  0.00     0.293 HD
ENDBRANCH  10  31
ENDBRANCH   3   5
ENDBRANCH   2   3
ENDBRANCH   1   2
BRANCH   1  33
ATOM     33  C   UNL A   1      32.623  30.708  27.250  1.00  0.00     0.275 C 
BRANCH  33  34
ATOM     34  O   UNL A   1      34.047  31.023  27.172  1.00  0.00    -0.458 OA
BRANCH  34  35
ATOM     35  C   UNL A   1      34.869  31.313  28.214  1.00  0.00     0.338 C 
ATOM     36  O   UNL A   1      34.454  31.880  29.215  1.00  0.00    -0.246 OA
BRANCH  35  37
ATOM     37  C   UNL A   1      36.278  30.882  28.108  1.00  0.00     0.060 A 
ATOM     38  C   UNL A   1      37.286  31.683  28.664  1.00  0.00     0.016 A 
ATOM     39  C   UNL A   1      36.575  29.614  27.634  1.00  0.00     0.016 A 
ATOM     40  C   UNL A   1      38.529  31.124  28.960  1.00  0.00     0.010 A 
ATOM     41  C   UNL A   1      37.757  29.029  28.038  1.00  0.00     0.010 A 
ATOM     42  C   UNL A   1      38.745  29.768  28.702  1.00  0.00    -0.014 A 
BRANCH  42  43
ATOM     43  C   UNL A   1      39.970  29.100  29.150  1.00  0.00     0.031 A 
ATOM     44  C   UNL A   1      40.303  29.063  30.615  1.00  0.00     0.074 A 
ATOM     45  C   UNL A   1      40.702  28.328  28.320  1.00  0.00     0.049 A 
ATOM     46  N   UNL A   1      41.305  29.625  31.216  1.00  0.00    -0.248 NA
ATOM     47  C   UNL A   1      39.424  28.318  31.522  1.00  0.00     0.031 C 
ATOM     48  C   UNL A   1      40.441  27.966  26.919  1.00  0.00     0.029 A 
ATOM     49  N   UNL A   1      41.793  27.579  28.625  1.00  0.00    -0.354 N 
ATOM     50  C   UNL A   1      41.288  29.170  32.543  1.00  0.00     0.074 A 
ATOM     51  C   UNL A   1      40.037  28.475  32.699  1.00  0.00     0.031 C 
ATOM     52  C   UNL A   1      41.161  26.872  26.595  1.00  0.00     0.029 A 
ATOM     53  C   UNL A   1      42.093  26.621  27.673  1.00  0.00     0.049 A 
ATOM     54  H   UNL A   1      42.321  27.706  29.445  1.00  0.00     0.167 HD
ATOM     55  C   UNL A   1      42.377  29.260  33.364  1.00  0.00     0.034 A 
ATOM     56  C   UNL A   1      43.058  25.684  27.750  1.00  0.00     0.034 A 
ATOM     57  C   UNL A   1      43.409  30.079  32.782  1.00  0.00     0.049 A 
ATOM     58  C   UNL A   1      44.086  26.206  28.676  1.00  0.00     0.074 A 
ATOM     59  C   UNL A   1      43.529  31.394  32.384  1.00  0.00     0.029 A 
ATOM     60  N   UNL A   1      44.477  29.425  32.216  1.00  0.00    -0.354 N 
ATOM     61  N   UNL A   1      44.779  27.286  28.436  1.00  0.00    -0.248 NA
ATOM     62  C   UNL A   1      44.070  25.767  30.059  1.00  0.00     0.031 C 
ATOM     63  C   UNL A   1      44.333  31.339  31.206  1.00  0.00     0.029 A 
ATOM     64  C   UNL A   1      44.680  30.002  30.992  1.00  0.00     0.049 A 
ATOM     65  H   UNL A   1      44.994  28.687  32.613  1.00  0.00     0.167 HD
ATOM     66  C   UNL A   1      44.915  27.898  29.675  1.00  0.00     0.074 A 
ATOM     67  C   UNL A   1      44.578  26.855  30.643  1.00  0.00     0.031 C 
ATOM     68  C   UNL A   1      45.017  29.259  29.795  1.00  0.00     0.034 A 
BRANCH  55  69
ATOM     69  C   UNL A   1      42.702  28.413  34.584  1.00  0.00     0.023 A 
ATOM     70  C   UNL A   1      43.050  29.100  35.777  1.00  0.00     0.012 A 
ATOM     71  C   UNL A   1      42.942  27.023  34.566  1.00  0.00     0.148 A 
ATOM     72  C   UNL A   1      43.662  28.458  36.859  1.00  0.00     0.002 A 
ATOM     73  C   UNL A   1      43.487  26.374  35.677  1.00  0.00     0.091 A 
ATOM     74  F   UNL A   1      42.766  26.331  33.436  1.00  0.00    -0.205 F 
ATOM     75  C   UNL A   1      43.878  27.090  36.811  1.00  0.00     0.022 A 
BRANCH  73  76
ATOM     76  S   UNL A   1      43.738  24.593  35.700  1.00  0.00     0.127 S 
ATOM     77  O   UNL A   1      44.365  24.402  37.004  1.00  0.00    -0.237 OA
ATOM     78  O   UNL A   1      42.367  24.090  35.595  1.00  0.00    -0.237 OA
ATOM     79  O   UNL A   1      44.565  24.311  34.534  1.00  0.00    -0.744 OA
ENDBRANCH  73  76
ENDBRANCH  55  69
BRANCH  56  80
ATOM     80  C   UNL A   1      43.021  24.311  27.224  1.00  0.00     0.023 A 
ATOM     81  C   UNL A   1      41.883  23.511  27.413  1.00  0.00     0.012 A 
ATOM     82  C   UNL A   1      44.024  23.868  26.329  1.00  0.00     0.148 A 
ATOM     83  C   UNL A   1      41.734  22.310  26.711  1.00  0.00     0.002 A 
ATOM     84  C   UNL A   1      43.870  22.675  25.632  1.00  0.00     0.091 A 
ATOM     85  F   UNL A   1      45.084  24.657  26.108  1.00  0.00    -0.205 F 
ATOM     86  C   UNL A   1      42.720  21.897  25.816  1.00  0.00     0.022 A 
BRANCH  84  87
ATOM     87  S   UNL A   1      45.085  22.092  24.442  1.00  0.00     0.127 S 
ATOM     88  O   UNL A   1      45.158  23.215  23.506  1.00  0.00    -0.237 OA
ATOM     89  O   UNL A   1      46.267  21.916  25.280  1.00  0.00    -0.237 OA
ATOM     90  O   UNL A   1      44.528  20.873  23.868  1.00  0.00    -0.744 OA
ENDBRANCH  84  87
ENDBRANCH  56  80
BRANCH  68  91
ATOM     91  C   UNL A   1      45.169  30.089  28.539  1.00  0.00     0.023 A 
ATOM     92  C   UNL A   1      44.047  30.491  27.784  1.00  0.00     0.012 A 
ATOM     93  C   UNL A   1      46.416  30.668  28.248  1.00  0.00     0.148 A 
ATOM     94  C   UNL A   1      44.161  31.434  26.760  1.00  0.00     0.002 A 
ATOM     95  C   UNL A   1      46.520  31.640  27.256  1.00  0.00     0.091 A 
ATOM     96  F   UNL A   1      47.477  30.291  28.977  1.00  0.00    -0.205 F 
ATOM     97  C   UNL A   1      45.397  32.021  26.505  1.00  0.00     0.022 A 
BRANCH  95  98
ATOM     98  S   UNL A   1      48.051  32.533  26.973  1.00  0.00     0.127 S 
ATOM     99  O   UNL A   1      47.644  33.534  25.989  1.00  0.00    -0.237 OA
ATOM    100  O   UNL A   1      48.358  33.071  28.300  1.00  0.00    -0.237 OA
ATOM    101  O   UNL A   1      49.009  31.539  26.503  1.00  0.00    -0.744 OA
ENDBRANCH  95  98
ENDBRANCH  68  91
ENDBRANCH  42  43
ENDBRANCH  35  37
ENDBRANCH  34  35
ENDBRANCH  33  34
ENDBRANCH   1  33
TORSDOF 19
ENDMDL
MODEL 2
REMARK VINA RESULT:     -12.5      4.242      7.763
REMARK SMILES Cc1ccc(C)c(N2C(=O)S[C@H](CC(=O)Nc3ccc(C(=O)OCCOC(=O)c4ccc(-c5c6nc(c(-c7cccc(S(=O)(=O)[O-])c7F)c7ccc([nH]7)c(-c7cccc(S(=O)(=O)[O-])c7F)c7nc(c(-c8cccc(S(=O)(=O)[O-])c8F)c8ccc5[nH]8)C=C7)C=C6)cc4)c(O)c3)C2=O)c1
REMARK SMILES IDX 24 1 23 2 21 3 22 4 20 5 17 6 18 7 94 8 19 9 92 10 16 11
REMARK SMILES IDX 14 12 15 13 13 15 12 16 8 17 9 18 95 19 10 20 11 21 96 22
REMARK SMILES IDX 7 23 1 24 2 25 3 26 97 27 4 28 5 29 6 30 93 31 25 33 26 34
REMARK SMILES IDX 27 35 28 36 29 37 30 38 91 39 31 40 90 41 32 42 33 43 34 44
REMARK SMILES IDX 84 45 35 46 89 47 83 48 85 49 36 50 88 51 82 52 81 53 37 55
REMARK SMILES IDX 69 56 49 57 68 58 50 59 53 60 67 61 86 62 51 63 52 64 66 66
REMARK SMILES IDX 87 67 54 68 38 69 39 70 47 71 40 72 42 73 48 74 41 75 43 76
REMARK SMILES IDX 44 77 45 78 46 79 70 80 71 81 79 82 72 83 74 84 80 85 73 86
REMARK SMILES IDX 75 87 76 88 77 89 78 90 55 91 56 92 64 93 57 94 59 95 65 96
REMARK SMILES IDX 58 97 60 98 61 99 62 100 63 101
REMARK H PARENT 16 14 93 32 85 54 53 65
REMARK Flexibility Score: inf
ROOT
ATOM      1  C   UNL A   1      33.117  34.949  28.396  1.00  0.00     0.275 C 
ENDROOT
BRANCH   1   2
ATOM      2  O   UNL A   1      32.654  34.931  29.748  1.00  0.00    -0.458 OA
BRANCH   2   3
ATOM      3  C   UNL A   1      33.100  35.982  30.476  1.00  0.00     0.342 C 
ATOM      4  O   UNL A   1      33.240  37.134  30.116  1.00  0.00    -0.246 OA
BRANCH   3   5
ATOM      5  C   UNL A   1      33.587  35.491  31.760  1.00  0.00     0.101 A 
ATOM      6  C   UNL A   1      34.718  34.600  34.135  1.00  0.00     0.044 A 
ATOM      7  C   UNL A   1      34.319  33.695  33.151  1.00  0.00     0.027 A 
ATOM      8  C   UNL A   1      34.400  35.949  33.992  1.00  0.00     0.073 A 
ATOM      9  C   UNL A   1      33.798  34.132  31.943  1.00  0.00     0.022 A 
ATOM     10  C   UNL A   1      33.818  36.389  32.803  1.00  0.00     0.132 A 
BRANCH   6  11
ATOM     11  N   UNL A   1      35.403  34.149  35.273  1.00  0.00    -0.326 N 
ATOM     12  C   UNL A   1      36.714  33.728  35.340  1.00  0.00     0.226 C 
ATOM     13  O   UNL A   1      37.104  33.057  36.296  1.00  0.00    -0.275 OA
ATOM     14  H   UNL A   1      34.891  34.131  36.114  1.00  0.00     0.169 HD
BRANCH  12  15
ATOM     15  C   UNL A   1      37.702  34.304  34.334  1.00  0.00     0.125 C 
BRANCH  15  16
ATOM     16  C   UNL A   1      38.138  33.357  33.223  1.00  0.00     0.156 C 
ATOM     17  N   UNL A   1      40.057  34.224  32.070  1.00  0.00    -0.240 N 
ATOM     18  C   UNL A   1      39.098  34.595  31.153  1.00  0.00     0.293 C 
ATOM     19  C   UNL A   1      39.652  33.421  33.121  1.00  0.00     0.248 C 
ATOM     20  O   UNL A   1      39.203  35.269  30.155  1.00  0.00    -0.261 OA
ATOM     21  S   UNL A   1      37.568  33.827  31.569  1.00  0.00    -0.050 SA
ATOM     22  O   UNL A   1      40.383  32.825  33.910  1.00  0.00    -0.273 OA
BRANCH  17  23
ATOM     23  C   UNL A   1      41.428  34.374  31.757  1.00  0.00     0.056 A 
ATOM     24  C   UNL A   1      44.348  36.650  32.714  1.00  0.00     0.044 C 
ATOM     25  C   UNL A   1      43.537  35.556  32.082  1.00  0.00    -0.049 A 
ATOM     26  C   UNL A   1      44.129  34.732  31.121  1.00  0.00     0.004 A 
ATOM     27  C   UNL A   1      42.187  35.358  32.412  1.00  0.00     0.030 A 
ATOM     28  C   UNL A   1      43.383  33.744  30.480  1.00  0.00     0.006 A 
ATOM     29  C   UNL A   1      42.025  33.558  30.778  1.00  0.00    -0.027 A 
ATOM     30  C   UNL A   1      41.283  32.486  30.030  1.00  0.00     0.046 C 
ENDBRANCH  17  23
ENDBRANCH  15  16
ENDBRANCH  12  15
ENDBRANCH   6  11
BRANCH  10  31
ATOM     31  O   UNL A   1      33.512  37.718  32.704  1.00  0.00    -0.507 OA
ATOM     32  H   UNL A   1      34.195  38.352  32.614  1.00  0.00     0.293 HD
ENDBRANCH  10  31
ENDBRANCH   3   5
ENDBRANCH   2   3
ENDBRANCH   1   2
BRANCH   1  33
ATOM     33  C   UNL A   1      34.399  34.123  28.248  1.00  0.00     0.275 C 
BRANCH  33  34
ATOM     34  O   UNL A   1      34.488  32.842  28.944  1.00  0.00    -0.458 OA
BRANCH  34  35
ATOM     35  C   UNL A   1      34.673  31.623  28.373  1.00  0.00     0.338 C 
ATOM     36  O   UNL A   1      33.732  30.964  27.956  1.00  0.00    -0.246 OA
BRANCH  35  37
ATOM     37  C   UNL A   1      36.064  31.140  28.239  1.00  0.00     0.060 A 
ATOM     38  C   UNL A   1      37.096  31.827  28.893  1.00  0.00     0.016 A 
ATOM     39  C   UNL A   1      36.312  29.918  27.633  1.00  0.00     0.016 A 
ATOM     40  C   UNL A   1      38.307  31.182  29.142  1.00  0.00     0.010 A 
ATOM     41  C   UNL A   1      37.458  29.238  27.987  1.00  0.00     0.010 A 
ATOM     42  C   UNL A   1      38.466  29.853  28.741  1.00  0.00    -0.014 A 
BRANCH  42  43
ATOM     43  C   UNL A   1      39.651  29.084  29.131  1.00  0.00     0.031 A 
ATOM     44  C   UNL A   1      39.873  28.742  30.577  1.00  0.00     0.074 A 
ATOM     45  C   UNL A   1      40.440  28.483  28.215  1.00  0.00     0.049 A 
ATOM     46  N   UNL A   1      40.830  29.149  31.351  1.00  0.00    -0.248 NA
ATOM     47  C   UNL A   1      38.925  27.845  31.246  1.00  0.00     0.031 C 
ATOM     48  C   UNL A   1      40.283  28.420  26.754  1.00  0.00     0.029 A 
ATOM     49  N   UNL A   1      41.501  27.666  28.438  1.00  0.00    -0.354 N 
ATOM     50  C   UNL A   1      40.712  28.434  32.552  1.00  0.00     0.074 A 
ATOM     51  C   UNL A   1      39.449  27.747  32.471  1.00  0.00     0.031 C 
ATOM     52  C   UNL A   1      41.019  27.401  26.266  1.00  0.00     0.029 A 
ATOM     53  C   UNL A   1      41.867  26.916  27.334  1.00  0.00     0.049 A 
ATOM     54  H   UNL A   1      41.966  27.612  29.303  1.00  0.00     0.167 HD
ATOM     55  C   UNL A   1      41.737  28.333  33.451  1.00  0.00     0.034 A 
ATOM     56  C   UNL A   1      42.819  25.965  27.288  1.00  0.00     0.034 A 
ATOM     57  C   UNL A   1      42.813  29.233  33.124  1.00  0.00     0.049 A 
ATOM     58  C   UNL A   1      43.777  26.266  28.372  1.00  0.00     0.074 A 
ATOM     59  C   UNL A   1      42.968  30.599  33.015  1.00  0.00     0.029 A 
ATOM     60  N   UNL A   1      43.917  28.687  32.516  1.00  0.00    -0.354 N 
ATOM     61  N   UNL A   1      44.491  27.359  28.410  1.00  0.00    -0.248 NA
ATOM     62  C   UNL A   1      43.656  25.554  29.632  1.00  0.00     0.031 C 
ATOM     63  C   UNL A   1      43.858  30.770  31.912  1.00  0.00     0.029 A 
ATOM     64  C   UNL A   1      44.213  29.498  31.454  1.00  0.00     0.049 A 
ATOM     65  H   UNL A   1      44.400  27.874  32.790  1.00  0.00     0.167 HD
ATOM     66  C   UNL A   1      44.537  27.703  29.755  1.00  0.00     0.074 A 
ATOM     67  C   UNL A   1      44.124  26.491  30.461  1.00  0.00     0.031 C 
ATOM     68  C   UNL A   1      44.636  29.008  30.158  1.00  0.00     0.034 A 
BRANCH  55  69
ATOM     69  C   UNL A   1      41.966  27.249  34.491  1.00  0.00     0.023 A 
ATOM     70  C   UNL A   1      41.505  27.507  35.809  1.00  0.00     0.012 A 
ATOM     71  C   UNL A   1      42.817  26.136  34.329  1.00  0.00     0.148 A 
ATOM     72  C   UNL A   1      41.918  26.747  36.909  1.00  0.00     0.002 A 
ATOM     73  C   UNL A   1      43.169  25.337  35.420  1.00  0.00     0.091 A 
ATOM     74  F   UNL A   1      43.397  25.907  33.147  1.00  0.00    -0.205 F 
ATOM     75  C   UNL A   1      42.750  25.656  36.714  1.00  0.00     0.022 A 
BRANCH  73  76
ATOM     76  S   UNL A   1      44.197  23.874  35.225  1.00  0.00     0.127 S 
ATOM     77  O   UNL A   1      43.325  23.004  34.443  1.00  0.00    -0.237 OA
ATOM     78  O   UNL A   1      45.351  24.406  34.498  1.00  0.00    -0.237 OA
ATOM     79  O   UNL A   1      44.500  23.439  36.583  1.00  0.00    -0.744 OA
ENDBRANCH  73  76
ENDBRANCH  55  69
BRANCH  56  80
ATOM     80  C   UNL A   1      42.815  24.728  26.490  1.00  0.00     0.023 A 
ATOM     81  C   UNL A   1      43.879  24.444  25.620  1.00  0.00     0.012 A 
ATOM     82  C   UNL A   1      41.868  23.712  26.763  1.00  0.00     0.148 A 
ATOM     83  C   UNL A   1      44.012  23.172  25.052  1.00  0.00     0.002 A 
ATOM     84  C   UNL A   1      42.007  22.449  26.199  1.00  0.00     0.091 A 
ATOM     85  F   UNL A   1      40.884  23.968  27.636  1.00  0.00    -0.205 F 
ATOM     86  C   UNL A   1      43.084  22.175  25.348  1.00  0.00     0.022 A 
BRANCH  84  87
ATOM     87  S   UNL A   1      40.866  21.107  26.555  1.00  0.00     0.127 S 
ATOM     88  O   UNL A   1      39.632  21.581  25.928  1.00  0.00    -0.237 OA
ATOM     89  O   UNL A   1      41.504  19.982  25.877  1.00  0.00    -0.237 OA
ATOM     90  O   UNL A   1      40.800  21.015  28.009  1.00  0.00    -0.744 OA
ENDBRANCH  84  87
ENDBRANCH  56  80
BRANCH  68  91
ATOM     91  C   UNL A   1      44.885  30.074  29.113  1.00  0.00     0.023 A 
ATOM     92  C   UNL A   1      43.853  30.528  28.265  1.00  0.00     0.012 A 
ATOM     93  C   UNL A   1      46.094  30.791  29.141  1.00  0.00     0.148 A 
ATOM     94  C   UNL A   1      44.018  31.656  27.459  1.00  0.00     0.002 A 
ATOM     95  C   UNL A   1      46.242  31.940  28.369  1.00  0.00     0.091 A 
ATOM     96  F   UNL A   1      47.068  30.361  29.957  1.00  0.00    -0.205 F 
ATOM     97  C   UNL A   1      45.209  32.373  27.521  1.00  0.00     0.022 A 
BRANCH  95  98
ATOM     98  S   UNL A   1      47.695  32.985  28.508  1.00  0.00     0.127 S 
ATOM     99  O   UNL A   1      47.497  33.932  27.413  1.00  0.00    -0.237 OA
ATOM    100  O   UNL A   1      47.549  33.559  29.847  1.00  0.00    -0.237 OA
ATOM    101  O   UNL A   1      48.840  32.091  28.371  1.00  0.00    -0.744 OA
ENDBRANCH  95  98
ENDBRANCH  68  91
ENDBRANCH  42  43
ENDBRANCH  35  37
ENDBRANCH  34  35
ENDBRANCH  33  34
ENDBRANCH   1  33
TORSDOF 19
ENDMDL
MODEL 3
REMARK VINA RESULT:     -12.5      2.338      7.568
REMARK SMILES Cc1ccc(C)c(N2C(=O)S[C@H](CC(=O)Nc3ccc(C(=O)OCCOC(=O)c4ccc(-c5c6nc(c(-c7cccc(S(=O)(=O)[O-])c7F)c7ccc([nH]7)c(-c7cccc(S(=O)(=O)[O-])c7F)c7nc(c(-c8cccc(S(=O)(=O)[O-])c8F)c8ccc5[nH]8)C=C7)C=C6)cc4)c(O)c3)C2=O)c1
REMARK SMILES IDX 24 1 23 2 21 3 22 4 20 5 17 6 18 7 94 8 19 9 92 10 16 11
REMARK SMILES IDX 14 12 15 13 13 15 12 16 8 17 9 18 95 19 10 20 11 21 96 22
REMARK SMILES IDX 7 23 1 24 2 25 3 26 97 27 4 28 5 29 6 30 93 31 25 33 26 34
REMARK SMILES IDX 27 35 28 36 29 37 30 38 91 39 31 40 90 41 32 42 33 43 34 44
REMARK SMILES IDX 84 45 35 46 89 47 83 48 85 49 36 50 88 51 82 52 81 53 37 55
REMARK SMILES IDX 69 56 49 57 68 58 50 59 53 60 67 61 86 62 51 63 52 64 66 66
REMARK SMILES IDX 87 67 54 68 38 69 39 70 47 71 40 72 42 73 48 74 41 75 43 76
REMARK SMILES IDX 44 77 45 78 46 79 70 80 71 81 79 82 72 83 74 84 80 85 73 86
REMARK SMILES IDX 75 87 76 88 77 89 78 90 55 91 56 92 64 93 57 94 59 95 65 96
REMARK SMILES IDX 58 97 60 98 61 99 62 100 63 101
REMARK H PARENT 16 14 93 32 85 54 53 65
REMARK Flexibility Score: inf
ROOT
ATOM      1  C   UNL A   1      33.659  31.959  28.008  1.00  0.00     0.275 C 
ENDROOT
BRANCH   1   2
ATOM      2  O   UNL A   1      33.287  30.766  27.315  1.00  0.00    -0.458 OA
BRANCH   2   3
ATOM      3  C   UNL A   1      32.181  30.919  26.551  1.00  0.00     0.342 C 
ATOM      4  O   UNL A   1      31.210  31.616  26.773  1.00  0.00    -0.246 OA
BRANCH   3   5
ATOM      5  C   UNL A   1      32.225  29.951  25.461  1.00  0.00     0.101 A 
ATOM      6  C   UNL A   1      32.375  28.271  23.255  1.00  0.00     0.044 A 
ATOM      7  C   UNL A   1      31.150  28.792  23.672  1.00  0.00     0.027 A 
ATOM      8  C   UNL A   1      33.506  28.465  24.045  1.00  0.00     0.073 A 
ATOM      9  C   UNL A   1      31.072  29.669  24.743  1.00  0.00     0.022 A 
ATOM     10  C   UNL A   1      33.421  29.299  25.161  1.00  0.00     0.132 A 
BRANCH   6  11
ATOM     11  N   UNL A   1      32.458  27.527  22.068  1.00  0.00    -0.326 N 
ATOM     12  C   UNL A   1      32.841  26.209  21.940  1.00  0.00     0.226 C 
ATOM     13  O   UNL A   1      33.189  25.765  20.846  1.00  0.00    -0.275 OA
ATOM     14  H   UNL A   1      32.219  27.999  21.237  1.00  0.00     0.169 HD
BRANCH  12  15
ATOM     15  C   UNL A   1      32.600  25.277  23.121  1.00  0.00     0.125 C 
BRANCH  15  16
ATOM     16  C   UNL A   1      33.832  24.929  23.947  1.00  0.00     0.156 C 
ATOM     17  N   UNL A   1      33.776  22.629  24.632  1.00  0.00    -0.240 N 
ATOM     18  C   UNL A   1      33.345  23.192  25.813  1.00  0.00     0.293 C 
ATOM     19  C   UNL A   1      34.210  23.490  23.641  1.00  0.00     0.248 C 
ATOM     20  O   UNL A   1      32.939  22.660  26.820  1.00  0.00    -0.261 OA
ATOM     21  S   UNL A   1      33.562  24.939  25.738  1.00  0.00    -0.050 SA
ATOM     22  O   UNL A   1      34.815  23.181  22.617  1.00  0.00    -0.273 OA
BRANCH  17  23
ATOM     23  C   UNL A   1      34.076  21.248  24.577  1.00  0.00     0.056 A 
ATOM     24  C   UNL A   1      32.346  17.983  23.594  1.00  0.00     0.044 C 
ATOM     25  C   UNL A   1      33.380  18.970  24.056  1.00  0.00    -0.049 A 
ATOM     26  C   UNL A   1      34.619  18.504  24.504  1.00  0.00     0.004 A 
ATOM     27  C   UNL A   1      33.121  20.349  24.074  1.00  0.00     0.030 A 
ATOM     28  C   UNL A   1      35.575  19.396  24.989  1.00  0.00     0.006 A 
ATOM     29  C   UNL A   1      35.316  20.773  25.043  1.00  0.00    -0.027 A 
ATOM     30  C   UNL A   1      36.389  21.668  25.597  1.00  0.00     0.046 C 
ENDBRANCH  17  23
ENDBRANCH  15  16
ENDBRANCH  12  15
ENDBRANCH   6  11
BRANCH  10  31
ATOM     31  O   UNL A   1      34.549  29.457  25.917  1.00  0.00    -0.507 OA
ATOM     32  H   UNL A   1      34.821  28.778  26.502  1.00  0.00     0.293 HD
ENDBRANCH  10  31
ENDBRANCH   3   5
ENDBRANCH   2   3
ENDBRANCH   1   2
BRANCH   1  33
ATOM     33  C   UNL A   1      35.177  32.165  27.961  1.00  0.00     0.275 C 
BRANCH  33  34
ATOM     34  O   UNL A   1      36.038  30.991  27.852  1.00  0.00    -0.458 OA
BRANCH  34  35
ATOM     35  C   UNL A   1      36.553  30.269  28.882  1.00  0.00     0.338 C 
ATOM     36  O   UNL A   1      36.102  30.361  30.014  1.00  0.00    -0.246 OA
BRANCH  35  37
ATOM     37  C   UNL A   1      37.659  29.338  28.572  1.00  0.00     0.060 A 
ATOM     38  C   UNL A   1      38.413  29.530  27.406  1.00  0.00     0.016 A 
ATOM     39  C   UNL A   1      38.060  28.408  29.518  1.00  0.00     0.016 A 
ATOM     40  C   UNL A   1      39.684  28.966  27.304  1.00  0.00     0.010 A 
ATOM     41  C   UNL A   1      39.361  27.955  29.473  1.00  0.00     0.010 A 
ATOM     42  C   UNL A   1      40.189  28.224  28.375  1.00  0.00    -0.014 A 
BRANCH  42  43
ATOM     43  C   UNL A   1      41.578  27.758  28.383  1.00  0.00     0.031 A 
ATOM     44  C   UNL A   1      41.937  26.481  27.677  1.00  0.00     0.074 A 
ATOM     45  C   UNL A   1      42.587  28.544  28.814  1.00  0.00     0.049 A 
ATOM     46  N   UNL A   1      42.373  25.379  28.204  1.00  0.00    -0.248 NA
ATOM     47  C   UNL A   1      41.799  26.414  26.219  1.00  0.00     0.031 C 
ATOM     48  C   UNL A   1      42.543  29.936  29.284  1.00  0.00     0.029 A 
ATOM     49  N   UNL A   1      43.918  28.279  28.785  1.00  0.00    -0.354 N 
ATOM     50  C   UNL A   1      42.728  24.535  27.141  1.00  0.00     0.074 A 
ATOM     51  C   UNL A   1      42.231  25.178  25.953  1.00  0.00     0.031 C 
ATOM     52  C   UNL A   1      43.778  30.472  29.218  1.00  0.00     0.029 A 
ATOM     53  C   UNL A   1      44.712  29.402  28.941  1.00  0.00     0.049 A 
ATOM     54  H   UNL A   1      44.285  27.374  28.664  1.00  0.00     0.167 HD
ATOM     55  C   UNL A   1      43.546  23.452  27.305  1.00  0.00     0.034 A 
ATOM     56  C   UNL A   1      46.056  29.455  28.867  1.00  0.00     0.034 A 
ATOM     57  C   UNL A   1      43.771  23.169  28.699  1.00  0.00     0.049 A 
ATOM     58  C   UNL A   1      46.555  28.102  29.191  1.00  0.00     0.074 A 
ATOM     59  C   UNL A   1      42.992  22.815  29.780  1.00  0.00     0.029 A 
ATOM     60  N   UNL A   1      44.976  23.568  29.227  1.00  0.00    -0.354 N 
ATOM     61  N   UNL A   1      46.372  27.534  30.353  1.00  0.00    -0.248 NA
ATOM     62  C   UNL A   1      46.903  27.204  28.105  1.00  0.00     0.031 C 
ATOM     63  C   UNL A   1      43.575  23.511  30.883  1.00  0.00     0.029 A 
ATOM     64  C   UNL A   1      44.689  24.206  30.404  1.00  0.00     0.049 A 
ATOM     65  H   UNL A   1      45.868  23.423  28.837  1.00  0.00     0.167 HD
ATOM     66  C   UNL A   1      46.151  26.195  30.060  1.00  0.00     0.074 A 
ATOM     67  C   UNL A   1      46.621  26.035  28.685  1.00  0.00     0.031 C 
ATOM     68  C   UNL A   1      45.358  25.409  30.853  1.00  0.00     0.034 A 
BRANCH  55  69
ATOM     69  C   UNL A   1      44.409  22.765  26.259  1.00  0.00     0.023 A 
ATOM     70  C   UNL A   1      45.325  23.577  25.538  1.00  0.00     0.012 A 
ATOM     71  C   UNL A   1      44.199  21.461  25.763  1.00  0.00     0.148 A 
ATOM     72  C   UNL A   1      45.941  23.145  24.359  1.00  0.00     0.002 A 
ATOM     73  C   UNL A   1      44.872  21.009  24.625  1.00  0.00     0.091 A 
ATOM     74  F   UNL A   1      43.256  20.686  26.305  1.00  0.00    -0.205 F 
ATOM     75  C   UNL A   1      45.718  21.855  23.903  1.00  0.00     0.022 A 
BRANCH  73  76
ATOM     76  S   UNL A   1      44.671  19.330  24.014  1.00  0.00     0.127 S 
ATOM     77  O   UNL A   1      45.907  18.701  24.471  1.00  0.00    -0.237 OA
ATOM     78  O   UNL A   1      43.461  18.893  24.713  1.00  0.00    -0.237 OA
ATOM     79  O   UNL A   1      44.507  19.467  22.573  1.00  0.00    -0.744 OA
ENDBRANCH  73  76
ENDBRANCH  55  69
BRANCH  56  80
ATOM     80  C   UNL A   1      46.883  30.552  28.341  1.00  0.00     0.023 A 
ATOM     81  C   UNL A   1      46.655  31.054  27.051  1.00  0.00     0.012 A 
ATOM     82  C   UNL A   1      47.750  31.262  29.206  1.00  0.00     0.148 A 
ATOM     83  C   UNL A   1      47.257  32.248  26.637  1.00  0.00     0.002 A 
ATOM     84  C   UNL A   1      48.343  32.449  28.791  1.00  0.00     0.091 A 
ATOM     85  F   UNL A   1      47.924  30.811  30.456  1.00  0.00    -0.205 F 
ATOM     86  C   UNL A   1      48.091  32.948  27.507  1.00  0.00     0.022 A 
BRANCH  84  87
ATOM     87  S   UNL A   1      49.406  33.421  29.866  1.00  0.00     0.127 S 
ATOM     88  O   UNL A   1      49.465  34.701  29.161  1.00  0.00    -0.237 OA
ATOM     89  O   UNL A   1      48.641  33.440  31.109  1.00  0.00    -0.237 OA
ATOM     90  O   UNL A   1      50.678  32.709  29.917  1.00  0.00    -0.744 OA
ENDBRANCH  84  87
ENDBRANCH  56  80
BRANCH  68  91
ATOM     91  C   UNL A   1      44.868  25.969  32.171  1.00  0.00     0.023 A 
ATOM     92  C   UNL A   1      43.787  26.873  32.229  1.00  0.00     0.012 A 
ATOM     93  C   UNL A   1      45.334  25.404  33.370  1.00  0.00     0.148 A 
ATOM     94  C   UNL A   1      43.192  27.217  33.444  1.00  0.00     0.002 A 
ATOM     95  C   UNL A   1      44.712  25.714  34.577  1.00  0.00     0.091 A 
ATOM     96  F   UNL A   1      46.355  24.535  33.308  1.00  0.00    -0.205 F 
ATOM     97  C   UNL A   1      43.645  26.626  34.619  1.00  0.00     0.022 A 
BRANCH  95  98
ATOM     98  S   UNL A   1      45.156  24.882  36.104  1.00  0.00     0.127 S 
ATOM     99  O   UNL A   1      44.234  25.489  37.062  1.00  0.00    -0.237 OA
ATOM    100  O   UNL A   1      44.879  23.478  35.796  1.00  0.00    -0.237 OA
ATOM    101  O   UNL A   1      46.569  25.172  36.318  1.00  0.00    -0.744 OA
ENDBRANCH  95  98
ENDBRANCH  68  91
ENDBRANCH  42  43
ENDBRANCH  35  37
ENDBRANCH  34  35
ENDBRANCH  33  34
ENDBRANCH   1  33
TORSDOF 19
ENDMDL
