MODEL 1
REMARK VINA RESULT:     -10.0      0.000      0.000
REMARK SMILES O=C(CC[NH2+][C@H]1CS(=O)(=O)C[C@H]1O)OCCOC(=O)c1ccc(-c2c3nc(c(-c4cccc(S(=O)(=O)[O-])c4F)c4ccc([nH]4)c(-c4cccc(S(=O)(=O)[O-])c4F)c4nc(c(-c5cccc(S(=O)(=O)[O-])c5F)c5ccc2[nH]5)C=C4)C=C3)cc1
REMARK SMILES IDX 15 1 14 2 2 3 1 4 3 5 4 6 5 7 6 10 7 11 12 12 8 13 11 14
REMARK SMILES IDX 9 15 10 16 13 17 16 19 17 20 18 21 19 22 20 23 21 24 82 25
REMARK SMILES IDX 22 26 81 27 23 28 24 29 25 30 75 31 26 32 80 33 74 34 76 35
REMARK SMILES IDX 27 36 79 37 73 38 72 39 28 41 60 42 40 43 59 44 41 45 44 46
REMARK SMILES IDX 58 47 77 48 42 49 43 50 57 52 78 53 45 54 29 55 30 56 38 57
REMARK SMILES IDX 31 58 33 59 39 60 32 61 34 62 35 63 36 64 37 65 61 66 62 67
REMARK SMILES IDX 70 68 63 69 65 70 71 71 64 72 66 73 67 74 68 75 69 76 46 77
REMARK SMILES IDX 47 78 55 79 48 80 50 81 56 82 49 83 51 84 52 85 53 86 54 87
REMARK H PARENT 5 8 5 9 13 18 76 40 44 51
REMARK Flexibility Score: inf
ROOT
ATOM      1  C   UNL A   1      31.119  29.671  24.668  1.00  0.00     0.274 C 
ENDROOT
BRANCH   1   2
ATOM      2  O   UNL A   1      31.689  28.440  24.170  1.00  0.00    -0.462 OA
BRANCH   2   3
ATOM      3  C   UNL A   1      31.800  28.091  22.865  1.00  0.00     0.311 C 
ATOM      4  O   UNL A   1      30.819  28.146  22.126  1.00  0.00    -0.252 OA
BRANCH   3   5
ATOM      5  C   UNL A   1      33.137  27.639  22.331  1.00  0.00     0.184 C 
BRANCH   5   6
ATOM      6  C   UNL A   1      33.250  26.130  22.199  1.00  0.00     0.272 C 
BRANCH   6   7
ATOM      7  N   UNL A   1      32.273  25.481  23.081  1.00  0.00    -0.340 N 
ATOM      8  H   UNL A   1      31.618  24.953  22.504  1.00  0.00     0.346 HD
ATOM      9  H   UNL A   1      31.810  26.218  23.612  1.00  0.00     0.346 HD
BRANCH   7  10
ATOM     10  C   UNL A   1      32.888  24.559  24.055  1.00  0.00     0.227 C 
ATOM     11  C   UNL A   1      32.869  25.060  25.495  1.00  0.00     0.204 C 
ATOM     12  C   UNL A   1      32.062  23.246  24.065  1.00  0.00     0.188 C 
ATOM     13  S   UNL A   1      31.248  24.638  26.117  1.00  0.00     0.159 S 
ATOM     14  C   UNL A   1      30.769  23.533  24.809  1.00  0.00     0.175 C 
ATOM     15  O   UNL A   1      31.398  23.875  27.338  1.00  0.00    -0.228 OA
ATOM     16  O   UNL A   1      30.402  25.812  26.041  1.00  0.00    -0.228 OA
BRANCH  12  17
ATOM     17  O   UNL A   1      31.774  22.814  22.733  1.00  0.00    -0.386 OA
ATOM     18  H   UNL A   1      32.604  22.640  22.264  1.00  0.00     0.211 HD
ENDBRANCH  12  17
ENDBRANCH   7  10
ENDBRANCH   6   7
ENDBRANCH   5   6
ENDBRANCH   3   5
ENDBRANCH   2   3
ENDBRANCH   1   2
BRANCH   1  19
ATOM     19  C   UNL A   1      31.584  30.015  26.082  1.00  0.00     0.275 C 
BRANCH  19  20
ATOM     20  O   UNL A   1      32.951  30.455  26.072  1.00  0.00    -0.458 OA
BRANCH  20  21
ATOM     21  C   UNL A   1      33.232  31.479  26.917  1.00  0.00     0.338 C 
ATOM     22  O   UNL A   1      32.500  32.413  27.197  1.00  0.00    -0.246 OA
BRANCH  21  23
ATOM     23  C   UNL A   1      34.496  31.179  27.625  1.00  0.00     0.060 A 
ATOM     24  C   UNL A   1      34.741  29.850  27.997  1.00  0.00     0.016 A 
ATOM     25  C   UNL A   1      35.457  32.166  27.870  1.00  0.00     0.016 A 
ATOM     26  C   UNL A   1      35.941  29.507  28.622  1.00  0.00     0.010 A 
ATOM     27  C   UNL A   1      36.654  31.821  28.504  1.00  0.00     0.010 A 
ATOM     28  C   UNL A   1      36.897  30.493  28.897  1.00  0.00    -0.014 A 
BRANCH  28  29
ATOM     29  C   UNL A   1      38.112  30.166  29.683  1.00  0.00     0.031 A 
ATOM     30  C   UNL A   1      39.089  29.166  29.134  1.00  0.00     0.074 A 
ATOM     31  C   UNL A   1      38.321  30.719  30.892  1.00  0.00     0.049 A 
ATOM     32  N   UNL A   1      40.192  28.713  29.668  1.00  0.00    -0.248 NA
ATOM     33  C   UNL A   1      38.781  28.597  27.811  1.00  0.00     0.031 C 
ATOM     34  C   UNL A   1      37.442  31.687  31.545  1.00  0.00     0.029 A 
ATOM     35  N   UNL A   1      39.329  30.511  31.803  1.00  0.00    -0.354 N 
ATOM     36  C   UNL A   1      40.702  27.792  28.761  1.00  0.00     0.074 A 
ATOM     37  C   UNL A   1      39.781  27.744  27.645  1.00  0.00     0.031 C 
ATOM     38  C   UNL A   1      37.927  31.960  32.770  1.00  0.00     0.029 A 
ATOM     39  C   UNL A   1      39.140  31.174  32.994  1.00  0.00     0.049 A 
ATOM     40  H   UNL A   1      40.112  29.944  31.620  1.00  0.00     0.167 HD
ATOM     41  C   UNL A   1      41.839  27.064  28.842  1.00  0.00     0.034 A 
ATOM     42  C   UNL A   1      39.850  31.130  34.141  1.00  0.00     0.034 A 
ATOM     43  C   UNL A   1      42.763  27.118  29.941  1.00  0.00     0.049 A 
ATOM     44  C   UNL A   1      41.095  30.280  34.212  1.00  0.00     0.074 A 
ATOM     45  C   UNL A   1      43.980  26.471  30.069  1.00  0.00     0.029 A 
ATOM     46  N   UNL A   1      42.565  27.833  31.110  1.00  0.00    -0.354 N 
ATOM     47  N   UNL A   1      41.657  29.552  33.277  1.00  0.00    -0.248 NA
ATOM     48  C   UNL A   1      41.823  30.269  35.492  1.00  0.00     0.031 C 
ATOM     49  C   UNL A   1      44.500  26.765  31.333  1.00  0.00     0.029 A 
ATOM     50  C   UNL A   1      43.622  27.620  31.978  1.00  0.00     0.049 A 
ATOM     51  H   UNL A   1      41.788  28.408  31.295  1.00  0.00     0.167 HD
ATOM     52  C   UNL A   1      42.814  29.026  33.843  1.00  0.00     0.074 A 
ATOM     53  C   UNL A   1      42.891  29.542  35.193  1.00  0.00     0.031 C 
ATOM     54  C   UNL A   1      43.721  28.176  33.302  1.00  0.00     0.034 A 
BRANCH  41  55
ATOM     55  C   UNL A   1      42.174  26.155  27.692  1.00  0.00     0.023 A 
ATOM     56  C   UNL A   1      43.012  26.619  26.660  1.00  0.00     0.012 A 
ATOM     57  C   UNL A   1      41.739  24.815  27.688  1.00  0.00     0.148 A 
ATOM     58  C   UNL A   1      43.401  25.766  25.629  1.00  0.00     0.002 A 
ATOM     59  C   UNL A   1      42.165  23.960  26.679  1.00  0.00     0.091 A 
ATOM     60  F   UNL A   1      40.926  24.404  28.670  1.00  0.00    -0.205 F 
ATOM     61  C   UNL A   1      42.989  24.436  25.645  1.00  0.00     0.022 A 
BRANCH  59  62
ATOM     62  S   UNL A   1      41.751  22.213  26.649  1.00  0.00     0.127 S 
ATOM     63  O   UNL A   1      42.321  21.798  25.368  1.00  0.00    -0.237 OA
ATOM     64  O   UNL A   1      42.462  21.711  27.825  1.00  0.00    -0.237 OA
ATOM     65  O   UNL A   1      40.299  22.140  26.734  1.00  0.00    -0.744 OA
ENDBRANCH  59  62
ENDBRANCH  41  55
BRANCH  42  66
ATOM     66  C   UNL A   1      39.414  31.919  35.329  1.00  0.00     0.023 A 
ATOM     67  C   UNL A   1      38.536  31.343  36.267  1.00  0.00     0.012 A 
ATOM     68  C   UNL A   1      39.842  33.248  35.516  1.00  0.00     0.148 A 
ATOM     69  C   UNL A   1      38.056  32.089  37.344  1.00  0.00     0.002 A 
ATOM     70  C   UNL A   1      39.408  33.966  36.625  1.00  0.00     0.091 A 
ATOM     71  F   UNL A   1      40.659  33.789  34.603  1.00  0.00    -0.205 F 
ATOM     72  C   UNL A   1      38.497  33.397  37.528  1.00  0.00     0.022 A 
BRANCH  70  73
ATOM     73  S   UNL A   1      40.034  35.605  37.007  1.00  0.00     0.127 S 
ATOM     74  O   UNL A   1      39.366  35.897  38.272  1.00  0.00    -0.237 OA
ATOM     75  O   UNL A   1      41.475  35.364  37.110  1.00  0.00    -0.237 OA
ATOM     76  O   UNL A   1      39.653  36.440  35.875  1.00  0.00    -0.744 OA
ENDBRANCH  70  73
ENDBRANCH  42  66
BRANCH  54  77
ATOM     77  C   UNL A   1      44.895  27.757  34.151  1.00  0.00     0.023 A 
ATOM     78  C   UNL A   1      46.061  28.549  34.169  1.00  0.00     0.012 A 
ATOM     79  C   UNL A   1      44.813  26.630  34.993  1.00  0.00     0.148 A 
ATOM     80  C   UNL A   1      47.138  28.208  34.987  1.00  0.00     0.002 A 
ATOM     81  C   UNL A   1      45.871  26.324  35.842  1.00  0.00     0.091 A 
ATOM     82  F   UNL A   1      43.702  25.881  34.953  1.00  0.00    -0.205 F 
ATOM     83  C   UNL A   1      47.038  27.105  35.831  1.00  0.00     0.022 A 
BRANCH  81  84
ATOM     84  S   UNL A   1      45.800  24.980  37.033  1.00  0.00     0.127 S 
ATOM     85  O   UNL A   1      44.627  25.348  37.826  1.00  0.00    -0.237 OA
ATOM     86  O   UNL A   1      45.612  23.812  36.172  1.00  0.00    -0.237 OA
ATOM     87  O   UNL A   1      47.068  25.009  37.747  1.00  0.00    -0.744 OA
ENDBRANCH  81  84
ENDBRANCH  54  77
ENDBRANCH  28  29
ENDBRANCH  21  23
ENDBRANCH  20  21
ENDBRANCH  19  20
ENDBRANCH   1  19
TORSDOF 18
ENDMDL
MODEL 2
REMARK VINA RESULT:      -9.8      4.944      9.987
REMARK SMILES O=C(CC[NH2+][C@H]1CS(=O)(=O)C[C@H]1O)OCCOC(=O)c1ccc(-c2c3nc(c(-c4cccc(S(=O)(=O)[O-])c4F)c4ccc([nH]4)c(-c4cccc(S(=O)(=O)[O-])c4F)c4nc(c(-c5cccc(S(=O)(=O)[O-])c5F)c5ccc2[nH]5)C=C4)C=C3)cc1
REMARK SMILES IDX 15 1 14 2 2 3 1 4 3 5 4 6 5 7 6 10 7 11 12 12 8 13 11 14
REMARK SMILES IDX 9 15 10 16 13 17 16 19 17 20 18 21 19 22 20 23 21 24 82 25
REMARK SMILES IDX 22 26 81 27 23 28 24 29 25 30 75 31 26 32 80 33 74 34 76 35
REMARK SMILES IDX 27 36 79 37 73 38 72 39 28 41 60 42 40 43 59 44 41 45 44 46
REMARK SMILES IDX 58 47 77 48 42 49 43 50 57 52 78 53 45 54 29 55 30 56 38 57
REMARK SMILES IDX 31 58 33 59 39 60 32 61 34 62 35 63 36 64 37 65 61 66 62 67
REMARK SMILES IDX 70 68 63 69 65 70 71 71 64 72 66 73 67 74 68 75 69 76 46 77
REMARK SMILES IDX 47 78 55 79 48 80 50 81 56 82 49 83 51 84 52 85 53 86 54 87
REMARK H PARENT 5 8 5 9 13 18 76 40 44 51
REMARK Flexibility Score: inf
ROOT
ATOM      1  C   UNL A   1      35.164  20.531  25.115  1.00  0.00     0.274 C 
ENDROOT
BRANCH   1   2
ATOM      2  O   UNL A   1      34.654  21.880  25.036  1.00  0.00    -0.462 OA
BRANCH   2   3
ATOM      3  C   UNL A   1      34.158  22.475  23.923  1.00  0.00     0.311 C 
ATOM      4  O   UNL A   1      33.154  22.023  23.378  1.00  0.00    -0.252 OA
BRANCH   3   5
ATOM      5  C   UNL A   1      34.851  23.694  23.366  1.00  0.00     0.184 C 
BRANCH   5   6
ATOM      6  C   UNL A   1      34.054  24.974  23.559  1.00  0.00     0.272 C 
BRANCH   6   7
ATOM      7  N   UNL A   1      33.172  24.838  24.722  1.00  0.00    -0.340 N 
ATOM      8  H   UNL A   1      33.452  24.009  25.246  1.00  0.00     0.346 HD
ATOM      9  H   UNL A   1      32.217  24.766  24.371  1.00  0.00     0.346 HD
BRANCH   7  10
ATOM     10  C   UNL A   1      33.217  26.002  25.629  1.00  0.00     0.227 C 
ATOM     11  C   UNL A   1      33.354  27.346  24.923  1.00  0.00     0.204 C 
ATOM     12  C   UNL A   1      31.868  26.072  26.392  1.00  0.00     0.188 C 
ATOM     13  S   UNL A   1      31.694  27.791  24.435  1.00  0.00     0.159 S 
ATOM     14  C   UNL A   1      30.826  26.588  25.414  1.00  0.00     0.175 C 
ATOM     15  O   UNL A   1      31.392  29.111  24.945  1.00  0.00    -0.228 OA
ATOM     16  O   UNL A   1      31.513  27.444  23.040  1.00  0.00    -0.228 OA
BRANCH  12  17
ATOM     17  O   UNL A   1      31.488  24.783  26.877  1.00  0.00    -0.386 OA
ATOM     18  H   UNL A   1      32.246  24.366  27.315  1.00  0.00     0.211 HD
ENDBRANCH  12  17
ENDBRANCH   7  10
ENDBRANCH   6   7
ENDBRANCH   5   6
ENDBRANCH   3   5
ENDBRANCH   2   3
ENDBRANCH   1   2
BRANCH   1  19
ATOM     19  C   UNL A   1      36.674  20.450  24.891  1.00  0.00     0.275 C 
BRANCH  19  20
ATOM     20  O   UNL A   1      37.362  21.378  25.744  1.00  0.00    -0.458 OA
BRANCH  20  21
ATOM     21  C   UNL A   1      38.652  21.058  26.018  1.00  0.00     0.338 C 
ATOM     22  O   UNL A   1      39.208  20.003  25.770  1.00  0.00    -0.246 OA
BRANCH  21  23
ATOM     23  C   UNL A   1      39.356  22.274  26.481  1.00  0.00     0.060 A 
ATOM     24  C   UNL A   1      38.859  23.518  26.068  1.00  0.00     0.016 A 
ATOM     25  C   UNL A   1      40.448  22.208  27.353  1.00  0.00     0.016 A 
ATOM     26  C   UNL A   1      39.457  24.697  26.518  1.00  0.00     0.010 A 
ATOM     27  C   UNL A   1      41.050  23.389  27.795  1.00  0.00     0.010 A 
ATOM     28  C   UNL A   1      40.568  24.640  27.369  1.00  0.00    -0.014 A 
BRANCH  28  29
ATOM     29  C   UNL A   1      41.295  25.877  27.741  1.00  0.00     0.031 A 
ATOM     30  C   UNL A   1      40.566  26.955  28.493  1.00  0.00     0.074 A 
ATOM     31  C   UNL A   1      42.578  26.062  27.376  1.00  0.00     0.049 A 
ATOM     32  N   UNL A   1      41.000  28.123  28.886  1.00  0.00    -0.248 NA
ATOM     33  C   UNL A   1      39.162  26.682  28.843  1.00  0.00     0.031 C 
ATOM     34  C   UNL A   1      43.392  25.104  26.630  1.00  0.00     0.029 A 
ATOM     35  N   UNL A   1      43.409  27.141  27.556  1.00  0.00    -0.354 N 
ATOM     36  C   UNL A   1      39.921  28.736  29.512  1.00  0.00     0.074 A 
ATOM     37  C   UNL A   1      38.809  27.812  29.438  1.00  0.00     0.031 C 
ATOM     38  C   UNL A   1      44.593  25.654  26.379  1.00  0.00     0.029 A 
ATOM     39  C   UNL A   1      44.627  27.008  26.932  1.00  0.00     0.049 A 
ATOM     40  H   UNL A   1      43.156  27.933  28.082  1.00  0.00     0.167 HD
ATOM     41  C   UNL A   1      39.865  29.950  30.107  1.00  0.00     0.034 A 
ATOM     42  C   UNL A   1      45.642  27.887  26.800  1.00  0.00     0.034 A 
ATOM     43  C   UNL A   1      40.970  30.864  30.196  1.00  0.00     0.049 A 
ATOM     44  C   UNL A   1      45.536  29.248  27.445  1.00  0.00     0.074 A 
ATOM     45  C   UNL A   1      41.023  32.083  30.849  1.00  0.00     0.029 A 
ATOM     46  N   UNL A   1      42.203  30.679  29.593  1.00  0.00    -0.354 N 
ATOM     47  N   UNL A   1      44.573  29.741  28.186  1.00  0.00    -0.248 NA
ATOM     48  C   UNL A   1      46.673  30.165  27.261  1.00  0.00     0.031 C 
ATOM     49  C   UNL A   1      42.276  32.654  30.609  1.00  0.00     0.029 A 
ATOM     50  C   UNL A   1      43.014  31.775  29.833  1.00  0.00     0.049 A 
ATOM     51  H   UNL A   1      42.464  29.886  29.073  1.00  0.00     0.167 HD
ATOM     52  C   UNL A   1      45.000  31.005  28.580  1.00  0.00     0.074 A 
ATOM     53  C   UNL A   1      46.322  31.193  28.022  1.00  0.00     0.031 C 
ATOM     54  C   UNL A   1      44.349  31.936  29.319  1.00  0.00     0.034 A 
BRANCH  41  55
ATOM     55  C   UNL A   1      38.567  30.361  30.743  1.00  0.00     0.023 A 
ATOM     56  C   UNL A   1      38.361  30.129  32.117  1.00  0.00     0.012 A 
ATOM     57  C   UNL A   1      37.596  31.062  30.001  1.00  0.00     0.148 A 
ATOM     58  C   UNL A   1      37.199  30.577  32.743  1.00  0.00     0.002 A 
ATOM     59  C   UNL A   1      36.459  31.540  30.641  1.00  0.00     0.091 A 
ATOM     60  F   UNL A   1      37.806  31.250  28.692  1.00  0.00    -0.205 F 
ATOM     61  C   UNL A   1      36.256  31.292  32.009  1.00  0.00     0.022 A 
BRANCH  59  62
ATOM     62  S   UNL A   1      35.221  32.536  29.803  1.00  0.00     0.127 S 
ATOM     63  O   UNL A   1      34.260  32.775  30.879  1.00  0.00    -0.237 OA
ATOM     64  O   UNL A   1      35.994  33.711  29.403  1.00  0.00    -0.237 OA
ATOM     65  O   UNL A   1      34.727  31.723  28.701  1.00  0.00    -0.744 OA
ENDBRANCH  59  62
ENDBRANCH  41  55
BRANCH  42  66
ATOM     66  C   UNL A   1      46.865  27.519  26.029  1.00  0.00     0.023 A 
ATOM     67  C   UNL A   1      46.932  27.800  24.650  1.00  0.00     0.012 A 
ATOM     68  C   UNL A   1      47.947  26.866  26.649  1.00  0.00     0.148 A 
ATOM     69  C   UNL A   1      48.033  27.395  23.895  1.00  0.00     0.002 A 
ATOM     70  C   UNL A   1      49.068  26.520  25.903  1.00  0.00     0.091 A 
ATOM     71  F   UNL A   1      47.858  26.587  27.957  1.00  0.00    -0.205 F 
ATOM     72  C   UNL A   1      49.105  26.763  24.521  1.00  0.00     0.022 A 
BRANCH  70  73
ATOM     73  S   UNL A   1      50.543  25.829  26.659  1.00  0.00     0.127 S 
ATOM     74  O   UNL A   1      50.904  26.865  27.622  1.00  0.00    -0.237 OA
ATOM     75  O   UNL A   1      50.031  24.589  27.246  1.00  0.00    -0.237 OA
ATOM     76  O   UNL A   1      51.481  25.622  25.562  1.00  0.00    -0.744 OA
ENDBRANCH  70  73
ENDBRANCH  42  66
BRANCH  54  77
ATOM     77  C   UNL A   1      45.053  33.241  29.595  1.00  0.00     0.023 A 
ATOM     78  C   UNL A   1      45.872  33.363  30.736  1.00  0.00     0.012 A 
ATOM     79  C   UNL A   1      44.970  34.315  28.687  1.00  0.00     0.148 A 
ATOM     80  C   UNL A   1      46.574  34.544  30.982  1.00  0.00     0.002 A 
ATOM     81  C   UNL A   1      45.711  35.469  28.914  1.00  0.00     0.091 A 
ATOM     82  F   UNL A   1      44.175  34.186  27.615  1.00  0.00    -0.205 F 
ATOM     83  C   UNL A   1      46.503  35.590  30.067  1.00  0.00     0.022 A 
BRANCH  81  84
ATOM     84  S   UNL A   1      45.760  36.834  27.744  1.00  0.00     0.127 S 
ATOM     85  O   UNL A   1      46.293  36.182  26.549  1.00  0.00    -0.237 OA
ATOM     86  O   UNL A   1      44.350  37.215  27.654  1.00  0.00    -0.237 OA
ATOM     87  O   UNL A   1      46.623  37.844  28.341  1.00  0.00    -0.744 OA
ENDBRANCH  81  84
ENDBRANCH  54  77
ENDBRANCH  28  29
ENDBRANCH  21  23
ENDBRANCH  20  21
ENDBRANCH  19  20
ENDBRANCH   1  19
TORSDOF 18
ENDMDL
MODEL 3
REMARK VINA RESULT:      -9.7      5.237      7.676
REMARK SMILES O=C(CC[NH2+][C@H]1CS(=O)(=O)C[C@H]1O)OCCOC(=O)c1ccc(-c2c3nc(c(-c4cccc(S(=O)(=O)[O-])c4F)c4ccc([nH]4)c(-c4cccc(S(=O)(=O)[O-])c4F)c4nc(c(-c5cccc(S(=O)(=O)[O-])c5F)c5ccc2[nH]5)C=C4)C=C3)cc1
REMARK SMILES IDX 15 1 14 2 2 3 1 4 3 5 4 6 5 7 6 10 7 11 12 12 8 13 11 14
REMARK SMILES IDX 9 15 10 16 13 17 16 19 17 20 18 21 19 22 20 23 21 24 82 25
REMARK SMILES IDX 22 26 81 27 23 28 24 29 25 30 75 31 26 32 80 33 74 34 76 35
REMARK SMILES IDX 27 36 79 37 73 38 72 39 28 41 60 42 40 43 59 44 41 45 44 46
REMARK SMILES IDX 58 47 77 48 42 49 43 50 57 52 78 53 45 54 29 55 30 56 38 57
REMARK SMILES IDX 31 58 33 59 39 60 32 61 34 62 35 63 36 64 37 65 61 66 62 67
REMARK SMILES IDX 70 68 63 69 65 70 71 71 64 72 66 73 67 74 68 75 69 76 46 77
REMARK SMILES IDX 47 78 55 79 48 80 50 81 56 82 49 83 51 84 52 85 53 86 54 87
REMARK H PARENT 5 8 5 9 13 18 76 40 44 51
REMARK Flexibility Score: inf
ROOT
ATOM      1  C   UNL A   1      35.942  21.480  25.488  1.00  0.00     0.274 C 
ENDROOT
BRANCH   1   2
ATOM      2  O   UNL A   1      35.299  21.788  24.231  1.00  0.00    -0.462 OA
BRANCH   2   3
ATOM      3  C   UNL A   1      35.543  22.879  23.464  1.00  0.00     0.311 C 
ATOM      4  O   UNL A   1      36.601  22.974  22.847  1.00  0.00    -0.252 OA
BRANCH   3   5
ATOM      5  C   UNL A   1      34.502  23.968  23.376  1.00  0.00     0.184 C 
BRANCH   5   6
ATOM      6  C   UNL A   1      34.391  24.794  24.647  1.00  0.00     0.272 C 
BRANCH   6   7
ATOM      7  N   UNL A   1      33.603  24.063  25.645  1.00  0.00    -0.340 N 
ATOM      8  H   UNL A   1      34.242  23.664  26.333  1.00  0.00     0.346 HD
ATOM      9  H   UNL A   1      33.075  23.346  25.148  1.00  0.00     0.346 HD
BRANCH   7  10
ATOM     10  C   UNL A   1      32.625  24.913  26.353  1.00  0.00     0.227 C 
ATOM     11  C   UNL A   1      32.012  26.015  25.496  1.00  0.00     0.204 C 
ATOM     12  C   UNL A   1      31.434  24.018  26.788  1.00  0.00     0.188 C 
ATOM     13  S   UNL A   1      30.682  25.228  24.601  1.00  0.00     0.159 S 
ATOM     14  C   UNL A   1      30.617  23.721  25.542  1.00  0.00     0.175 C 
ATOM     15  O   UNL A   1      29.459  25.970  24.828  1.00  0.00    -0.228 OA
ATOM     16  O   UNL A   1      31.149  24.901  23.269  1.00  0.00    -0.228 OA
BRANCH  12  17
ATOM     17  O   UNL A   1      31.898  22.799  27.371  1.00  0.00    -0.386 OA
ATOM     18  H   UNL A   1      32.544  22.383  26.779  1.00  0.00     0.211 HD
ENDBRANCH  12  17
ENDBRANCH   7  10
ENDBRANCH   6   7
ENDBRANCH   5   6
ENDBRANCH   3   5
ENDBRANCH   2   3
ENDBRANCH   1   2
BRANCH   1  19
ATOM     19  C   UNL A   1      37.142  20.548  25.332  1.00  0.00     0.275 C 
BRANCH  19  20
ATOM     20  O   UNL A   1      38.357  21.304  25.212  1.00  0.00    -0.458 OA
BRANCH  20  21
ATOM     21  C   UNL A   1      39.254  21.112  26.213  1.00  0.00     0.338 C 
ATOM     22  O   UNL A   1      39.689  20.043  26.604  1.00  0.00    -0.246 OA
BRANCH  21  23
ATOM     23  C   UNL A   1      39.796  22.425  26.625  1.00  0.00     0.060 A 
ATOM     24  C   UNL A   1      39.185  23.578  26.112  1.00  0.00     0.016 A 
ATOM     25  C   UNL A   1      40.845  22.535  27.544  1.00  0.00     0.016 A 
ATOM     26  C   UNL A   1      39.627  24.841  26.510  1.00  0.00     0.010 A 
ATOM     27  C   UNL A   1      41.291  23.802  27.934  1.00  0.00     0.010 A 
ATOM     28  C   UNL A   1      40.695  24.962  27.408  1.00  0.00    -0.014 A 
BRANCH  28  29
ATOM     29  C   UNL A   1      41.262  26.294  27.730  1.00  0.00     0.031 A 
ATOM     30  C   UNL A   1      42.684  26.593  27.348  1.00  0.00     0.074 A 
ATOM     31  C   UNL A   1      40.536  27.211  28.396  1.00  0.00     0.049 A 
ATOM     32  N   UNL A   1      43.384  27.675  27.562  1.00  0.00    -0.248 NA
ATOM     33  C   UNL A   1      43.414  25.532  26.635  1.00  0.00     0.031 C 
ATOM     34  C   UNL A   1      39.154  27.039  28.839  1.00  0.00     0.029 A 
ATOM     35  N   UNL A   1      40.880  28.463  28.845  1.00  0.00    -0.354 N 
ATOM     36  C   UNL A   1      44.642  27.423  27.030  1.00  0.00     0.074 A 
ATOM     37  C   UNL A   1      44.612  26.080  26.491  1.00  0.00     0.031 C 
ATOM     38  C   UNL A   1      38.780  28.128  29.535  1.00  0.00     0.029 A 
ATOM     39  C   UNL A   1      39.900  29.066  29.600  1.00  0.00     0.049 A 
ATOM     40  H   UNL A   1      41.745  28.888  28.647  1.00  0.00     0.167 HD
ATOM     41  C   UNL A   1      45.721  28.239  26.982  1.00  0.00     0.034 A 
ATOM     42  C   UNL A   1      39.915  30.229  30.284  1.00  0.00     0.034 A 
ATOM     43  C   UNL A   1      45.752  29.578  27.503  1.00  0.00     0.049 A 
ATOM     44  C   UNL A   1      41.147  31.102  30.240  1.00  0.00     0.074 A 
ATOM     45  C   UNL A   1      46.778  30.503  27.427  1.00  0.00     0.029 A 
ATOM     46  N   UNL A   1      44.728  30.174  28.219  1.00  0.00    -0.354 N 
ATOM     47  N   UNL A   1      42.266  30.923  29.581  1.00  0.00    -0.248 NA
ATOM     48  C   UNL A   1      41.104  32.355  31.011  1.00  0.00     0.031 C 
ATOM     49  C   UNL A   1      46.390  31.646  28.132  1.00  0.00     0.029 A 
ATOM     50  C   UNL A   1      45.109  31.443  28.619  1.00  0.00     0.049 A 
ATOM     51  H   UNL A   1      43.858  29.758  28.415  1.00  0.00     0.167 HD
ATOM     52  C   UNL A   1      43.044  32.049  29.832  1.00  0.00     0.074 A 
ATOM     53  C   UNL A   1      42.257  32.920  30.679  1.00  0.00     0.031 C 
ATOM     54  C   UNL A   1      44.303  32.329  29.417  1.00  0.00     0.034 A 
BRANCH  41  55
ATOM     55  C   UNL A   1      46.964  27.721  26.313  1.00  0.00     0.023 A 
ATOM     56  C   UNL A   1      47.854  26.905  27.037  1.00  0.00     0.012 A 
ATOM     57  C   UNL A   1      47.197  27.965  24.945  1.00  0.00     0.148 A 
ATOM     58  C   UNL A   1      48.969  26.348  26.413  1.00  0.00     0.002 A 
ATOM     59  C   UNL A   1      48.287  27.373  24.321  1.00  0.00     0.091 A 
ATOM     60  F   UNL A   1      46.346  28.762  24.285  1.00  0.00    -0.205 F 
ATOM     61  C   UNL A   1      49.177  26.571  25.055  1.00  0.00     0.022 A 
BRANCH  59  62
ATOM     62  S   UNL A   1      48.603  27.536  22.560  1.00  0.00     0.127 S 
ATOM     63  O   UNL A   1      48.648  26.136  22.139  1.00  0.00    -0.237 OA
ATOM     64  O   UNL A   1      47.424  28.273  22.105  1.00  0.00    -0.237 OA
ATOM     65  O   UNL A   1      49.861  28.260  22.441  1.00  0.00    -0.744 OA
ENDBRANCH  59  62
ENDBRANCH  41  55
BRANCH  42  66
ATOM     66  C   UNL A   1      38.724  30.656  31.074  1.00  0.00     0.023 A 
ATOM     67  C   UNL A   1      38.647  30.344  32.446  1.00  0.00     0.012 A 
ATOM     68  C   UNL A   1      37.655  31.342  30.466  1.00  0.00     0.148 A 
ATOM     69  C   UNL A   1      37.509  30.666  33.185  1.00  0.00     0.002 A 
ATOM     70  C   UNL A   1      36.550  31.714  31.223  1.00  0.00     0.091 A 
ATOM     71  F   UNL A   1      37.735  31.611  29.155  1.00  0.00    -0.205 F 
ATOM     72  C   UNL A   1      36.464  31.357  32.577  1.00  0.00     0.022 A 
BRANCH  70  73
ATOM     73  S   UNL A   1      35.227  32.723  30.549  1.00  0.00     0.127 S 
ATOM     74  O   UNL A   1      35.925  33.967  30.235  1.00  0.00    -0.237 OA
ATOM     75  O   UNL A   1      34.807  31.939  29.387  1.00  0.00    -0.237 OA
ATOM     76  O   UNL A   1      34.224  32.803  31.604  1.00  0.00    -0.744 OA
ENDBRANCH  70  73
ENDBRANCH  42  66
BRANCH  54  77
ATOM     77  C   UNL A   1      44.917  33.638  29.847  1.00  0.00     0.023 A 
ATOM     78  C   UNL A   1      45.709  33.688  31.012  1.00  0.00     0.012 A 
ATOM     79  C   UNL A   1      44.779  34.796  29.057  1.00  0.00     0.148 A 
ATOM     80  C   UNL A   1      46.329  34.876  31.399  1.00  0.00     0.002 A 
ATOM     81  C   UNL A   1      45.439  35.964  29.422  1.00  0.00     0.091 A 
ATOM     82  F   UNL A   1      44.011  34.734  27.959  1.00  0.00    -0.205 F 
ATOM     83  C   UNL A   1      46.205  36.009  30.598  1.00  0.00     0.022 A 
BRANCH  81  84
ATOM     84  S   UNL A   1      45.417  37.447  28.406  1.00  0.00     0.127 S 
ATOM     85  O   UNL A   1      46.269  38.349  29.180  1.00  0.00    -0.237 OA
ATOM     86  O   UNL A   1      46.009  36.974  27.154  1.00  0.00    -0.237 OA
ATOM     87  O   UNL A   1      44.020  37.843  28.304  1.00  0.00    -0.744 OA
ENDBRANCH  81  84
ENDBRANCH  54  77
ENDBRANCH  28  29
ENDBRANCH  21  23
ENDBRANCH  20  21
ENDBRANCH  19  20
ENDBRANCH   1  19
TORSDOF 18
ENDMDL
