MODEL 1
REMARK VINA RESULT:     -12.5      0.000      0.000
REMARK SMILES Cc1cc2c(c(C)c1Cl)C=C(C(=O)OCCOC(=O)c1ccc(-c3c4nc(c(-c5cccc(S(=O)(=O)[O-])c5F)c5ccc([nH]5)c(-c5cccc(S(=O)(=O)[O-])c5F)c5nc(c(-c6cccc(S(=O)(=O)[O-])c6F)c6ccc3[nH]6)C=C5)C=C4)cc1)[C@@H](C(F)(F)F)O2
REMARK SMILES IDX 16 1 15 2 14 3 12 4 13 5 11 6 1 7 2 8 3 9 8 10 4 11 6 12
REMARK SMILES IDX 9 13 5 14 88 15 7 16 10 17 83 18 84 19 85 20 86 21 87 22
REMARK SMILES IDX 17 23 18 24 19 25 20 26 21 27 82 28 22 29 81 30 23 31 24 32
REMARK SMILES IDX 25 33 75 34 26 35 80 36 74 37 76 38 27 39 79 40 73 41 72 42
REMARK SMILES IDX 28 44 60 45 40 46 59 47 41 48 44 49 58 50 77 51 42 52 43 53
REMARK SMILES IDX 57 55 78 56 45 57 29 58 30 59 38 60 31 61 33 62 39 63 32 64
REMARK SMILES IDX 34 65 35 66 36 67 37 68 61 69 62 70 70 71 63 72 65 73 71 74
REMARK SMILES IDX 64 75 66 76 67 77 68 78 69 79 46 80 47 81 55 82 48 83 50 84
REMARK SMILES IDX 56 85 49 86 51 87 52 88 53 89 54 90
REMARK H PARENT 76 43 44 54
REMARK Flexibility Score: inf
ROOT
ATOM      1  C   UNL A   1      36.528  20.468  24.977  1.00  0.00     0.275 C 
ENDROOT
BRANCH   1   2
ATOM      2  C   UNL A   1      35.196  21.123  25.343  1.00  0.00     0.275 C 
BRANCH   2   3
ATOM      3  O   UNL A   1      35.227  22.549  25.110  1.00  0.00    -0.459 OA
BRANCH   3   4
ATOM      4  C   UNL A   1      34.554  23.302  26.011  1.00  0.00     0.338 C 
ATOM      5  O   UNL A   1      34.551  23.156  27.224  1.00  0.00    -0.246 OA
BRANCH   4   6
ATOM      6  C   UNL A   1      33.780  24.359  25.335  1.00  0.00     0.087 C 
ATOM      7  C   UNL A   1      30.178  29.482  23.607  1.00  0.00     0.046 C 
ATOM      8  C   UNL A   1      31.169  28.516  24.198  1.00  0.00    -0.028 A 
ATOM      9  C   UNL A   1      31.257  27.221  23.673  1.00  0.00     0.052 A 
ATOM     10  C   UNL A   1      32.002  28.878  25.276  1.00  0.00     0.047 A 
ATOM     11  C   UNL A   1      32.139  26.288  24.213  1.00  0.00     0.128 A 
ATOM     12  C   UNL A   1      32.909  27.949  25.832  1.00  0.00    -0.021 A 
ATOM     13  Cl  UNL A   1      31.879  30.492  25.910  1.00  0.00    -0.084 Cl
ATOM     14  C   UNL A   1      32.961  26.636  25.290  1.00  0.00     0.022 A 
ATOM     15  O   UNL A   1      32.137  25.060  23.606  1.00  0.00    -0.475 OA
ATOM     16  C   UNL A   1      33.819  28.331  26.978  1.00  0.00     0.047 C 
ATOM     17  C   UNL A   1      33.830  25.599  25.836  1.00  0.00     0.027 C 
ATOM     18  C   UNL A   1      32.863  23.964  24.220  1.00  0.00     0.316 C 
BRANCH  18  19
ATOM     19  C   UNL A   1      31.861  22.890  24.673  1.00  0.00     0.430 C 
ATOM     20  F   UNL A   1      30.644  23.083  24.106  1.00  0.00    -0.167 F 
ATOM     21  F   UNL A   1      32.258  21.647  24.303  1.00  0.00    -0.167 F 
ATOM     22  F   UNL A   1      31.685  22.878  26.013  1.00  0.00    -0.167 F 
ENDBRANCH  18  19
ENDBRANCH   4   6
ENDBRANCH   3   4
ENDBRANCH   2   3
ENDBRANCH   1   2
BRANCH   1  23
ATOM     23  O   UNL A   1      37.581  21.448  24.968  1.00  0.00    -0.458 OA
BRANCH  23  24
ATOM     24  C   UNL A   1      38.683  21.108  25.672  1.00  0.00     0.338 C 
ATOM     25  O   UNL A   1      39.286  20.049  25.634  1.00  0.00    -0.246 OA
BRANCH  24  26
ATOM     26  C   UNL A   1      39.159  22.256  26.459  1.00  0.00     0.060 A 
ATOM     27  C   UNL A   1      38.630  23.509  26.179  1.00  0.00     0.016 A 
ATOM     28  C   UNL A   1      40.266  22.140  27.296  1.00  0.00     0.016 A 
ATOM     29  C   UNL A   1      39.316  24.650  26.575  1.00  0.00     0.010 A 
ATOM     30  C   UNL A   1      40.858  23.297  27.820  1.00  0.00     0.010 A 
ATOM     31  C   UNL A   1      40.441  24.576  27.408  1.00  0.00    -0.014 A 
BRANCH  31  32
ATOM     32  C   UNL A   1      41.189  25.816  27.795  1.00  0.00     0.031 A 
ATOM     33  C   UNL A   1      40.530  26.877  28.652  1.00  0.00     0.074 A 
ATOM     34  C   UNL A   1      42.470  26.001  27.410  1.00  0.00     0.049 A 
ATOM     35  N   UNL A   1      40.931  28.096  28.913  1.00  0.00    -0.248 NA
ATOM     36  C   UNL A   1      39.245  26.532  29.287  1.00  0.00     0.031 C 
ATOM     37  C   UNL A   1      43.265  25.058  26.618  1.00  0.00     0.029 A 
ATOM     38  N   UNL A   1      43.341  27.044  27.635  1.00  0.00    -0.354 N 
ATOM     39  C   UNL A   1      39.913  28.688  29.655  1.00  0.00     0.074 A 
ATOM     40  C   UNL A   1      38.878  27.692  29.816  1.00  0.00     0.031 C 
ATOM     41  C   UNL A   1      44.510  25.530  26.478  1.00  0.00     0.029 A 
ATOM     42  C   UNL A   1      44.571  26.872  27.041  1.00  0.00     0.049 A 
ATOM     43  H   UNL A   1      43.105  27.837  28.168  1.00  0.00     0.167 HD
ATOM     44  C   UNL A   1      39.849  29.944  30.162  1.00  0.00     0.034 A 
ATOM     45  C   UNL A   1      45.617  27.710  26.896  1.00  0.00     0.034 A 
ATOM     46  C   UNL A   1      40.923  30.900  30.085  1.00  0.00     0.049 A 
ATOM     47  C   UNL A   1      45.515  29.101  27.448  1.00  0.00     0.074 A 
ATOM     48  C   UNL A   1      40.965  32.185  30.599  1.00  0.00     0.029 A 
ATOM     49  N   UNL A   1      42.147  30.675  29.475  1.00  0.00    -0.354 N 
ATOM     50  N   UNL A   1      44.543  29.643  28.139  1.00  0.00    -0.248 NA
ATOM     51  C   UNL A   1      46.653  29.999  27.203  1.00  0.00     0.031 C 
ATOM     52  C   UNL A   1      42.203  32.746  30.276  1.00  0.00     0.029 A 
ATOM     53  C   UNL A   1      42.948  31.799  29.592  1.00  0.00     0.049 A 
ATOM     54  H   UNL A   1      42.411  29.839  29.027  1.00  0.00     0.167 HD
ATOM     55  C   UNL A   1      44.955  30.939  28.424  1.00  0.00     0.074 A 
ATOM     56  C   UNL A   1      46.281  31.089  27.861  1.00  0.00     0.031 C 
ATOM     57  C   UNL A   1      44.285  31.923  29.071  1.00  0.00     0.034 A 
BRANCH  44  58
ATOM     58  C   UNL A   1      38.589  30.374  30.875  1.00  0.00     0.023 A 
ATOM     59  C   UNL A   1      38.477  30.218  32.271  1.00  0.00     0.012 A 
ATOM     60  C   UNL A   1      37.562  31.040  30.171  1.00  0.00     0.148 A 
ATOM     61  C   UNL A   1      37.357  30.699  32.950  1.00  0.00     0.002 A 
ATOM     62  C   UNL A   1      36.475  31.562  30.863  1.00  0.00     0.091 A 
ATOM     63  F   UNL A   1      37.680  31.166  28.841  1.00  0.00    -0.205 F 
ATOM     64  C   UNL A   1      36.366  31.383  32.251  1.00  0.00     0.022 A 
BRANCH  62  65
ATOM     65  S   UNL A   1      35.193  32.541  30.068  1.00  0.00     0.127 S 
ATOM     66  O   UNL A   1      34.254  32.746  31.170  1.00  0.00    -0.237 OA
ATOM     67  O   UNL A   1      35.930  33.740  29.665  1.00  0.00    -0.237 OA
ATOM     68  O   UNL A   1      34.691  31.732  28.967  1.00  0.00    -0.744 OA
ENDBRANCH  62  65
ENDBRANCH  44  58
BRANCH  45  69
ATOM     69  C   UNL A   1      46.842  27.249  26.178  1.00  0.00     0.023 A 
ATOM     70  C   UNL A   1      47.025  27.595  24.826  1.00  0.00     0.012 A 
ATOM     71  C   UNL A   1      47.856  26.527  26.842  1.00  0.00     0.148 A 
ATOM     72  C   UNL A   1      48.189  27.225  24.148  1.00  0.00     0.002 A 
ATOM     73  C   UNL A   1      49.042  26.228  26.184  1.00  0.00     0.091 A 
ATOM     74  F   UNL A   1      47.654  26.179  28.122  1.00  0.00    -0.205 F 
ATOM     75  C   UNL A   1      49.203  26.559  24.830  1.00  0.00     0.022 A 
BRANCH  73  76
ATOM     76  S   UNL A   1      50.463  25.529  27.033  1.00  0.00     0.127 S 
ATOM     77  O   UNL A   1      51.417  25.369  25.938  1.00  0.00    -0.237 OA
ATOM     78  O   UNL A   1      50.793  26.587  27.989  1.00  0.00    -0.237 OA
ATOM     79  O   UNL A   1      49.989  24.295  27.645  1.00  0.00    -0.744 OA
ENDBRANCH  73  76
ENDBRANCH  45  69
BRANCH  57  80
ATOM     80  C   UNL A   1      44.973  33.254  29.234  1.00  0.00     0.023 A 
ATOM     81  C   UNL A   1      45.759  33.497  30.377  1.00  0.00     0.012 A 
ATOM     82  C   UNL A   1      44.920  34.220  28.211  1.00  0.00     0.148 A 
ATOM     83  C   UNL A   1      46.460  34.695  30.513  1.00  0.00     0.002 A 
ATOM     84  C   UNL A   1      45.664  35.388  28.328  1.00  0.00     0.091 A 
ATOM     85  F   UNL A   1      44.153  33.975  27.139  1.00  0.00    -0.205 F 
ATOM     86  C   UNL A   1      46.424  35.633  29.484  1.00  0.00     0.022 A 
BRANCH  84  87
ATOM     87  S   UNL A   1      45.766  36.606  27.012  1.00  0.00     0.127 S 
ATOM     88  O   UNL A   1      44.386  37.083  26.939  1.00  0.00    -0.237 OA
ATOM     89  O   UNL A   1      46.717  37.574  27.560  1.00  0.00    -0.237 OA
ATOM     90  O   UNL A   1      46.239  35.890  25.834  1.00  0.00    -0.744 OA
ENDBRANCH  84  87
ENDBRANCH  57  80
ENDBRANCH  31  32
ENDBRANCH  24  26
ENDBRANCH  23  24
ENDBRANCH   1  23
TORSDOF 15
ENDMDL
MODEL 2
REMARK VINA RESULT:     -12.5      4.890      9.966
REMARK SMILES Cc1cc2c(c(C)c1Cl)C=C(C(=O)OCCOC(=O)c1ccc(-c3c4nc(c(-c5cccc(S(=O)(=O)[O-])c5F)c5ccc([nH]5)c(-c5cccc(S(=O)(=O)[O-])c5F)c5nc(c(-c6cccc(S(=O)(=O)[O-])c6F)c6ccc3[nH]6)C=C5)C=C4)cc1)[C@@H](C(F)(F)F)O2
REMARK SMILES IDX 16 1 15 2 14 3 12 4 13 5 11 6 1 7 2 8 3 9 8 10 4 11 6 12
REMARK SMILES IDX 9 13 5 14 88 15 7 16 10 17 83 18 84 19 85 20 86 21 87 22
REMARK SMILES IDX 17 23 18 24 19 25 20 26 21 27 82 28 22 29 81 30 23 31 24 32
REMARK SMILES IDX 25 33 75 34 26 35 80 36 74 37 76 38 27 39 79 40 73 41 72 42
REMARK SMILES IDX 28 44 60 45 40 46 59 47 41 48 44 49 58 50 77 51 42 52 43 53
REMARK SMILES IDX 57 55 78 56 45 57 29 58 30 59 38 60 31 61 33 62 39 63 32 64
REMARK SMILES IDX 34 65 35 66 36 67 37 68 61 69 62 70 70 71 63 72 65 73 71 74
REMARK SMILES IDX 64 75 66 76 67 77 68 78 69 79 46 80 47 81 55 82 48 83 50 84
REMARK SMILES IDX 56 85 49 86 51 87 52 88 53 89 54 90
REMARK H PARENT 76 43 44 54
REMARK Flexibility Score: inf
ROOT
ATOM      1  C   UNL A   1      31.403  30.279  25.758  1.00  0.00     0.275 C 
ENDROOT
BRANCH   1   2
ATOM      2  C   UNL A   1      31.886  29.316  24.674  1.00  0.00     0.275 C 
BRANCH   2   3
ATOM      3  O   UNL A   1      32.402  28.093  25.245  1.00  0.00    -0.459 OA
BRANCH   3   4
ATOM      4  C   UNL A   1      33.329  27.448  24.500  1.00  0.00     0.338 C 
ATOM      5  O   UNL A   1      34.145  27.961  23.749  1.00  0.00    -0.246 OA
BRANCH   4   6
ATOM      6  C   UNL A   1      33.234  25.989  24.695  1.00  0.00     0.087 C 
ATOM      7  C   UNL A   1      33.944  19.533  24.817  1.00  0.00     0.046 C 
ATOM      8  C   UNL A   1      34.103  21.029  24.861  1.00  0.00    -0.028 A 
ATOM      9  C   UNL A   1      32.961  21.839  24.812  1.00  0.00     0.052 A 
ATOM     10  C   UNL A   1      35.372  21.636  24.936  1.00  0.00     0.047 A 
ATOM     11  C   UNL A   1      33.068  23.228  24.818  1.00  0.00     0.128 A 
ATOM     12  C   UNL A   1      35.501  23.042  24.952  1.00  0.00    -0.021 A 
ATOM     13  Cl  UNL A   1      36.775  20.612  25.000  1.00  0.00    -0.084 Cl
ATOM     14  C   UNL A   1      34.325  23.838  24.881  1.00  0.00     0.022 A 
ATOM     15  O   UNL A   1      31.879  23.907  24.776  1.00  0.00    -0.475 OA
ATOM     16  C   UNL A   1      36.858  23.704  25.050  1.00  0.00     0.047 C 
ATOM     17  C   UNL A   1      34.369  25.295  24.840  1.00  0.00     0.027 C 
ATOM     18  C   UNL A   1      31.891  25.344  24.570  1.00  0.00     0.316 C 
BRANCH  18  19
ATOM     19  C   UNL A   1      31.241  25.660  23.214  1.00  0.00     0.430 C 
ATOM     20  F   UNL A   1      32.178  25.922  22.269  1.00  0.00    -0.167 F 
ATOM     21  F   UNL A   1      30.517  24.612  22.749  1.00  0.00    -0.167 F 
ATOM     22  F   UNL A   1      30.415  26.729  23.271  1.00  0.00    -0.167 F 
ENDBRANCH  18  19
ENDBRANCH   4   6
ENDBRANCH   3   4
ENDBRANCH   2   3
ENDBRANCH   1   2
BRANCH   1  23
ATOM     23  O   UNL A   1      32.283  30.232  26.895  1.00  0.00    -0.458 OA
BRANCH  23  24
ATOM     24  C   UNL A   1      32.909  31.396  27.181  1.00  0.00     0.338 C 
ATOM     25  O   UNL A   1      32.410  32.506  27.250  1.00  0.00    -0.246 OA
BRANCH  24  26
ATOM     26  C   UNL A   1      34.320  31.145  27.515  1.00  0.00     0.060 A 
ATOM     27  C   UNL A   1      34.739  29.829  27.649  1.00  0.00     0.016 A 
ATOM     28  C   UNL A   1      35.155  32.185  27.913  1.00  0.00     0.016 A 
ATOM     29  C   UNL A   1      35.904  29.545  28.350  1.00  0.00     0.010 A 
ATOM     30  C   UNL A   1      36.403  31.889  28.479  1.00  0.00     0.010 A 
ATOM     31  C   UNL A   1      36.767  30.564  28.778  1.00  0.00    -0.014 A 
BRANCH  31  32
ATOM     32  C   UNL A   1      38.001  30.240  29.566  1.00  0.00     0.031 A 
ATOM     33  C   UNL A   1      39.087  29.368  28.971  1.00  0.00     0.074 A 
ATOM     34  C   UNL A   1      38.180  30.738  30.809  1.00  0.00     0.049 A 
ATOM     35  N   UNL A   1      40.114  28.809  29.561  1.00  0.00    -0.248 NA
ATOM     36  C   UNL A   1      39.003  29.069  27.530  1.00  0.00     0.031 C 
ATOM     37  C   UNL A   1      37.251  31.627  31.511  1.00  0.00     0.029 A 
ATOM     38  N   UNL A   1      39.210  30.575  31.708  1.00  0.00    -0.354 N 
ATOM     39  C   UNL A   1      40.737  28.025  28.594  1.00  0.00     0.074 A 
ATOM     40  C   UNL A   1      39.981  28.187  27.372  1.00  0.00     0.031 C 
ATOM     41  C   UNL A   1      37.774  31.979  32.692  1.00  0.00     0.029 A 
ATOM     42  C   UNL A   1      39.007  31.231  32.902  1.00  0.00     0.049 A 
ATOM     43  H   UNL A   1      40.013  30.039  31.516  1.00  0.00     0.167 HD
ATOM     44  C   UNL A   1      41.841  27.247  28.710  1.00  0.00     0.034 A 
ATOM     45  C   UNL A   1      39.685  31.196  34.066  1.00  0.00     0.034 A 
ATOM     46  C   UNL A   1      42.648  27.165  29.901  1.00  0.00     0.049 A 
ATOM     47  C   UNL A   1      40.892  30.312  34.177  1.00  0.00     0.074 A 
ATOM     48  C   UNL A   1      43.805  26.431  30.103  1.00  0.00     0.029 A 
ATOM     49  N   UNL A   1      42.400  27.851  31.079  1.00  0.00    -0.354 N 
ATOM     50  N   UNL A   1      41.460  29.574  33.255  1.00  0.00    -0.248 NA
ATOM     51  C   UNL A   1      41.556  30.254  35.488  1.00  0.00     0.031 C 
ATOM     52  C   UNL A   1      44.239  26.651  31.412  1.00  0.00     0.029 A 
ATOM     53  C   UNL A   1      43.376  27.551  32.015  1.00  0.00     0.049 A 
ATOM     54  H   UNL A   1      41.643  28.463  31.229  1.00  0.00     0.167 HD
ATOM     55  C   UNL A   1      42.553  28.974  33.867  1.00  0.00     0.074 A 
ATOM     56  C   UNL A   1      42.590  29.464  35.230  1.00  0.00     0.031 C 
ATOM     57  C   UNL A   1      43.432  28.080  33.353  1.00  0.00     0.034 A 
BRANCH  44  58
ATOM     58  C   UNL A   1      42.277  26.426  27.520  1.00  0.00     0.023 A 
ATOM     59  C   UNL A   1      43.187  26.961  26.587  1.00  0.00     0.012 A 
ATOM     60  C   UNL A   1      41.871  25.080  27.394  1.00  0.00     0.148 A 
ATOM     61  C   UNL A   1      43.670  26.177  25.538  1.00  0.00     0.002 A 
ATOM     62  C   UNL A   1      42.396  24.291  26.376  1.00  0.00     0.091 A 
ATOM     63  F   UNL A   1      40.993  24.593  28.282  1.00  0.00    -0.205 F 
ATOM     64  C   UNL A   1      43.287  24.842  25.441  1.00  0.00     0.022 A 
BRANCH  62  65
ATOM     65  S   UNL A   1      42.041  22.535  26.221  1.00  0.00     0.127 S 
ATOM     66  O   UNL A   1      42.770  22.193  25.001  1.00  0.00    -0.237 OA
ATOM     67  O   UNL A   1      42.625  21.996  27.451  1.00  0.00    -0.237 OA
ATOM     68  O   UNL A   1      40.593  22.423  26.131  1.00  0.00    -0.744 OA
ENDBRANCH  62  65
ENDBRANCH  44  58
BRANCH  45  69
ATOM     69  C   UNL A   1      39.216  32.016  35.222  1.00  0.00     0.023 A 
ATOM     70  C   UNL A   1      38.353  31.443  36.174  1.00  0.00     0.012 A 
ATOM     71  C   UNL A   1      39.672  33.336  35.419  1.00  0.00     0.148 A 
ATOM     72  C   UNL A   1      37.945  32.172  37.295  1.00  0.00     0.002 A 
ATOM     73  C   UNL A   1      39.325  34.027  36.573  1.00  0.00     0.091 A 
ATOM     74  F   UNL A   1      40.472  33.878  34.489  1.00  0.00    -0.205 F 
ATOM     75  C   UNL A   1      38.445  33.454  37.504  1.00  0.00     0.022 A 
BRANCH  73  76
ATOM     76  S   UNL A   1      40.058  35.610  37.005  1.00  0.00     0.127 S 
ATOM     77  O   UNL A   1      41.479  35.279  37.051  1.00  0.00    -0.237 OA
ATOM     78  O   UNL A   1      39.655  36.447  35.874  1.00  0.00    -0.237 OA
ATOM     79  O   UNL A   1      39.455  35.990  38.275  1.00  0.00    -0.744 OA
ENDBRANCH  73  76
ENDBRANCH  45  69
BRANCH  57  80
ATOM     80  C   UNL A   1      44.532  27.578  34.253  1.00  0.00     0.023 A 
ATOM     81  C   UNL A   1      45.735  28.303  34.355  1.00  0.00     0.012 A 
ATOM     82  C   UNL A   1      44.334  26.445  35.067  1.00  0.00     0.148 A 
ATOM     83  C   UNL A   1      46.736  27.894  35.235  1.00  0.00     0.002 A 
ATOM     84  C   UNL A   1      45.314  26.075  35.980  1.00  0.00     0.091 A 
ATOM     85  F   UNL A   1      43.189  25.760  34.942  1.00  0.00    -0.205 F 
ATOM     86  C   UNL A   1      46.521  26.790  36.056  1.00  0.00     0.022 A 
BRANCH  84  87
ATOM     87  S   UNL A   1      45.085  24.734  37.153  1.00  0.00     0.127 S 
ATOM     88  O   UNL A   1      44.895  23.589  36.263  1.00  0.00    -0.237 OA
ATOM     89  O   UNL A   1      46.357  24.737  37.878  1.00  0.00    -0.237 OA
ATOM     90  O   UNL A   1      43.926  25.094  37.959  1.00  0.00    -0.744 OA
ENDBRANCH  84  87
ENDBRANCH  57  80
ENDBRANCH  31  32
ENDBRANCH  24  26
ENDBRANCH  23  24
ENDBRANCH   1  23
TORSDOF 15
ENDMDL
MODEL 3
REMARK VINA RESULT:     -12.4      5.310     10.038
REMARK SMILES Cc1cc2c(c(C)c1Cl)C=C(C(=O)OCCOC(=O)c1ccc(-c3c4nc(c(-c5cccc(S(=O)(=O)[O-])c5F)c5ccc([nH]5)c(-c5cccc(S(=O)(=O)[O-])c5F)c5nc(c(-c6cccc(S(=O)(=O)[O-])c6F)c6ccc3[nH]6)C=C5)C=C4)cc1)[C@@H](C(F)(F)F)O2
REMARK SMILES IDX 16 1 15 2 14 3 12 4 13 5 11 6 1 7 2 8 3 9 8 10 4 11 6 12
REMARK SMILES IDX 9 13 5 14 88 15 7 16 10 17 83 18 84 19 85 20 86 21 87 22
REMARK SMILES IDX 17 23 18 24 19 25 20 26 21 27 82 28 22 29 81 30 23 31 24 32
REMARK SMILES IDX 25 33 75 34 26 35 80 36 74 37 76 38 27 39 79 40 73 41 72 42
REMARK SMILES IDX 28 44 60 45 40 46 59 47 41 48 44 49 58 50 77 51 42 52 43 53
REMARK SMILES IDX 57 55 78 56 45 57 29 58 30 59 38 60 31 61 33 62 39 63 32 64
REMARK SMILES IDX 34 65 35 66 36 67 37 68 61 69 62 70 70 71 63 72 65 73 71 74
REMARK SMILES IDX 64 75 66 76 67 77 68 78 69 79 46 80 47 81 55 82 48 83 50 84
REMARK SMILES IDX 56 85 49 86 51 87 52 88 53 89 54 90
REMARK H PARENT 76 43 44 54
REMARK Flexibility Score: inf
ROOT
ATOM      1  C   UNL A   1      31.522  30.726  26.459  1.00  0.00     0.275 C 
ENDROOT
BRANCH   1   2
ATOM      2  C   UNL A   1      31.312  30.046  25.106  1.00  0.00     0.275 C 
BRANCH   2   3
ATOM      3  O   UNL A   1      31.174  28.615  25.250  1.00  0.00    -0.459 OA
BRANCH   3   4
ATOM      4  C   UNL A   1      30.879  27.941  24.114  1.00  0.00     0.338 C 
ATOM      5  O   UNL A   1      29.943  28.161  23.360  1.00  0.00    -0.246 OA
BRANCH   4   6
ATOM      6  C   UNL A   1      31.849  26.855  23.884  1.00  0.00     0.087 C 
ATOM      7  C   UNL A   1      36.325  22.157  24.200  1.00  0.00     0.046 C 
ATOM      8  C   UNL A   1      35.160  23.090  24.390  1.00  0.00    -0.028 A 
ATOM      9  C   UNL A   1      34.890  24.054  23.409  1.00  0.00     0.052 A 
ATOM     10  C   UNL A   1      34.342  23.029  25.536  1.00  0.00     0.047 A 
ATOM     11  C   UNL A   1      33.839  24.956  23.563  1.00  0.00     0.128 A 
ATOM     12  C   UNL A   1      33.268  23.930  25.706  1.00  0.00    -0.021 A 
ATOM     13  Cl  UNL A   1      34.693  21.824  26.738  1.00  0.00    -0.084 Cl
ATOM     14  C   UNL A   1      33.031  24.909  24.703  1.00  0.00     0.022 A 
ATOM     15  O   UNL A   1      33.673  25.842  22.532  1.00  0.00    -0.475 OA
ATOM     16  C   UNL A   1      32.373  23.861  26.924  1.00  0.00     0.047 C 
ATOM     17  C   UNL A   1      31.976  25.910  24.823  1.00  0.00     0.027 C 
ATOM     18  C   UNL A   1      32.746  26.948  22.690  1.00  0.00     0.316 C 
BRANCH  18  19
ATOM     19  C   UNL A   1      33.535  28.267  22.682  1.00  0.00     0.430 C 
ATOM     20  F   UNL A   1      34.558  28.223  21.793  1.00  0.00    -0.167 F 
ATOM     21  F   UNL A   1      32.756  29.314  22.311  1.00  0.00    -0.167 F 
ATOM     22  F   UNL A   1      34.062  28.563  23.891  1.00  0.00    -0.167 F 
ENDBRANCH  18  19
ENDBRANCH   4   6
ENDBRANCH   3   4
ENDBRANCH   2   3
ENDBRANCH   1   2
BRANCH   1  23
ATOM     23  O   UNL A   1      32.846  30.460  26.952  1.00  0.00    -0.458 OA
BRANCH  23  24
ATOM     24  C   UNL A   1      33.520  31.545  27.395  1.00  0.00     0.338 C 
ATOM     25  O   UNL A   1      33.065  32.652  27.627  1.00  0.00    -0.246 OA
BRANCH  24  26
ATOM     26  C   UNL A   1      34.920  31.194  27.677  1.00  0.00     0.060 A 
ATOM     27  C   UNL A   1      35.235  29.857  27.875  1.00  0.00     0.016 A 
ATOM     28  C   UNL A   1      35.859  32.180  27.967  1.00  0.00     0.016 A 
ATOM     29  C   UNL A   1      36.408  29.516  28.537  1.00  0.00     0.010 A 
ATOM     30  C   UNL A   1      37.106  31.812  28.491  1.00  0.00     0.010 A 
ATOM     31  C   UNL A   1      37.374  30.480  28.857  1.00  0.00    -0.014 A 
BRANCH  31  32
ATOM     32  C   UNL A   1      38.617  30.099  29.604  1.00  0.00     0.031 A 
ATOM     33  C   UNL A   1      39.624  29.149  28.989  1.00  0.00     0.074 A 
ATOM     34  C   UNL A   1      38.875  30.613  30.826  1.00  0.00     0.049 A 
ATOM     35  N   UNL A   1      40.638  28.542  29.553  1.00  0.00    -0.248 NA
ATOM     36  C   UNL A   1      39.464  28.824  27.561  1.00  0.00     0.031 C 
ATOM     37  C   UNL A   1      38.031  31.573  31.542  1.00  0.00     0.029 A 
ATOM     38  N   UNL A   1      39.929  30.407  31.689  1.00  0.00    -0.354 N 
ATOM     39  C   UNL A   1      41.173  27.699  28.582  1.00  0.00     0.074 A 
ATOM     40  C   UNL A   1      40.380  27.880  27.387  1.00  0.00     0.031 C 
ATOM     41  C   UNL A   1      38.622  31.918  32.693  1.00  0.00     0.029 A 
ATOM     42  C   UNL A   1      39.814  31.102  32.873  1.00  0.00     0.049 A 
ATOM     43  H   UNL A   1      40.690  29.819  31.479  1.00  0.00     0.167 HD
ATOM     44  C   UNL A   1      42.232  26.858  28.675  1.00  0.00     0.034 A 
ATOM     45  C   UNL A   1      40.535  31.050  34.010  1.00  0.00     0.034 A 
ATOM     46  C   UNL A   1      43.079  26.753  29.835  1.00  0.00     0.049 A 
ATOM     47  C   UNL A   1      41.690  30.097  34.097  1.00  0.00     0.074 A 
ATOM     48  C   UNL A   1      44.197  25.955  30.010  1.00  0.00     0.029 A 
ATOM     49  N   UNL A   1      42.921  27.479  31.005  1.00  0.00    -0.354 N 
ATOM     50  N   UNL A   1      42.174  29.305  33.172  1.00  0.00    -0.248 NA
ATOM     51  C   UNL A   1      42.401  30.028  35.382  1.00  0.00     0.031 C 
ATOM     52  C   UNL A   1      44.696  26.177  31.295  1.00  0.00     0.029 A 
ATOM     53  C   UNL A   1      43.913  27.141  31.909  1.00  0.00     0.049 A 
ATOM     54  H   UNL A   1      42.209  28.140  31.168  1.00  0.00     0.167 HD
ATOM     55  C   UNL A   1      43.253  28.653  33.756  1.00  0.00     0.074 A 
ATOM     56  C   UNL A   1      43.374  29.170  35.104  1.00  0.00     0.031 C 
ATOM     57  C   UNL A   1      44.055  27.695  33.231  1.00  0.00     0.034 A 
BRANCH  44  58
ATOM     58  C   UNL A   1      42.569  25.985  27.489  1.00  0.00     0.023 A 
ATOM     59  C   UNL A   1      43.459  26.449  26.501  1.00  0.00     0.012 A 
ATOM     60  C   UNL A   1      42.091  24.659  27.420  1.00  0.00     0.148 A 
ATOM     61  C   UNL A   1      43.852  25.614  25.452  1.00  0.00     0.002 A 
ATOM     62  C   UNL A   1      42.528  23.818  26.402  1.00  0.00     0.091 A 
ATOM     63  F   UNL A   1      41.234  24.240  28.362  1.00  0.00    -0.205 F 
ATOM     64  C   UNL A   1      43.399  24.299  25.411  1.00  0.00     0.022 A 
BRANCH  62  65
ATOM     65  S   UNL A   1      42.079  22.079  26.314  1.00  0.00     0.127 S 
ATOM     66  O   UNL A   1      42.518  21.595  27.621  1.00  0.00    -0.237 OA
ATOM     67  O   UNL A   1      40.626  22.147  26.145  1.00  0.00    -0.237 OA
ATOM     68  O   UNL A   1      42.802  21.533  25.175  1.00  0.00    -0.744 OA
ENDBRANCH  62  65
ENDBRANCH  44  58
BRANCH  45  69
ATOM     69  C   UNL A   1      40.163  31.924  35.163  1.00  0.00     0.023 A 
ATOM     70  C   UNL A   1      40.648  33.244  35.218  1.00  0.00     0.012 A 
ATOM     71  C   UNL A   1      39.281  31.477  36.169  1.00  0.00     0.148 A 
ATOM     72  C   UNL A   1      40.269  34.098  36.256  1.00  0.00     0.002 A 
ATOM     73  C   UNL A   1      38.849  32.354  37.155  1.00  0.00     0.091 A 
ATOM     74  F   UNL A   1      38.850  30.208  36.119  1.00  0.00    -0.205 F 
ATOM     75  C   UNL A   1      39.357  33.661  37.212  1.00  0.00     0.022 A 
BRANCH  73  76
ATOM     76  S   UNL A   1      37.548  31.929  38.319  1.00  0.00     0.127 S 
ATOM     77  O   UNL A   1      38.222  32.109  39.602  1.00  0.00    -0.237 OA
ATOM     78  O   UNL A   1      36.528  32.932  38.011  1.00  0.00    -0.237 OA
ATOM     79  O   UNL A   1      37.160  30.562  37.995  1.00  0.00    -0.744 OA
ENDBRANCH  73  76
ENDBRANCH  45  69
BRANCH  57  80
ATOM     80  C   UNL A   1      45.158  27.147  34.100  1.00  0.00     0.023 A 
ATOM     81  C   UNL A   1      46.421  27.771  34.100  1.00  0.00     0.012 A 
ATOM     82  C   UNL A   1      44.912  26.078  34.984  1.00  0.00     0.148 A 
ATOM     83  C   UNL A   1      47.432  27.322  34.948  1.00  0.00     0.002 A 
ATOM     84  C   UNL A   1      45.907  25.672  35.865  1.00  0.00     0.091 A 
ATOM     85  F   UNL A   1      43.709  25.489  34.956  1.00  0.00    -0.205 F 
ATOM     86  C   UNL A   1      47.172  26.284  35.839  1.00  0.00     0.022 A 
BRANCH  84  87
ATOM     87  S   UNL A   1      45.634  24.417  37.120  1.00  0.00     0.127 S 
ATOM     88  O   UNL A   1      45.354  23.236  36.304  1.00  0.00    -0.237 OA
ATOM     89  O   UNL A   1      46.922  24.387  37.814  1.00  0.00    -0.237 OA
ATOM     90  O   UNL A   1      44.519  24.890  37.930  1.00  0.00    -0.744 OA
ENDBRANCH  84  87
ENDBRANCH  57  80
ENDBRANCH  31  32
ENDBRANCH  24  26
ENDBRANCH  23  24
ENDBRANCH   1  23
TORSDOF 15
ENDMDL
