MODEL 1
REMARK VINA RESULT:     -12.2      0.000      0.000
REMARK SMILES CC(C)[N@H+](C)Cc1cc2c(cc1Cl)C=C(C(=O)OCCOC(=O)c1ccc(-c3c4nc(c(-c5cccc(S(=O)(=O)[O-])c5F)c5ccc([nH]5)c(-c5cccc(S(=O)(=O)[O-])c5F)c5nc(c(-c6cccc(S(=O)(=O)[O-])c6F)c6ccc3[nH]6)C=C5)C=C4)cc1)[C@@H](C(F)(F)F)O2
REMARK SMILES IDX 19 1 18 2 16 3 17 4 15 5 7 6 8 7 12 8 9 9 11 10 13 11 10 12
REMARK SMILES IDX 92 13 14 14 87 15 6 16 4 17 5 18 2 20 1 21 3 22 88 23 89 24
REMARK SMILES IDX 90 25 91 26 20 27 21 28 22 29 23 30 24 31 25 32 86 33 26 34
REMARK SMILES IDX 85 35 27 36 28 37 29 38 79 39 30 40 84 41 78 42 80 43 31 44
REMARK SMILES IDX 83 45 77 46 76 47 32 49 64 50 44 51 63 52 45 53 48 54 62 55
REMARK SMILES IDX 81 56 46 57 47 58 61 60 82 61 49 62 33 63 34 64 42 65 35 66
REMARK SMILES IDX 37 67 43 68 36 69 38 70 39 71 40 72 41 73 65 74 66 75 74 76
REMARK SMILES IDX 67 77 69 78 75 79 68 80 70 81 71 82 72 83 73 84 50 85 51 86
REMARK SMILES IDX 59 87 52 88 54 89 60 90 53 91 55 92 56 93 57 94 58 95
REMARK H PARENT 4 19 80 48 48 59
REMARK Flexibility Score: inf
ROOT
ATOM      1  C   UNL A   1      35.941  21.185  25.653  1.00  0.00     0.275 C 
ENDROOT
BRANCH   1   2
ATOM      2  O   UNL A   1      35.754  22.615  25.744  1.00  0.00    -0.459 OA
BRANCH   2   3
ATOM      3  C   UNL A   1      34.638  23.013  26.394  1.00  0.00     0.338 C 
ATOM      4  O   UNL A   1      34.339  22.763  27.552  1.00  0.00    -0.246 OA
BRANCH   3   5
ATOM      5  C   UNL A   1      33.843  23.907  25.537  1.00  0.00     0.087 C 
ATOM      6  C   UNL A   1      30.874  27.708  24.122  1.00  0.00     0.029 A 
ATOM      7  C   UNL A   1      31.191  26.444  23.556  1.00  0.00     0.058 A 
ATOM      8  C   UNL A   1      31.638  28.154  25.215  1.00  0.00     0.050 A 
ATOM      9  C   UNL A   1      32.129  25.602  24.149  1.00  0.00     0.128 A 
ATOM     10  C   UNL A   1      32.515  27.282  25.845  1.00  0.00     0.033 A 
ATOM     11  Cl  UNL A   1      31.615  29.750  25.878  1.00  0.00    -0.084 Cl
ATOM     12  C   UNL A   1      32.726  26.007  25.329  1.00  0.00     0.019 A 
ATOM     13  O   UNL A   1      32.391  24.398  23.554  1.00  0.00    -0.475 OA
ATOM     14  C   UNL A   1      33.543  25.089  26.070  1.00  0.00     0.027 C 
ATOM     15  C   UNL A   1      33.346  23.481  24.190  1.00  0.00     0.316 C 
BRANCH   6  16
ATOM     16  C   UNL A   1      29.729  28.483  23.493  1.00  0.00     0.300 C 
BRANCH  16  17
ATOM     17  N   UNL A   1      30.120  29.696  22.798  1.00  0.00    -0.332 N 
ATOM     18  C   UNL A   1      31.282  29.568  21.939  1.00  0.00     0.333 C 
ATOM     19  H   UNL A   1      30.423  30.193  23.635  1.00  0.00     0.348 HD
BRANCH  17  20
ATOM     20  C   UNL A   1      29.171  30.761  22.483  1.00  0.00     0.177 C 
ATOM     21  C   UNL A   1      27.947  30.308  21.687  1.00  0.00     0.075 C 
ATOM     22  C   UNL A   1      28.718  31.521  23.736  1.00  0.00     0.075 C 
ENDBRANCH  17  20
ENDBRANCH  16  17
ENDBRANCH   6  16
BRANCH  15  23
ATOM     23  C   UNL A   1      32.691  22.095  24.241  1.00  0.00     0.430 C 
ATOM     24  F   UNL A   1      32.280  21.795  25.499  1.00  0.00    -0.167 F 
ATOM     25  F   UNL A   1      31.588  22.030  23.456  1.00  0.00    -0.167 F 
ATOM     26  F   UNL A   1      33.530  21.114  23.843  1.00  0.00    -0.167 F 
ENDBRANCH  15  23
ENDBRANCH   3   5
ENDBRANCH   2   3
ENDBRANCH   1   2
BRANCH   1  27
ATOM     27  C   UNL A   1      37.254  20.841  24.946  1.00  0.00     0.275 C 
BRANCH  27  28
ATOM     28  O   UNL A   1      38.228  21.883  25.143  1.00  0.00    -0.458 OA
BRANCH  28  29
ATOM     29  C   UNL A   1      39.250  21.561  25.966  1.00  0.00     0.338 C 
ATOM     30  O   UNL A   1      39.858  20.505  26.007  1.00  0.00    -0.246 OA
BRANCH  29  31
ATOM     31  C   UNL A   1      39.633  22.723  26.783  1.00  0.00     0.060 A 
ATOM     32  C   UNL A   1      40.712  22.674  27.653  1.00  0.00     0.016 A 
ATOM     33  C   UNL A   1      39.047  23.944  26.482  1.00  0.00     0.016 A 
ATOM     34  C   UNL A   1      41.198  23.868  28.202  1.00  0.00     0.010 A 
ATOM     35  C   UNL A   1      39.685  25.130  26.837  1.00  0.00     0.010 A 
ATOM     36  C   UNL A   1      40.742  25.125  27.749  1.00  0.00    -0.014 A 
BRANCH  36  37
ATOM     37  C   UNL A   1      41.355  26.406  28.233  1.00  0.00     0.031 A 
ATOM     38  C   UNL A   1      42.796  26.775  27.920  1.00  0.00     0.074 A 
ATOM     39  C   UNL A   1      40.621  27.257  28.987  1.00  0.00     0.049 A 
ATOM     40  N   UNL A   1      43.436  27.886  28.194  1.00  0.00    -0.248 NA
ATOM     41  C   UNL A   1      43.649  25.769  27.260  1.00  0.00     0.031 C 
ATOM     42  C   UNL A   1      39.280  26.986  29.513  1.00  0.00     0.029 A 
ATOM     43  N   UNL A   1      40.884  28.536  29.424  1.00  0.00    -0.354 N 
ATOM     44  C   UNL A   1      44.751  27.688  27.786  1.00  0.00     0.074 A 
ATOM     45  C   UNL A   1      44.847  26.333  27.307  1.00  0.00     0.031 C 
ATOM     46  C   UNL A   1      38.801  28.089  30.105  1.00  0.00     0.029 A 
ATOM     47  C   UNL A   1      39.813  29.138  30.047  1.00  0.00     0.049 A 
ATOM     48  H   UNL A   1      41.756  28.977  29.304  1.00  0.00     0.167 HD
ATOM     49  C   UNL A   1      45.780  28.565  27.744  1.00  0.00     0.034 A 
ATOM     50  C   UNL A   1      39.642  30.398  30.494  1.00  0.00     0.034 A 
ATOM     51  C   UNL A   1      45.670  29.946  28.113  1.00  0.00     0.049 A 
ATOM     52  C   UNL A   1      40.753  31.396  30.333  1.00  0.00     0.074 A 
ATOM     53  C   UNL A   1      46.619  30.944  27.985  1.00  0.00     0.029 A 
ATOM     54  N   UNL A   1      44.542  30.526  28.665  1.00  0.00    -0.354 N 
ATOM     55  N   UNL A   1      41.935  31.220  29.795  1.00  0.00    -0.248 NA
ATOM     56  C   UNL A   1      40.506  32.765  30.811  1.00  0.00     0.031 C 
ATOM     57  C   UNL A   1      46.066  32.130  28.470  1.00  0.00     0.029 A 
ATOM     58  C   UNL A   1      44.768  31.871  28.881  1.00  0.00     0.049 A 
ATOM     59  H   UNL A   1      43.704  30.052  28.872  1.00  0.00     0.167 HD
ATOM     60  C   UNL A   1      42.566  32.457  29.851  1.00  0.00     0.074 A 
ATOM     61  C   UNL A   1      41.632  33.379  30.464  1.00  0.00     0.031 C 
ATOM     62  C   UNL A   1      43.812  32.789  29.441  1.00  0.00     0.034 A 
BRANCH  49  63
ATOM     63  C   UNL A   1      47.094  28.102  27.170  1.00  0.00     0.023 A 
ATOM     64  C   UNL A   1      48.122  27.701  28.050  1.00  0.00     0.012 A 
ATOM     65  C   UNL A   1      47.275  27.956  25.781  1.00  0.00     0.148 A 
ATOM     66  C   UNL A   1      49.317  27.181  27.557  1.00  0.00     0.002 A 
ATOM     67  C   UNL A   1      48.456  27.404  25.299  1.00  0.00     0.091 A 
ATOM     68  F   UNL A   1      46.288  28.348  24.965  1.00  0.00    -0.205 F 
ATOM     69  C   UNL A   1      49.479  27.022  26.184  1.00  0.00     0.022 A 
BRANCH  67  70
ATOM     70  S   UNL A   1      48.749  27.096  23.553  1.00  0.00     0.127 S 
ATOM     71  O   UNL A   1      50.208  26.994  23.512  1.00  0.00    -0.237 OA
ATOM     72  O   UNL A   1      48.044  25.831  23.343  1.00  0.00    -0.237 OA
ATOM     73  O   UNL A   1      48.190  28.236  22.840  1.00  0.00    -0.744 OA
ENDBRANCH  67  70
ENDBRANCH  49  63
BRANCH  50  74
ATOM     74  C   UNL A   1      38.312  30.804  31.033  1.00  0.00     0.023 A 
ATOM     75  C   UNL A   1      38.042  30.623  32.403  1.00  0.00     0.012 A 
ATOM     76  C   UNL A   1      37.360  31.453  30.222  1.00  0.00     0.148 A 
ATOM     77  C   UNL A   1      36.846  31.079  32.958  1.00  0.00     0.002 A 
ATOM     78  C   UNL A   1      36.189  31.940  30.789  1.00  0.00     0.091 A 
ATOM     79  F   UNL A   1      37.642  31.613  28.923  1.00  0.00    -0.205 F 
ATOM     80  C   UNL A   1      35.926  31.748  32.156  1.00  0.00     0.022 A 
BRANCH  78  81
ATOM     81  S   UNL A   1      34.988  32.903  29.864  1.00  0.00     0.127 S 
ATOM     82  O   UNL A   1      34.448  31.903  28.945  1.00  0.00    -0.237 OA
ATOM     83  O   UNL A   1      34.068  33.328  30.921  1.00  0.00    -0.237 OA
ATOM     84  O   UNL A   1      35.738  33.983  29.241  1.00  0.00    -0.744 OA
ENDBRANCH  78  81
ENDBRANCH  50  74
BRANCH  62  85
ATOM     85  C   UNL A   1      44.271  34.208  29.603  1.00  0.00     0.023 A 
ATOM     86  C   UNL A   1      45.081  34.550  30.702  1.00  0.00     0.012 A 
ATOM     87  C   UNL A   1      44.058  35.144  28.571  1.00  0.00     0.148 A 
ATOM     88  C   UNL A   1      45.682  35.805  30.767  1.00  0.00     0.002 A 
ATOM     89  C   UNL A   1      44.686  36.380  28.627  1.00  0.00     0.091 A 
ATOM     90  F   UNL A   1      43.282  34.785  27.538  1.00  0.00    -0.205 F 
ATOM     91  C   UNL A   1      45.498  36.712  29.725  1.00  0.00     0.022 A 
BRANCH  89  92
ATOM     92  S   UNL A   1      44.578  37.583  27.298  1.00  0.00     0.127 S 
ATOM     93  O   UNL A   1      44.728  38.843  28.026  1.00  0.00    -0.237 OA
ATOM     94  O   UNL A   1      45.722  37.222  26.462  1.00  0.00    -0.237 OA
ATOM     95  O   UNL A   1      43.277  37.385  26.675  1.00  0.00    -0.744 OA
ENDBRANCH  89  92
ENDBRANCH  62  85
ENDBRANCH  36  37
ENDBRANCH  29  31
ENDBRANCH  28  29
ENDBRANCH  27  28
ENDBRANCH   1  27
TORSDOF 18
ENDMDL
MODEL 2
REMARK VINA RESULT:     -12.0      5.231     10.327
REMARK SMILES CC(C)[N@H+](C)Cc1cc2c(cc1Cl)C=C(C(=O)OCCOC(=O)c1ccc(-c3c4nc(c(-c5cccc(S(=O)(=O)[O-])c5F)c5ccc([nH]5)c(-c5cccc(S(=O)(=O)[O-])c5F)c5nc(c(-c6cccc(S(=O)(=O)[O-])c6F)c6ccc3[nH]6)C=C5)C=C4)cc1)[C@@H](C(F)(F)F)O2
REMARK SMILES IDX 19 1 18 2 16 3 17 4 15 5 7 6 8 7 12 8 9 9 11 10 13 11 10 12
REMARK SMILES IDX 92 13 14 14 87 15 6 16 4 17 5 18 2 20 1 21 3 22 88 23 89 24
REMARK SMILES IDX 90 25 91 26 20 27 21 28 22 29 23 30 24 31 25 32 86 33 26 34
REMARK SMILES IDX 85 35 27 36 28 37 29 38 79 39 30 40 84 41 78 42 80 43 31 44
REMARK SMILES IDX 83 45 77 46 76 47 32 49 64 50 44 51 63 52 45 53 48 54 62 55
REMARK SMILES IDX 81 56 46 57 47 58 61 60 82 61 49 62 33 63 34 64 42 65 35 66
REMARK SMILES IDX 37 67 43 68 36 69 38 70 39 71 40 72 41 73 65 74 66 75 74 76
REMARK SMILES IDX 67 77 69 78 75 79 68 80 70 81 71 82 72 83 73 84 50 85 51 86
REMARK SMILES IDX 59 87 52 88 54 89 60 90 53 91 55 92 56 93 57 94 58 95
REMARK H PARENT 4 19 80 48 48 59
REMARK Flexibility Score: inf
ROOT
ATOM      1  C   UNL A   1      31.194  30.902  25.556  1.00  0.00     0.275 C 
ENDROOT
BRANCH   1   2
ATOM      2  O   UNL A   1      31.796  29.616  25.289  1.00  0.00    -0.459 OA
BRANCH   2   3
ATOM      3  C   UNL A   1      31.118  28.825  24.428  1.00  0.00     0.338 C 
ATOM      4  O   UNL A   1      30.145  29.139  23.760  1.00  0.00    -0.246 OA
BRANCH   3   5
ATOM      5  C   UNL A   1      31.782  27.517  24.310  1.00  0.00     0.087 C 
ATOM      6  C   UNL A   1      33.959  23.176  25.607  1.00  0.00     0.029 A 
ATOM      7  C   UNL A   1      34.001  23.988  24.442  1.00  0.00     0.058 A 
ATOM      8  C   UNL A   1      32.995  23.474  26.587  1.00  0.00     0.050 A 
ATOM      9  C   UNL A   1      33.216  25.134  24.331  1.00  0.00     0.128 A 
ATOM     10  C   UNL A   1      32.273  24.656  26.506  1.00  0.00     0.033 A 
ATOM     11  Cl  UNL A   1      32.583  22.473  27.934  1.00  0.00    -0.084 Cl
ATOM     12  C   UNL A   1      32.413  25.489  25.401  1.00  0.00     0.019 A 
ATOM     13  O   UNL A   1      33.301  25.873  23.183  1.00  0.00    -0.475 OA
ATOM     14  C   UNL A   1      31.746  26.759  25.404  1.00  0.00     0.027 C 
ATOM     15  C   UNL A   1      32.512  27.105  23.069  1.00  0.00     0.316 C 
BRANCH   6  16
ATOM     16  C   UNL A   1      34.963  22.040  25.698  1.00  0.00     0.300 C 
BRANCH  16  17
ATOM     17  N   UNL A   1      34.575  20.823  25.008  1.00  0.00    -0.332 N 
ATOM     18  C   UNL A   1      35.624  19.830  24.874  1.00  0.00     0.333 C 
ATOM     19  H   UNL A   1      34.463  21.262  24.095  1.00  0.00     0.348 HD
BRANCH  17  20
ATOM     20  C   UNL A   1      33.196  20.346  24.973  1.00  0.00     0.177 C 
ATOM     21  C   UNL A   1      32.524  20.438  23.602  1.00  0.00     0.075 C 
ATOM     22  C   UNL A   1      33.063  18.917  25.515  1.00  0.00     0.075 C 
ENDBRANCH  17  20
ENDBRANCH  16  17
ENDBRANCH   6  16
BRANCH  15  23
ATOM     23  C   UNL A   1      33.452  28.212  22.572  1.00  0.00     0.430 C 
ATOM     24  F   UNL A   1      32.756  29.316  22.204  1.00  0.00    -0.167 F 
ATOM     25  F   UNL A   1      34.313  28.612  23.540  1.00  0.00    -0.167 F 
ATOM     26  F   UNL A   1      34.189  27.822  21.509  1.00  0.00    -0.167 F 
ENDBRANCH  15  23
ENDBRANCH   3   5
ENDBRANCH   2   3
ENDBRANCH   1   2
BRANCH   1  27
ATOM     27  C   UNL A   1      31.630  31.448  26.916  1.00  0.00     0.275 C 
BRANCH  27  28
ATOM     28  O   UNL A   1      33.021  31.165  27.158  1.00  0.00    -0.458 OA
BRANCH  28  29
ATOM     29  C   UNL A   1      33.737  32.200  27.653  1.00  0.00     0.338 C 
ATOM     30  O   UNL A   1      33.323  33.310  27.942  1.00  0.00    -0.246 OA
BRANCH  29  31
ATOM     31  C   UNL A   1      35.124  31.784  27.909  1.00  0.00     0.060 A 
ATOM     32  C   UNL A   1      36.121  32.711  28.175  1.00  0.00     0.016 A 
ATOM     33  C   UNL A   1      35.364  30.434  28.123  1.00  0.00     0.016 A 
ATOM     34  C   UNL A   1      37.353  32.261  28.671  1.00  0.00     0.010 A 
ATOM     35  C   UNL A   1      36.489  30.031  28.837  1.00  0.00     0.010 A 
ATOM     36  C   UNL A   1      37.536  30.922  29.080  1.00  0.00    -0.014 A 
BRANCH  36  37
ATOM     37  C   UNL A   1      38.805  30.467  29.739  1.00  0.00     0.031 A 
ATOM     38  C   UNL A   1      39.187  30.915  31.140  1.00  0.00     0.074 A 
ATOM     39  C   UNL A   1      39.651  29.650  29.070  1.00  0.00     0.049 A 
ATOM     40  N   UNL A   1      40.206  30.535  31.873  1.00  0.00    -0.248 NA
ATOM     41  C   UNL A   1      38.362  31.947  31.796  1.00  0.00     0.031 C 
ATOM     42  C   UNL A   1      39.519  29.255  27.665  1.00  0.00     0.029 A 
ATOM     43  N   UNL A   1      40.780  28.981  29.486  1.00  0.00    -0.354 N 
ATOM     44  C   UNL A   1      40.162  31.307  33.030  1.00  0.00     0.074 A 
ATOM     45  C   UNL A   1      39.062  32.225  32.885  1.00  0.00     0.031 C 
ATOM     46  C   UNL A   1      40.454  28.343  27.367  1.00  0.00     0.029 A 
ATOM     47  C   UNL A   1      41.288  28.116  28.542  1.00  0.00     0.049 A 
ATOM     48  H   UNL A   1      41.187  29.110  30.373  1.00  0.00     0.167 HD
ATOM     49  C   UNL A   1      40.918  31.223  34.149  1.00  0.00     0.034 A 
ATOM     50  C   UNL A   1      42.289  27.215  28.613  1.00  0.00     0.034 A 
ATOM     51  C   UNL A   1      41.942  30.241  34.351  1.00  0.00     0.049 A 
ATOM     52  C   UNL A   1      43.043  27.050  29.901  1.00  0.00     0.074 A 
ATOM     53  C   UNL A   1      42.676  29.994  35.497  1.00  0.00     0.029 A 
ATOM     54  N   UNL A   1      42.366  29.337  33.394  1.00  0.00    -0.354 N 
ATOM     55  N   UNL A   1      42.872  27.685  31.034  1.00  0.00    -0.248 NA
ATOM     56  C   UNL A   1      44.106  26.033  29.935  1.00  0.00     0.031 C 
ATOM     57  C   UNL A   1      43.553  28.941  35.229  1.00  0.00     0.029 A 
ATOM     58  C   UNL A   1      43.350  28.525  33.923  1.00  0.00     0.049 A 
ATOM     59  H   UNL A   1      42.018  29.280  32.474  1.00  0.00     0.167 HD
ATOM     60  C   UNL A   1      43.789  27.135  31.921  1.00  0.00     0.074 A 
ATOM     61  C   UNL A   1      44.507  26.105  31.200  1.00  0.00     0.031 C 
ATOM     62  C   UNL A   1      44.018  27.468  33.212  1.00  0.00     0.034 A 
BRANCH  49  63
ATOM     63  C   UNL A   1      40.596  32.140  35.301  1.00  0.00     0.023 A 
ATOM     64  C   UNL A   1      41.365  33.309  35.480  1.00  0.00     0.012 A 
ATOM     65  C   UNL A   1      39.481  31.910  36.130  1.00  0.00     0.148 A 
ATOM     66  C   UNL A   1      41.041  34.227  36.478  1.00  0.00     0.002 A 
ATOM     67  C   UNL A   1      39.144  32.847  37.099  1.00  0.00     0.091 A 
ATOM     68  F   UNL A   1      38.769  30.790  35.945  1.00  0.00    -0.205 F 
ATOM     69  C   UNL A   1      39.925  34.002  37.278  1.00  0.00     0.022 A 
BRANCH  67  70
ATOM     70  S   UNL A   1      37.692  32.690  38.146  1.00  0.00     0.127 S 
ATOM     71  O   UNL A   1      37.712  31.263  38.466  1.00  0.00    -0.237 OA
ATOM     72  O   UNL A   1      38.026  33.571  39.266  1.00  0.00    -0.237 OA
ATOM     73  O   UNL A   1      36.561  33.125  37.339  1.00  0.00    -0.744 OA
ENDBRANCH  67  70
ENDBRANCH  49  63
BRANCH  50  74
ATOM     74  C   UNL A   1      42.546  26.321  27.447  1.00  0.00     0.023 A 
ATOM     75  C   UNL A   1      43.378  26.774  26.405  1.00  0.00     0.012 A 
ATOM     76  C   UNL A   1      42.056  25.001  27.414  1.00  0.00     0.148 A 
ATOM     77  C   UNL A   1      43.717  25.930  25.348  1.00  0.00     0.002 A 
ATOM     78  C   UNL A   1      42.430  24.152  26.378  1.00  0.00     0.091 A 
ATOM     79  F   UNL A   1      41.268  24.595  28.418  1.00  0.00    -0.205 F 
ATOM     80  C   UNL A   1      43.254  24.617  25.340  1.00  0.00     0.022 A 
BRANCH  78  81
ATOM     81  S   UNL A   1      41.970  22.417  26.330  1.00  0.00     0.127 S 
ATOM     82  O   UNL A   1      42.568  21.916  27.565  1.00  0.00    -0.237 OA
ATOM     83  O   UNL A   1      40.508  22.495  26.340  1.00  0.00    -0.237 OA
ATOM     84  O   UNL A   1      42.541  21.888  25.100  1.00  0.00    -0.744 OA
ENDBRANCH  78  81
ENDBRANCH  50  74
BRANCH  62  85
ATOM     85  C   UNL A   1      45.069  26.716  33.976  1.00  0.00     0.023 A 
ATOM     86  C   UNL A   1      46.384  27.215  34.011  1.00  0.00     0.012 A 
ATOM     87  C   UNL A   1      44.706  25.635  34.803  1.00  0.00     0.148 A 
ATOM     88  C   UNL A   1      47.326  26.651  34.870  1.00  0.00     0.002 A 
ATOM     89  C   UNL A   1      45.640  25.100  35.679  1.00  0.00     0.091 A 
ATOM     90  F   UNL A   1      43.444  25.186  34.746  1.00  0.00    -0.205 F 
ATOM     91  C   UNL A   1      46.950  25.606  35.713  1.00  0.00     0.022 A 
BRANCH  89  92
ATOM     92  S   UNL A   1      45.232  23.811  36.862  1.00  0.00     0.127 S 
ATOM     93  O   UNL A   1      44.267  24.493  37.723  1.00  0.00    -0.237 OA
ATOM     94  O   UNL A   1      44.659  22.776  36.002  1.00  0.00    -0.237 OA
ATOM     95  O   UNL A   1      46.484  23.445  37.511  1.00  0.00    -0.744 OA
ENDBRANCH  89  92
ENDBRANCH  62  85
ENDBRANCH  36  37
ENDBRANCH  29  31
ENDBRANCH  28  29
ENDBRANCH  27  28
ENDBRANCH   1  27
TORSDOF 18
ENDMDL
MODEL 3
REMARK VINA RESULT:     -11.9      1.500      2.034
REMARK SMILES CC(C)[N@H+](C)Cc1cc2c(cc1Cl)C=C(C(=O)OCCOC(=O)c1ccc(-c3c4nc(c(-c5cccc(S(=O)(=O)[O-])c5F)c5ccc([nH]5)c(-c5cccc(S(=O)(=O)[O-])c5F)c5nc(c(-c6cccc(S(=O)(=O)[O-])c6F)c6ccc3[nH]6)C=C5)C=C4)cc1)[C@@H](C(F)(F)F)O2
REMARK SMILES IDX 19 1 18 2 16 3 17 4 15 5 7 6 8 7 12 8 9 9 11 10 13 11 10 12
REMARK SMILES IDX 92 13 14 14 87 15 6 16 4 17 5 18 2 20 1 21 3 22 88 23 89 24
REMARK SMILES IDX 90 25 91 26 20 27 21 28 22 29 23 30 24 31 25 32 86 33 26 34
REMARK SMILES IDX 85 35 27 36 28 37 29 38 79 39 30 40 84 41 78 42 80 43 31 44
REMARK SMILES IDX 83 45 77 46 76 47 32 49 64 50 44 51 63 52 45 53 48 54 62 55
REMARK SMILES IDX 81 56 46 57 47 58 61 60 82 61 49 62 33 63 34 64 42 65 35 66
REMARK SMILES IDX 37 67 43 68 36 69 38 70 39 71 40 72 41 73 65 74 66 75 74 76
REMARK SMILES IDX 67 77 69 78 75 79 68 80 70 81 71 82 72 83 73 84 50 85 51 86
REMARK SMILES IDX 59 87 52 88 54 89 60 90 53 91 55 92 56 93 57 94 58 95
REMARK H PARENT 4 19 80 48 48 59
REMARK Flexibility Score: inf
ROOT
ATOM      1  C   UNL A   1      35.935  20.741  25.346  1.00  0.00     0.275 C 
ENDROOT
BRANCH   1   2
ATOM      2  O   UNL A   1      34.839  20.897  24.417  1.00  0.00    -0.459 OA
BRANCH   2   3
ATOM      3  C   UNL A   1      33.611  20.642  24.919  1.00  0.00     0.338 C 
ATOM      4  O   UNL A   1      33.166  19.551  25.244  1.00  0.00    -0.246 OA
BRANCH   3   5
ATOM      5  C   UNL A   1      32.880  21.901  25.135  1.00  0.00     0.087 C 
ATOM      6  C   UNL A   1      31.199  26.584  24.423  1.00  0.00     0.029 A 
ATOM      7  C   UNL A   1      31.310  25.742  25.560  1.00  0.00     0.058 A 
ATOM      8  C   UNL A   1      31.411  26.015  23.154  1.00  0.00     0.050 A 
ATOM      9  C   UNL A   1      31.758  24.427  25.446  1.00  0.00     0.128 A 
ATOM     10  C   UNL A   1      31.929  24.731  23.053  1.00  0.00     0.033 A 
ATOM     11  Cl  UNL A   1      31.063  26.769  21.639  1.00  0.00    -0.084 Cl
ATOM     12  C   UNL A   1      32.130  23.964  24.196  1.00  0.00     0.019 A 
ATOM     13  O   UNL A   1      31.842  23.667  26.580  1.00  0.00    -0.475 OA
ATOM     14  C   UNL A   1      32.780  22.692  24.069  1.00  0.00     0.027 C 
ATOM     15  C   UNL A   1      32.353  22.294  26.481  1.00  0.00     0.316 C 
BRANCH   6  16
ATOM     16  C   UNL A   1      30.852  28.042  24.668  1.00  0.00     0.300 C 
BRANCH  16  17
ATOM     17  N   UNL A   1      31.993  28.916  24.874  1.00  0.00    -0.332 N 
ATOM     18  C   UNL A   1      31.758  30.038  25.764  1.00  0.00     0.333 C 
ATOM     19  H   UNL A   1      32.003  29.287  23.925  1.00  0.00     0.348 HD
BRANCH  17  20
ATOM     20  C   UNL A   1      33.371  28.455  24.732  1.00  0.00     0.177 C 
ATOM     21  C   UNL A   1      34.058  28.889  23.436  1.00  0.00     0.075 C 
ATOM     22  C   UNL A   1      34.241  28.853  25.932  1.00  0.00     0.075 C 
ENDBRANCH  17  20
ENDBRANCH  16  17
ENDBRANCH   6  16
BRANCH  15  23
ATOM     23  C   UNL A   1      33.412  22.115  27.577  1.00  0.00     0.430 C 
ATOM     24  F   UNL A   1      32.980  22.616  28.760  1.00  0.00    -0.167 F 
ATOM     25  F   UNL A   1      33.692  20.807  27.798  1.00  0.00    -0.167 F 
ATOM     26  F   UNL A   1      34.575  22.733  27.274  1.00  0.00    -0.167 F 
ENDBRANCH  15  23
ENDBRANCH   3   5
ENDBRANCH   2   3
ENDBRANCH   1   2
BRANCH   1  27
ATOM     27  C   UNL A   1      37.283  20.772  24.626  1.00  0.00     0.275 C 
BRANCH  27  28
ATOM     28  O   UNL A   1      38.094  21.861  25.106  1.00  0.00    -0.458 OA
BRANCH  28  29
ATOM     29  C   UNL A   1      39.087  21.505  25.951  1.00  0.00     0.338 C 
ATOM     30  O   UNL A   1      39.643  20.422  26.018  1.00  0.00    -0.246 OA
BRANCH  29  31
ATOM     31  C   UNL A   1      39.510  22.661  26.756  1.00  0.00     0.060 A 
ATOM     32  C   UNL A   1      40.599  22.587  27.613  1.00  0.00     0.016 A 
ATOM     33  C   UNL A   1      38.952  23.895  26.456  1.00  0.00     0.016 A 
ATOM     34  C   UNL A   1      41.123  23.771  28.150  1.00  0.00     0.010 A 
ATOM     35  C   UNL A   1      39.626  25.065  26.797  1.00  0.00     0.010 A 
ATOM     36  C   UNL A   1      40.694  25.038  27.696  1.00  0.00    -0.014 A 
BRANCH  36  37
ATOM     37  C   UNL A   1      41.347  26.305  28.165  1.00  0.00     0.031 A 
ATOM     38  C   UNL A   1      42.765  26.673  27.762  1.00  0.00     0.074 A 
ATOM     39  C   UNL A   1      40.671  27.142  28.985  1.00  0.00     0.049 A 
ATOM     40  N   UNL A   1      43.429  27.775  28.016  1.00  0.00    -0.248 NA
ATOM     41  C   UNL A   1      43.565  25.678  27.023  1.00  0.00     0.031 C 
ATOM     42  C   UNL A   1      39.368  26.865  29.596  1.00  0.00     0.029 A 
ATOM     43  N   UNL A   1      40.972  28.409  29.432  1.00  0.00    -0.354 N 
ATOM     44  C   UNL A   1      44.713  27.579  27.515  1.00  0.00     0.074 A 
ATOM     45  C   UNL A   1      44.766  26.235  27.001  1.00  0.00     0.031 C 
ATOM     46  C   UNL A   1      38.937  27.957  30.243  1.00  0.00     0.029 A 
ATOM     47  C   UNL A   1      39.949  29.002  30.139  1.00  0.00     0.049 A 
ATOM     48  H   UNL A   1      41.836  28.849  29.262  1.00  0.00     0.167 HD
ATOM     49  C   UNL A   1      45.741  28.453  27.422  1.00  0.00     0.034 A 
ATOM     50  C   UNL A   1      39.817  30.253  30.626  1.00  0.00     0.034 A 
ATOM     51  C   UNL A   1      45.665  29.825  27.828  1.00  0.00     0.049 A 
ATOM     52  C   UNL A   1      40.921  31.248  30.410  1.00  0.00     0.074 A 
ATOM     53  C   UNL A   1      46.610  30.821  27.658  1.00  0.00     0.029 A 
ATOM     54  N   UNL A   1      44.581  30.398  28.469  1.00  0.00    -0.354 N 
ATOM     55  N   UNL A   1      42.062  31.079  29.789  1.00  0.00    -0.248 NA
ATOM     56  C   UNL A   1      40.716  32.607  30.934  1.00  0.00     0.031 C 
ATOM     57  C   UNL A   1      46.098  31.999  28.206  1.00  0.00     0.029 A 
ATOM     58  C   UNL A   1      44.830  31.737  28.699  1.00  0.00     0.049 A 
ATOM     59  H   UNL A   1      43.757  29.923  28.722  1.00  0.00     0.167 HD
ATOM     60  C   UNL A   1      42.703  32.312  29.830  1.00  0.00     0.074 A 
ATOM     61  C   UNL A   1      41.819  33.223  30.526  1.00  0.00     0.031 C 
ATOM     62  C   UNL A   1      43.921  32.646  29.343  1.00  0.00     0.034 A 
BRANCH  49  63
ATOM     63  C   UNL A   1      47.011  27.996  26.750  1.00  0.00     0.023 A 
ATOM     64  C   UNL A   1      48.026  27.409  27.533  1.00  0.00     0.012 A 
ATOM     65  C   UNL A   1      47.154  28.043  25.350  1.00  0.00     0.148 A 
ATOM     66  C   UNL A   1      49.175  26.892  26.936  1.00  0.00     0.002 A 
ATOM     67  C   UNL A   1      48.286  27.494  24.759  1.00  0.00     0.091 A 
ATOM     68  F   UNL A   1      46.179  28.610  24.627  1.00  0.00    -0.205 F 
ATOM     69  C   UNL A   1      49.299  26.924  25.550  1.00  0.00     0.022 A 
BRANCH  67  70
ATOM     70  S   UNL A   1      48.523  27.424  22.980  1.00  0.00     0.127 S 
ATOM     71  O   UNL A   1      47.364  28.174  22.498  1.00  0.00    -0.237 OA
ATOM     72  O   UNL A   1      49.804  28.111  22.814  1.00  0.00    -0.237 OA
ATOM     73  O   UNL A   1      48.534  26.011  22.626  1.00  0.00    -0.744 OA
ENDBRANCH  67  70
ENDBRANCH  49  63
BRANCH  50  74
ATOM     74  C   UNL A   1      38.529  30.653  31.262  1.00  0.00     0.023 A 
ATOM     75  C   UNL A   1      38.366  30.475  32.650  1.00  0.00     0.012 A 
ATOM     76  C   UNL A   1      37.515  31.293  30.525  1.00  0.00     0.148 A 
ATOM     77  C   UNL A   1      37.213  30.926  33.293  1.00  0.00     0.002 A 
ATOM     78  C   UNL A   1      36.387  31.775  31.178  1.00  0.00     0.091 A 
ATOM     79  F   UNL A   1      37.696  31.450  29.207  1.00  0.00    -0.205 F 
ATOM     80  C   UNL A   1      36.230  31.586  32.561  1.00  0.00     0.022 A 
BRANCH  78  81
ATOM     81  S   UNL A   1      35.113  32.728  30.343  1.00  0.00     0.127 S 
ATOM     82  O   UNL A   1      34.701  31.810  29.283  1.00  0.00    -0.237 OA
ATOM     83  O   UNL A   1      34.130  32.912  31.413  1.00  0.00    -0.237 OA
ATOM     84  O   UNL A   1      35.760  33.951  29.895  1.00  0.00    -0.744 OA
ENDBRANCH  78  81
ENDBRANCH  50  74
BRANCH  62  85
ATOM     85  C   UNL A   1      44.398  34.060  29.505  1.00  0.00     0.023 A 
ATOM     86  C   UNL A   1      45.318  34.364  30.525  1.00  0.00     0.012 A 
ATOM     87  C   UNL A   1      44.084  35.029  28.532  1.00  0.00     0.148 A 
ATOM     88  C   UNL A   1      45.927  35.617  30.571  1.00  0.00     0.002 A 
ATOM     89  C   UNL A   1      44.719  36.263  28.565  1.00  0.00     0.091 A 
ATOM     90  F   UNL A   1      43.205  34.706  27.572  1.00  0.00    -0.205 F 
ATOM     91  C   UNL A   1      45.640  36.558  29.584  1.00  0.00     0.022 A 
BRANCH  89  92
ATOM     92  S   UNL A   1      44.479  37.510  27.295  1.00  0.00     0.127 S 
ATOM     93  O   UNL A   1      45.742  37.434  26.561  1.00  0.00    -0.237 OA
ATOM     94  O   UNL A   1      43.320  36.992  26.570  1.00  0.00    -0.237 OA
ATOM     95  O   UNL A   1      44.252  38.766  27.996  1.00  0.00    -0.744 OA
ENDBRANCH  89  92
ENDBRANCH  62  85
ENDBRANCH  36  37
ENDBRANCH  29  31
ENDBRANCH  28  29
ENDBRANCH  27  28
ENDBRANCH   1  27
TORSDOF 18
ENDMDL
