MODEL 1
REMARK VINA RESULT:     -12.5      0.000      0.000
REMARK SMILES Cc1ccc(Cn2c(C)c(C[NH2+]C[C@@H]3CCCO3)c(C(=O)OCCOC(=O)c3ccc(-c4c5nc(c(-c6cccc(S(=O)(=O)[O-])c6F)c6ccc([nH]6)c(-c6cccc(S(=O)(=O)[O-])c6F)c6nc(c(-c7cccc(S(=O)(=O)[O-])c7F)c7ccc4[nH]7)C=C6)C=C5)cc3)c2C)cc1
REMARK SMILES IDX 23 1 22 2 20 3 21 4 19 5 7 6 8 7 91 8 9 9 10 10 92 11 6 12
REMARK SMILES IDX 5 13 1 14 2 15 3 16 94 17 4 18 93 19 11 20 12 21 13 24 14 25
REMARK SMILES IDX 15 26 18 27 16 28 17 29 24 30 25 31 26 32 27 33 28 34 29 35
REMARK SMILES IDX 90 36 30 37 89 38 31 39 32 40 33 41 83 42 34 43 88 44 82 45
REMARK SMILES IDX 84 46 35 47 87 48 81 49 80 50 36 52 68 53 48 54 67 55 49 56
REMARK SMILES IDX 52 57 66 58 85 59 50 60 51 61 65 63 86 64 53 65 37 66 38 67
REMARK SMILES IDX 46 68 39 69 41 70 47 71 40 72 42 73 43 74 44 75 45 76 69 77
REMARK SMILES IDX 70 78 78 79 71 80 73 81 79 82 72 83 74 84 75 85 76 86 77 87
REMARK SMILES IDX 54 88 55 89 63 90 56 91 58 92 64 93 57 94 59 95 60 96 61 97
REMARK SMILES IDX 62 98
REMARK H PARENT 12 22 12 23 84 51 52 62
REMARK Flexibility Score: inf
ROOT
ATOM      1  C   UNL A   1      32.186  27.945  27.355  1.00  0.00     0.275 C 
ENDROOT
BRANCH   1   2
ATOM      2  O   UNL A   1      30.966  27.681  26.617  1.00  0.00    -0.458 OA
BRANCH   2   3
ATOM      3  C   UNL A   1      30.918  26.430  26.045  1.00  0.00     0.340 C 
ATOM      4  O   UNL A   1      30.293  25.511  26.563  1.00  0.00    -0.246 OA
BRANCH   3   5
ATOM      5  C   UNL A   1      31.934  26.132  25.037  1.00  0.00     0.089 A 
ATOM      6  N   UNL A   1      32.965  24.412  24.062  1.00  0.00    -0.343 N 
ATOM      7  C   UNL A   1      32.808  25.399  23.091  1.00  0.00     0.025 A 
ATOM      8  C   UNL A   1      32.696  24.994  25.283  1.00  0.00     0.030 A 
ATOM      9  C   UNL A   1      33.108  25.209  21.635  1.00  0.00     0.065 C 
ATOM     10  C   UNL A   1      32.170  26.521  23.662  1.00  0.00     0.042 A 
ATOM     11  C   UNL A   1      32.891  24.373  26.622  1.00  0.00     0.065 C 
BRANCH   6  12
ATOM     12  C   UNL A   1      33.459  23.032  23.862  1.00  0.00     0.157 C 
BRANCH  12  13
ATOM     13  C   UNL A   1      34.823  22.653  24.434  1.00  0.00    -0.028 A 
ATOM     14  C   UNL A   1      38.825  21.473  25.722  1.00  0.00     0.044 C 
ATOM     15  C   UNL A   1      37.446  21.844  25.256  1.00  0.00    -0.051 A 
ATOM     16  C   UNL A   1      37.183  23.162  24.901  1.00  0.00     0.004 A 
ATOM     17  C   UNL A   1      36.393  20.927  25.210  1.00  0.00     0.004 A 
ATOM     18  C   UNL A   1      35.907  23.540  24.468  1.00  0.00     0.006 A 
ATOM     19  C   UNL A   1      35.100  21.327  24.812  1.00  0.00     0.006 A 
ENDBRANCH  12  13
ENDBRANCH   6  12
BRANCH  10  20
ATOM     20  C   UNL A   1      31.647  27.685  22.799  1.00  0.00     0.300 C 
BRANCH  20  21
ATOM     21  N   UNL A   1      30.198  27.632  22.471  1.00  0.00    -0.340 N 
ATOM     22  H   UNL A   1      29.841  26.698  22.673  1.00  0.00     0.346 HD
ATOM     23  H   UNL A   1      30.074  27.847  21.481  1.00  0.00     0.346 HD
BRANCH  21  24
ATOM     24  C   UNL A   1      29.440  28.638  23.286  1.00  0.00     0.293 C 
BRANCH  24  25
ATOM     25  C   UNL A   1      29.400  30.119  22.797  1.00  0.00     0.173 C 
ATOM     26  C   UNL A   1      28.332  31.043  23.386  1.00  0.00     0.040 C 
ATOM     27  O   UNL A   1      29.249  30.212  21.375  1.00  0.00    -0.372 OA
ATOM     28  C   UNL A   1      28.031  31.985  22.236  1.00  0.00     0.031 C 
ATOM     29  C   UNL A   1      28.129  31.044  21.075  1.00  0.00     0.161 C 
ENDBRANCH  24  25
ENDBRANCH  21  24
ENDBRANCH  20  21
ENDBRANCH  10  20
ENDBRANCH   3   5
ENDBRANCH   2   3
ENDBRANCH   1   2
BRANCH   1  30
ATOM     30  C   UNL A   1      32.836  29.295  26.987  1.00  0.00     0.275 C 
BRANCH  30  31
ATOM     31  O   UNL A   1      34.270  29.411  27.069  1.00  0.00    -0.458 OA
BRANCH  31  32
ATOM     32  C   UNL A   1      34.706  30.509  27.736  1.00  0.00     0.338 C 
ATOM     33  O   UNL A   1      33.981  31.423  28.055  1.00  0.00    -0.246 OA
BRANCH  32  34
ATOM     34  C   UNL A   1      36.094  30.247  28.210  1.00  0.00     0.060 A 
ATOM     35  C   UNL A   1      36.274  29.733  29.500  1.00  0.00     0.016 A 
ATOM     36  C   UNL A   1      37.115  30.175  27.271  1.00  0.00     0.016 A 
ATOM     37  C   UNL A   1      37.404  29.005  29.839  1.00  0.00     0.010 A 
ATOM     38  C   UNL A   1      38.185  29.374  27.553  1.00  0.00     0.010 A 
ATOM     39  C   UNL A   1      38.332  28.809  28.836  1.00  0.00    -0.014 A 
BRANCH  39  40
ATOM     40  C   UNL A   1      39.651  28.268  29.062  1.00  0.00     0.031 A 
ATOM     41  C   UNL A   1      39.950  26.844  28.848  1.00  0.00     0.074 A 
ATOM     42  C   UNL A   1      40.526  29.298  29.142  1.00  0.00     0.049 A 
ATOM     43  N   UNL A   1      41.104  26.348  29.108  1.00  0.00    -0.248 NA
ATOM     44  C   UNL A   1      39.012  25.837  28.346  1.00  0.00     0.031 C 
ATOM     45  C   UNL A   1      41.925  29.407  28.801  1.00  0.00     0.029 A 
ATOM     46  N   UNL A   1      40.219  30.576  29.645  1.00  0.00    -0.354 N 
ATOM     47  C   UNL A   1      41.167  25.096  28.525  1.00  0.00     0.074 A 
ATOM     48  C   UNL A   1      39.807  24.767  28.184  1.00  0.00     0.031 C 
ATOM     49  C   UNL A   1      42.407  30.537  29.360  1.00  0.00     0.029 A 
ATOM     50  C   UNL A   1      41.377  31.046  30.262  1.00  0.00     0.049 A 
ATOM     51  H   UNL A   1      39.357  31.046  29.576  1.00  0.00     0.167 HD
ATOM     52  C   UNL A   1      42.403  24.598  28.248  1.00  0.00     0.034 A 
ATOM     53  C   UNL A   1      41.453  31.125  31.631  1.00  0.00     0.034 A 
ATOM     54  C   UNL A   1      43.417  25.545  28.745  1.00  0.00     0.049 A 
ATOM     55  C   UNL A   1      42.496  30.149  32.173  1.00  0.00     0.074 A 
ATOM     56  C   UNL A   1      44.098  26.604  28.170  1.00  0.00     0.029 A 
ATOM     57  N   UNL A   1      43.517  25.724  30.109  1.00  0.00    -0.354 N 
ATOM     58  N   UNL A   1      43.073  29.218  31.466  1.00  0.00    -0.248 NA
ATOM     59  C   UNL A   1      42.851  30.073  33.587  1.00  0.00     0.031 C 
ATOM     60  C   UNL A   1      44.586  27.435  29.228  1.00  0.00     0.029 A 
ATOM     61  C   UNL A   1      44.215  26.871  30.437  1.00  0.00     0.049 A 
ATOM     62  H   UNL A   1      43.135  25.106  30.773  1.00  0.00     0.167 HD
ATOM     63  C   UNL A   1      43.729  28.351  32.291  1.00  0.00     0.074 A 
ATOM     64  C   UNL A   1      43.541  28.922  33.617  1.00  0.00     0.031 C 
ATOM     65  C   UNL A   1      44.337  27.208  31.849  1.00  0.00     0.034 A 
BRANCH  52  66
ATOM     66  C   UNL A   1      42.768  23.444  27.329  1.00  0.00     0.023 A 
ATOM     67  C   UNL A   1      42.072  22.233  27.574  1.00  0.00     0.012 A 
ATOM     68  C   UNL A   1      43.717  23.413  26.279  1.00  0.00     0.148 A 
ATOM     69  C   UNL A   1      42.328  21.049  26.883  1.00  0.00     0.002 A 
ATOM     70  C   UNL A   1      43.982  22.216  25.587  1.00  0.00     0.091 A 
ATOM     71  F   UNL A   1      44.348  24.535  25.919  1.00  0.00    -0.205 F 
ATOM     72  C   UNL A   1      43.292  21.036  25.895  1.00  0.00     0.022 A 
BRANCH  70  73
ATOM     73  S   UNL A   1      45.228  22.055  24.291  1.00  0.00     0.127 S 
ATOM     74  O   UNL A   1      44.575  21.140  23.352  1.00  0.00    -0.237 OA
ATOM     75  O   UNL A   1      45.355  23.427  23.801  1.00  0.00    -0.237 OA
ATOM     76  O   UNL A   1      46.420  21.512  24.928  1.00  0.00    -0.744 OA
ENDBRANCH  70  73
ENDBRANCH  52  66
BRANCH  53  77
ATOM     77  C   UNL A   1      40.117  31.336  32.322  1.00  0.00     0.023 A 
ATOM     78  C   UNL A   1      39.411  30.193  32.785  1.00  0.00     0.012 A 
ATOM     79  C   UNL A   1      39.790  32.585  32.883  1.00  0.00     0.148 A 
ATOM     80  C   UNL A   1      38.644  30.264  33.951  1.00  0.00     0.002 A 
ATOM     81  C   UNL A   1      39.006  32.652  34.020  1.00  0.00     0.091 A 
ATOM     82  F   UNL A   1      40.287  33.710  32.361  1.00  0.00    -0.205 F 
ATOM     83  C   UNL A   1      38.503  31.488  34.595  1.00  0.00     0.022 A 
BRANCH  81  84
ATOM     84  S   UNL A   1      38.783  34.231  34.840  1.00  0.00     0.127 S 
ATOM     85  O   UNL A   1      38.001  34.974  33.856  1.00  0.00    -0.237 OA
ATOM     86  O   UNL A   1      38.040  33.876  36.049  1.00  0.00    -0.237 OA
ATOM     87  O   UNL A   1      40.144  34.681  35.083  1.00  0.00    -0.744 OA
ENDBRANCH  81  84
ENDBRANCH  53  77
BRANCH  65  88
ATOM     88  C   UNL A   1      45.135  26.305  32.765  1.00  0.00     0.023 A 
ATOM     89  C   UNL A   1      46.510  26.114  32.537  1.00  0.00     0.012 A 
ATOM     90  C   UNL A   1      44.538  25.507  33.773  1.00  0.00     0.148 A 
ATOM     91  C   UNL A   1      47.274  25.256  33.329  1.00  0.00     0.002 A 
ATOM     92  C   UNL A   1      45.275  24.564  34.472  1.00  0.00     0.091 A 
ATOM     93  F   UNL A   1      43.255  25.676  34.103  1.00  0.00    -0.205 F 
ATOM     94  C   UNL A   1      46.652  24.466  34.285  1.00  0.00     0.022 A 
BRANCH  92  95
ATOM     95  S   UNL A   1      44.497  23.347  35.543  1.00  0.00     0.127 S 
ATOM     96  O   UNL A   1      44.166  24.161  36.714  1.00  0.00    -0.237 OA
ATOM     97  O   UNL A   1      43.348  22.934  34.741  1.00  0.00    -0.237 OA
ATOM     98  O   UNL A   1      45.495  22.317  35.790  1.00  0.00    -0.744 OA
ENDBRANCH  92  95
ENDBRANCH  65  88
ENDBRANCH  39  40
ENDBRANCH  32  34
ENDBRANCH  31  32
ENDBRANCH  30  31
ENDBRANCH   1  30
TORSDOF 20
ENDMDL
MODEL 2
REMARK VINA RESULT:     -10.8      5.987      9.296
REMARK SMILES Cc1ccc(Cn2c(C)c(C[NH2+]C[C@@H]3CCCO3)c(C(=O)OCCOC(=O)c3ccc(-c4c5nc(c(-c6cccc(S(=O)(=O)[O-])c6F)c6ccc([nH]6)c(-c6cccc(S(=O)(=O)[O-])c6F)c6nc(c(-c7cccc(S(=O)(=O)[O-])c7F)c7ccc4[nH]7)C=C6)C=C5)cc3)c2C)cc1
REMARK SMILES IDX 23 1 22 2 20 3 21 4 19 5 7 6 8 7 91 8 9 9 10 10 92 11 6 12
REMARK SMILES IDX 5 13 1 14 2 15 3 16 94 17 4 18 93 19 11 20 12 21 13 24 14 25
REMARK SMILES IDX 15 26 18 27 16 28 17 29 24 30 25 31 26 32 27 33 28 34 29 35
REMARK SMILES IDX 90 36 30 37 89 38 31 39 32 40 33 41 83 42 34 43 88 44 82 45
REMARK SMILES IDX 84 46 35 47 87 48 81 49 80 50 36 52 68 53 48 54 67 55 49 56
REMARK SMILES IDX 52 57 66 58 85 59 50 60 51 61 65 63 86 64 53 65 37 66 38 67
REMARK SMILES IDX 46 68 39 69 41 70 47 71 40 72 42 73 43 74 44 75 45 76 69 77
REMARK SMILES IDX 70 78 78 79 71 80 73 81 79 82 72 83 74 84 75 85 76 86 77 87
REMARK SMILES IDX 54 88 55 89 63 90 56 91 58 92 64 93 57 94 59 95 60 96 61 97
REMARK SMILES IDX 62 98
REMARK H PARENT 12 22 12 23 84 51 52 62
REMARK Flexibility Score: inf
ROOT
ATOM      1  C   UNL A   1      37.820  31.037  35.247  1.00  0.00     0.275 C 
ENDROOT
BRANCH   1   2
ATOM      2  O   UNL A   1      38.598  30.187  34.368  1.00  0.00    -0.458 OA
BRANCH   2   3
ATOM      3  C   UNL A   1      37.901  29.724  33.275  1.00  0.00     0.340 C 
ATOM      4  O   UNL A   1      37.416  28.599  33.253  1.00  0.00    -0.246 OA
BRANCH   3   5
ATOM      5  C   UNL A   1      38.096  30.450  32.021  1.00  0.00     0.089 A 
ATOM      6  N   UNL A   1      39.166  30.296  30.070  1.00  0.00    -0.343 N 
ATOM      7  C   UNL A   1      37.942  30.912  29.818  1.00  0.00     0.025 A 
ATOM      8  C   UNL A   1      39.350  30.298  31.437  1.00  0.00     0.030 A 
ATOM      9  C   UNL A   1      37.409  31.208  28.448  1.00  0.00     0.065 C 
ATOM     10  C   UNL A   1      37.227  31.047  31.028  1.00  0.00     0.042 A 
ATOM     11  C   UNL A   1      40.584  29.892  32.164  1.00  0.00     0.065 C 
BRANCH   6  12
ATOM     12  C   UNL A   1      40.160  29.842  29.073  1.00  0.00     0.157 C 
BRANCH  12  13
ATOM     13  C   UNL A   1      40.371  28.342  28.880  1.00  0.00    -0.028 A 
ATOM     14  C   UNL A   1      41.111  24.132  27.988  1.00  0.00     0.044 C 
ATOM     15  C   UNL A   1      40.840  25.586  28.257  1.00  0.00    -0.051 A 
ATOM     16  C   UNL A   1      41.803  26.344  28.912  1.00  0.00     0.004 A 
ATOM     17  C   UNL A   1      39.633  26.202  27.919  1.00  0.00     0.004 A 
ATOM     18  C   UNL A   1      41.579  27.698  29.182  1.00  0.00     0.006 A 
ATOM     19  C   UNL A   1      39.400  27.558  28.232  1.00  0.00     0.006 A 
ENDBRANCH  12  13
ENDBRANCH   6  12
BRANCH  10  20
ATOM     20  C   UNL A   1      35.748  31.476  31.055  1.00  0.00     0.300 C 
BRANCH  20  21
ATOM     21  N   UNL A   1      35.497  32.913  30.766  1.00  0.00    -0.340 N 
ATOM     22  H   UNL A   1      34.958  32.993  29.903  1.00  0.00     0.346 HD
ATOM     23  H   UNL A   1      36.392  33.392  30.665  1.00  0.00     0.346 HD
BRANCH  21  24
ATOM     24  C   UNL A   1      34.731  33.545  31.889  1.00  0.00     0.293 C 
BRANCH  24  25
ATOM     25  C   UNL A   1      34.254  35.022  31.731  1.00  0.00     0.173 C 
ATOM     26  C   UNL A   1      34.410  35.961  32.929  1.00  0.00     0.040 C 
ATOM     27  O   UNL A   1      32.873  35.104  31.355  1.00  0.00    -0.372 OA
ATOM     28  C   UNL A   1      33.224  36.896  32.781  1.00  0.00     0.031 C 
ATOM     29  C   UNL A   1      32.182  35.943  32.279  1.00  0.00     0.161 C 
ENDBRANCH  24  25
ENDBRANCH  21  24
ENDBRANCH  20  21
ENDBRANCH  10  20
ENDBRANCH   3   5
ENDBRANCH   2   3
ENDBRANCH   1   2
BRANCH   1  30
ATOM     30  C   UNL A   1      38.138  32.537  35.078  1.00  0.00     0.275 C 
BRANCH  30  31
ATOM     31  O   UNL A   1      38.588  33.002  33.790  1.00  0.00    -0.458 OA
BRANCH  31  32
ATOM     32  C   UNL A   1      38.855  34.332  33.737  1.00  0.00     0.338 C 
ATOM     33  O   UNL A   1      38.529  35.108  34.604  1.00  0.00    -0.246 OA
BRANCH  32  34
ATOM     34  C   UNL A   1      39.809  34.571  32.618  1.00  0.00     0.060 A 
ATOM     35  C   UNL A   1      41.143  34.863  32.928  1.00  0.00     0.016 A 
ATOM     36  C   UNL A   1      39.454  34.156  31.341  1.00  0.00     0.016 A 
ATOM     37  C   UNL A   1      42.169  34.605  32.032  1.00  0.00     0.010 A 
ATOM     38  C   UNL A   1      40.457  33.798  30.485  1.00  0.00     0.010 A 
ATOM     39  C   UNL A   1      41.803  34.039  30.826  1.00  0.00    -0.014 A 
BRANCH  39  40
ATOM     40  C   UNL A   1      42.699  33.904  29.703  1.00  0.00     0.031 A 
ATOM     41  C   UNL A   1      43.384  32.636  29.407  1.00  0.00     0.074 A 
ATOM     42  C   UNL A   1      42.503  34.955  28.872  1.00  0.00     0.049 A 
ATOM     43  N   UNL A   1      44.228  32.530  28.448  1.00  0.00    -0.248 NA
ATOM     44  C   UNL A   1      43.218  31.381  30.143  1.00  0.00     0.031 C 
ATOM     45  C   UNL A   1      42.636  35.095  27.441  1.00  0.00     0.029 A 
ATOM     46  N   UNL A   1      42.118  36.245  29.285  1.00  0.00    -0.354 N 
ATOM     47  C   UNL A   1      44.456  31.184  28.233  1.00  0.00     0.074 A 
ATOM     48  C   UNL A   1      43.919  30.518  29.390  1.00  0.00     0.031 C 
ATOM     49  C   UNL A   1      42.632  36.412  27.145  1.00  0.00     0.029 A 
ATOM     50  C   UNL A   1      42.731  37.138  28.409  1.00  0.00     0.049 A 
ATOM     51  H   UNL A   1      41.533  36.471  30.043  1.00  0.00     0.167 HD
ATOM     52  C   UNL A   1      44.909  30.817  27.002  1.00  0.00     0.034 A 
ATOM     53  C   UNL A   1      43.785  37.912  28.829  1.00  0.00     0.034 A 
ATOM     54  C   UNL A   1      45.128  32.031  26.197  1.00  0.00     0.049 A 
ATOM     55  C   UNL A   1      45.068  37.526  28.095  1.00  0.00     0.074 A 
ATOM     56  C   UNL A   1      44.340  32.744  25.309  1.00  0.00     0.029 A 
ATOM     57  N   UNL A   1      46.132  32.890  26.588  1.00  0.00    -0.354 N 
ATOM     58  N   UNL A   1      45.197  36.469  27.342  1.00  0.00    -0.248 NA
ATOM     59  C   UNL A   1      46.330  38.235  28.279  1.00  0.00     0.031 C 
ATOM     60  C   UNL A   1      44.887  34.061  25.201  1.00  0.00     0.029 A 
ATOM     61  C   UNL A   1      46.010  34.139  26.008  1.00  0.00     0.049 A 
ATOM     62  H   UNL A   1      46.854  32.644  27.210  1.00  0.00     0.167 HD
ATOM     63  C   UNL A   1      46.517  36.258  27.066  1.00  0.00     0.074 A 
ATOM     64  C   UNL A   1      47.190  37.384  27.695  1.00  0.00     0.031 C 
ATOM     65  C   UNL A   1      46.976  35.161  26.389  1.00  0.00     0.034 A 
BRANCH  52  66
ATOM     66  C   UNL A   1      44.920  29.430  26.380  1.00  0.00     0.023 A 
ATOM     67  C   UNL A   1      43.665  28.772  26.348  1.00  0.00     0.012 A 
ATOM     68  C   UNL A   1      46.015  28.705  25.849  1.00  0.00     0.148 A 
ATOM     69  C   UNL A   1      43.495  27.467  25.885  1.00  0.00     0.002 A 
ATOM     70  C   UNL A   1      45.846  27.385  25.392  1.00  0.00     0.091 A 
ATOM     71  F   UNL A   1      47.214  29.288  25.755  1.00  0.00    -0.205 F 
ATOM     72  C   UNL A   1      44.589  26.767  25.417  1.00  0.00     0.022 A 
BRANCH  70  73
ATOM     73  S   UNL A   1      47.192  26.353  24.774  1.00  0.00     0.127 S 
ATOM     74  O   UNL A   1      46.536  25.051  24.630  1.00  0.00    -0.237 OA
ATOM     75  O   UNL A   1      47.530  26.997  23.505  1.00  0.00    -0.237 OA
ATOM     76  O   UNL A   1      48.240  26.390  25.785  1.00  0.00    -0.744 OA
ENDBRANCH  70  73
ENDBRANCH  52  66
BRANCH  53  77
ATOM     77  C   UNL A   1      43.776  38.231  30.314  1.00  0.00     0.023 A 
ATOM     78  C   UNL A   1      44.646  37.498  31.165  1.00  0.00     0.012 A 
ATOM     79  C   UNL A   1      43.286  39.466  30.778  1.00  0.00     0.148 A 
ATOM     80  C   UNL A   1      45.223  38.112  32.279  1.00  0.00     0.002 A 
ATOM     81  C   UNL A   1      43.840  40.057  31.899  1.00  0.00     0.091 A 
ATOM     82  F   UNL A   1      42.328  40.108  30.104  1.00  0.00    -0.205 F 
ATOM     83  C   UNL A   1      44.860  39.416  32.598  1.00  0.00     0.022 A 
BRANCH  81  84
ATOM     84  S   UNL A   1      43.353  41.724  32.345  1.00  0.00     0.127 S 
ATOM     85  O   UNL A   1      44.154  41.961  33.543  1.00  0.00    -0.237 OA
ATOM     86  O   UNL A   1      43.765  42.512  31.184  1.00  0.00    -0.237 OA
ATOM     87  O   UNL A   1      41.913  41.619  32.520  1.00  0.00    -0.744 OA
ENDBRANCH  81  84
ENDBRANCH  53  77
BRANCH  65  88
ATOM     88  C   UNL A   1      48.432  34.987  26.016  1.00  0.00     0.023 A 
ATOM     89  C   UNL A   1      48.997  35.787  25.005  1.00  0.00     0.012 A 
ATOM     90  C   UNL A   1      49.242  33.944  26.532  1.00  0.00     0.148 A 
ATOM     91  C   UNL A   1      50.322  35.629  24.599  1.00  0.00     0.002 A 
ATOM     92  C   UNL A   1      50.514  33.710  26.035  1.00  0.00     0.091 A 
ATOM     93  F   UNL A   1      48.810  33.185  27.541  1.00  0.00    -0.205 F 
ATOM     94  C   UNL A   1      51.076  34.578  25.100  1.00  0.00     0.022 A 
BRANCH  92  95
ATOM     95  S   UNL A   1      51.449  32.233  26.458  1.00  0.00     0.127 S 
ATOM     96  O   UNL A   1      51.712  32.455  27.881  1.00  0.00    -0.237 OA
ATOM     97  O   UNL A   1      50.481  31.176  26.174  1.00  0.00    -0.237 OA
ATOM     98  O   UNL A   1      52.637  32.242  25.619  1.00  0.00    -0.744 OA
ENDBRANCH  92  95
ENDBRANCH  65  88
ENDBRANCH  39  40
ENDBRANCH  32  34
ENDBRANCH  31  32
ENDBRANCH  30  31
ENDBRANCH   1  30
TORSDOF 20
ENDMDL
MODEL 3
REMARK VINA RESULT:     -10.7      5.941     11.921
REMARK SMILES Cc1ccc(Cn2c(C)c(C[NH2+]C[C@@H]3CCCO3)c(C(=O)OCCOC(=O)c3ccc(-c4c5nc(c(-c6cccc(S(=O)(=O)[O-])c6F)c6ccc([nH]6)c(-c6cccc(S(=O)(=O)[O-])c6F)c6nc(c(-c7cccc(S(=O)(=O)[O-])c7F)c7ccc4[nH]7)C=C6)C=C5)cc3)c2C)cc1
REMARK SMILES IDX 23 1 22 2 20 3 21 4 19 5 7 6 8 7 91 8 9 9 10 10 92 11 6 12
REMARK SMILES IDX 5 13 1 14 2 15 3 16 94 17 4 18 93 19 11 20 12 21 13 24 14 25
REMARK SMILES IDX 15 26 18 27 16 28 17 29 24 30 25 31 26 32 27 33 28 34 29 35
REMARK SMILES IDX 90 36 30 37 89 38 31 39 32 40 33 41 83 42 34 43 88 44 82 45
REMARK SMILES IDX 84 46 35 47 87 48 81 49 80 50 36 52 68 53 48 54 67 55 49 56
REMARK SMILES IDX 52 57 66 58 85 59 50 60 51 61 65 63 86 64 53 65 37 66 38 67
REMARK SMILES IDX 46 68 39 69 41 70 47 71 40 72 42 73 43 74 44 75 45 76 69 77
REMARK SMILES IDX 70 78 78 79 71 80 73 81 79 82 72 83 74 84 75 85 76 86 77 87
REMARK SMILES IDX 54 88 55 89 63 90 56 91 58 92 64 93 57 94 59 95 60 96 61 97
REMARK SMILES IDX 62 98
REMARK H PARENT 12 22 12 23 84 51 52 62
REMARK Flexibility Score: inf
ROOT
ATOM      1  C   UNL A   1      36.568  30.760  31.179  1.00  0.00     0.275 C 
ENDROOT
BRANCH   1   2
ATOM      2  O   UNL A   1      35.547  31.493  30.457  1.00  0.00    -0.458 OA
BRANCH   2   3
ATOM      3  C   UNL A   1      35.917  31.860  29.183  1.00  0.00     0.340 C 
ATOM      4  O   UNL A   1      36.883  32.587  28.980  1.00  0.00    -0.246 OA
BRANCH   3   5
ATOM      5  C   UNL A   1      34.913  31.688  28.135  1.00  0.00     0.089 A 
ATOM      6  N   UNL A   1      33.513  30.165  27.300  1.00  0.00    -0.343 N 
ATOM      7  C   UNL A   1      32.878  31.402  27.204  1.00  0.00     0.025 A 
ATOM      8  C   UNL A   1      34.839  30.409  27.589  1.00  0.00     0.030 A 
ATOM      9  C   UNL A   1      31.446  31.589  26.800  1.00  0.00     0.065 C 
ATOM     10  C   UNL A   1      33.731  32.408  27.709  1.00  0.00     0.042 A 
ATOM     11  C   UNL A   1      35.937  29.404  27.625  1.00  0.00     0.065 C 
BRANCH   6  12
ATOM     12  C   UNL A   1      32.930  28.836  27.014  1.00  0.00     0.157 C 
BRANCH  12  13
ATOM     13  C   UNL A   1      33.144  28.225  25.631  1.00  0.00    -0.028 A 
ATOM     14  C   UNL A   1      33.411  26.341  21.701  1.00  0.00     0.044 C 
ATOM     15  C   UNL A   1      33.302  26.954  23.068  1.00  0.00    -0.051 A 
ATOM     16  C   UNL A   1      32.879  28.273  23.187  1.00  0.00     0.004 A 
ATOM     17  C   UNL A   1      33.658  26.270  24.232  1.00  0.00     0.004 A 
ATOM     18  C   UNL A   1      32.773  28.874  24.446  1.00  0.00     0.006 A 
ATOM     19  C   UNL A   1      33.587  26.897  25.494  1.00  0.00     0.006 A 
ENDBRANCH  12  13
ENDBRANCH   6  12
BRANCH  10  20
ATOM     20  C   UNL A   1      33.235  33.844  27.956  1.00  0.00     0.300 C 
BRANCH  20  21
ATOM     21  N   UNL A   1      33.198  34.269  29.380  1.00  0.00    -0.340 N 
ATOM     22  H   UNL A   1      34.065  33.987  29.837  1.00  0.00     0.346 HD
ATOM     23  H   UNL A   1      32.401  33.826  29.838  1.00  0.00     0.346 HD
BRANCH  21  24
ATOM     24  C   UNL A   1      33.049  35.759  29.477  1.00  0.00     0.293 C 
BRANCH  24  25
ATOM     25  C   UNL A   1      33.440  36.464  30.812  1.00  0.00     0.173 C 
ATOM     26  C   UNL A   1      34.166  35.640  31.877  1.00  0.00     0.040 C 
ATOM     27  O   UNL A   1      32.301  37.030  31.475  1.00  0.00    -0.372 OA
ATOM     28  C   UNL A   1      33.670  36.250  33.174  1.00  0.00     0.031 C 
ATOM     29  C   UNL A   1      32.246  36.541  32.815  1.00  0.00     0.161 C 
ENDBRANCH  24  25
ENDBRANCH  21  24
ENDBRANCH  20  21
ENDBRANCH  10  20
ENDBRANCH   3   5
ENDBRANCH   2   3
ENDBRANCH   1   2
BRANCH   1  30
ATOM     30  C   UNL A   1      36.831  29.355  30.599  1.00  0.00     0.275 C 
BRANCH  30  31
ATOM     31  O   UNL A   1      38.116  28.745  30.833  1.00  0.00    -0.458 OA
BRANCH  31  32
ATOM     32  C   UNL A   1      39.068  29.081  29.926  1.00  0.00     0.338 C 
ATOM     33  O   UNL A   1      39.067  28.682  28.785  1.00  0.00    -0.246 OA
BRANCH  32  34
ATOM     34  C   UNL A   1      39.889  30.183  30.500  1.00  0.00     0.060 A 
ATOM     35  C   UNL A   1      39.874  31.430  29.863  1.00  0.00     0.016 A 
ATOM     36  C   UNL A   1      40.344  30.063  31.806  1.00  0.00     0.016 A 
ATOM     37  C   UNL A   1      40.162  32.599  30.548  1.00  0.00     0.010 A 
ATOM     38  C   UNL A   1      40.529  31.210  32.526  1.00  0.00     0.010 A 
ATOM     39  C   UNL A   1      40.454  32.467  31.892  1.00  0.00    -0.014 A 
BRANCH  39  40
ATOM     40  C   UNL A   1      40.982  33.536  32.704  1.00  0.00     0.031 A 
ATOM     41  C   UNL A   1      40.174  34.189  33.745  1.00  0.00     0.074 A 
ATOM     42  C   UNL A   1      42.330  33.550  32.568  1.00  0.00     0.049 A 
ATOM     43  N   UNL A   1      40.620  35.181  34.426  1.00  0.00    -0.248 NA
ATOM     44  C   UNL A   1      38.807  33.825  34.122  1.00  0.00     0.031 C 
ATOM     45  C   UNL A   1      43.389  33.940  33.468  1.00  0.00     0.029 A 
ATOM     46  N   UNL A   1      43.024  33.173  31.402  1.00  0.00    -0.354 N 
ATOM     47  C   UNL A   1      39.775  35.366  35.504  1.00  0.00     0.074 A 
ATOM     48  C   UNL A   1      38.597  34.597  35.201  1.00  0.00     0.031 C 
ATOM     49  C   UNL A   1      44.526  34.063  32.752  1.00  0.00     0.029 A 
ATOM     50  C   UNL A   1      44.158  33.979  31.341  1.00  0.00     0.049 A 
ATOM     51  H   UNL A   1      42.760  32.477  30.758  1.00  0.00     0.167 HD
ATOM     52  C   UNL A   1      40.285  36.006  36.593  1.00  0.00     0.034 A 
ATOM     53  C   UNL A   1      44.246  34.986  30.410  1.00  0.00     0.034 A 
ATOM     54  C   UNL A   1      41.662  36.432  36.289  1.00  0.00     0.049 A 
ATOM     55  C   UNL A   1      44.265  36.354  31.091  1.00  0.00     0.074 A 
ATOM     56  C   UNL A   1      42.906  35.854  36.482  1.00  0.00     0.029 A 
ATOM     57  N   UNL A   1      41.839  37.400  35.322  1.00  0.00    -0.354 N 
ATOM     58  N   UNL A   1      44.012  36.552  32.354  1.00  0.00    -0.248 NA
ATOM     59  C   UNL A   1      44.436  37.603  30.355  1.00  0.00     0.031 C 
ATOM     60  C   UNL A   1      43.825  36.486  35.585  1.00  0.00     0.029 A 
ATOM     61  C   UNL A   1      43.142  37.452  34.865  1.00  0.00     0.049 A 
ATOM     62  H   UNL A   1      41.119  37.986  34.995  1.00  0.00     0.167 HD
ATOM     63  C   UNL A   1      43.835  37.886  32.585  1.00  0.00     0.074 A 
ATOM     64  C   UNL A   1      44.092  38.501  31.292  1.00  0.00     0.031 C 
ATOM     65  C   UNL A   1      43.447  38.393  33.795  1.00  0.00     0.034 A 
BRANCH  52  66
ATOM     66  C   UNL A   1      39.727  36.047  38.006  1.00  0.00     0.023 A 
ATOM     67  C   UNL A   1      39.704  37.330  38.609  1.00  0.00     0.012 A 
ATOM     68  C   UNL A   1      39.248  34.979  38.801  1.00  0.00     0.148 A 
ATOM     69  C   UNL A   1      39.298  37.551  39.925  1.00  0.00     0.002 A 
ATOM     70  C   UNL A   1      38.848  35.199  40.132  1.00  0.00     0.091 A 
ATOM     71  F   UNL A   1      39.147  33.753  38.277  1.00  0.00    -0.205 F 
ATOM     72  C   UNL A   1      38.880  36.483  40.693  1.00  0.00     0.022 A 
BRANCH  70  73
ATOM     73  S   UNL A   1      38.300  33.892  41.250  1.00  0.00     0.127 S 
ATOM     74  O   UNL A   1      38.018  34.640  42.478  1.00  0.00    -0.237 OA
ATOM     75  O   UNL A   1      37.109  33.376  40.576  1.00  0.00    -0.237 OA
ATOM     76  O   UNL A   1      39.406  32.951  41.360  1.00  0.00    -0.744 OA
ENDBRANCH  70  73
ENDBRANCH  52  66
BRANCH  53  77
ATOM     77  C   UNL A   1      43.454  34.735  29.138  1.00  0.00     0.023 A 
ATOM     78  C   UNL A   1      42.328  35.559  28.872  1.00  0.00     0.012 A 
ATOM     79  C   UNL A   1      44.035  34.043  28.059  1.00  0.00     0.148 A 
ATOM     80  C   UNL A   1      42.002  35.901  27.557  1.00  0.00     0.002 A 
ATOM     81  C   UNL A   1      43.686  34.364  26.759  1.00  0.00     0.091 A 
ATOM     82  F   UNL A   1      44.974  33.118  28.277  1.00  0.00    -0.205 F 
ATOM     83  C   UNL A   1      42.731  35.346  26.512  1.00  0.00     0.022 A 
BRANCH  81  84
ATOM     84  S   UNL A   1      44.592  33.626  25.399  1.00  0.00     0.127 S 
ATOM     85  O   UNL A   1      43.771  34.001  24.252  1.00  0.00    -0.237 OA
ATOM     86  O   UNL A   1      45.887  34.305  25.456  1.00  0.00    -0.237 OA
ATOM     87  O   UNL A   1      44.638  32.215  25.750  1.00  0.00    -0.744 OA
ENDBRANCH  81  84
ENDBRANCH  53  77
BRANCH  65  88
ATOM     88  C   UNL A   1      43.341  39.880  34.057  1.00  0.00     0.023 A 
ATOM     89  C   UNL A   1      42.500  40.675  33.257  1.00  0.00     0.012 A 
ATOM     90  C   UNL A   1      44.168  40.560  34.987  1.00  0.00     0.148 A 
ATOM     91  C   UNL A   1      42.406  42.056  33.435  1.00  0.00     0.002 A 
ATOM     92  C   UNL A   1      44.164  41.943  35.073  1.00  0.00     0.091 A 
ATOM     93  F   UNL A   1      44.942  39.878  35.834  1.00  0.00    -0.205 F 
ATOM     94  C   UNL A   1      43.253  42.693  34.331  1.00  0.00     0.022 A 
BRANCH  92  95
ATOM     95  S   UNL A   1      45.394  42.845  36.026  1.00  0.00     0.127 S 
ATOM     96  O   UNL A   1      44.852  42.730  37.381  1.00  0.00    -0.237 OA
ATOM     97  O   UNL A   1      46.599  42.054  35.782  1.00  0.00    -0.237 OA
ATOM     98  O   UNL A   1      45.413  44.201  35.499  1.00  0.00    -0.744 OA
ENDBRANCH  92  95
ENDBRANCH  65  88
ENDBRANCH  39  40
ENDBRANCH  32  34
ENDBRANCH  31  32
ENDBRANCH  30  31
ENDBRANCH   1  30
TORSDOF 20
ENDMDL
