MODEL 1
REMARK VINA RESULT:     -11.9      0.000      0.000
REMARK SMILES O=C(OCCOC(=O)[C@H]1C=C[C@H](NS(=O)(=O)c2ccc(F)c(F)c2F)C1)c1ccc(-c2c3nc(c(-c4cccc(S(=O)(=O)[O-])c4F)c4ccc([nH]4)c(-c4cccc(S(=O)(=O)[O-])c4F)c4nc(c(-c5cccc(S(=O)(=O)[O-])c5F)c5ccc2[nH]5)C=C4)C=C3)cc1
REMARK SMILES IDX 4 1 3 2 2 3 1 4 27 5 28 6 89 7 29 8 88 9 30 10 31 11 32 12
REMARK SMILES IDX 82 13 33 14 87 15 81 16 83 17 34 18 86 19 80 20 79 21 35 23
REMARK SMILES IDX 67 24 47 25 66 26 48 27 51 28 65 29 84 30 49 31 50 32 64 34
REMARK SMILES IDX 85 35 52 36 36 37 37 38 45 39 38 40 40 41 46 42 39 43 41 44
REMARK SMILES IDX 42 45 43 46 44 47 68 48 69 49 77 50 70 51 72 52 78 53 71 54
REMARK SMILES IDX 73 55 74 56 75 57 76 58 53 59 54 60 62 61 55 62 57 63 63 64
REMARK SMILES IDX 56 65 58 66 59 67 60 68 61 69 5 70 6 71 7 72 8 73 9 74 10 75
REMARK SMILES IDX 26 76 11 77 12 78 13 79 14 81 15 82 16 83 17 84 18 85 24 86
REMARK SMILES IDX 19 87 22 88 25 89 20 90 23 91 21 92
REMARK H PARENT 83 22 51 33 13 80
REMARK Flexibility Score: inf
ROOT
ATOM      1  C   UNL A   1      31.598  32.326  26.972  1.00  0.00     0.275 C 
ENDROOT
BRANCH   1   2
ATOM      2  O   UNL A   1      32.418  33.491  27.078  1.00  0.00    -0.458 OA
BRANCH   2   3
ATOM      3  C   UNL A   1      33.024  34.008  28.167  1.00  0.00     0.338 C 
ATOM      4  O   UNL A   1      32.472  34.954  28.730  1.00  0.00    -0.246 OA
BRANCH   3   5
ATOM      5  C   UNL A   1      34.368  33.574  28.685  1.00  0.00     0.060 A 
ATOM      6  C   UNL A   1      35.611  34.202  28.504  1.00  0.00     0.016 A 
ATOM      7  C   UNL A   1      34.336  32.448  29.517  1.00  0.00     0.016 A 
ATOM      8  C   UNL A   1      36.744  33.832  29.247  1.00  0.00     0.010 A 
ATOM      9  C   UNL A   1      35.451  32.090  30.272  1.00  0.00     0.010 A 
ATOM     10  C   UNL A   1      36.655  32.804  30.175  1.00  0.00    -0.014 A 
BRANCH  10  11
ATOM     11  C   UNL A   1      37.818  32.318  30.949  1.00  0.00     0.031 A 
ATOM     12  C   UNL A   1      38.553  31.157  30.357  1.00  0.00     0.074 A 
ATOM     13  C   UNL A   1      38.118  32.775  32.181  1.00  0.00     0.049 A 
ATOM     14  N   UNL A   1      39.413  30.354  30.909  1.00  0.00    -0.248 NA
ATOM     15  C   UNL A   1      38.194  30.812  28.968  1.00  0.00     0.031 C 
ATOM     16  C   UNL A   1      37.472  33.893  32.868  1.00  0.00     0.029 A 
ATOM     17  N   UNL A   1      39.025  32.309  33.103  1.00  0.00    -0.354 N 
ATOM     18  C   UNL A   1      39.658  29.385  29.949  1.00  0.00     0.074 A 
ATOM     19  C   UNL A   1      38.760  29.627  28.846  1.00  0.00     0.031 C 
ATOM     20  C   UNL A   1      37.950  33.982  34.124  1.00  0.00     0.029 A 
ATOM     21  C   UNL A   1      38.950  32.938  34.327  1.00  0.00     0.049 A 
ATOM     22  H   UNL A   1      39.669  31.591  32.907  1.00  0.00     0.167 HD
ATOM     23  C   UNL A   1      40.605  28.423  29.947  1.00  0.00     0.034 A 
ATOM     24  C   UNL A   1      39.620  32.695  35.472  1.00  0.00     0.034 A 
ATOM     25  C   UNL A   1      41.540  28.250  31.014  1.00  0.00     0.049 A 
ATOM     26  C   UNL A   1      40.681  31.618  35.462  1.00  0.00     0.074 A 
ATOM     27  C   UNL A   1      42.601  27.373  31.098  1.00  0.00     0.029 A 
ATOM     28  N   UNL A   1      41.519  28.983  32.191  1.00  0.00    -0.354 N 
ATOM     29  N   UNL A   1      41.007  30.796  34.493  1.00  0.00    -0.248 NA
ATOM     30  C   UNL A   1      41.508  31.476  36.670  1.00  0.00     0.031 C 
ATOM     31  C   UNL A   1      43.209  27.559  32.344  1.00  0.00     0.029 A 
ATOM     32  C   UNL A   1      42.549  28.581  33.013  1.00  0.00     0.049 A 
ATOM     33  H   UNL A   1      40.865  29.687  32.407  1.00  0.00     0.167 HD
ATOM     34  C   UNL A   1      42.118  30.092  34.944  1.00  0.00     0.074 A 
ATOM     35  C   UNL A   1      42.400  30.573  36.281  1.00  0.00     0.031 C 
ATOM     36  C   UNL A   1      42.847  29.142  34.307  1.00  0.00     0.034 A 
BRANCH  23  37
ATOM     37  C   UNL A   1      40.657  27.546  28.730  1.00  0.00     0.023 A 
ATOM     38  C   UNL A   1      39.783  26.441  28.618  1.00  0.00     0.012 A 
ATOM     39  C   UNL A   1      41.638  27.755  27.748  1.00  0.00     0.148 A 
ATOM     40  C   UNL A   1      39.953  25.504  27.601  1.00  0.00     0.002 A 
ATOM     41  C   UNL A   1      41.753  26.855  26.698  1.00  0.00     0.091 A 
ATOM     42  F   UNL A   1      42.476  28.791  27.892  1.00  0.00    -0.205 F 
ATOM     43  C   UNL A   1      40.935  25.714  26.639  1.00  0.00     0.022 A 
BRANCH  41  44
ATOM     44  S   UNL A   1      42.922  27.088  25.358  1.00  0.00     0.127 S 
ATOM     45  O   UNL A   1      42.333  28.220  24.647  1.00  0.00    -0.237 OA
ATOM     46  O   UNL A   1      44.154  27.394  26.085  1.00  0.00    -0.237 OA
ATOM     47  O   UNL A   1      42.943  25.830  24.626  1.00  0.00    -0.744 OA
ENDBRANCH  41  44
ENDBRANCH  23  37
BRANCH  24  48
ATOM     48  C   UNL A   1      39.393  33.535  36.686  1.00  0.00     0.023 A 
ATOM     49  C   UNL A   1      39.827  34.876  36.689  1.00  0.00     0.012 A 
ATOM     50  C   UNL A   1      38.754  33.023  37.834  1.00  0.00     0.148 A 
ATOM     51  C   UNL A   1      39.667  35.679  37.821  1.00  0.00     0.002 A 
ATOM     52  C   UNL A   1      38.565  33.839  38.946  1.00  0.00     0.091 A 
ATOM     53  F   UNL A   1      38.332  31.751  37.808  1.00  0.00    -0.205 F 
ATOM     54  C   UNL A   1      39.036  35.162  38.947  1.00  0.00     0.022 A 
BRANCH  52  55
ATOM     55  S   UNL A   1      37.682  33.304  40.417  1.00  0.00     0.127 S 
ATOM     56  O   UNL A   1      36.342  33.055  39.889  1.00  0.00    -0.237 OA
ATOM     57  O   UNL A   1      38.430  32.104  40.790  1.00  0.00    -0.237 OA
ATOM     58  O   UNL A   1      37.789  34.406  41.363  1.00  0.00    -0.744 OA
ENDBRANCH  52  55
ENDBRANCH  24  48
BRANCH  36  59
ATOM     59  C   UNL A   1      44.082  28.615  34.981  1.00  0.00     0.023 A 
ATOM     60  C   UNL A   1      45.317  29.265  34.811  1.00  0.00     0.012 A 
ATOM     61  C   UNL A   1      43.959  27.583  35.934  1.00  0.00     0.148 A 
ATOM     62  C   UNL A   1      46.417  28.893  35.584  1.00  0.00     0.002 A 
ATOM     63  C   UNL A   1      45.040  27.259  36.740  1.00  0.00     0.091 A 
ATOM     64  F   UNL A   1      42.772  26.969  36.059  1.00  0.00    -0.205 F 
ATOM     65  C   UNL A   1      46.272  27.908  36.561  1.00  0.00     0.022 A 
BRANCH  63  66
ATOM     66  S   UNL A   1      44.904  26.104  38.109  1.00  0.00     0.127 S 
ATOM     67  O   UNL A   1      44.623  24.850  37.411  1.00  0.00    -0.237 OA
ATOM     68  O   UNL A   1      46.235  26.184  38.710  1.00  0.00    -0.237 OA
ATOM     69  O   UNL A   1      43.825  26.601  38.953  1.00  0.00    -0.744 OA
ENDBRANCH  63  66
ENDBRANCH  36  59
ENDBRANCH  10  11
ENDBRANCH   3   5
ENDBRANCH   2   3
ENDBRANCH   1   2
BRANCH   1  70
ATOM     70  C   UNL A   1      32.367  31.013  26.776  1.00  0.00     0.274 C 
BRANCH  70  71
ATOM     71  O   UNL A   1      31.930  30.179  25.680  1.00  0.00    -0.462 OA
BRANCH  71  72
ATOM     72  C   UNL A   1      32.781  29.172  25.304  1.00  0.00     0.312 C 
ATOM     73  O   UNL A   1      33.328  29.133  24.208  1.00  0.00    -0.252 OA
BRANCH  72  74
ATOM     74  C   UNL A   1      32.802  28.008  26.316  1.00  0.00     0.123 C 
ATOM     75  C   UNL A   1      31.478  27.329  26.492  1.00  0.00    -0.015 C 
ATOM     76  C   UNL A   1      33.708  26.812  26.015  1.00  0.00     0.043 C 
ATOM     77  C   UNL A   1      31.513  26.023  26.195  1.00  0.00    -0.011 C 
ATOM     78  C   UNL A   1      32.824  25.598  25.643  1.00  0.00     0.093 C 
BRANCH  78  79
ATOM     79  N   UNL A   1      33.391  24.384  26.212  1.00  0.00    -0.204 NA
ATOM     80  H   UNL A   1      32.797  24.158  27.009  1.00  0.00     0.142 HD
BRANCH  79  81
ATOM     81  S   UNL A   1      33.611  22.938  25.404  1.00  0.00     0.244 S 
ATOM     82  O   UNL A   1      33.140  21.915  26.315  1.00  0.00    -0.207 OA
ATOM     83  O   UNL A   1      33.054  23.035  24.075  1.00  0.00    -0.207 OA
BRANCH  81  84
ATOM     84  C   UNL A   1      35.362  22.691  25.269  1.00  0.00     0.121 A 
ATOM     85  C   UNL A   1      36.258  23.687  25.701  1.00  0.00     0.028 A 
ATOM     86  C   UNL A   1      35.841  21.424  24.954  1.00  0.00     0.181 A 
ATOM     87  C   UNL A   1      37.626  23.400  25.808  1.00  0.00     0.044 A 
ATOM     88  C   UNL A   1      37.199  21.140  25.077  1.00  0.00     0.195 A 
ATOM     89  F   UNL A   1      35.024  20.454  24.523  1.00  0.00    -0.202 F 
ATOM     90  C   UNL A   1      38.083  22.121  25.504  1.00  0.00     0.161 A 
ATOM     91  F   UNL A   1      37.649  19.909  24.794  1.00  0.00    -0.200 F 
ATOM     92  F   UNL A   1      39.386  21.834  25.631  1.00  0.00    -0.204 F 
ENDBRANCH  81  84
ENDBRANCH  79  81
ENDBRANCH  78  79
ENDBRANCH  72  74
ENDBRANCH  71  72
ENDBRANCH  70  71
ENDBRANCH   1  70
TORSDOF 17
ENDMDL
MODEL 2
REMARK VINA RESULT:     -11.8      5.723      8.844
REMARK SMILES O=C(OCCOC(=O)[C@H]1C=C[C@H](NS(=O)(=O)c2ccc(F)c(F)c2F)C1)c1ccc(-c2c3nc(c(-c4cccc(S(=O)(=O)[O-])c4F)c4ccc([nH]4)c(-c4cccc(S(=O)(=O)[O-])c4F)c4nc(c(-c5cccc(S(=O)(=O)[O-])c5F)c5ccc2[nH]5)C=C4)C=C3)cc1
REMARK SMILES IDX 4 1 3 2 2 3 1 4 27 5 28 6 89 7 29 8 88 9 30 10 31 11 32 12
REMARK SMILES IDX 82 13 33 14 87 15 81 16 83 17 34 18 86 19 80 20 79 21 35 23
REMARK SMILES IDX 67 24 47 25 66 26 48 27 51 28 65 29 84 30 49 31 50 32 64 34
REMARK SMILES IDX 85 35 52 36 36 37 37 38 45 39 38 40 40 41 46 42 39 43 41 44
REMARK SMILES IDX 42 45 43 46 44 47 68 48 69 49 77 50 70 51 72 52 78 53 71 54
REMARK SMILES IDX 73 55 74 56 75 57 76 58 53 59 54 60 62 61 55 62 57 63 63 64
REMARK SMILES IDX 56 65 58 66 59 67 60 68 61 69 5 70 6 71 7 72 8 73 9 74 10 75
REMARK SMILES IDX 26 76 11 77 12 78 13 79 14 81 15 82 16 83 17 84 18 85 24 86
REMARK SMILES IDX 19 87 22 88 25 89 20 90 23 91 21 92
REMARK H PARENT 83 22 51 33 13 80
REMARK Flexibility Score: inf
ROOT
ATOM      1  C   UNL A   1      37.650  19.928  24.993  1.00  0.00     0.275 C 
ENDROOT
BRANCH   1   2
ATOM      2  O   UNL A   1      38.231  21.130  25.502  1.00  0.00    -0.458 OA
BRANCH   2   3
ATOM      3  C   UNL A   1      39.389  21.295  26.173  1.00  0.00     0.338 C 
ATOM      4  O   UNL A   1      40.079  20.296  26.376  1.00  0.00    -0.246 OA
BRANCH   3   5
ATOM      5  C   UNL A   1      39.850  22.596  26.774  1.00  0.00     0.060 A 
ATOM      6  C   UNL A   1      40.831  22.797  27.758  1.00  0.00     0.016 A 
ATOM      7  C   UNL A   1      39.274  23.738  26.203  1.00  0.00     0.016 A 
ATOM      8  C   UNL A   1      41.340  24.074  28.046  1.00  0.00     0.010 A 
ATOM      9  C   UNL A   1      39.789  25.004  26.471  1.00  0.00     0.010 A 
ATOM     10  C   UNL A   1      40.856  25.181  27.365  1.00  0.00    -0.014 A 
BRANCH  10  11
ATOM     11  C   UNL A   1      41.298  26.561  27.657  1.00  0.00     0.031 A 
ATOM     12  C   UNL A   1      42.717  26.878  27.304  1.00  0.00     0.074 A 
ATOM     13  C   UNL A   1      40.538  27.444  28.337  1.00  0.00     0.049 A 
ATOM     14  N   UNL A   1      43.460  27.878  27.676  1.00  0.00    -0.248 NA
ATOM     15  C   UNL A   1      43.412  25.870  26.480  1.00  0.00     0.031 C 
ATOM     16  C   UNL A   1      39.147  27.250  28.744  1.00  0.00     0.029 A 
ATOM     17  N   UNL A   1      40.860  28.675  28.855  1.00  0.00    -0.354 N 
ATOM     18  C   UNL A   1      44.717  27.591  27.171  1.00  0.00     0.074 A 
ATOM     19  C   UNL A   1      44.664  26.271  26.590  1.00  0.00     0.031 C 
ATOM     20  C   UNL A   1      38.757  28.289  29.507  1.00  0.00     0.029 A 
ATOM     21  C   UNL A   1      39.865  29.232  29.629  1.00  0.00     0.049 A 
ATOM     22  H   UNL A   1      41.722  29.120  28.689  1.00  0.00     0.167 HD
ATOM     23  C   UNL A   1      45.806  28.388  27.120  1.00  0.00     0.034 A 
ATOM     24  C   UNL A   1      39.857  30.375  30.347  1.00  0.00     0.034 A 
ATOM     25  C   UNL A   1      45.816  29.724  27.629  1.00  0.00     0.049 A 
ATOM     26  C   UNL A   1      41.078  31.263  30.284  1.00  0.00     0.074 A 
ATOM     27  C   UNL A   1      46.822  30.665  27.563  1.00  0.00     0.029 A 
ATOM     28  N   UNL A   1      44.751  30.307  28.300  1.00  0.00    -0.354 N 
ATOM     29  N   UNL A   1      42.221  31.046  29.677  1.00  0.00    -0.248 NA
ATOM     30  C   UNL A   1      40.990  32.576  30.941  1.00  0.00     0.031 C 
ATOM     31  C   UNL A   1      46.373  31.813  28.222  1.00  0.00     0.029 A 
ATOM     32  C   UNL A   1      45.072  31.597  28.658  1.00  0.00     0.049 A 
ATOM     33  H   UNL A   1      43.893  29.863  28.493  1.00  0.00     0.167 HD
ATOM     34  C   UNL A   1      42.958  32.217  29.817  1.00  0.00     0.074 A 
ATOM     35  C   UNL A   1      42.138  33.135  30.580  1.00  0.00     0.031 C 
ATOM     36  C   UNL A   1      44.196  32.511  29.348  1.00  0.00     0.034 A 
BRANCH  23  37
ATOM     37  C   UNL A   1      47.022  27.809  26.458  1.00  0.00     0.023 A 
ATOM     38  C   UNL A   1      48.063  27.265  27.244  1.00  0.00     0.012 A 
ATOM     39  C   UNL A   1      47.180  27.896  25.066  1.00  0.00     0.148 A 
ATOM     40  C   UNL A   1      49.279  26.912  26.664  1.00  0.00     0.002 A 
ATOM     41  C   UNL A   1      48.368  27.474  24.487  1.00  0.00     0.091 A 
ATOM     42  F   UNL A   1      46.192  28.444  24.343  1.00  0.00    -0.205 F 
ATOM     43  C   UNL A   1      49.429  27.012  25.285  1.00  0.00     0.022 A 
BRANCH  41  44
ATOM     44  S   UNL A   1      48.624  27.473  22.713  1.00  0.00     0.127 S 
ATOM     45  O   UNL A   1      49.938  28.100  22.604  1.00  0.00    -0.237 OA
ATOM     46  O   UNL A   1      48.601  26.042  22.406  1.00  0.00    -0.237 OA
ATOM     47  O   UNL A   1      47.517  28.234  22.150  1.00  0.00    -0.744 OA
ENDBRANCH  41  44
ENDBRANCH  23  37
BRANCH  24  48
ATOM     48  C   UNL A   1      38.638  30.800  31.099  1.00  0.00     0.023 A 
ATOM     49  C   UNL A   1      38.552  30.534  32.480  1.00  0.00     0.012 A 
ATOM     50  C   UNL A   1      37.568  31.462  30.464  1.00  0.00     0.148 A 
ATOM     51  C   UNL A   1      37.411  30.882  33.207  1.00  0.00     0.002 A 
ATOM     52  C   UNL A   1      36.448  31.838  31.201  1.00  0.00     0.091 A 
ATOM     53  F   UNL A   1      37.674  31.722  29.154  1.00  0.00    -0.205 F 
ATOM     54  C   UNL A   1      36.361  31.534  32.569  1.00  0.00     0.022 A 
BRANCH  52  55
ATOM     55  S   UNL A   1      35.077  32.765  30.500  1.00  0.00     0.127 S 
ATOM     56  O   UNL A   1      34.161  32.851  31.636  1.00  0.00    -0.237 OA
ATOM     57  O   UNL A   1      35.728  34.023  30.137  1.00  0.00    -0.237 OA
ATOM     58  O   UNL A   1      34.604  31.976  29.372  1.00  0.00    -0.744 OA
ENDBRANCH  52  55
ENDBRANCH  24  48
BRANCH  36  59
ATOM     59  C   UNL A   1      44.725  33.904  29.544  1.00  0.00     0.023 A 
ATOM     60  C   UNL A   1      45.512  34.215  30.667  1.00  0.00     0.012 A 
ATOM     61  C   UNL A   1      44.589  34.844  28.502  1.00  0.00     0.148 A 
ATOM     62  C   UNL A   1      46.159  35.448  30.749  1.00  0.00     0.002 A 
ATOM     63  C   UNL A   1      45.283  36.043  28.563  1.00  0.00     0.091 A 
ATOM     64  F   UNL A   1      43.816  34.525  27.453  1.00  0.00    -0.205 F 
ATOM     65  C   UNL A   1      46.062  36.350  29.690  1.00  0.00     0.022 A 
BRANCH  63  66
ATOM     66  S   UNL A   1      45.324  37.199  27.189  1.00  0.00     0.127 S 
ATOM     67  O   UNL A   1      46.011  36.416  26.163  1.00  0.00    -0.237 OA
ATOM     68  O   UNL A   1      43.902  37.425  26.936  1.00  0.00    -0.237 OA
ATOM     69  O   UNL A   1      46.050  38.369  27.666  1.00  0.00    -0.744 OA
ENDBRANCH  63  66
ENDBRANCH  36  59
ENDBRANCH  10  11
ENDBRANCH   3   5
ENDBRANCH   2   3
ENDBRANCH   1   2
BRANCH   1  70
ATOM     70  C   UNL A   1      36.115  19.909  24.982  1.00  0.00     0.274 C 
BRANCH  70  71
ATOM     71  O   UNL A   1      35.467  21.190  24.826  1.00  0.00    -0.462 OA
BRANCH  71  72
ATOM     72  C   UNL A   1      34.224  21.316  25.394  1.00  0.00     0.312 C 
ATOM     73  O   UNL A   1      34.006  21.096  26.580  1.00  0.00    -0.252 OA
BRANCH  72  74
ATOM     74  C   UNL A   1      33.117  21.551  24.346  1.00  0.00     0.123 C 
ATOM     75  C   UNL A   1      31.778  21.870  24.936  1.00  0.00    -0.015 C 
ATOM     76  C   UNL A   1      33.293  22.713  23.367  1.00  0.00     0.043 C 
ATOM     77  C   UNL A   1      31.299  23.059  24.543  1.00  0.00    -0.011 C 
ATOM     78  C   UNL A   1      32.273  23.822  23.721  1.00  0.00     0.093 C 
BRANCH  78  79
ATOM     79  N   UNL A   1      31.747  24.416  22.501  1.00  0.00    -0.204 NA
ATOM     80  H   UNL A   1      30.757  24.574  22.683  1.00  0.00     0.142 HD
BRANCH  79  81
ATOM     81  S   UNL A   1      32.293  25.825  21.788  1.00  0.00     0.244 S 
ATOM     82  O   UNL A   1      33.679  25.572  21.450  1.00  0.00    -0.207 OA
ATOM     83  O   UNL A   1      31.364  26.242  20.764  1.00  0.00    -0.207 OA
BRANCH  81  84
ATOM     84  C   UNL A   1      32.328  27.060  23.060  1.00  0.00     0.121 A 
ATOM     85  C   UNL A   1      33.533  27.373  23.718  1.00  0.00     0.028 A 
ATOM     86  C   UNL A   1      31.215  27.875  23.239  1.00  0.00     0.181 A 
ATOM     87  C   UNL A   1      33.604  28.499  24.550  1.00  0.00     0.044 A 
ATOM     88  C   UNL A   1      31.296  29.000  24.054  1.00  0.00     0.195 A 
ATOM     89  F   UNL A   1      30.045  27.601  22.645  1.00  0.00    -0.202 F 
ATOM     90  C   UNL A   1      32.484  29.311  24.702  1.00  0.00     0.161 A 
ATOM     91  F   UNL A   1      30.224  29.793  24.202  1.00  0.00    -0.200 F 
ATOM     92  F   UNL A   1      32.555  30.403  25.475  1.00  0.00    -0.204 F 
ENDBRANCH  81  84
ENDBRANCH  79  81
ENDBRANCH  78  79
ENDBRANCH  72  74
ENDBRANCH  71  72
ENDBRANCH  70  71
ENDBRANCH   1  70
TORSDOF 17
ENDMDL
MODEL 3
REMARK VINA RESULT:     -11.7      2.008      8.002
REMARK SMILES O=C(OCCOC(=O)[C@H]1C=C[C@H](NS(=O)(=O)c2ccc(F)c(F)c2F)C1)c1ccc(-c2c3nc(c(-c4cccc(S(=O)(=O)[O-])c4F)c4ccc([nH]4)c(-c4cccc(S(=O)(=O)[O-])c4F)c4nc(c(-c5cccc(S(=O)(=O)[O-])c5F)c5ccc2[nH]5)C=C4)C=C3)cc1
REMARK SMILES IDX 4 1 3 2 2 3 1 4 27 5 28 6 89 7 29 8 88 9 30 10 31 11 32 12
REMARK SMILES IDX 82 13 33 14 87 15 81 16 83 17 34 18 86 19 80 20 79 21 35 23
REMARK SMILES IDX 67 24 47 25 66 26 48 27 51 28 65 29 84 30 49 31 50 32 64 34
REMARK SMILES IDX 85 35 52 36 36 37 37 38 45 39 38 40 40 41 46 42 39 43 41 44
REMARK SMILES IDX 42 45 43 46 44 47 68 48 69 49 77 50 70 51 72 52 78 53 71 54
REMARK SMILES IDX 73 55 74 56 75 57 76 58 53 59 54 60 62 61 55 62 57 63 63 64
REMARK SMILES IDX 56 65 58 66 59 67 60 68 61 69 5 70 6 71 7 72 8 73 9 74 10 75
REMARK SMILES IDX 26 76 11 77 12 78 13 79 14 81 15 82 16 83 17 84 18 85 24 86
REMARK SMILES IDX 19 87 22 88 25 89 20 90 23 91 21 92
REMARK H PARENT 83 22 51 33 13 80
REMARK Flexibility Score: inf
ROOT
ATOM      1  C   UNL A   1      31.382  31.153  25.741  1.00  0.00     0.275 C 
ENDROOT
BRANCH   1   2
ATOM      2  O   UNL A   1      32.062  31.200  26.997  1.00  0.00    -0.458 OA
BRANCH   2   3
ATOM      3  C   UNL A   1      33.046  32.031  27.400  1.00  0.00     0.338 C 
ATOM      4  O   UNL A   1      32.848  33.242  27.295  1.00  0.00    -0.246 OA
BRANCH   3   5
ATOM      5  C   UNL A   1      34.400  31.583  27.879  1.00  0.00     0.060 A 
ATOM      6  C   UNL A   1      35.543  32.367  28.105  1.00  0.00     0.016 A 
ATOM      7  C   UNL A   1      34.480  30.226  28.214  1.00  0.00     0.016 A 
ATOM      8  C   UNL A   1      36.663  31.865  28.788  1.00  0.00     0.010 A 
ATOM      9  C   UNL A   1      35.579  29.728  28.911  1.00  0.00     0.010 A 
ATOM     10  C   UNL A   1      36.665  30.553  29.241  1.00  0.00    -0.014 A 
BRANCH  10  11
ATOM     11  C   UNL A   1      37.829  29.937  29.913  1.00  0.00     0.031 A 
ATOM     12  C   UNL A   1      38.103  30.412  31.304  1.00  0.00     0.074 A 
ATOM     13  C   UNL A   1      38.689  29.116  29.277  1.00  0.00     0.049 A 
ATOM     14  N   UNL A   1      39.173  30.275  32.031  1.00  0.00    -0.248 NA
ATOM     15  C   UNL A   1      37.042  31.231  31.922  1.00  0.00     0.031 C 
ATOM     16  C   UNL A   1      38.537  28.590  27.922  1.00  0.00     0.029 A 
ATOM     17  N   UNL A   1      39.905  28.621  29.683  1.00  0.00    -0.354 N 
ATOM     18  C   UNL A   1      38.927  31.029  33.167  1.00  0.00     0.074 A 
ATOM     19  C   UNL A   1      37.677  31.722  32.969  1.00  0.00     0.031 C 
ATOM     20  C   UNL A   1      39.646  27.905  27.581  1.00  0.00     0.029 A 
ATOM     21  C   UNL A   1      40.582  27.929  28.702  1.00  0.00     0.049 A 
ATOM     22  H   UNL A   1      40.260  28.747  30.592  1.00  0.00     0.167 HD
ATOM     23  C   UNL A   1      39.639  31.081  34.313  1.00  0.00     0.034 A 
ATOM     24  C   UNL A   1      41.814  27.379  28.717  1.00  0.00     0.034 A 
ATOM     25  C   UNL A   1      40.833  30.324  34.521  1.00  0.00     0.049 A 
ATOM     26  C   UNL A   1      42.604  27.438  30.004  1.00  0.00     0.074 A 
ATOM     27  C   UNL A   1      41.600  30.218  35.662  1.00  0.00     0.029 A 
ATOM     28  N   UNL A   1      41.431  29.534  33.549  1.00  0.00    -0.354 N 
ATOM     29  N   UNL A   1      42.296  28.036  31.130  1.00  0.00    -0.248 NA
ATOM     30  C   UNL A   1      43.873  26.696  30.049  1.00  0.00     0.031 C 
ATOM     31  C   UNL A   1      42.682  29.382  35.371  1.00  0.00     0.029 A 
ATOM     32  C   UNL A   1      42.561  28.936  34.061  1.00  0.00     0.049 A 
ATOM     33  H   UNL A   1      41.097  29.419  32.630  1.00  0.00     0.167 HD
ATOM     34  C   UNL A   1      43.291  27.686  32.036  1.00  0.00     0.074 A 
ATOM     35  C   UNL A   1      44.221  26.836  31.323  1.00  0.00     0.031 C 
ATOM     36  C   UNL A   1      43.420  28.028  33.342  1.00  0.00     0.034 A 
BRANCH  23  37
ATOM     37  C   UNL A   1      39.088  31.961  35.397  1.00  0.00     0.023 A 
ATOM     38  C   UNL A   1      39.365  33.347  35.390  1.00  0.00     0.012 A 
ATOM     39  C   UNL A   1      38.385  31.400  36.475  1.00  0.00     0.148 A 
ATOM     40  C   UNL A   1      39.037  34.140  36.488  1.00  0.00     0.002 A 
ATOM     41  C   UNL A   1      37.998  32.212  37.532  1.00  0.00     0.091 A 
ATOM     42  F   UNL A   1      38.162  30.078  36.475  1.00  0.00    -0.205 F 
ATOM     43  C   UNL A   1      38.350  33.573  37.556  1.00  0.00     0.022 A 
BRANCH  41  44
ATOM     44  S   UNL A   1      37.028  31.598  38.908  1.00  0.00     0.127 S 
ATOM     45  O   UNL A   1      35.873  32.491  38.877  1.00  0.00    -0.237 OA
ATOM     46  O   UNL A   1      36.752  30.223  38.491  1.00  0.00    -0.237 OA
ATOM     47  O   UNL A   1      37.882  31.718  40.082  1.00  0.00    -0.744 OA
ENDBRANCH  41  44
ENDBRANCH  23  37
BRANCH  24  48
ATOM     48  C   UNL A   1      42.339  26.642  27.528  1.00  0.00     0.023 A 
ATOM     49  C   UNL A   1      43.037  27.350  26.530  1.00  0.00     0.012 A 
ATOM     50  C   UNL A   1      42.157  25.252  27.377  1.00  0.00     0.148 A 
ATOM     51  C   UNL A   1      43.508  26.700  25.386  1.00  0.00     0.002 A 
ATOM     52  C   UNL A   1      42.659  24.604  26.252  1.00  0.00     0.091 A 
ATOM     53  F   UNL A   1      41.506  24.591  28.344  1.00  0.00    -0.205 F 
ATOM     54  C   UNL A   1      43.320  25.329  25.248  1.00  0.00     0.022 A 
BRANCH  52  55
ATOM     55  S   UNL A   1      42.555  22.825  26.015  1.00  0.00     0.127 S 
ATOM     56  O   UNL A   1      43.392  22.328  27.106  1.00  0.00    -0.237 OA
ATOM     57  O   UNL A   1      41.121  22.589  26.182  1.00  0.00    -0.237 OA
ATOM     58  O   UNL A   1      43.062  22.577  24.673  1.00  0.00    -0.744 OA
ENDBRANCH  52  55
ENDBRANCH  24  48
BRANCH  36  59
ATOM     59  C   UNL A   1      44.539  27.417  34.136  1.00  0.00     0.023 A 
ATOM     60  C   UNL A   1      45.762  28.095  34.278  1.00  0.00     0.012 A 
ATOM     61  C   UNL A   1      44.291  26.254  34.893  1.00  0.00     0.148 A 
ATOM     62  C   UNL A   1      46.726  27.622  35.169  1.00  0.00     0.002 A 
ATOM     63  C   UNL A   1      45.229  25.823  35.820  1.00  0.00     0.091 A 
ATOM     64  F   UNL A   1      43.122  25.619  34.721  1.00  0.00    -0.205 F 
ATOM     65  C   UNL A   1      46.451  26.501  35.952  1.00  0.00     0.022 A 
BRANCH  63  66
ATOM     66  S   UNL A   1      44.902  24.477  36.962  1.00  0.00     0.127 S 
ATOM     67  O   UNL A   1      43.761  24.997  37.715  1.00  0.00    -0.237 OA
ATOM     68  O   UNL A   1      44.584  23.375  36.055  1.00  0.00    -0.237 OA
ATOM     69  O   UNL A   1      46.124  24.295  37.735  1.00  0.00    -0.744 OA
ENDBRANCH  63  66
ENDBRANCH  36  59
ENDBRANCH  10  11
ENDBRANCH   3   5
ENDBRANCH   2   3
ENDBRANCH   1   2
BRANCH   1  70
ATOM     70  C   UNL A   1      31.531  29.831  24.977  1.00  0.00     0.274 C 
BRANCH  70  71
ATOM     71  O   UNL A   1      30.643  29.644  23.854  1.00  0.00    -0.462 OA
BRANCH  71  72
ATOM     72  C   UNL A   1      30.655  28.404  23.268  1.00  0.00     0.312 C 
ATOM     73  O   UNL A   1      30.298  28.207  22.112  1.00  0.00    -0.252 OA
BRANCH  72  74
ATOM     74  C   UNL A   1      30.959  27.277  24.276  1.00  0.00     0.123 C 
ATOM     75  C   UNL A   1      29.813  26.341  24.509  1.00  0.00    -0.015 C 
ATOM     76  C   UNL A   1      32.079  26.292  23.934  1.00  0.00     0.043 C 
ATOM     77  C   UNL A   1      30.104  25.068  24.209  1.00  0.00    -0.011 C 
ATOM     78  C   UNL A   1      31.450  24.919  23.600  1.00  0.00     0.093 C 
BRANCH  78  79
ATOM     79  N   UNL A   1      32.279  23.852  24.141  1.00  0.00    -0.204 NA
ATOM     80  H   UNL A   1      31.633  23.230  24.627  1.00  0.00     0.142 HD
BRANCH  79  81
ATOM     81  S   UNL A   1      33.277  22.846  23.256  1.00  0.00     0.244 S 
ATOM     82  O   UNL A   1      32.529  21.616  23.089  1.00  0.00    -0.207 OA
ATOM     83  O   UNL A   1      33.775  23.552  22.099  1.00  0.00    -0.207 OA
BRANCH  81  84
ATOM     84  C   UNL A   1      34.646  22.435  24.304  1.00  0.00     0.121 A 
ATOM     85  C   UNL A   1      34.963  21.089  24.571  1.00  0.00     0.028 A 
ATOM     86  C   UNL A   1      35.541  23.437  24.668  1.00  0.00     0.181 A 
ATOM     87  C   UNL A   1      36.171  20.766  25.203  1.00  0.00     0.044 A 
ATOM     88  C   UNL A   1      36.746  23.108  25.282  1.00  0.00     0.195 A 
ATOM     89  F   UNL A   1      35.269  24.730  24.447  1.00  0.00    -0.202 F 
ATOM     90  C   UNL A   1      37.060  21.781  25.544  1.00  0.00     0.161 A 
ATOM     91  F   UNL A   1      37.613  24.079  25.607  1.00  0.00    -0.200 F 
ATOM     92  F   UNL A   1      38.228  21.475  26.123  1.00  0.00    -0.204 F 
ENDBRANCH  81  84
ENDBRANCH  79  81
ENDBRANCH  78  79
ENDBRANCH  72  74
ENDBRANCH  71  72
ENDBRANCH  70  71
ENDBRANCH   1  70
TORSDOF 17
ENDMDL
