MODEL 1
REMARK VINA RESULT:     -13.5      0.000      0.000
REMARK SMILES CC1=C([C@H](NC(=O)[C@@H]2[C@H](C)c3cc(F)ccc3N2C)C(=O)OCCOC(=O)c2ccc(-c3c4nc(c(-c5cccc(S(=O)(=O)[O-])c5F)c5ccc([nH]5)c(-c5cccc(S(=O)(=O)[O-])c5F)c5nc(c(-c6cccc(S(=O)(=O)[O-])c6F)c6ccc3[nH]6)C=C5)C=C4)cc2)[C@@H](C)N=N1
REMARK SMILES IDX 24 1 23 2 22 3 20 4 21 5 4 6 3 7 1 8 2 9 94 10 91 11 93 12
REMARK SMILES IDX 92 13 5 14 6 15 7 17 8 18 9 19 18 20 11 21 10 22 17 23 19 24
REMARK SMILES IDX 12 25 16 26 13 27 15 28 14 29 25 30 26 31 27 32 28 33 29 34
REMARK SMILES IDX 90 35 30 36 89 37 31 38 32 39 33 40 83 41 34 42 88 43 82 44
REMARK SMILES IDX 84 45 35 46 87 47 81 48 80 49 36 51 68 52 48 53 67 54 49 55
REMARK SMILES IDX 52 56 66 57 85 58 50 59 51 60 65 62 86 63 53 64 37 65 38 66
REMARK SMILES IDX 46 67 39 68 41 69 47 70 40 71 42 72 43 73 44 74 45 75 69 76
REMARK SMILES IDX 70 77 78 78 71 79 73 80 79 81 72 82 74 83 75 84 76 85 77 86
REMARK SMILES IDX 54 87 55 88 63 89 56 90 58 91 64 92 57 93 59 94 60 95 61 96
REMARK SMILES IDX 62 97
REMARK H PARENT 5 16 84 50 52 61
REMARK Flexibility Score: inf
ROOT
ATOM      1  C   UNL A   1      33.069  30.846  27.645  1.00  0.00     0.275 C 
ENDROOT
BRANCH   1   2
ATOM      2  C   UNL A   1      32.767  29.926  26.443  1.00  0.00     0.274 C 
BRANCH   2   3
ATOM      3  O   UNL A   1      33.112  28.529  26.666  1.00  0.00    -0.460 OA
BRANCH   3   4
ATOM      4  C   UNL A   1      32.002  27.768  26.853  1.00  0.00     0.333 C 
ATOM      5  O   UNL A   1      31.293  27.929  27.840  1.00  0.00    -0.249 OA
BRANCH   4   6
ATOM      6  C   UNL A   1      31.781  26.575  25.891  1.00  0.00     0.223 C 
BRANCH   6   7
ATOM      7  C   UNL A   1      31.337  27.186  24.591  1.00  0.00     0.012 C 
ATOM      8  C   UNL A   1      28.988  26.186  24.055  1.00  0.00     0.069 C 
ATOM      9  C   UNL A   1      30.204  27.049  23.869  1.00  0.00     0.064 C 
ATOM     10  N   UNL A   1      30.190  27.867  22.765  1.00  0.00    -0.160 NA
ATOM     11  C   UNL A   1      32.217  28.010  23.712  1.00  0.00     0.156 C 
ATOM     12  N   UNL A   1      31.274  28.496  22.674  1.00  0.00    -0.181 NA
ATOM     13  C   UNL A   1      33.242  27.135  22.992  1.00  0.00     0.040 C 
ENDBRANCH   6   7
BRANCH   6  14
ATOM     14  N   UNL A   1      30.916  25.488  26.362  1.00  0.00    -0.337 N 
ATOM     15  C   UNL A   1      31.049  24.111  26.421  1.00  0.00     0.244 C 
ATOM     16  H   UNL A   1      30.052  25.806  26.710  1.00  0.00     0.164 HD
ATOM     17  O   UNL A   1      30.218  23.595  27.183  1.00  0.00    -0.273 OA
BRANCH  15  18
ATOM     18  C   UNL A   1      32.050  23.237  25.555  1.00  0.00     0.178 C 
ATOM     19  C   UNL A   1      33.148  22.404  26.324  1.00  0.00     0.050 C 
ATOM     20  N   UNL A   1      32.785  24.021  24.492  1.00  0.00    -0.362 N 
ATOM     21  C   UNL A   1      34.314  22.469  25.377  1.00  0.00    -0.016 A 
ATOM     22  C   UNL A   1      33.627  22.926  27.673  1.00  0.00     0.015 C 
ATOM     23  C   UNL A   1      34.121  23.487  24.456  1.00  0.00     0.041 A 
ATOM     24  C   UNL A   1      32.284  23.795  23.152  1.00  0.00     0.144 C 
ATOM     25  C   UNL A   1      35.442  21.657  25.314  1.00  0.00     0.045 A 
ATOM     26  C   UNL A   1      35.098  23.752  23.487  1.00  0.00     0.029 A 
ATOM     27  C   UNL A   1      36.390  21.900  24.320  1.00  0.00     0.123 A 
ATOM     28  C   UNL A   1      36.234  22.945  23.413  1.00  0.00     0.041 A 
ATOM     29  F   UNL A   1      37.477  21.121  24.236  1.00  0.00    -0.207 F 
ENDBRANCH  15  18
ENDBRANCH   6  14
ENDBRANCH   4   6
ENDBRANCH   3   4
ENDBRANCH   2   3
ENDBRANCH   1   2
BRANCH   1  30
ATOM     30  O   UNL A   1      34.219  31.683  27.410  1.00  0.00    -0.458 OA
BRANCH  30  31
ATOM     31  C   UNL A   1      35.022  31.913  28.482  1.00  0.00     0.338 C 
ATOM     32  O   UNL A   1      34.647  32.293  29.583  1.00  0.00    -0.246 OA
BRANCH  31  33
ATOM     33  C   UNL A   1      36.352  31.292  28.232  1.00  0.00     0.060 A 
ATOM     34  C   UNL A   1      36.522  30.046  27.606  1.00  0.00     0.016 A 
ATOM     35  C   UNL A   1      37.424  31.864  28.916  1.00  0.00     0.016 A 
ATOM     36  C   UNL A   1      37.708  29.311  27.799  1.00  0.00     0.010 A 
ATOM     37  C   UNL A   1      38.587  31.121  29.107  1.00  0.00     0.010 A 
ATOM     38  C   UNL A   1      38.722  29.807  28.625  1.00  0.00    -0.014 A 
BRANCH  38  39
ATOM     39  C   UNL A   1      40.024  29.108  28.774  1.00  0.00     0.031 A 
ATOM     40  C   UNL A   1      40.353  28.864  30.191  1.00  0.00     0.074 A 
ATOM     41  C   UNL A   1      40.857  28.545  27.853  1.00  0.00     0.049 A 
ATOM     42  N   UNL A   1      41.248  29.520  30.849  1.00  0.00    -0.248 NA
ATOM     43  C   UNL A   1      39.568  27.923  30.997  1.00  0.00     0.031 C 
ATOM     44  C   UNL A   1      40.698  28.500  26.411  1.00  0.00     0.029 A 
ATOM     45  N   UNL A   1      41.948  27.720  28.012  1.00  0.00    -0.354 N 
ATOM     46  C   UNL A   1      41.327  28.879  32.068  1.00  0.00     0.074 A 
ATOM     47  C   UNL A   1      40.146  28.063  32.190  1.00  0.00     0.031 C 
ATOM     48  C   UNL A   1      41.425  27.513  25.848  1.00  0.00     0.029 A 
ATOM     49  C   UNL A   1      42.270  26.956  26.874  1.00  0.00     0.049 A 
ATOM     50  H   UNL A   1      42.461  27.668  28.850  1.00  0.00     0.167 HD
ATOM     51  C   UNL A   1      42.496  28.836  32.755  1.00  0.00     0.034 A 
ATOM     52  C   UNL A   1      43.219  25.997  26.713  1.00  0.00     0.034 A 
ATOM     53  C   UNL A   1      43.490  29.730  32.224  1.00  0.00     0.049 A 
ATOM     54  C   UNL A   1      44.297  26.388  27.644  1.00  0.00     0.074 A 
ATOM     55  C   UNL A   1      43.514  31.076  31.912  1.00  0.00     0.029 A 
ATOM     56  N   UNL A   1      44.536  29.170  31.531  1.00  0.00    -0.354 N 
ATOM     57  N   UNL A   1      44.974  27.499  27.525  1.00  0.00    -0.248 NA
ATOM     58  C   UNL A   1      44.324  25.766  28.953  1.00  0.00     0.031 C 
ATOM     59  C   UNL A   1      44.248  31.162  30.693  1.00  0.00     0.029 A 
ATOM     60  C   UNL A   1      44.689  29.877  30.367  1.00  0.00     0.049 A 
ATOM     61  H   UNL A   1      45.077  28.399  31.818  1.00  0.00     0.167 HD
ATOM     62  C   UNL A   1      45.079  27.961  28.828  1.00  0.00     0.074 A 
ATOM     63  C   UNL A   1      44.771  26.803  29.664  1.00  0.00     0.031 C 
ATOM     64  C   UNL A   1      45.112  29.298  29.108  1.00  0.00     0.034 A 
BRANCH  51  65
ATOM     65  C   UNL A   1      42.829  27.714  33.682  1.00  0.00     0.023 A 
ATOM     66  C   UNL A   1      43.748  26.745  33.248  1.00  0.00     0.012 A 
ATOM     67  C   UNL A   1      42.124  27.475  34.883  1.00  0.00     0.148 A 
ATOM     68  C   UNL A   1      43.984  25.595  34.004  1.00  0.00     0.002 A 
ATOM     69  C   UNL A   1      42.426  26.378  35.673  1.00  0.00     0.091 A 
ATOM     70  F   UNL A   1      41.079  28.252  35.201  1.00  0.00    -0.205 F 
ATOM     71  C   UNL A   1      43.344  25.424  35.230  1.00  0.00     0.022 A 
BRANCH  69  72
ATOM     72  S   UNL A   1      41.674  26.154  37.287  1.00  0.00     0.127 S 
ATOM     73  O   UNL A   1      41.207  24.773  37.200  1.00  0.00    -0.237 OA
ATOM     74  O   UNL A   1      42.814  26.372  38.180  1.00  0.00    -0.237 OA
ATOM     75  O   UNL A   1      40.640  27.177  37.374  1.00  0.00    -0.744 OA
ENDBRANCH  69  72
ENDBRANCH  51  65
BRANCH  52  76
ATOM     76  C   UNL A   1      43.250  24.747  25.896  1.00  0.00     0.023 A 
ATOM     77  C   UNL A   1      44.220  24.593  24.880  1.00  0.00     0.012 A 
ATOM     78  C   UNL A   1      42.527  23.589  26.270  1.00  0.00     0.148 A 
ATOM     79  C   UNL A   1      44.503  23.338  24.317  1.00  0.00     0.002 A 
ATOM     80  C   UNL A   1      42.810  22.340  25.712  1.00  0.00     0.091 A 
ATOM     81  F   UNL A   1      41.594  23.694  27.219  1.00  0.00    -0.205 F 
ATOM     82  C   UNL A   1      43.813  22.207  24.746  1.00  0.00     0.022 A 
BRANCH  80  83
ATOM     83  S   UNL A   1      41.933  20.843  26.206  1.00  0.00     0.127 S 
ATOM     84  O   UNL A   1      42.548  19.829  25.349  1.00  0.00    -0.237 OA
ATOM     85  O   UNL A   1      42.277  20.730  27.620  1.00  0.00    -0.237 OA
ATOM     86  O   UNL A   1      40.524  21.091  25.916  1.00  0.00    -0.744 OA
ENDBRANCH  80  83
ENDBRANCH  52  76
BRANCH  64  87
ATOM     87  C   UNL A   1      45.336  30.284  27.982  1.00  0.00     0.023 A 
ATOM     88  C   UNL A   1      44.271  30.881  27.277  1.00  0.00     0.012 A 
ATOM     89  C   UNL A   1      46.635  30.797  27.811  1.00  0.00     0.148 A 
ATOM     90  C   UNL A   1      44.495  31.975  26.431  1.00  0.00     0.002 A 
ATOM     91  C   UNL A   1      46.848  31.907  27.002  1.00  0.00     0.091 A 
ATOM     92  F   UNL A   1      47.633  30.218  28.495  1.00  0.00    -0.205 F 
ATOM     93  C   UNL A   1      45.781  32.499  26.309  1.00  0.00     0.022 A 
BRANCH  91  94
ATOM     94  S   UNL A   1      48.452  32.707  26.894  1.00  0.00     0.127 S 
ATOM     95  O   UNL A   1      48.196  33.778  25.932  1.00  0.00    -0.237 OA
ATOM     96  O   UNL A   1      48.666  33.160  28.269  1.00  0.00    -0.237 OA
ATOM     97  O   UNL A   1      49.389  31.683  26.448  1.00  0.00    -0.744 OA
ENDBRANCH  91  94
ENDBRANCH  64  87
ENDBRANCH  38  39
ENDBRANCH  31  33
ENDBRANCH  30  31
ENDBRANCH   1  30
TORSDOF 17
ENDMDL
MODEL 2
REMARK VINA RESULT:     -13.4      3.215      9.014
REMARK SMILES CC1=C([C@H](NC(=O)[C@@H]2[C@H](C)c3cc(F)ccc3N2C)C(=O)OCCOC(=O)c2ccc(-c3c4nc(c(-c5cccc(S(=O)(=O)[O-])c5F)c5ccc([nH]5)c(-c5cccc(S(=O)(=O)[O-])c5F)c5nc(c(-c6cccc(S(=O)(=O)[O-])c6F)c6ccc3[nH]6)C=C5)C=C4)cc2)[C@@H](C)N=N1
REMARK SMILES IDX 24 1 23 2 22 3 20 4 21 5 4 6 3 7 1 8 2 9 94 10 91 11 93 12
REMARK SMILES IDX 92 13 5 14 6 15 7 17 8 18 9 19 18 20 11 21 10 22 17 23 19 24
REMARK SMILES IDX 12 25 16 26 13 27 15 28 14 29 25 30 26 31 27 32 28 33 29 34
REMARK SMILES IDX 90 35 30 36 89 37 31 38 32 39 33 40 83 41 34 42 88 43 82 44
REMARK SMILES IDX 84 45 35 46 87 47 81 48 80 49 36 51 68 52 48 53 67 54 49 55
REMARK SMILES IDX 52 56 66 57 85 58 50 59 51 60 65 62 86 63 53 64 37 65 38 66
REMARK SMILES IDX 46 67 39 68 41 69 47 70 40 71 42 72 43 73 44 74 45 75 69 76
REMARK SMILES IDX 70 77 78 78 71 79 73 80 79 81 72 82 74 83 75 84 76 85 77 86
REMARK SMILES IDX 54 87 55 88 63 89 56 90 58 91 64 92 57 93 59 94 60 95 61 96
REMARK SMILES IDX 62 97
REMARK H PARENT 5 16 84 50 52 61
REMARK Flexibility Score: inf
ROOT
ATOM      1  C   UNL A   1      37.773  20.810  25.237  1.00  0.00     0.275 C 
ENDROOT
BRANCH   1   2
ATOM      2  C   UNL A   1      36.305  21.199  24.966  1.00  0.00     0.274 C 
BRANCH   2   3
ATOM      3  O   UNL A   1      35.386  20.069  24.958  1.00  0.00    -0.460 OA
BRANCH   3   4
ATOM      4  C   UNL A   1      34.158  20.426  25.418  1.00  0.00     0.333 C 
ATOM      5  O   UNL A   1      34.010  20.801  26.577  1.00  0.00    -0.249 OA
BRANCH   4   6
ATOM      6  C   UNL A   1      32.941  20.156  24.499  1.00  0.00     0.223 C 
BRANCH   6   7
ATOM      7  C   UNL A   1      33.154  18.771  23.951  1.00  0.00     0.012 C 
ATOM      8  C   UNL A   1      32.160  18.760  21.539  1.00  0.00     0.069 C 
ATOM      9  C   UNL A   1      32.864  18.221  22.752  1.00  0.00     0.064 C 
ATOM     10  N   UNL A   1      33.310  16.925  22.656  1.00  0.00    -0.160 NA
ATOM     11  C   UNL A   1      33.629  17.615  24.764  1.00  0.00     0.156 C 
ATOM     12  N   UNL A   1      33.826  16.558  23.741  1.00  0.00    -0.181 NA
ATOM     13  C   UNL A   1      32.525  17.115  25.697  1.00  0.00     0.040 C 
ENDBRANCH   6   7
BRANCH   6  14
ATOM     14  N   UNL A   1      32.641  21.161  23.474  1.00  0.00    -0.337 N 
ATOM     15  C   UNL A   1      32.668  22.544  23.448  1.00  0.00     0.244 C 
ATOM     16  H   UNL A   1      32.359  20.765  22.618  1.00  0.00     0.164 HD
ATOM     17  O   UNL A   1      32.652  22.989  22.291  1.00  0.00    -0.273 OA
BRANCH  15  18
ATOM     18  C   UNL A   1      32.609  23.497  24.716  1.00  0.00     0.178 C 
ATOM     19  C   UNL A   1      31.272  24.298  24.967  1.00  0.00     0.050 C 
ATOM     20  N   UNL A   1      33.725  24.515  24.769  1.00  0.00    -0.362 N 
ATOM     21  C   UNL A   1      31.782  25.590  25.542  1.00  0.00    -0.016 A 
ATOM     22  C   UNL A   1      30.409  24.646  23.759  1.00  0.00     0.015 C 
ATOM     23  C   UNL A   1      33.136  25.725  25.279  1.00  0.00     0.041 A 
ATOM     24  C   UNL A   1      34.757  24.196  25.734  1.00  0.00     0.144 C 
ATOM     25  C   UNL A   1      31.101  26.552  26.281  1.00  0.00     0.045 A 
ATOM     26  C   UNL A   1      33.823  26.871  25.700  1.00  0.00     0.029 A 
ATOM     27  C   UNL A   1      31.801  27.671  26.733  1.00  0.00     0.123 A 
ATOM     28  C   UNL A   1      33.151  27.845  26.442  1.00  0.00     0.041 A 
ATOM     29  F   UNL A   1      31.165  28.604  27.456  1.00  0.00    -0.207 F 
ENDBRANCH  15  18
ENDBRANCH   6  14
ENDBRANCH   4   6
ENDBRANCH   3   4
ENDBRANCH   2   3
ENDBRANCH   1   2
BRANCH   1  30
ATOM     30  O   UNL A   1      38.611  21.966  25.438  1.00  0.00    -0.458 OA
BRANCH  30  31
ATOM     31  C   UNL A   1      39.646  21.813  26.306  1.00  0.00     0.338 C 
ATOM     32  O   UNL A   1      40.522  20.963  26.225  1.00  0.00    -0.246 OA
BRANCH  31  33
ATOM     33  C   UNL A   1      39.760  23.039  27.144  1.00  0.00     0.060 A 
ATOM     34  C   UNL A   1      38.888  24.134  27.040  1.00  0.00     0.016 A 
ATOM     35  C   UNL A   1      40.958  23.184  27.842  1.00  0.00     0.016 A 
ATOM     36  C   UNL A   1      39.288  25.405  27.496  1.00  0.00     0.010 A 
ATOM     37  C   UNL A   1      41.345  24.448  28.279  1.00  0.00     0.010 A 
ATOM     38  C   UNL A   1      40.561  25.593  28.045  1.00  0.00    -0.014 A 
BRANCH  38  39
ATOM     39  C   UNL A   1      40.981  26.893  28.626  1.00  0.00     0.031 A 
ATOM     40  C   UNL A   1      42.262  27.355  28.059  1.00  0.00     0.074 A 
ATOM     41  C   UNL A   1      40.333  27.766  29.448  1.00  0.00     0.049 A 
ATOM     42  N   UNL A   1      43.385  27.328  28.693  1.00  0.00    -0.248 NA
ATOM     43  C   UNL A   1      42.362  27.762  26.653  1.00  0.00     0.031 C 
ATOM     44  C   UNL A   1      39.007  27.637  30.025  1.00  0.00     0.029 A 
ATOM     45  N   UNL A   1      40.640  29.059  29.811  1.00  0.00    -0.354 N 
ATOM     46  C   UNL A   1      44.274  27.975  27.860  1.00  0.00     0.074 A 
ATOM     47  C   UNL A   1      43.666  28.025  26.555  1.00  0.00     0.031 C 
ATOM     48  C   UNL A   1      38.496  28.828  30.401  1.00  0.00     0.029 A 
ATOM     49  C   UNL A   1      39.542  29.810  30.271  1.00  0.00     0.049 A 
ATOM     50  H   UNL A   1      41.551  29.427  29.753  1.00  0.00     0.167 HD
ATOM     51  C   UNL A   1      45.312  28.685  28.371  1.00  0.00     0.034 A 
ATOM     52  C   UNL A   1      39.476  31.120  30.625  1.00  0.00     0.034 A 
ATOM     53  C   UNL A   1      45.517  28.446  29.774  1.00  0.00     0.049 A 
ATOM     54  C   UNL A   1      40.824  31.430  31.141  1.00  0.00     0.074 A 
ATOM     55  C   UNL A   1      45.673  27.313  30.550  1.00  0.00     0.029 A 
ATOM     56  N   UNL A   1      45.150  29.445  30.643  1.00  0.00    -0.354 N 
ATOM     57  N   UNL A   1      41.329  30.860  32.202  1.00  0.00    -0.248 NA
ATOM     58  C   UNL A   1      41.776  32.038  30.234  1.00  0.00     0.031 C 
ATOM     59  C   UNL A   1      44.929  27.573  31.739  1.00  0.00     0.029 A 
ATOM     60  C   UNL A   1      44.420  28.870  31.651  1.00  0.00     0.049 A 
ATOM     61  H   UNL A   1      45.372  30.400  30.557  1.00  0.00     0.167 HD
ATOM     62  C   UNL A   1      42.644  30.601  31.843  1.00  0.00     0.074 A 
ATOM     63  C   UNL A   1      42.889  31.452  30.680  1.00  0.00     0.031 C 
ATOM     64  C   UNL A   1      43.314  29.515  32.329  1.00  0.00     0.034 A 
BRANCH  51  65
ATOM     65  C   UNL A   1      45.897  29.857  27.655  1.00  0.00     0.023 A 
ATOM     66  C   UNL A   1      47.294  29.947  27.560  1.00  0.00     0.012 A 
ATOM     67  C   UNL A   1      45.127  30.968  27.244  1.00  0.00     0.148 A 
ATOM     68  C   UNL A   1      47.903  31.092  27.040  1.00  0.00     0.002 A 
ATOM     69  C   UNL A   1      45.730  32.063  26.646  1.00  0.00     0.091 A 
ATOM     70  F   UNL A   1      43.820  31.012  27.538  1.00  0.00    -0.205 F 
ATOM     71  C   UNL A   1      47.121  32.138  26.557  1.00  0.00     0.022 A 
BRANCH  69  72
ATOM     72  S   UNL A   1      44.757  33.402  25.952  1.00  0.00     0.127 S 
ATOM     73  O   UNL A   1      43.861  32.676  25.056  1.00  0.00    -0.237 OA
ATOM     74  O   UNL A   1      44.125  33.962  27.147  1.00  0.00    -0.237 OA
ATOM     75  O   UNL A   1      45.723  34.287  25.314  1.00  0.00    -0.744 OA
ENDBRANCH  69  72
ENDBRANCH  51  65
BRANCH  52  76
ATOM     76  C   UNL A   1      38.391  32.139  30.492  1.00  0.00     0.023 A 
ATOM     77  C   UNL A   1      37.806  32.384  29.230  1.00  0.00     0.012 A 
ATOM     78  C   UNL A   1      37.729  32.681  31.619  1.00  0.00     0.148 A 
ATOM     79  C   UNL A   1      36.587  33.072  29.104  1.00  0.00     0.002 A 
ATOM     80  C   UNL A   1      36.516  33.363  31.496  1.00  0.00     0.091 A 
ATOM     81  F   UNL A   1      38.256  32.482  32.830  1.00  0.00    -0.205 F 
ATOM     82  C   UNL A   1      35.932  33.544  30.238  1.00  0.00     0.022 A 
BRANCH  80  83
ATOM     83  S   UNL A   1      35.632  34.022  32.923  1.00  0.00     0.127 S 
ATOM     84  O   UNL A   1      35.451  32.830  33.751  1.00  0.00    -0.237 OA
ATOM     85  O   UNL A   1      36.580  34.993  33.459  1.00  0.00    -0.237 OA
ATOM     86  O   UNL A   1      34.387  34.578  32.400  1.00  0.00    -0.744 OA
ENDBRANCH  80  83
ENDBRANCH  52  76
BRANCH  64  87
ATOM     87  C   UNL A   1      42.731  28.748  33.496  1.00  0.00     0.023 A 
ATOM     88  C   UNL A   1      41.643  27.864  33.352  1.00  0.00     0.012 A 
ATOM     89  C   UNL A   1      43.460  28.737  34.700  1.00  0.00     0.148 A 
ATOM     90  C   UNL A   1      41.298  26.977  34.380  1.00  0.00     0.002 A 
ATOM     91  C   UNL A   1      43.140  27.828  35.703  1.00  0.00     0.091 A 
ATOM     92  F   UNL A   1      44.495  29.582  34.815  1.00  0.00    -0.205 F 
ATOM     93  C   UNL A   1      42.059  26.947  35.548  1.00  0.00     0.022 A 
BRANCH  91  94
ATOM     94  S   UNL A   1      44.148  27.652  37.178  1.00  0.00     0.127 S 
ATOM     95  O   UNL A   1      45.427  27.210  36.624  1.00  0.00    -0.237 OA
ATOM     96  O   UNL A   1      44.153  29.014  37.714  1.00  0.00    -0.237 OA
ATOM     97  O   UNL A   1      43.468  26.677  38.022  1.00  0.00    -0.744 OA
ENDBRANCH  91  94
ENDBRANCH  64  87
ENDBRANCH  38  39
ENDBRANCH  31  33
ENDBRANCH  30  31
ENDBRANCH   1  30
TORSDOF 17
ENDMDL
MODEL 3
REMARK VINA RESULT:     -13.3      3.096      8.858
REMARK SMILES CC1=C([C@H](NC(=O)[C@@H]2[C@H](C)c3cc(F)ccc3N2C)C(=O)OCCOC(=O)c2ccc(-c3c4nc(c(-c5cccc(S(=O)(=O)[O-])c5F)c5ccc([nH]5)c(-c5cccc(S(=O)(=O)[O-])c5F)c5nc(c(-c6cccc(S(=O)(=O)[O-])c6F)c6ccc3[nH]6)C=C5)C=C4)cc2)[C@@H](C)N=N1
REMARK SMILES IDX 24 1 23 2 22 3 20 4 21 5 4 6 3 7 1 8 2 9 94 10 91 11 93 12
REMARK SMILES IDX 92 13 5 14 6 15 7 17 8 18 9 19 18 20 11 21 10 22 17 23 19 24
REMARK SMILES IDX 12 25 16 26 13 27 15 28 14 29 25 30 26 31 27 32 28 33 29 34
REMARK SMILES IDX 90 35 30 36 89 37 31 38 32 39 33 40 83 41 34 42 88 43 82 44
REMARK SMILES IDX 84 45 35 46 87 47 81 48 80 49 36 51 68 52 48 53 67 54 49 55
REMARK SMILES IDX 52 56 66 57 85 58 50 59 51 60 65 62 86 63 53 64 37 65 38 66
REMARK SMILES IDX 46 67 39 68 41 69 47 70 40 71 42 72 43 73 44 74 45 75 69 76
REMARK SMILES IDX 70 77 78 78 71 79 73 80 79 81 72 82 74 83 75 84 76 85 77 86
REMARK SMILES IDX 54 87 55 88 63 89 56 90 58 91 64 92 57 93 59 94 60 95 61 96
REMARK SMILES IDX 62 97
REMARK H PARENT 5 16 84 50 52 61
REMARK Flexibility Score: inf
ROOT
ATOM      1  C   UNL A   1      37.888  20.960  25.053  1.00  0.00     0.275 C 
ENDROOT
BRANCH   1   2
ATOM      2  C   UNL A   1      36.398  21.348  25.170  1.00  0.00     0.274 C 
BRANCH   2   3
ATOM      3  O   UNL A   1      35.897  22.115  24.039  1.00  0.00    -0.460 OA
BRANCH   3   4
ATOM      4  C   UNL A   1      35.397  23.315  24.436  1.00  0.00     0.333 C 
ATOM      5  O   UNL A   1      36.064  24.066  25.142  1.00  0.00    -0.249 OA
BRANCH   4   6
ATOM      6  C   UNL A   1      33.907  23.607  24.136  1.00  0.00     0.223 C 
BRANCH   6   7
ATOM      7  C   UNL A   1      33.170  22.351  24.511  1.00  0.00     0.012 C 
ATOM      8  C   UNL A   1      32.064  21.452  22.325  1.00  0.00     0.069 C 
ATOM      9  C   UNL A   1      32.454  21.472  23.776  1.00  0.00     0.064 C 
ATOM     10  N   UNL A   1      32.013  20.408  24.526  1.00  0.00    -0.160 NA
ATOM     11  C   UNL A   1      32.955  21.895  25.914  1.00  0.00     0.156 C 
ATOM     12  N   UNL A   1      32.341  20.556  25.729  1.00  0.00    -0.181 NA
ATOM     13  C   UNL A   1      31.907  22.760  26.613  1.00  0.00     0.040 C 
ENDBRANCH   6   7
BRANCH   6  14
ATOM     14  N   UNL A   1      33.580  24.111  22.798  1.00  0.00    -0.337 N 
ATOM     15  C   UNL A   1      33.053  25.298  22.321  1.00  0.00     0.244 C 
ATOM     16  H   UNL A   1      33.779  23.464  22.083  1.00  0.00     0.164 HD
ATOM     17  O   UNL A   1      33.238  25.434  21.102  1.00  0.00    -0.273 OA
BRANCH  15  18
ATOM     18  C   UNL A   1      32.203  26.341  23.162  1.00  0.00     0.178 C 
ATOM     19  C   UNL A   1      32.730  27.827  23.231  1.00  0.00     0.050 C 
ATOM     20  N   UNL A   1      31.954  25.917  24.591  1.00  0.00    -0.362 N 
ATOM     21  C   UNL A   1      32.339  28.236  24.624  1.00  0.00    -0.016 A 
ATOM     22  C   UNL A   1      34.230  28.061  23.091  1.00  0.00     0.015 C 
ATOM     23  C   UNL A   1      32.049  27.114  25.384  1.00  0.00     0.041 A 
ATOM     24  C   UNL A   1      30.605  25.447  24.831  1.00  0.00     0.144 C 
ATOM     25  C   UNL A   1      32.210  29.513  25.162  1.00  0.00     0.045 A 
ATOM     26  C   UNL A   1      31.686  27.252  26.730  1.00  0.00     0.029 A 
ATOM     27  C   UNL A   1      31.806  29.644  26.491  1.00  0.00     0.123 A 
ATOM     28  C   UNL A   1      31.552  28.527  27.283  1.00  0.00     0.041 A 
ATOM     29  F   UNL A   1      31.665  30.866  27.023  1.00  0.00    -0.207 F 
ENDBRANCH  15  18
ENDBRANCH   6  14
ENDBRANCH   4   6
ENDBRANCH   3   4
ENDBRANCH   2   3
ENDBRANCH   1   2
BRANCH   1  30
ATOM     30  O   UNL A   1      38.760  22.057  25.393  1.00  0.00    -0.458 OA
BRANCH  30  31
ATOM     31  C   UNL A   1      39.671  21.817  26.372  1.00  0.00     0.338 C 
ATOM     32  O   UNL A   1      40.469  20.890  26.390  1.00  0.00    -0.246 OA
BRANCH  31  33
ATOM     33  C   UNL A   1      39.801  23.034  27.221  1.00  0.00     0.060 A 
ATOM     34  C   UNL A   1      38.879  24.093  27.204  1.00  0.00     0.016 A 
ATOM     35  C   UNL A   1      41.043  23.220  27.825  1.00  0.00     0.016 A 
ATOM     36  C   UNL A   1      39.262  25.374  27.651  1.00  0.00     0.010 A 
ATOM     37  C   UNL A   1      41.411  24.493  28.253  1.00  0.00     0.010 A 
ATOM     38  C   UNL A   1      40.565  25.607  28.102  1.00  0.00    -0.014 A 
BRANCH  38  39
ATOM     39  C   UNL A   1      40.976  26.915  28.671  1.00  0.00     0.031 A 
ATOM     40  C   UNL A   1      42.252  27.382  28.098  1.00  0.00     0.074 A 
ATOM     41  C   UNL A   1      40.323  27.790  29.487  1.00  0.00     0.049 A 
ATOM     42  N   UNL A   1      43.377  27.369  28.731  1.00  0.00    -0.248 NA
ATOM     43  C   UNL A   1      42.348  27.778  26.689  1.00  0.00     0.031 C 
ATOM     44  C   UNL A   1      38.999  27.656  30.067  1.00  0.00     0.029 A 
ATOM     45  N   UNL A   1      40.621  29.087  29.839  1.00  0.00    -0.354 N 
ATOM     46  C   UNL A   1      44.260  28.016  27.891  1.00  0.00     0.074 A 
ATOM     47  C   UNL A   1      43.649  28.050  26.587  1.00  0.00     0.031 C 
ATOM     48  C   UNL A   1      38.479  28.845  30.434  1.00  0.00     0.029 A 
ATOM     49  C   UNL A   1      39.518  29.834  30.294  1.00  0.00     0.049 A 
ATOM     50  H   UNL A   1      41.528  29.463  29.776  1.00  0.00     0.167 HD
ATOM     51  C   UNL A   1      45.293  28.737  28.394  1.00  0.00     0.034 A 
ATOM     52  C   UNL A   1      39.442  31.146  30.638  1.00  0.00     0.034 A 
ATOM     53  C   UNL A   1      45.502  28.511  29.799  1.00  0.00     0.049 A 
ATOM     54  C   UNL A   1      40.789  31.471  31.149  1.00  0.00     0.074 A 
ATOM     55  C   UNL A   1      45.668  27.387  30.584  1.00  0.00     0.029 A 
ATOM     56  N   UNL A   1      45.129  29.515  30.660  1.00  0.00    -0.354 N 
ATOM     57  N   UNL A   1      41.300  30.914  32.214  1.00  0.00    -0.248 NA
ATOM     58  C   UNL A   1      41.735  32.079  30.235  1.00  0.00     0.031 C 
ATOM     59  C   UNL A   1      44.924  27.650  31.771  1.00  0.00     0.029 A 
ATOM     60  C   UNL A   1      44.405  28.943  31.674  1.00  0.00     0.049 A 
ATOM     61  H   UNL A   1      45.343  30.471  30.566  1.00  0.00     0.167 HD
ATOM     62  C   UNL A   1      42.616  30.662  31.854  1.00  0.00     0.074 A 
ATOM     63  C   UNL A   1      42.853  31.505  30.684  1.00  0.00     0.031 C 
ATOM     64  C   UNL A   1      43.295  29.586  32.349  1.00  0.00     0.034 A 
BRANCH  51  65
ATOM     65  C   UNL A   1      45.868  29.908  27.667  1.00  0.00     0.023 A 
ATOM     66  C   UNL A   1      47.264  30.006  27.566  1.00  0.00     0.012 A 
ATOM     67  C   UNL A   1      45.089  31.012  27.252  1.00  0.00     0.148 A 
ATOM     68  C   UNL A   1      47.864  31.150  27.035  1.00  0.00     0.002 A 
ATOM     69  C   UNL A   1      45.683  32.106  26.644  1.00  0.00     0.091 A 
ATOM     70  F   UNL A   1      43.784  31.050  27.552  1.00  0.00    -0.205 F 
ATOM     71  C   UNL A   1      47.074  32.188  26.549  1.00  0.00     0.022 A 
BRANCH  69  72
ATOM     72  S   UNL A   1      44.700  33.435  25.945  1.00  0.00     0.127 S 
ATOM     73  O   UNL A   1      45.725  34.239  25.287  1.00  0.00    -0.237 OA
ATOM     74  O   UNL A   1      43.807  32.703  25.045  1.00  0.00    -0.237 OA
ATOM     75  O   UNL A   1      44.030  34.055  27.081  1.00  0.00    -0.744 OA
ENDBRANCH  69  72
ENDBRANCH  51  65
BRANCH  52  76
ATOM     76  C   UNL A   1      38.349  32.157  30.497  1.00  0.00     0.023 A 
ATOM     77  C   UNL A   1      37.845  32.475  29.217  1.00  0.00     0.012 A 
ATOM     78  C   UNL A   1      37.603  32.612  31.610  1.00  0.00     0.148 A 
ATOM     79  C   UNL A   1      36.625  33.152  29.054  1.00  0.00     0.002 A 
ATOM     80  C   UNL A   1      36.388  33.283  31.449  1.00  0.00     0.091 A 
ATOM     81  F   UNL A   1      38.052  32.342  32.838  1.00  0.00    -0.205 F 
ATOM     82  C   UNL A   1      35.886  33.539  30.170  1.00  0.00     0.022 A 
BRANCH  80  83
ATOM     83  S   UNL A   1      35.398  33.834  32.853  1.00  0.00     0.127 S 
ATOM     84  O   UNL A   1      36.037  35.104  33.201  1.00  0.00    -0.237 OA
ATOM     85  O   UNL A   1      34.069  33.966  32.267  1.00  0.00    -0.237 OA
ATOM     86  O   UNL A   1      35.540  32.798  33.872  1.00  0.00    -0.744 OA
ENDBRANCH  80  83
ENDBRANCH  52  76
BRANCH  64  87
ATOM     87  C   UNL A   1      42.720  28.824  33.522  1.00  0.00     0.023 A 
ATOM     88  C   UNL A   1      41.631  27.938  33.390  1.00  0.00     0.012 A 
ATOM     89  C   UNL A   1      43.456  28.818  34.722  1.00  0.00     0.148 A 
ATOM     90  C   UNL A   1      41.293  27.056  34.424  1.00  0.00     0.002 A 
ATOM     91  C   UNL A   1      43.143  27.915  35.731  1.00  0.00     0.091 A 
ATOM     92  F   UNL A   1      44.492  29.664  34.827  1.00  0.00    -0.205 F 
ATOM     93  C   UNL A   1      42.061  27.032  35.587  1.00  0.00     0.022 A 
BRANCH  91  94
ATOM     94  S   UNL A   1      44.161  27.746  37.201  1.00  0.00     0.127 S 
ATOM     95  O   UNL A   1      44.124  29.098  37.755  1.00  0.00    -0.237 OA
ATOM     96  O   UNL A   1      43.422  26.748  37.976  1.00  0.00    -0.237 OA
ATOM     97  O   UNL A   1      45.470  27.299  36.741  1.00  0.00    -0.744 OA
ENDBRANCH  91  94
ENDBRANCH  64  87
ENDBRANCH  38  39
ENDBRANCH  31  33
ENDBRANCH  30  31
ENDBRANCH   1  30
TORSDOF 17
ENDMDL
