MODEL 1
REMARK VINA RESULT:     -10.8      0.000      0.000
REMARK SMILES CCc1ccc(O[C@H](CC)C(=O)OCCOC(=O)c2ccc(-c3c4nc(c(-c5cccc(S(=O)(=O)[O-])c5F)c5ccc([nH]5)c(-c5cccc(S(=O)(=O)[O-])c5F)c5nc(c(-c6cccc(S(=O)(=O)[O-])c6F)c6ccc3[nH]6)C=C5)C=C4)cc2)c(Cl)c1
REMARK SMILES IDX 14 1 13 2 11 3 12 4 8 5 7 6 6 7 3 8 4 9 84 10 5 11 82 12
REMARK SMILES IDX 83 13 2 14 1 15 9 16 10 17 15 18 16 19 17 20 18 21 19 22
REMARK SMILES IDX 20 23 81 24 21 25 80 26 22 27 23 28 24 29 74 30 25 31 79 32
REMARK SMILES IDX 73 33 75 34 26 35 78 36 72 37 71 38 27 40 59 41 39 42 58 43
REMARK SMILES IDX 40 44 43 45 57 46 76 47 41 48 42 49 56 51 77 52 44 53 28 54
REMARK SMILES IDX 29 55 37 56 30 57 32 58 38 59 31 60 33 61 34 62 35 63 36 64
REMARK SMILES IDX 60 65 61 66 69 67 62 68 64 69 70 70 63 71 65 72 66 73 67 74
REMARK SMILES IDX 68 75 45 76 46 77 54 78 47 79 49 80 55 81 48 82 50 83 51 84
REMARK SMILES IDX 52 85 53 86
REMARK H PARENT 75 39 43 50
REMARK Flexibility Score: inf
ROOT
ATOM      1  C   UNL A   1      31.611  29.642  26.210  1.00  0.00     0.274 C 
ENDROOT
BRANCH   1   2
ATOM      2  O   UNL A   1      32.681  28.692  26.408  1.00  0.00    -0.459 OA
BRANCH   2   3
ATOM      3  C   UNL A   1      32.419  27.449  25.925  1.00  0.00     0.347 C 
ATOM      4  O   UNL A   1      31.861  26.569  26.576  1.00  0.00    -0.248 OA
BRANCH   3   5
ATOM      5  C   UNL A   1      32.930  27.200  24.492  1.00  0.00     0.282 C 
BRANCH   5   6
ATOM      6  O   UNL A   1      32.030  26.834  23.453  1.00  0.00    -0.477 OA
BRANCH   6   7
ATOM      7  C   UNL A   1      31.009  27.649  23.057  1.00  0.00     0.139 A 
ATOM      8  C   UNL A   1      28.790  29.367  22.668  1.00  0.00    -0.047 A 
ATOM      9  C   UNL A   1      30.061  29.720  22.212  1.00  0.00     0.007 A 
ATOM     10  C   UNL A   1      28.613  28.083  23.195  1.00  0.00     0.028 A 
ATOM     11  C   UNL A   1      31.147  28.852  22.369  1.00  0.00     0.048 A 
ATOM     12  C   UNL A   1      29.712  27.242  23.403  1.00  0.00     0.083 A 
ATOM     13  Cl  UNL A   1      29.415  25.686  24.103  1.00  0.00    -0.080 Cl
BRANCH   8  14
ATOM     14  C   UNL A   1      27.652  30.349  22.537  1.00  0.00     0.032 C 
ATOM     15  C   UNL A   1      27.748  31.526  23.502  1.00  0.00     0.009 C 
ENDBRANCH   8  14
ENDBRANCH   6   7
ENDBRANCH   5   6
BRANCH   5  16
ATOM     16  C   UNL A   1      34.030  26.117  24.520  1.00  0.00     0.054 C 
ATOM     17  C   UNL A   1      33.680  24.917  23.646  1.00  0.00     0.008 C 
ENDBRANCH   5  16
ENDBRANCH   3   5
ENDBRANCH   2   3
ENDBRANCH   1   2
BRANCH   1  18
ATOM     18  C   UNL A   1      32.042  31.117  26.293  1.00  0.00     0.275 C 
BRANCH  18  19
ATOM     19  O   UNL A   1      32.412  31.522  27.625  1.00  0.00    -0.458 OA
BRANCH  19  20
ATOM     20  C   UNL A   1      33.317  32.531  27.674  1.00  0.00     0.338 C 
ATOM     21  O   UNL A   1      33.065  33.724  27.626  1.00  0.00    -0.246 OA
BRANCH  20  22
ATOM     22  C   UNL A   1      34.671  32.026  27.991  1.00  0.00     0.060 A 
ATOM     23  C   UNL A   1      34.786  30.657  28.262  1.00  0.00     0.016 A 
ATOM     24  C   UNL A   1      35.785  32.859  28.101  1.00  0.00     0.016 A 
ATOM     25  C   UNL A   1      35.997  30.116  28.677  1.00  0.00     0.010 A 
ATOM     26  C   UNL A   1      37.002  32.319  28.542  1.00  0.00     0.010 A 
ATOM     27  C   UNL A   1      37.101  30.953  28.866  1.00  0.00    -0.014 A 
BRANCH  27  28
ATOM     28  C   UNL A   1      38.277  30.406  29.583  1.00  0.00     0.031 A 
ATOM     29  C   UNL A   1      38.508  30.819  31.010  1.00  0.00     0.074 A 
ATOM     30  C   UNL A   1      39.081  29.497  29.003  1.00  0.00     0.049 A 
ATOM     31  N   UNL A   1      39.440  30.438  31.843  1.00  0.00    -0.248 NA
ATOM     32  C   UNL A   1      37.555  31.789  31.575  1.00  0.00     0.031 C 
ATOM     33  C   UNL A   1      38.946  29.000  27.635  1.00  0.00     0.029 A 
ATOM     34  N   UNL A   1      40.179  28.838  29.496  1.00  0.00    -0.354 N 
ATOM     35  C   UNL A   1      39.201  31.135  33.021  1.00  0.00     0.074 A 
ATOM     36  C   UNL A   1      38.047  31.975  32.790  1.00  0.00     0.031 C 
ATOM     37  C   UNL A   1      39.942  28.133  27.387  1.00  0.00     0.029 A 
ATOM     38  C   UNL A   1      40.791  28.024  28.573  1.00  0.00     0.049 A 
ATOM     39  H   UNL A   1      40.498  28.938  30.422  1.00  0.00     0.167 HD
ATOM     40  C   UNL A   1      39.867  31.068  34.199  1.00  0.00     0.034 A 
ATOM     41  C   UNL A   1      41.916  27.287  28.671  1.00  0.00     0.034 A 
ATOM     42  C   UNL A   1      41.005  30.221  34.434  1.00  0.00     0.049 A 
ATOM     43  C   UNL A   1      42.647  27.233  29.988  1.00  0.00     0.074 A 
ATOM     44  C   UNL A   1      41.748  30.078  35.592  1.00  0.00     0.029 A 
ATOM     45  N   UNL A   1      41.567  29.376  33.490  1.00  0.00    -0.354 N 
ATOM     46  N   UNL A   1      42.356  27.829  31.121  1.00  0.00    -0.248 NA
ATOM     47  C   UNL A   1      43.838  26.373  30.054  1.00  0.00     0.031 C 
ATOM     48  C   UNL A   1      42.768  29.151  35.344  1.00  0.00     0.029 A 
ATOM     49  C   UNL A   1      42.647  28.703  34.038  1.00  0.00     0.049 A 
ATOM     50  H   UNL A   1      41.246  29.269  32.566  1.00  0.00     0.167 HD
ATOM     51  C   UNL A   1      43.305  27.391  32.039  1.00  0.00     0.074 A 
ATOM     52  C   UNL A   1      44.166  26.462  31.336  1.00  0.00     0.031 C 
ATOM     53  C   UNL A   1      43.460  27.739  33.341  1.00  0.00     0.034 A 
BRANCH  40  54
ATOM     54  C   UNL A   1      39.356  31.924  35.327  1.00  0.00     0.023 A 
ATOM     55  C   UNL A   1      38.380  31.407  36.204  1.00  0.00     0.012 A 
ATOM     56  C   UNL A   1      39.845  33.229  35.529  1.00  0.00     0.148 A 
ATOM     57  C   UNL A   1      37.871  32.188  37.240  1.00  0.00     0.002 A 
ATOM     58  C   UNL A   1      39.362  33.987  36.589  1.00  0.00     0.091 A 
ATOM     59  F   UNL A   1      40.751  33.714  34.667  1.00  0.00    -0.205 F 
ATOM     60  C   UNL A   1      38.368  33.475  37.438  1.00  0.00     0.022 A 
BRANCH  58  61
ATOM     61  S   UNL A   1      39.992  35.627  36.964  1.00  0.00     0.127 S 
ATOM     62  O   UNL A   1      39.282  35.941  38.202  1.00  0.00    -0.237 OA
ATOM     63  O   UNL A   1      41.425  35.379  37.130  1.00  0.00    -0.237 OA
ATOM     64  O   UNL A   1      39.653  36.455  35.814  1.00  0.00    -0.744 OA
ENDBRANCH  58  61
ENDBRANCH  40  54
BRANCH  41  65
ATOM     65  C   UNL A   1      42.395  26.512  27.493  1.00  0.00     0.023 A 
ATOM     66  C   UNL A   1      43.194  27.139  26.517  1.00  0.00     0.012 A 
ATOM     67  C   UNL A   1      42.086  25.145  27.351  1.00  0.00     0.148 A 
ATOM     68  C   UNL A   1      43.656  26.426  25.411  1.00  0.00     0.002 A 
ATOM     69  C   UNL A   1      42.596  24.426  26.276  1.00  0.00     0.091 A 
ATOM     70  F   UNL A   1      41.307  24.571  28.279  1.00  0.00    -0.205 F 
ATOM     71  C   UNL A   1      43.368  25.068  25.296  1.00  0.00     0.022 A 
BRANCH  69  72
ATOM     72  S   UNL A   1      42.383  22.649  26.118  1.00  0.00     0.127 S 
ATOM     73  O   UNL A   1      40.929  22.521  26.115  1.00  0.00    -0.237 OA
ATOM     74  O   UNL A   1      43.029  22.381  24.833  1.00  0.00    -0.237 OA
ATOM     75  O   UNL A   1      43.067  22.068  27.266  1.00  0.00    -0.744 OA
ENDBRANCH  69  72
ENDBRANCH  41  65
BRANCH  53  76
ATOM     76  C   UNL A   1      44.583  27.091  34.108  1.00  0.00     0.023 A 
ATOM     77  C   UNL A   1      45.860  27.688  34.121  1.00  0.00     0.012 A 
ATOM     78  C   UNL A   1      44.357  25.930  34.874  1.00  0.00     0.148 A 
ATOM     79  C   UNL A   1      46.901  27.120  34.855  1.00  0.00     0.002 A 
ATOM     80  C   UNL A   1      45.387  25.396  35.640  1.00  0.00     0.091 A 
ATOM     81  F   UNL A   1      43.142  25.362  34.835  1.00  0.00    -0.205 F 
ATOM     82  C   UNL A   1      46.662  25.983  35.623  1.00  0.00     0.022 A 
BRANCH  80  83
ATOM     83  S   UNL A   1      45.136  23.989  36.729  1.00  0.00     0.127 S 
ATOM     84  O   UNL A   1      46.485  23.768  37.247  1.00  0.00    -0.237 OA
ATOM     85  O   UNL A   1      44.185  24.514  37.710  1.00  0.00    -0.237 OA
ATOM     86  O   UNL A   1      44.601  22.927  35.886  1.00  0.00    -0.744 OA
ENDBRANCH  80  83
ENDBRANCH  53  76
ENDBRANCH  27  28
ENDBRANCH  20  22
ENDBRANCH  19  20
ENDBRANCH  18  19
ENDBRANCH   1  18
TORSDOF 18
ENDMDL
MODEL 2
REMARK VINA RESULT:     -10.6      5.215     10.183
REMARK SMILES CCc1ccc(O[C@H](CC)C(=O)OCCOC(=O)c2ccc(-c3c4nc(c(-c5cccc(S(=O)(=O)[O-])c5F)c5ccc([nH]5)c(-c5cccc(S(=O)(=O)[O-])c5F)c5nc(c(-c6cccc(S(=O)(=O)[O-])c6F)c6ccc3[nH]6)C=C5)C=C4)cc2)c(Cl)c1
REMARK SMILES IDX 14 1 13 2 11 3 12 4 8 5 7 6 6 7 3 8 4 9 84 10 5 11 82 12
REMARK SMILES IDX 83 13 2 14 1 15 9 16 10 17 15 18 16 19 17 20 18 21 19 22
REMARK SMILES IDX 20 23 81 24 21 25 80 26 22 27 23 28 24 29 74 30 25 31 79 32
REMARK SMILES IDX 73 33 75 34 26 35 78 36 72 37 71 38 27 40 59 41 39 42 58 43
REMARK SMILES IDX 40 44 43 45 57 46 76 47 41 48 42 49 56 51 77 52 44 53 28 54
REMARK SMILES IDX 29 55 37 56 30 57 32 58 38 59 31 60 33 61 34 62 35 63 36 64
REMARK SMILES IDX 60 65 61 66 69 67 62 68 64 69 70 70 63 71 65 72 66 73 67 74
REMARK SMILES IDX 68 75 45 76 46 77 54 78 47 79 49 80 55 81 48 82 50 83 51 84
REMARK SMILES IDX 52 85 53 86
REMARK H PARENT 75 39 43 50
REMARK Flexibility Score: inf
ROOT
ATOM      1  C   UNL A   1      35.250  22.023  25.113  1.00  0.00     0.274 C 
ENDROOT
BRANCH   1   2
ATOM      2  O   UNL A   1      35.531  23.339  24.589  1.00  0.00    -0.459 OA
BRANCH   2   3
ATOM      3  C   UNL A   1      34.768  23.689  23.520  1.00  0.00     0.347 C 
ATOM      4  O   UNL A   1      34.932  23.240  22.389  1.00  0.00    -0.248 OA
BRANCH   3   5
ATOM      5  C   UNL A   1      33.693  24.752  23.825  1.00  0.00     0.282 C 
BRANCH   5   6
ATOM      6  O   UNL A   1      33.385  25.766  22.877  1.00  0.00    -0.477 OA
BRANCH   6   7
ATOM      7  C   UNL A   1      32.293  26.574  23.007  1.00  0.00     0.139 A 
ATOM      8  C   UNL A   1      30.118  28.384  22.864  1.00  0.00    -0.047 A 
ATOM      9  C   UNL A   1      29.911  27.032  23.145  1.00  0.00     0.007 A 
ATOM     10  C   UNL A   1      31.436  28.848  22.797  1.00  0.00     0.028 A 
ATOM     11  C   UNL A   1      30.990  26.149  23.255  1.00  0.00     0.048 A 
ATOM     12  C   UNL A   1      32.509  27.951  22.851  1.00  0.00     0.083 A 
ATOM     13  Cl  UNL A   1      34.109  28.599  22.712  1.00  0.00    -0.080 Cl
BRANCH   8  14
ATOM     14  C   UNL A   1      28.931  29.299  22.693  1.00  0.00     0.032 C 
ATOM     15  C   UNL A   1      29.102  30.654  23.371  1.00  0.00     0.009 C 
ENDBRANCH   8  14
ENDBRANCH   6   7
ENDBRANCH   5   6
BRANCH   5  16
ATOM     16  C   UNL A   1      34.046  25.476  25.142  1.00  0.00     0.054 C 
ATOM     17  C   UNL A   1      33.012  25.223  26.234  1.00  0.00     0.008 C 
ENDBRANCH   5  16
ENDBRANCH   3   5
ENDBRANCH   2   3
ENDBRANCH   1   2
BRANCH   1  18
ATOM     18  C   UNL A   1      36.455  21.068  25.125  1.00  0.00     0.275 C 
BRANCH  18  19
ATOM     19  O   UNL A   1      37.708  21.737  24.883  1.00  0.00    -0.458 OA
BRANCH  19  20
ATOM     20  C   UNL A   1      38.712  21.368  25.715  1.00  0.00     0.338 C 
ATOM     21  O   UNL A   1      39.243  20.270  25.756  1.00  0.00    -0.246 OA
BRANCH  20  22
ATOM     22  C   UNL A   1      39.246  22.527  26.463  1.00  0.00     0.060 A 
ATOM     23  C   UNL A   1      38.606  23.757  26.263  1.00  0.00     0.016 A 
ATOM     24  C   UNL A   1      40.379  22.450  27.275  1.00  0.00     0.016 A 
ATOM     25  C   UNL A   1      39.107  24.918  26.837  1.00  0.00     0.010 A 
ATOM     26  C   UNL A   1      40.899  23.625  27.837  1.00  0.00     0.010 A 
ATOM     27  C   UNL A   1      40.286  24.867  27.589  1.00  0.00    -0.014 A 
BRANCH  27  28
ATOM     28  C   UNL A   1      40.949  26.147  27.935  1.00  0.00     0.031 A 
ATOM     29  C   UNL A   1      42.364  26.371  27.480  1.00  0.00     0.074 A 
ATOM     30  C   UNL A   1      40.281  27.123  28.574  1.00  0.00     0.049 A 
ATOM     31  N   UNL A   1      43.126  27.423  27.628  1.00  0.00    -0.248 NA
ATOM     32  C   UNL A   1      43.004  25.262  26.752  1.00  0.00     0.031 C 
ATOM     33  C   UNL A   1      38.900  27.033  29.045  1.00  0.00     0.029 A 
ATOM     34  N   UNL A   1      40.683  28.382  28.944  1.00  0.00    -0.354 N 
ATOM     35  C   UNL A   1      44.339  27.097  27.035  1.00  0.00     0.074 A 
ATOM     36  C   UNL A   1      44.218  25.743  26.540  1.00  0.00     0.031 C 
ATOM     37  C   UNL A   1      38.577  28.180  29.668  1.00  0.00     0.029 A 
ATOM     38  C   UNL A   1      39.731  29.077  29.651  1.00  0.00     0.049 A 
ATOM     39  H   UNL A   1      41.569  28.751  28.725  1.00  0.00     0.167 HD
ATOM     40  C   UNL A   1      45.449  27.860  26.894  1.00  0.00     0.034 A 
ATOM     41  C   UNL A   1      39.792  30.294  30.228  1.00  0.00     0.034 A 
ATOM     42  C   UNL A   1      45.564  29.211  27.372  1.00  0.00     0.049 A 
ATOM     43  C   UNL A   1      41.040  31.124  30.067  1.00  0.00     0.074 A 
ATOM     44  C   UNL A   1      46.644  30.070  27.276  1.00  0.00     0.029 A 
ATOM     45  N   UNL A   1      44.563  29.898  28.041  1.00  0.00    -0.354 N 
ATOM     46  N   UNL A   1      42.147  30.835  29.425  1.00  0.00    -0.248 NA
ATOM     47  C   UNL A   1      41.031  32.463  30.673  1.00  0.00     0.031 C 
ATOM     48  C   UNL A   1      46.298  31.276  27.898  1.00  0.00     0.029 A 
ATOM     49  C   UNL A   1      44.996  31.174  28.362  1.00  0.00     0.049 A 
ATOM     50  H   UNL A   1      43.674  29.534  28.256  1.00  0.00     0.167 HD
ATOM     51  C   UNL A   1      42.952  31.966  29.522  1.00  0.00     0.074 A 
ATOM     52  C   UNL A   1      42.195  32.953  30.265  1.00  0.00     0.031 C 
ATOM     53  C   UNL A   1      44.210  32.164  29.054  1.00  0.00     0.034 A 
BRANCH  40  54
ATOM     54  C   UNL A   1      46.617  27.247  26.169  1.00  0.00     0.023 A 
ATOM     55  C   UNL A   1      47.376  26.239  26.803  1.00  0.00     0.012 A 
ATOM     56  C   UNL A   1      46.959  27.652  24.866  1.00  0.00     0.148 A 
ATOM     57  C   UNL A   1      48.479  25.674  26.165  1.00  0.00     0.002 A 
ATOM     58  C   UNL A   1      48.036  27.054  24.220  1.00  0.00     0.091 A 
ATOM     59  F   UNL A   1      46.246  28.631  24.292  1.00  0.00    -0.205 F 
ATOM     60  C   UNL A   1      48.803  26.075  24.871  1.00  0.00     0.022 A 
BRANCH  58  61
ATOM     61  S   UNL A   1      48.486  27.456  22.529  1.00  0.00     0.127 S 
ATOM     62  O   UNL A   1      49.728  28.202  22.722  1.00  0.00    -0.237 OA
ATOM     63  O   UNL A   1      48.658  26.132  21.929  1.00  0.00    -0.237 OA
ATOM     64  O   UNL A   1      47.369  28.221  21.990  1.00  0.00    -0.744 OA
ENDBRANCH  58  61
ENDBRANCH  40  54
BRANCH  41  65
ATOM     65  C   UNL A   1      38.616  30.811  30.982  1.00  0.00     0.023 A 
ATOM     66  C   UNL A   1      38.582  30.711  32.387  1.00  0.00     0.012 A 
ATOM     67  C   UNL A   1      37.542  31.431  30.313  1.00  0.00     0.148 A 
ATOM     68  C   UNL A   1      37.491  31.196  33.108  1.00  0.00     0.002 A 
ATOM     69  C   UNL A   1      36.484  31.962  31.041  1.00  0.00     0.091 A 
ATOM     70  F   UNL A   1      37.583  31.498  28.975  1.00  0.00    -0.205 F 
ATOM     71  C   UNL A   1      36.448  31.832  32.438  1.00  0.00     0.022 A 
BRANCH  69  72
ATOM     72  S   UNL A   1      35.166  32.910  30.273  1.00  0.00     0.127 S 
ATOM     73  O   UNL A   1      34.637  31.955  29.303  1.00  0.00    -0.237 OA
ATOM     74  O   UNL A   1      34.288  33.184  31.411  1.00  0.00    -0.237 OA
ATOM     75  O   UNL A   1      35.807  34.092  29.711  1.00  0.00    -0.744 OA
ENDBRANCH  69  72
ENDBRANCH  41  65
BRANCH  53  76
ATOM     76  C   UNL A   1      44.843  33.509  29.299  1.00  0.00     0.023 A 
ATOM     77  C   UNL A   1      45.586  33.731  30.475  1.00  0.00     0.012 A 
ATOM     78  C   UNL A   1      44.762  34.531  28.331  1.00  0.00     0.148 A 
ATOM     79  C   UNL A   1      46.207  34.959  30.701  1.00  0.00     0.002 A 
ATOM     80  C   UNL A   1      45.423  35.736  28.541  1.00  0.00     0.091 A 
ATOM     81  F   UNL A   1      44.034  34.311  27.225  1.00  0.00    -0.205 F 
ATOM     82  C   UNL A   1      46.136  35.955  29.730  1.00  0.00     0.022 A 
BRANCH  80  83
ATOM     83  S   UNL A   1      45.458  37.034  27.300  1.00  0.00     0.127 S 
ATOM     84  O   UNL A   1      44.034  37.265  27.068  1.00  0.00    -0.237 OA
ATOM     85  O   UNL A   1      46.146  38.121  27.999  1.00  0.00    -0.237 OA
ATOM     86  O   UNL A   1      46.200  36.484  26.173  1.00  0.00    -0.744 OA
ENDBRANCH  80  83
ENDBRANCH  53  76
ENDBRANCH  27  28
ENDBRANCH  20  22
ENDBRANCH  19  20
ENDBRANCH  18  19
ENDBRANCH   1  18
TORSDOF 18
ENDMDL
MODEL 3
REMARK VINA RESULT:     -10.5      3.425      6.177
REMARK SMILES CCc1ccc(O[C@H](CC)C(=O)OCCOC(=O)c2ccc(-c3c4nc(c(-c5cccc(S(=O)(=O)[O-])c5F)c5ccc([nH]5)c(-c5cccc(S(=O)(=O)[O-])c5F)c5nc(c(-c6cccc(S(=O)(=O)[O-])c6F)c6ccc3[nH]6)C=C5)C=C4)cc2)c(Cl)c1
REMARK SMILES IDX 14 1 13 2 11 3 12 4 8 5 7 6 6 7 3 8 4 9 84 10 5 11 82 12
REMARK SMILES IDX 83 13 2 14 1 15 9 16 10 17 15 18 16 19 17 20 18 21 19 22
REMARK SMILES IDX 20 23 81 24 21 25 80 26 22 27 23 28 24 29 74 30 25 31 79 32
REMARK SMILES IDX 73 33 75 34 26 35 78 36 72 37 71 38 27 40 59 41 39 42 58 43
REMARK SMILES IDX 40 44 43 45 57 46 76 47 41 48 42 49 56 51 77 52 44 53 28 54
REMARK SMILES IDX 29 55 37 56 30 57 32 58 38 59 31 60 33 61 34 62 35 63 36 64
REMARK SMILES IDX 60 65 61 66 69 67 62 68 64 69 70 70 63 71 65 72 66 73 67 74
REMARK SMILES IDX 68 75 45 76 46 77 54 78 47 79 49 80 55 81 48 82 50 83 51 84
REMARK SMILES IDX 52 85 53 86
REMARK H PARENT 75 39 43 50
REMARK Flexibility Score: inf
ROOT
ATOM      1  C   UNL A   1      33.454  33.918  28.075  1.00  0.00     0.274 C 
ENDROOT
BRANCH   1   2
ATOM      2  O   UNL A   1      32.559  34.581  28.993  1.00  0.00    -0.459 OA
BRANCH   2   3
ATOM      3  C   UNL A   1      33.073  35.703  29.563  1.00  0.00     0.347 C 
ATOM      4  O   UNL A   1      33.038  36.812  29.035  1.00  0.00    -0.248 OA
BRANCH   3   5
ATOM      5  C   UNL A   1      33.763  35.470  30.922  1.00  0.00     0.282 C 
BRANCH   5   6
ATOM      6  O   UNL A   1      33.928  34.154  31.436  1.00  0.00    -0.477 OA
BRANCH   6   7
ATOM      7  C   UNL A   1      34.875  33.853  32.372  1.00  0.00     0.139 A 
ATOM      8  C   UNL A   1      37.068  33.570  34.143  1.00  0.00    -0.047 A 
ATOM      9  C   UNL A   1      35.773  33.758  34.628  1.00  0.00     0.007 A 
ATOM     10  C   UNL A   1      37.235  33.382  32.766  1.00  0.00     0.028 A 
ATOM     11  C   UNL A   1      34.686  33.857  33.752  1.00  0.00     0.048 A 
ATOM     12  C   UNL A   1      36.154  33.539  31.891  1.00  0.00     0.083 A 
ATOM     13  Cl  UNL A   1      36.452  33.337  30.197  1.00  0.00    -0.080 Cl
BRANCH   8  14
ATOM     14  C   UNL A   1      38.226  33.527  35.109  1.00  0.00     0.032 C 
ATOM     15  C   UNL A   1      39.291  34.583  34.832  1.00  0.00     0.009 C 
ENDBRANCH   8  14
ENDBRANCH   6   7
ENDBRANCH   5   6
BRANCH   5  16
ATOM     16  C   UNL A   1      33.033  36.279  32.014  1.00  0.00     0.054 C 
ATOM     17  C   UNL A   1      33.844  37.485  32.477  1.00  0.00     0.008 C 
ENDBRANCH   5  16
ENDBRANCH   3   5
ENDBRANCH   2   3
ENDBRANCH   1   2
BRANCH   1  18
ATOM     18  C   UNL A   1      33.634  32.412  28.331  1.00  0.00     0.275 C 
BRANCH  18  19
ATOM     19  O   UNL A   1      34.325  31.736  27.262  1.00  0.00    -0.458 OA
BRANCH  19  20
ATOM     20  C   UNL A   1      34.536  30.414  27.477  1.00  0.00     0.338 C 
ATOM     21  O   UNL A   1      33.882  29.498  27.008  1.00  0.00    -0.246 OA
BRANCH  20  22
ATOM     22  C   UNL A   1      35.798  30.182  28.212  1.00  0.00     0.060 A 
ATOM     23  C   UNL A   1      36.988  30.458  27.526  1.00  0.00     0.016 A 
ATOM     24  C   UNL A   1      35.840  29.641  29.498  1.00  0.00     0.016 A 
ATOM     25  C   UNL A   1      38.220  30.164  28.097  1.00  0.00     0.010 A 
ATOM     26  C   UNL A   1      37.082  29.322  30.067  1.00  0.00     0.010 A 
ATOM     27  C   UNL A   1      38.273  29.550  29.353  1.00  0.00    -0.014 A 
BRANCH  27  28
ATOM     28  C   UNL A   1      39.569  28.986  29.800  1.00  0.00     0.031 A 
ATOM     29  C   UNL A   1      40.215  29.553  31.033  1.00  0.00     0.074 A 
ATOM     30  C   UNL A   1      40.123  27.937  29.167  1.00  0.00     0.049 A 
ATOM     31  N   UNL A   1      41.318  29.192  31.632  1.00  0.00    -0.248 NA
ATOM     32  C   UNL A   1      39.516  30.675  31.683  1.00  0.00     0.031 C 
ATOM     33  C   UNL A   1      39.581  27.285  27.977  1.00  0.00     0.029 A 
ATOM     34  N   UNL A   1      41.275  27.241  29.439  1.00  0.00    -0.354 N 
ATOM     35  C   UNL A   1      41.461  30.054  32.713  1.00  0.00     0.074 A 
ATOM     36  C   UNL A   1      40.339  30.966  32.678  1.00  0.00     0.031 C 
ATOM     37  C   UNL A   1      40.415  26.300  27.602  1.00  0.00     0.029 A 
ATOM     38  C   UNL A   1      41.555  26.261  28.517  1.00  0.00     0.049 A 
ATOM     39  H   UNL A   1      41.846  27.427  30.219  1.00  0.00     0.167 HD
ATOM     40  C   UNL A   1      42.425  30.072  33.664  1.00  0.00     0.034 A 
ATOM     41  C   UNL A   1      42.617  25.436  28.418  1.00  0.00     0.034 A 
ATOM     42  C   UNL A   1      43.531  29.155  33.708  1.00  0.00     0.049 A 
ATOM     43  C   UNL A   1      43.683  25.479  29.482  1.00  0.00     0.074 A 
ATOM     44  C   UNL A   1      44.560  29.089  34.631  1.00  0.00     0.029 A 
ATOM     45  N   UNL A   1      43.756  28.146  32.785  1.00  0.00    -0.354 N 
ATOM     46  N   UNL A   1      43.756  26.240  30.549  1.00  0.00    -0.248 NA
ATOM     47  C   UNL A   1      44.792  24.522  29.353  1.00  0.00     0.031 C 
ATOM     48  C   UNL A   1      45.413  28.043  34.259  1.00  0.00     0.029 A 
ATOM     49  C   UNL A   1      44.905  27.446  33.116  1.00  0.00     0.049 A 
ATOM     50  H   UNL A   1      43.183  27.954  32.008  1.00  0.00     0.167 HD
ATOM     51  C   UNL A   1      44.898  25.833  31.233  1.00  0.00     0.074 A 
ATOM     52  C   UNL A   1      45.471  24.742  30.471  1.00  0.00     0.031 C 
ATOM     53  C   UNL A   1      45.432  26.327  32.377  1.00  0.00     0.034 A 
BRANCH  40  54
ATOM     54  C   UNL A   1      42.302  31.111  34.747  1.00  0.00     0.023 A 
ATOM     55  C   UNL A   1      41.644  30.784  35.951  1.00  0.00     0.012 A 
ATOM     56  C   UNL A   1      42.844  32.400  34.583  1.00  0.00     0.148 A 
ATOM     57  C   UNL A   1      41.493  31.735  36.959  1.00  0.00     0.002 A 
ATOM     58  C   UNL A   1      42.725  33.330  35.610  1.00  0.00     0.091 A 
ATOM     59  F   UNL A   1      43.440  32.701  33.421  1.00  0.00    -0.205 F 
ATOM     60  C   UNL A   1      42.041  33.005  36.792  1.00  0.00     0.022 A 
BRANCH  58  61
ATOM     61  S   UNL A   1      43.458  34.967  35.513  1.00  0.00     0.127 S 
ATOM     62  O   UNL A   1      42.804  35.515  34.327  1.00  0.00    -0.237 OA
ATOM     63  O   UNL A   1      43.036  35.572  36.776  1.00  0.00    -0.237 OA
ATOM     64  O   UNL A   1      44.895  34.753  35.398  1.00  0.00    -0.744 OA
ENDBRANCH  58  61
ENDBRANCH  40  54
BRANCH  41  65
ATOM     65  C   UNL A   1      42.700  24.474  27.283  1.00  0.00     0.023 A 
ATOM     66  C   UNL A   1      43.383  24.835  26.106  1.00  0.00     0.012 A 
ATOM     67  C   UNL A   1      42.129  23.190  27.380  1.00  0.00     0.148 A 
ATOM     68  C   UNL A   1      43.475  23.944  25.037  1.00  0.00     0.002 A 
ATOM     69  C   UNL A   1      42.273  22.287  26.333  1.00  0.00     0.091 A 
ATOM     70  F   UNL A   1      41.465  22.874  28.500  1.00  0.00    -0.205 F 
ATOM     71  C   UNL A   1      42.931  22.666  25.154  1.00  0.00     0.022 A 
BRANCH  69  72
ATOM     72  S   UNL A   1      41.719  20.582  26.450  1.00  0.00     0.127 S 
ATOM     73  O   UNL A   1      40.279  20.721  26.248  1.00  0.00    -0.237 OA
ATOM     74  O   UNL A   1      42.439  19.953  25.343  1.00  0.00    -0.237 OA
ATOM     75  O   UNL A   1      42.131  20.124  27.770  1.00  0.00    -0.744 OA
ENDBRANCH  69  72
ENDBRANCH  41  65
BRANCH  53  76
ATOM     76  C   UNL A   1      46.685  25.675  32.902  1.00  0.00     0.023 A 
ATOM     77  C   UNL A   1      47.947  26.184  32.534  1.00  0.00     0.012 A 
ATOM     78  C   UNL A   1      46.613  24.604  33.815  1.00  0.00     0.148 A 
ATOM     79  C   UNL A   1      49.116  25.615  33.039  1.00  0.00     0.002 A 
ATOM     80  C   UNL A   1      47.781  24.071  34.349  1.00  0.00     0.091 A 
ATOM     81  F   UNL A   1      45.405  24.117  34.139  1.00  0.00    -0.205 F 
ATOM     82  C   UNL A   1      49.033  24.568  33.954  1.00  0.00     0.022 A 
BRANCH  80  83
ATOM     83  S   UNL A   1      47.756  22.786  35.604  1.00  0.00     0.127 S 
ATOM     84  O   UNL A   1      46.633  23.205  36.440  1.00  0.00    -0.237 OA
ATOM     85  O   UNL A   1      47.511  21.578  34.814  1.00  0.00    -0.237 OA
ATOM     86  O   UNL A   1      49.067  22.829  36.239  1.00  0.00    -0.744 OA
ENDBRANCH  80  83
ENDBRANCH  53  76
ENDBRANCH  27  28
ENDBRANCH  20  22
ENDBRANCH  19  20
ENDBRANCH  18  19
ENDBRANCH   1  18
TORSDOF 18
ENDMDL
