MODEL 1
REMARK VINA RESULT:     -10.1      0.000      0.000
REMARK SMILES C[C@H](C(=O)OCCOC(=O)c1ccc(-c2c3nc(c(-c4cccc(S(=O)(=O)[O-])c4F)c4ccc([nH]4)c(-c4cccc(S(=O)(=O)[O-])c4F)c4nc(c(-c5cccc(S(=O)(=O)[O-])c5F)c5ccc2[nH]5)C=C4)C=C3)cc1)[N@@H+]1CCc2ccccc2C1
REMARK SMILES IDX 7 1 6 2 5 3 3 4 4 5 2 6 1 7 74 8 75 9 83 10 76 12 82 13
REMARK SMILES IDX 77 14 81 15 78 16 80 17 79 18 8 19 9 20 10 21 11 22 12 23
REMARK SMILES IDX 73 24 13 25 72 26 14 27 15 28 16 29 66 30 17 31 71 32 65 33
REMARK SMILES IDX 67 34 18 35 70 36 64 37 63 38 19 40 51 41 31 42 50 43 32 44
REMARK SMILES IDX 35 45 49 46 68 47 33 48 34 49 48 51 69 52 36 53 20 54 21 55
REMARK SMILES IDX 29 56 22 57 24 58 30 59 23 60 25 61 26 62 27 63 28 64 52 65
REMARK SMILES IDX 53 66 61 67 54 68 56 69 62 70 55 71 57 72 58 73 59 74 60 75
REMARK SMILES IDX 37 76 38 77 46 78 39 79 41 80 47 81 40 82 42 83 43 84 44 85
REMARK SMILES IDX 45 86
REMARK H PARENT 74 11 67 39 35 50
REMARK Flexibility Score: inf
ROOT
ATOM      1  C   UNL A   1      41.338  20.156  27.317  1.00  0.00     0.275 C 
ENDROOT
BRANCH   1   2
ATOM      2  C   UNL A   1      42.138  19.159  26.473  1.00  0.00     0.274 C 
BRANCH   2   3
ATOM      3  O   UNL A   1      42.670  19.767  25.277  1.00  0.00    -0.458 OA
BRANCH   3   4
ATOM      4  C   UNL A   1      43.992  19.533  25.036  1.00  0.00     0.364 C 
ATOM      5  O   UNL A   1      44.402  18.474  24.571  1.00  0.00    -0.245 OA
BRANCH   4   6
ATOM      6  C   UNL A   1      44.928  20.653  25.556  1.00  0.00     0.292 C 
ATOM      7  C   UNL A   1      46.183  20.625  24.658  1.00  0.00     0.088 C 
BRANCH   6   8
ATOM      8  N   UNL A   1      44.355  22.009  25.745  1.00  0.00    -0.319 N 
ATOM      9  C   UNL A   1      43.914  22.807  24.590  1.00  0.00     0.268 C 
ATOM     10  C   UNL A   1      44.678  22.799  26.933  1.00  0.00     0.300 C 
ATOM     11  H   UNL A   1      43.494  21.539  26.026  1.00  0.00     0.349 HD
ATOM     12  C   UNL A   1      43.820  24.334  24.838  1.00  0.00     0.097 C 
ATOM     13  C   UNL A   1      45.545  23.974  26.572  1.00  0.00     0.010 A 
ATOM     14  C   UNL A   1      45.104  24.773  25.501  1.00  0.00    -0.034 A 
ATOM     15  C   UNL A   1      46.746  24.263  27.216  1.00  0.00     0.010 A 
ATOM     16  C   UNL A   1      45.874  25.848  25.065  1.00  0.00     0.004 A 
ATOM     17  C   UNL A   1      47.518  25.336  26.772  1.00  0.00     0.001 A 
ATOM     18  C   UNL A   1      47.087  26.119  25.697  1.00  0.00     0.000 A 
ENDBRANCH   6   8
ENDBRANCH   4   6
ENDBRANCH   3   4
ENDBRANCH   2   3
ENDBRANCH   1   2
BRANCH   1  19
ATOM     19  O   UNL A   1      41.430  21.475  26.754  1.00  0.00    -0.458 OA
BRANCH  19  20
ATOM     20  C   UNL A   1      40.266  22.161  26.650  1.00  0.00     0.338 C 
ATOM     21  O   UNL A   1      39.224  21.750  26.171  1.00  0.00    -0.246 OA
BRANCH  20  22
ATOM     22  C   UNL A   1      40.455  23.544  27.139  1.00  0.00     0.060 A 
ATOM     23  C   UNL A   1      39.861  24.630  26.492  1.00  0.00     0.016 A 
ATOM     24  C   UNL A   1      41.303  23.764  28.224  1.00  0.00     0.016 A 
ATOM     25  C   UNL A   1      40.161  25.936  26.895  1.00  0.00     0.010 A 
ATOM     26  C   UNL A   1      41.550  25.068  28.666  1.00  0.00     0.010 A 
ATOM     27  C   UNL A   1      41.011  26.174  27.987  1.00  0.00    -0.014 A 
BRANCH  27  28
ATOM     28  C   UNL A   1      41.355  27.566  28.404  1.00  0.00     0.031 A 
ATOM     29  C   UNL A   1      42.788  28.040  28.394  1.00  0.00     0.074 A 
ATOM     30  C   UNL A   1      40.390  28.413  28.815  1.00  0.00     0.049 A 
ATOM     31  N   UNL A   1      43.284  29.182  28.798  1.00  0.00    -0.248 NA
ATOM     32  C   UNL A   1      43.797  27.110  27.862  1.00  0.00     0.031 C 
ATOM     33  C   UNL A   1      38.964  28.094  28.889  1.00  0.00     0.029 A 
ATOM     34  N   UNL A   1      40.464  29.711  29.264  1.00  0.00    -0.354 N 
ATOM     35  C   UNL A   1      44.658  29.095  28.606  1.00  0.00     0.074 A 
ATOM     36  C   UNL A   1      44.922  27.786  28.047  1.00  0.00     0.031 C 
ATOM     37  C   UNL A   1      38.298  29.165  29.347  1.00  0.00     0.029 A 
ATOM     38  C   UNL A   1      39.251  30.228  29.654  1.00  0.00     0.049 A 
ATOM     39  H   UNL A   1      41.305  30.221  29.302  1.00  0.00     0.167 HD
ATOM     40  C   UNL A   1      45.616  30.020  28.855  1.00  0.00     0.034 A 
ATOM     41  C   UNL A   1      38.934  31.410  30.224  1.00  0.00     0.034 A 
ATOM     42  C   UNL A   1      45.366  31.339  29.376  1.00  0.00     0.049 A 
ATOM     43  C   UNL A   1      40.016  32.414  30.504  1.00  0.00     0.074 A 
ATOM     44  C   UNL A   1      46.279  32.350  29.627  1.00  0.00     0.029 A 
ATOM     45  N   UNL A   1      44.121  31.831  29.727  1.00  0.00    -0.354 N 
ATOM     46  N   UNL A   1      41.297  32.341  30.238  1.00  0.00    -0.248 NA
ATOM     47  C   UNL A   1      39.609  33.670  31.153  1.00  0.00     0.031 C 
ATOM     48  C   UNL A   1      45.584  33.452  30.137  1.00  0.00     0.029 A 
ATOM     49  C   UNL A   1      44.239  33.129  30.198  1.00  0.00     0.049 A 
ATOM     50  H   UNL A   1      43.275  31.333  29.652  1.00  0.00     0.167 HD
ATOM     51  C   UNL A   1      41.847  33.540  30.677  1.00  0.00     0.074 A 
ATOM     52  C   UNL A   1      40.755  34.337  31.196  1.00  0.00     0.031 C 
ATOM     53  C   UNL A   1      43.145  33.932  30.674  1.00  0.00     0.034 A 
BRANCH  40  54
ATOM     54  C   UNL A   1      47.040  29.659  28.527  1.00  0.00     0.023 A 
ATOM     55  C   UNL A   1      47.507  29.832  27.209  1.00  0.00     0.012 A 
ATOM     56  C   UNL A   1      47.932  29.229  29.527  1.00  0.00     0.148 A 
ATOM     57  C   UNL A   1      48.838  29.568  26.888  1.00  0.00     0.002 A 
ATOM     58  C   UNL A   1      49.265  28.997  29.206  1.00  0.00     0.091 A 
ATOM     59  F   UNL A   1      47.461  29.041  30.769  1.00  0.00    -0.205 F 
ATOM     60  C   UNL A   1      49.718  29.161  27.887  1.00  0.00     0.022 A 
BRANCH  58  61
ATOM     61  S   UNL A   1      50.482  28.535  30.446  1.00  0.00     0.127 S 
ATOM     62  O   UNL A   1      51.710  28.492  29.654  1.00  0.00    -0.237 OA
ATOM     63  O   UNL A   1      50.406  29.649  31.391  1.00  0.00    -0.237 OA
ATOM     64  O   UNL A   1      50.030  27.260  30.984  1.00  0.00    -0.744 OA
ENDBRANCH  58  61
ENDBRANCH  40  54
BRANCH  41  65
ATOM     65  C   UNL A   1      37.509  31.705  30.545  1.00  0.00     0.023 A 
ATOM     66  C   UNL A   1      37.012  31.410  31.828  1.00  0.00     0.012 A 
ATOM     67  C   UNL A   1      36.667  32.340  29.612  1.00  0.00     0.148 A 
ATOM     68  C   UNL A   1      35.701  31.740  32.175  1.00  0.00     0.002 A 
ATOM     69  C   UNL A   1      35.385  32.724  29.985  1.00  0.00     0.091 A 
ATOM     70  F   UNL A   1      37.143  32.578  28.382  1.00  0.00    -0.205 F 
ATOM     71  C   UNL A   1      34.894  32.415  31.262  1.00  0.00     0.022 A 
BRANCH  69  72
ATOM     72  S   UNL A   1      34.363  33.742  28.913  1.00  0.00     0.127 S 
ATOM     73  O   UNL A   1      33.906  32.774  27.921  1.00  0.00    -0.237 OA
ATOM     74  O   UNL A   1      33.327  34.221  29.830  1.00  0.00    -0.237 OA
ATOM     75  O   UNL A   1      35.252  34.790  28.428  1.00  0.00    -0.744 OA
ENDBRANCH  69  72
ENDBRANCH  41  65
BRANCH  53  76
ATOM     76  C   UNL A   1      43.464  35.282  31.256  1.00  0.00     0.023 A 
ATOM     77  C   UNL A   1      43.677  36.373  30.389  1.00  0.00     0.012 A 
ATOM     78  C   UNL A   1      43.492  35.492  32.649  1.00  0.00     0.148 A 
ATOM     79  C   UNL A   1      43.937  37.644  30.898  1.00  0.00     0.002 A 
ATOM     80  C   UNL A   1      43.717  36.769  33.149  1.00  0.00     0.091 A 
ATOM     81  F   UNL A   1      43.310  34.439  33.460  1.00  0.00    -0.205 F 
ATOM     82  C   UNL A   1      43.946  37.845  32.277  1.00  0.00     0.022 A 
BRANCH  80  83
ATOM     83  S   UNL A   1      43.670  37.123  34.911  1.00  0.00     0.127 S 
ATOM     84  O   UNL A   1      44.763  36.292  35.413  1.00  0.00    -0.237 OA
ATOM     85  O   UNL A   1      43.932  38.563  34.954  1.00  0.00    -0.237 OA
ATOM     86  O   UNL A   1      42.334  36.745  35.352  1.00  0.00    -0.744 OA
ENDBRANCH  80  83
ENDBRANCH  53  76
ENDBRANCH  27  28
ENDBRANCH  20  22
ENDBRANCH  19  20
ENDBRANCH   1  19
TORSDOF 15
ENDMDL
MODEL 2
REMARK VINA RESULT:     -10.0      4.993      9.187
REMARK SMILES C[C@H](C(=O)OCCOC(=O)c1ccc(-c2c3nc(c(-c4cccc(S(=O)(=O)[O-])c4F)c4ccc([nH]4)c(-c4cccc(S(=O)(=O)[O-])c4F)c4nc(c(-c5cccc(S(=O)(=O)[O-])c5F)c5ccc2[nH]5)C=C4)C=C3)cc1)[N@@H+]1CCc2ccccc2C1
REMARK SMILES IDX 7 1 6 2 5 3 3 4 4 5 2 6 1 7 74 8 75 9 83 10 76 12 82 13
REMARK SMILES IDX 77 14 81 15 78 16 80 17 79 18 8 19 9 20 10 21 11 22 12 23
REMARK SMILES IDX 73 24 13 25 72 26 14 27 15 28 16 29 66 30 17 31 71 32 65 33
REMARK SMILES IDX 67 34 18 35 70 36 64 37 63 38 19 40 51 41 31 42 50 43 32 44
REMARK SMILES IDX 35 45 49 46 68 47 33 48 34 49 48 51 69 52 36 53 20 54 21 55
REMARK SMILES IDX 29 56 22 57 24 58 30 59 23 60 25 61 26 62 27 63 28 64 52 65
REMARK SMILES IDX 53 66 61 67 54 68 56 69 62 70 55 71 57 72 58 73 59 74 60 75
REMARK SMILES IDX 37 76 38 77 46 78 39 79 41 80 47 81 40 82 42 83 43 84 44 85
REMARK SMILES IDX 45 86
REMARK H PARENT 74 11 67 39 35 50
REMARK Flexibility Score: inf
ROOT
ATOM      1  C   UNL A   1      31.510  29.948  25.719  1.00  0.00     0.275 C 
ENDROOT
BRANCH   1   2
ATOM      2  C   UNL A   1      31.342  29.114  24.445  1.00  0.00     0.274 C 
BRANCH   2   3
ATOM      3  O   UNL A   1      31.766  27.747  24.633  1.00  0.00    -0.458 OA
BRANCH   3   4
ATOM      4  C   UNL A   1      32.818  27.346  23.863  1.00  0.00     0.364 C 
ATOM      5  O   UNL A   1      33.001  27.764  22.723  1.00  0.00    -0.245 OA
BRANCH   4   6
ATOM      6  C   UNL A   1      33.652  26.202  24.494  1.00  0.00     0.292 C 
ATOM      7  C   UNL A   1      33.592  26.411  26.023  1.00  0.00     0.088 C 
BRANCH   6   8
ATOM      8  N   UNL A   1      33.362  24.811  24.067  1.00  0.00    -0.319 N 
ATOM      9  C   UNL A   1      32.661  23.879  24.964  1.00  0.00     0.268 C 
ATOM     10  C   UNL A   1      34.174  24.160  23.038  1.00  0.00     0.300 C 
ATOM     11  H   UNL A   1      32.596  25.204  23.520  1.00  0.00     0.349 HD
ATOM     12  C   UNL A   1      32.860  22.376  24.642  1.00  0.00     0.097 C 
ATOM     13  C   UNL A   1      35.012  23.063  23.636  1.00  0.00     0.010 A 
ATOM     14  C   UNL A   1      34.339  22.137  24.455  1.00  0.00    -0.034 A 
ATOM     15  C   UNL A   1      36.387  22.961  23.443  1.00  0.00     0.010 A 
ATOM     16  C   UNL A   1      35.048  21.122  25.092  1.00  0.00     0.004 A 
ATOM     17  C   UNL A   1      37.094  21.948  24.088  1.00  0.00     0.001 A 
ATOM     18  C   UNL A   1      36.429  21.038  24.915  1.00  0.00     0.000 A 
ENDBRANCH   6   8
ENDBRANCH   4   6
ENDBRANCH   3   4
ENDBRANCH   2   3
ENDBRANCH   1   2
BRANCH   1  19
ATOM     19  O   UNL A   1      32.860  30.428  25.828  1.00  0.00    -0.458 OA
BRANCH  19  20
ATOM     20  C   UNL A   1      33.112  31.268  26.861  1.00  0.00     0.338 C 
ATOM     21  O   UNL A   1      32.430  32.217  27.205  1.00  0.00    -0.246 OA
BRANCH  20  22
ATOM     22  C   UNL A   1      34.405  30.917  27.488  1.00  0.00     0.060 A 
ATOM     23  C   UNL A   1      34.721  29.596  27.810  1.00  0.00     0.016 A 
ATOM     24  C   UNL A   1      35.287  31.943  27.828  1.00  0.00     0.016 A 
ATOM     25  C   UNL A   1      35.892  29.307  28.521  1.00  0.00     0.010 A 
ATOM     26  C   UNL A   1      36.489  31.645  28.481  1.00  0.00     0.010 A 
ATOM     27  C   UNL A   1      36.791  30.328  28.867  1.00  0.00    -0.014 A 
BRANCH  27  28
ATOM     28  C   UNL A   1      38.029  30.030  29.649  1.00  0.00     0.031 A 
ATOM     29  C   UNL A   1      39.081  29.100  29.098  1.00  0.00     0.074 A 
ATOM     30  C   UNL A   1      38.213  30.576  30.868  1.00  0.00     0.049 A 
ATOM     31  N   UNL A   1      40.177  28.662  29.665  1.00  0.00    -0.248 NA
ATOM     32  C   UNL A   1      38.877  28.592  27.731  1.00  0.00     0.031 C 
ATOM     33  C   UNL A   1      37.280  31.484  31.535  1.00  0.00     0.029 A 
ATOM     34  N   UNL A   1      39.240  30.432  31.771  1.00  0.00    -0.354 N 
ATOM     35  C   UNL A   1      40.771  27.803  28.747  1.00  0.00     0.074 A 
ATOM     36  C   UNL A   1      39.914  27.780  27.580  1.00  0.00     0.031 C 
ATOM     37  C   UNL A   1      37.777  31.822  32.734  1.00  0.00     0.029 A 
ATOM     38  C   UNL A   1      39.036  31.113  32.949  1.00  0.00     0.049 A 
ATOM     39  H   UNL A   1      40.045  29.895  31.592  1.00  0.00     0.167 HD
ATOM     40  C   UNL A   1      41.928  27.107  28.851  1.00  0.00     0.034 A 
ATOM     41  C   UNL A   1      39.757  31.145  34.089  1.00  0.00     0.034 A 
ATOM     42  C   UNL A   1      42.809  27.149  29.989  1.00  0.00     0.049 A 
ATOM     43  C   UNL A   1      41.030  30.354  34.187  1.00  0.00     0.074 A 
ATOM     44  C   UNL A   1      44.019  26.498  30.162  1.00  0.00     0.029 A 
ATOM     45  N   UNL A   1      42.579  27.875  31.146  1.00  0.00    -0.354 N 
ATOM     46  N   UNL A   1      41.612  29.614  33.275  1.00  0.00    -0.248 NA
ATOM     47  C   UNL A   1      41.753  30.408  35.467  1.00  0.00     0.031 C 
ATOM     48  C   UNL A   1      44.517  26.826  31.428  1.00  0.00     0.029 A 
ATOM     49  C   UNL A   1      43.620  27.685  32.039  1.00  0.00     0.049 A 
ATOM     50  H   UNL A   1      41.791  28.443  31.308  1.00  0.00     0.167 HD
ATOM     51  C   UNL A   1      42.772  29.124  33.865  1.00  0.00     0.074 A 
ATOM     52  C   UNL A   1      42.828  29.676  35.202  1.00  0.00     0.031 C 
ATOM     53  C   UNL A   1      43.691  28.270  33.352  1.00  0.00     0.034 A 
BRANCH  40  54
ATOM     54  C   UNL A   1      42.345  26.261  27.678  1.00  0.00     0.023 A 
ATOM     55  C   UNL A   1      43.198  26.813  26.702  1.00  0.00     0.012 A 
ATOM     56  C   UNL A   1      41.962  24.910  27.582  1.00  0.00     0.148 A 
ATOM     57  C   UNL A   1      43.653  26.034  25.638  1.00  0.00     0.002 A 
ATOM     58  C   UNL A   1      42.444  24.132  26.535  1.00  0.00     0.091 A 
ATOM     59  F   UNL A   1      41.125  24.413  28.504  1.00  0.00    -0.205 F 
ATOM     60  C   UNL A   1      43.286  24.693  25.561  1.00  0.00     0.022 A 
BRANCH  58  61
ATOM     61  S   UNL A   1      42.075  22.378  26.397  1.00  0.00     0.127 S 
ATOM     62  O   UNL A   1      40.618  22.392  26.270  1.00  0.00    -0.237 OA
ATOM     63  O   UNL A   1      42.789  22.002  25.176  1.00  0.00    -0.237 OA
ATOM     64  O   UNL A   1      42.599  21.769  27.611  1.00  0.00    -0.744 OA
ENDBRANCH  58  61
ENDBRANCH  40  54
BRANCH  41  65
ATOM     65  C   UNL A   1      39.285  31.986  35.226  1.00  0.00     0.023 A 
ATOM     66  C   UNL A   1      38.435  31.425  36.197  1.00  0.00     0.012 A 
ATOM     67  C   UNL A   1      39.731  33.312  35.387  1.00  0.00     0.148 A 
ATOM     68  C   UNL A   1      38.035  32.172  37.307  1.00  0.00     0.002 A 
ATOM     69  C   UNL A   1      39.382  34.027  36.526  1.00  0.00     0.091 A 
ATOM     70  F   UNL A   1      40.508  33.845  34.433  1.00  0.00    -0.205 F 
ATOM     71  C   UNL A   1      38.524  33.464  37.482  1.00  0.00     0.022 A 
BRANCH  69  72
ATOM     72  S   UNL A   1      40.115  35.627  36.889  1.00  0.00     0.127 S 
ATOM     73  O   UNL A   1      39.611  36.446  35.792  1.00  0.00    -0.237 OA
ATOM     74  O   UNL A   1      39.550  35.940  38.202  1.00  0.00    -0.237 OA
ATOM     75  O   UNL A   1      41.553  35.388  36.907  1.00  0.00    -0.744 OA
ENDBRANCH  69  72
ENDBRANCH  41  65
BRANCH  53  76
ATOM     76  C   UNL A   1      44.840  27.870  34.239  1.00  0.00     0.023 A 
ATOM     77  C   UNL A   1      46.013  28.651  34.239  1.00  0.00     0.012 A 
ATOM     78  C   UNL A   1      44.741  26.771  35.114  1.00  0.00     0.148 A 
ATOM     79  C   UNL A   1      47.079  28.328  35.077  1.00  0.00     0.002 A 
ATOM     80  C   UNL A   1      45.795  26.477  35.972  1.00  0.00     0.091 A 
ATOM     81  F   UNL A   1      43.626  26.025  35.084  1.00  0.00    -0.205 F 
ATOM     82  C   UNL A   1      46.967  27.250  35.951  1.00  0.00     0.022 A 
BRANCH  80  83
ATOM     83  S   UNL A   1      45.697  25.149  37.180  1.00  0.00     0.127 S 
ATOM     84  O   UNL A   1      44.517  25.533  37.952  1.00  0.00    -0.237 OA
ATOM     85  O   UNL A   1      45.514  23.965  36.337  1.00  0.00    -0.237 OA
ATOM     86  O   UNL A   1      46.962  25.180  37.901  1.00  0.00    -0.744 OA
ENDBRANCH  80  83
ENDBRANCH  53  76
ENDBRANCH  27  28
ENDBRANCH  20  22
ENDBRANCH  19  20
ENDBRANCH   1  19
TORSDOF 15
ENDMDL
MODEL 3
REMARK VINA RESULT:     -10.0      1.544      1.811
REMARK SMILES C[C@H](C(=O)OCCOC(=O)c1ccc(-c2c3nc(c(-c4cccc(S(=O)(=O)[O-])c4F)c4ccc([nH]4)c(-c4cccc(S(=O)(=O)[O-])c4F)c4nc(c(-c5cccc(S(=O)(=O)[O-])c5F)c5ccc2[nH]5)C=C4)C=C3)cc1)[N@@H+]1CCc2ccccc2C1
REMARK SMILES IDX 7 1 6 2 5 3 3 4 4 5 2 6 1 7 74 8 75 9 83 10 76 12 82 13
REMARK SMILES IDX 77 14 81 15 78 16 80 17 79 18 8 19 9 20 10 21 11 22 12 23
REMARK SMILES IDX 73 24 13 25 72 26 14 27 15 28 16 29 66 30 17 31 71 32 65 33
REMARK SMILES IDX 67 34 18 35 70 36 64 37 63 38 19 40 51 41 31 42 50 43 32 44
REMARK SMILES IDX 35 45 49 46 68 47 33 48 34 49 48 51 69 52 36 53 20 54 21 55
REMARK SMILES IDX 29 56 22 57 24 58 30 59 23 60 25 61 26 62 27 63 28 64 52 65
REMARK SMILES IDX 53 66 61 67 54 68 56 69 62 70 55 71 57 72 58 73 59 74 60 75
REMARK SMILES IDX 37 76 38 77 46 78 39 79 41 80 47 81 40 82 42 83 43 84 44 85
REMARK SMILES IDX 45 86
REMARK H PARENT 74 11 67 39 35 50
REMARK Flexibility Score: inf
ROOT
ATOM      1  C   UNL A   1      41.055  19.945  26.182  1.00  0.00     0.275 C 
ENDROOT
BRANCH   1   2
ATOM      2  C   UNL A   1      42.499  19.474  26.380  1.00  0.00     0.274 C 
BRANCH   2   3
ATOM      3  O   UNL A   1      42.964  18.675  25.272  1.00  0.00    -0.458 OA
BRANCH   3   4
ATOM      4  C   UNL A   1      44.030  19.182  24.587  1.00  0.00     0.364 C 
ATOM      5  O   UNL A   1      44.294  18.850  23.435  1.00  0.00    -0.245 OA
BRANCH   4   6
ATOM      6  C   UNL A   1      44.959  20.073  25.451  1.00  0.00     0.292 C 
ATOM      7  C   UNL A   1      46.338  19.379  25.465  1.00  0.00     0.088 C 
BRANCH   6   8
ATOM      8  N   UNL A   1      45.019  21.523  25.141  1.00  0.00    -0.319 N 
ATOM      9  C   UNL A   1      46.188  22.098  24.458  1.00  0.00     0.268 C 
ATOM     10  C   UNL A   1      44.243  22.486  25.922  1.00  0.00     0.300 C 
ATOM     11  H   UNL A   1      44.392  21.320  24.363  1.00  0.00     0.349 HD
ATOM     12  C   UNL A   1      46.374  23.626  24.640  1.00  0.00     0.097 C 
ATOM     13  C   UNL A   1      45.149  23.339  26.768  1.00  0.00     0.010 A 
ATOM     14  C   UNL A   1      46.242  23.935  26.112  1.00  0.00    -0.034 A 
ATOM     15  C   UNL A   1      44.968  23.518  28.138  1.00  0.00     0.010 A 
ATOM     16  C   UNL A   1      47.160  24.695  26.831  1.00  0.00     0.004 A 
ATOM     17  C   UNL A   1      45.894  24.274  28.855  1.00  0.00     0.001 A 
ATOM     18  C   UNL A   1      46.989  24.852  28.206  1.00  0.00     0.000 A 
ENDBRANCH   6   8
ENDBRANCH   4   6
ENDBRANCH   3   4
ENDBRANCH   2   3
ENDBRANCH   1   2
BRANCH   1  19
ATOM     19  O   UNL A   1      40.784  21.088  27.009  1.00  0.00    -0.458 OA
BRANCH  19  20
ATOM     20  C   UNL A   1      39.798  21.913  26.582  1.00  0.00     0.338 C 
ATOM     21  O   UNL A   1      38.866  21.612  25.857  1.00  0.00    -0.246 OA
BRANCH  20  22
ATOM     22  C   UNL A   1      40.052  23.289  27.062  1.00  0.00     0.060 A 
ATOM     23  C   UNL A   1      39.374  24.383  26.522  1.00  0.00     0.016 A 
ATOM     24  C   UNL A   1      41.042  23.493  28.023  1.00  0.00     0.016 A 
ATOM     25  C   UNL A   1      39.726  25.684  26.900  1.00  0.00     0.010 A 
ATOM     26  C   UNL A   1      41.347  24.791  28.449  1.00  0.00     0.010 A 
ATOM     27  C   UNL A   1      40.718  25.906  27.868  1.00  0.00    -0.014 A 
BRANCH  27  28
ATOM     28  C   UNL A   1      41.117  27.292  28.257  1.00  0.00     0.031 A 
ATOM     29  C   UNL A   1      42.560  27.728  28.180  1.00  0.00     0.074 A 
ATOM     30  C   UNL A   1      40.192  28.168  28.701  1.00  0.00     0.049 A 
ATOM     31  N   UNL A   1      43.102  28.861  28.550  1.00  0.00    -0.248 NA
ATOM     32  C   UNL A   1      43.520  26.767  27.613  1.00  0.00     0.031 C 
ATOM     33  C   UNL A   1      38.764  27.887  28.840  1.00  0.00     0.029 A 
ATOM     34  N   UNL A   1      40.320  29.467  29.134  1.00  0.00    -0.354 N 
ATOM     35  C   UNL A   1      44.464  28.736  28.300  1.00  0.00     0.074 A 
ATOM     36  C   UNL A   1      44.669  27.416  27.743  1.00  0.00     0.031 C 
ATOM     37  C   UNL A   1      38.146  28.979  29.316  1.00  0.00     0.029 A 
ATOM     38  C   UNL A   1      39.139  30.020  29.570  1.00  0.00     0.049 A 
ATOM     39  H   UNL A   1      41.174  29.955  29.130  1.00  0.00     0.167 HD
ATOM     40  C   UNL A   1      45.456  29.638  28.498  1.00  0.00     0.034 A 
ATOM     41  C   UNL A   1      38.878  31.214  30.142  1.00  0.00     0.034 A 
ATOM     42  C   UNL A   1      45.263  30.967  29.016  1.00  0.00     0.049 A 
ATOM     43  C   UNL A   1      39.996  32.192  30.365  1.00  0.00     0.074 A 
ATOM     44  C   UNL A   1      46.211  31.955  29.217  1.00  0.00     0.029 A 
ATOM     45  N   UNL A   1      44.047  31.495  29.416  1.00  0.00    -0.354 N 
ATOM     46  N   UNL A   1      41.262  32.083  30.044  1.00  0.00    -0.248 NA
ATOM     47  C   UNL A   1      39.651  33.464  31.019  1.00  0.00     0.031 C 
ATOM     48  C   UNL A   1      45.568  33.080  29.746  1.00  0.00     0.029 A 
ATOM     49  C   UNL A   1      44.219  32.793  29.868  1.00  0.00     0.049 A 
ATOM     50  H   UNL A   1      43.186  31.018  29.383  1.00  0.00     0.167 HD
ATOM     51  C   UNL A   1      41.862  33.271  30.447  1.00  0.00     0.074 A 
ATOM     52  C   UNL A   1      40.815  34.100  31.005  1.00  0.00     0.031 C 
ATOM     53  C   UNL A   1      43.168  33.628  30.384  1.00  0.00     0.034 A 
BRANCH  40  54
ATOM     54  C   UNL A   1      46.854  29.237  28.111  1.00  0.00     0.023 A 
ATOM     55  C   UNL A   1      47.365  29.642  26.862  1.00  0.00     0.012 A 
ATOM     56  C   UNL A   1      47.684  28.534  29.005  1.00  0.00     0.148 A 
ATOM     57  C   UNL A   1      48.678  29.341  26.503  1.00  0.00     0.002 A 
ATOM     58  C   UNL A   1      49.002  28.264  28.653  1.00  0.00     0.091 A 
ATOM     59  F   UNL A   1      47.169  28.131  30.176  1.00  0.00    -0.205 F 
ATOM     60  C   UNL A   1      49.499  28.663  27.401  1.00  0.00     0.022 A 
BRANCH  58  61
ATOM     61  S   UNL A   1      50.147  27.455  29.777  1.00  0.00     0.127 S 
ATOM     62  O   UNL A   1      51.280  27.177  28.895  1.00  0.00    -0.237 OA
ATOM     63  O   UNL A   1      50.394  28.494  30.777  1.00  0.00    -0.237 OA
ATOM     64  O   UNL A   1      49.440  26.288  30.285  1.00  0.00    -0.744 OA
ENDBRANCH  58  61
ENDBRANCH  40  54
BRANCH  41  65
ATOM     65  C   UNL A   1      37.476  31.549  30.522  1.00  0.00     0.023 A 
ATOM     66  C   UNL A   1      37.014  31.233  31.813  1.00  0.00     0.012 A 
ATOM     67  C   UNL A   1      36.626  32.242  29.639  1.00  0.00     0.148 A 
ATOM     68  C   UNL A   1      35.727  31.599  32.216  1.00  0.00     0.002 A 
ATOM     69  C   UNL A   1      35.372  32.659  30.067  1.00  0.00     0.091 A 
ATOM     70  F   UNL A   1      37.067  32.500  28.399  1.00  0.00    -0.205 F 
ATOM     71  C   UNL A   1      34.915  32.328  31.352  1.00  0.00     0.022 A 
BRANCH  69  72
ATOM     72  S   UNL A   1      34.352  33.744  29.062  1.00  0.00     0.127 S 
ATOM     73  O   UNL A   1      33.777  32.812  28.098  1.00  0.00    -0.237 OA
ATOM     74  O   UNL A   1      33.405  34.281  30.042  1.00  0.00    -0.237 OA
ATOM     75  O   UNL A   1      35.273  34.739  28.527  1.00  0.00    -0.744 OA
ENDBRANCH  69  72
ENDBRANCH  41  65
BRANCH  53  76
ATOM     76  C   UNL A   1      43.547  34.975  30.939  1.00  0.00     0.023 A 
ATOM     77  C   UNL A   1      43.935  35.078  32.289  1.00  0.00     0.012 A 
ATOM     78  C   UNL A   1      43.585  36.120  30.119  1.00  0.00     0.148 A 
ATOM     79  C   UNL A   1      44.329  36.305  32.822  1.00  0.00     0.002 A 
ATOM     80  C   UNL A   1      44.012  37.333  30.649  1.00  0.00     0.091 A 
ATOM     81  F   UNL A   1      43.190  36.009  28.842  1.00  0.00    -0.205 F 
ATOM     82  C   UNL A   1      44.378  37.429  32.001  1.00  0.00     0.022 A 
BRANCH  80  83
ATOM     83  S   UNL A   1      44.174  38.809  29.637  1.00  0.00     0.127 S 
ATOM     84  O   UNL A   1      44.672  39.783  30.606  1.00  0.00    -0.237 OA
ATOM     85  O   UNL A   1      45.153  38.399  28.629  1.00  0.00    -0.237 OA
ATOM     86  O   UNL A   1      42.842  39.069  29.107  1.00  0.00    -0.744 OA
ENDBRANCH  80  83
ENDBRANCH  53  76
ENDBRANCH  27  28
ENDBRANCH  20  22
ENDBRANCH  19  20
ENDBRANCH   1  19
TORSDOF 15
ENDMDL
