MODEL 1
REMARK VINA RESULT:     -12.5      0.000      0.000
REMARK SMILES C[C@H](NC(=O)CCN1C(=O)/C(=C/c2ccc([N+](=O)[O-])cc2)SC1=S)C(=O)OCCOC(=O)c1ccc(-c2c3nc(c(-c4cccc(S(=O)(=O)[O-])c4F)c4ccc([nH]4)c(-c4cccc(S(=O)(=O)[O-])c4F)c4nc(c(-c5cccc(S(=O)(=O)[O-])c5F)c5ccc2[nH]5)C=C4)C=C3)cc1
REMARK SMILES IDX 27 1 25 2 26 3 2 4 1 5 3 6 4 7 5 9 6 10 7 11 8 12 9 13 23 14
REMARK SMILES IDX 10 15 11 16 22 17 24 18 12 19 13 20 14 21 21 22 15 23 20 24
REMARK SMILES IDX 16 25 17 26 18 27 19 28 28 29 29 30 30 31 31 32 32 33 33 34
REMARK SMILES IDX 34 35 95 36 35 37 94 38 36 39 37 40 38 41 88 42 39 43 93 44
REMARK SMILES IDX 87 45 89 46 40 47 92 48 86 49 85 50 41 52 73 53 53 54 72 55
REMARK SMILES IDX 54 56 57 57 71 58 90 59 55 60 56 61 70 63 91 64 58 65 42 66
REMARK SMILES IDX 43 67 51 68 44 69 46 70 52 71 45 72 47 73 48 74 49 75 50 76
REMARK SMILES IDX 74 77 75 78 83 79 76 80 78 81 84 82 77 83 79 84 80 85 81 86
REMARK SMILES IDX 82 87 59 88 60 89 68 90 61 91 63 92 69 93 62 94 64 95 65 96
REMARK SMILES IDX 66 97 67 98
REMARK H PARENT 3 8 89 51 57 62
REMARK Flexibility Score: inf
ROOT
ATOM      1  O   UNL A   1      30.936  28.396  25.326  1.00  0.00    -0.461 OA
ENDROOT
BRANCH   1   2
ATOM      2  C   UNL A   1      31.101  27.286  26.101  1.00  0.00     0.328 C 
ATOM      3  O   UNL A   1      31.482  27.315  27.263  1.00  0.00    -0.250 OA
BRANCH   2   4
ATOM      4  C   UNL A   1      30.581  26.014  25.408  1.00  0.00     0.189 C 
ATOM      5  C   UNL A   1      31.061  24.709  26.046  1.00  0.00     0.043 C 
BRANCH   4   6
ATOM      6  N   UNL A   1      30.677  26.111  23.953  1.00  0.00    -0.343 N 
ATOM      7  C   UNL A   1      31.726  26.283  23.113  1.00  0.00     0.222 C 
ATOM      8  H   UNL A   1      29.810  26.035  23.494  1.00  0.00     0.164 HD
ATOM      9  O   UNL A   1      31.480  26.619  21.952  1.00  0.00    -0.275 OA
BRANCH   7  10
ATOM     10  C   UNL A   1      33.154  26.033  23.539  1.00  0.00     0.122 C 
BRANCH  10  11
ATOM     11  C   UNL A   1      33.839  24.862  22.829  1.00  0.00     0.137 C 
BRANCH  11  12
ATOM     12  N   UNL A   1      33.849  23.587  23.571  1.00  0.00    -0.292 N 
ATOM     13  C   UNL A   1      32.828  22.678  23.345  1.00  0.00     0.266 C 
ATOM     14  C   UNL A   1      34.689  23.269  24.621  1.00  0.00     0.148 C 
ATOM     15  O   UNL A   1      31.850  22.862  22.632  1.00  0.00    -0.268 OA
ATOM     16  C   UNL A   1      33.086  21.408  24.083  1.00  0.00     0.081 C 
ATOM     17  S   UNL A   1      34.432  21.597  25.118  1.00  0.00    -0.054 SA
ATOM     18  S   UNL A   1      35.795  24.254  25.392  1.00  0.00    -0.052 S 
ATOM     19  C   UNL A   1      32.413  20.301  23.741  1.00  0.00     0.029 C 
BRANCH  19  20
ATOM     20  C   UNL A   1      32.744  18.898  24.023  1.00  0.00    -0.024 A 
ATOM     21  C   UNL A   1      32.623  18.489  25.364  1.00  0.00     0.015 A 
ATOM     22  C   UNL A   1      33.206  17.985  23.072  1.00  0.00     0.015 A 
ATOM     23  C   UNL A   1      32.976  17.199  25.761  1.00  0.00     0.086 A 
ATOM     24  C   UNL A   1      33.566  16.686  23.459  1.00  0.00     0.086 A 
ATOM     25  C   UNL A   1      33.465  16.305  24.806  1.00  0.00     0.269 A 
BRANCH  25  26
ATOM     26  N   UNL A   1      33.953  14.991  25.241  1.00  0.00     0.062 N 
ATOM     27  O   UNL A   1      35.181  14.815  25.257  1.00  0.00    -0.258 OA
ATOM     28  O   UNL A   1      33.107  14.118  25.474  1.00  0.00    -0.258 OA
ENDBRANCH  25  26
ENDBRANCH  19  20
ENDBRANCH  11  12
ENDBRANCH  10  11
ENDBRANCH   7  10
ENDBRANCH   4   6
ENDBRANCH   2   4
ENDBRANCH   1   2
BRANCH   1  29
ATOM     29  C   UNL A   1      32.039  29.322  25.310  1.00  0.00     0.274 C 
BRANCH  29  30
ATOM     30  C   UNL A   1      31.728  30.656  26.004  1.00  0.00     0.275 C 
BRANCH  30  31
ATOM     31  O   UNL A   1      32.402  30.807  27.270  1.00  0.00    -0.458 OA
BRANCH  31  32
ATOM     32  C   UNL A   1      33.182  31.910  27.359  1.00  0.00     0.338 C 
ATOM     33  O   UNL A   1      32.810  33.072  27.304  1.00  0.00    -0.246 OA
BRANCH  32  34
ATOM     34  C   UNL A   1      34.570  31.562  27.702  1.00  0.00     0.060 A 
ATOM     35  C   UNL A   1      34.848  30.219  27.957  1.00  0.00     0.016 A 
ATOM     36  C   UNL A   1      35.519  32.540  27.992  1.00  0.00     0.016 A 
ATOM     37  C   UNL A   1      36.032  29.842  28.570  1.00  0.00     0.010 A 
ATOM     38  C   UNL A   1      36.733  32.157  28.579  1.00  0.00     0.010 A 
ATOM     39  C   UNL A   1      36.975  30.812  28.912  1.00  0.00    -0.014 A 
BRANCH  39  40
ATOM     40  C   UNL A   1      38.154  30.404  29.714  1.00  0.00     0.031 A 
ATOM     41  C   UNL A   1      39.169  29.468  29.117  1.00  0.00     0.074 A 
ATOM     42  C   UNL A   1      38.347  30.922  30.941  1.00  0.00     0.049 A 
ATOM     43  N   UNL A   1      40.219  28.924  29.674  1.00  0.00    -0.248 NA
ATOM     44  C   UNL A   1      38.981  29.094  27.704  1.00  0.00     0.031 C 
ATOM     45  C   UNL A   1      37.462  31.885  31.600  1.00  0.00     0.029 A 
ATOM     46  N   UNL A   1      39.347  30.709  31.855  1.00  0.00    -0.354 N 
ATOM     47  C   UNL A   1      40.781  28.103  28.705  1.00  0.00     0.074 A 
ATOM     48  C   UNL A   1      39.964  28.225  27.518  1.00  0.00     0.031 C 
ATOM     49  C   UNL A   1      37.954  32.171  32.816  1.00  0.00     0.029 A 
ATOM     50  C   UNL A   1      39.154  31.372  33.043  1.00  0.00     0.049 A 
ATOM     51  H   UNL A   1      40.127  30.135  31.677  1.00  0.00     0.167 HD
ATOM     52  C   UNL A   1      41.886  27.325  28.794  1.00  0.00     0.034 A 
ATOM     53  C   UNL A   1      39.845  31.313  34.198  1.00  0.00     0.034 A 
ATOM     54  C   UNL A   1      42.724  27.250  29.959  1.00  0.00     0.049 A 
ATOM     55  C   UNL A   1      41.053  30.421  34.276  1.00  0.00     0.074 A 
ATOM     56  C   UNL A   1      43.874  26.503  30.146  1.00  0.00     0.029 A 
ATOM     57  N   UNL A   1      42.510  27.955  31.134  1.00  0.00    -0.354 N 
ATOM     58  N   UNL A   1      41.598  29.685  33.336  1.00  0.00    -0.248 NA
ATOM     59  C   UNL A   1      41.755  30.365  35.565  1.00  0.00     0.031 C 
ATOM     60  C   UNL A   1      44.350  26.751  31.438  1.00  0.00     0.029 A 
ATOM     61  C   UNL A   1      43.504  27.661  32.051  1.00  0.00     0.049 A 
ATOM     62  H   UNL A   1      41.761  28.574  31.292  1.00  0.00     0.167 HD
ATOM     63  C   UNL A   1      42.715  29.094  33.915  1.00  0.00     0.074 A 
ATOM     64  C   UNL A   1      42.788  29.587  35.276  1.00  0.00     0.031 C 
ATOM     65  C   UNL A   1      43.588  28.206  33.381  1.00  0.00     0.034 A 
BRANCH  52  66
ATOM     66  C   UNL A   1      42.265  26.505  27.590  1.00  0.00     0.023 A 
ATOM     67  C   UNL A   1      43.018  27.092  26.555  1.00  0.00     0.012 A 
ATOM     68  C   UNL A   1      41.927  25.139  27.513  1.00  0.00     0.148 A 
ATOM     69  C   UNL A   1      43.411  26.338  25.449  1.00  0.00     0.002 A 
ATOM     70  C   UNL A   1      42.354  24.385  26.426  1.00  0.00     0.091 A 
ATOM     71  F   UNL A   1      41.189  24.607  28.497  1.00  0.00    -0.205 F 
ATOM     72  C   UNL A   1      43.089  24.984  25.390  1.00  0.00     0.022 A 
BRANCH  70  73
ATOM     73  S   UNL A   1      42.046  22.620  26.290  1.00  0.00     0.127 S 
ATOM     74  O   UNL A   1      42.655  22.315  24.996  1.00  0.00    -0.237 OA
ATOM     75  O   UNL A   1      42.773  22.091  27.444  1.00  0.00    -0.237 OA
ATOM     76  O   UNL A   1      40.601  22.459  26.356  1.00  0.00    -0.744 OA
ENDBRANCH  70  73
ENDBRANCH  52  66
BRANCH  53  77
ATOM     77  C   UNL A   1      39.412  32.124  35.371  1.00  0.00     0.023 A 
ATOM     78  C   UNL A   1      38.557  31.555  36.334  1.00  0.00     0.012 A 
ATOM     79  C   UNL A   1      39.859  33.448  35.548  1.00  0.00     0.148 A 
ATOM     80  C   UNL A   1      38.135  32.299  37.437  1.00  0.00     0.002 A 
ATOM     81  C   UNL A   1      39.484  34.162  36.680  1.00  0.00     0.091 A 
ATOM     82  F   UNL A   1      40.649  33.985  34.607  1.00  0.00    -0.205 F 
ATOM     83  C   UNL A   1      38.607  33.596  37.617  1.00  0.00     0.022 A 
BRANCH  81  84
ATOM     84  S   UNL A   1      40.172  35.778  37.052  1.00  0.00     0.127 S 
ATOM     85  O   UNL A   1      41.604  35.494  37.089  1.00  0.00    -0.237 OA
ATOM     86  O   UNL A   1      39.730  36.571  35.904  1.00  0.00    -0.237 OA
ATOM     87  O   UNL A   1      39.559  36.168  38.314  1.00  0.00    -0.744 OA
ENDBRANCH  81  84
ENDBRANCH  53  77
BRANCH  65  88
ATOM     88  C   UNL A   1      44.710  27.727  34.261  1.00  0.00     0.023 A 
ATOM     89  C   UNL A   1      45.915  28.456  34.309  1.00  0.00     0.012 A 
ATOM     90  C   UNL A   1      44.552  26.595  35.083  1.00  0.00     0.148 A 
ATOM     91  C   UNL A   1      46.958  28.047  35.137  1.00  0.00     0.002 A 
ATOM     92  C   UNL A   1      45.580  26.218  35.939  1.00  0.00     0.091 A 
ATOM     93  F   UNL A   1      43.407  25.902  35.007  1.00  0.00    -0.205 F 
ATOM     94  C   UNL A   1      46.787  26.937  35.961  1.00  0.00     0.022 A 
BRANCH  92  95
ATOM     95  S   UNL A   1      45.405  24.854  37.095  1.00  0.00     0.127 S 
ATOM     96  O   UNL A   1      44.163  25.203  37.783  1.00  0.00    -0.237 OA
ATOM     97  O   UNL A   1      45.306  23.697  36.205  1.00  0.00    -0.237 OA
ATOM     98  O   UNL A   1      46.609  24.876  37.916  1.00  0.00    -0.744 OA
ENDBRANCH  92  95
ENDBRANCH  65  88
ENDBRANCH  39  40
ENDBRANCH  32  34
ENDBRANCH  31  32
ENDBRANCH  30  31
ENDBRANCH  29  30
ENDBRANCH   1  29
TORSDOF 20
ENDMDL
MODEL 2
REMARK VINA RESULT:     -12.0      1.821      2.101
REMARK SMILES C[C@H](NC(=O)CCN1C(=O)/C(=C/c2ccc([N+](=O)[O-])cc2)SC1=S)C(=O)OCCOC(=O)c1ccc(-c2c3nc(c(-c4cccc(S(=O)(=O)[O-])c4F)c4ccc([nH]4)c(-c4cccc(S(=O)(=O)[O-])c4F)c4nc(c(-c5cccc(S(=O)(=O)[O-])c5F)c5ccc2[nH]5)C=C4)C=C3)cc1
REMARK SMILES IDX 27 1 25 2 26 3 2 4 1 5 3 6 4 7 5 9 6 10 7 11 8 12 9 13 23 14
REMARK SMILES IDX 10 15 11 16 22 17 24 18 12 19 13 20 14 21 21 22 15 23 20 24
REMARK SMILES IDX 16 25 17 26 18 27 19 28 28 29 29 30 30 31 31 32 32 33 33 34
REMARK SMILES IDX 34 35 95 36 35 37 94 38 36 39 37 40 38 41 88 42 39 43 93 44
REMARK SMILES IDX 87 45 89 46 40 47 92 48 86 49 85 50 41 52 73 53 53 54 72 55
REMARK SMILES IDX 54 56 57 57 71 58 90 59 55 60 56 61 70 63 91 64 58 65 42 66
REMARK SMILES IDX 43 67 51 68 44 69 46 70 52 71 45 72 47 73 48 74 49 75 50 76
REMARK SMILES IDX 74 77 75 78 83 79 76 80 78 81 84 82 77 83 79 84 80 85 81 86
REMARK SMILES IDX 82 87 59 88 60 89 68 90 61 91 63 92 69 93 62 94 64 95 65 96
REMARK SMILES IDX 66 97 67 98
REMARK H PARENT 3 8 89 51 57 62
REMARK Flexibility Score: inf
ROOT
ATOM      1  O   UNL A   1      30.747  28.451  25.288  1.00  0.00    -0.461 OA
ENDROOT
BRANCH   1   2
ATOM      2  C   UNL A   1      31.154  27.278  25.852  1.00  0.00     0.328 C 
ATOM      3  O   UNL A   1      31.822  27.207  26.875  1.00  0.00    -0.250 OA
BRANCH   2   4
ATOM      4  C   UNL A   1      30.526  26.055  25.160  1.00  0.00     0.189 C 
ATOM      5  C   UNL A   1      30.851  24.719  25.828  1.00  0.00     0.043 C 
BRANCH   4   6
ATOM      6  N   UNL A   1      30.671  26.120  23.708  1.00  0.00    -0.343 N 
ATOM      7  C   UNL A   1      31.746  26.274  22.900  1.00  0.00     0.222 C 
ATOM      8  H   UNL A   1      29.819  26.033  23.222  1.00  0.00     0.164 HD
ATOM      9  O   UNL A   1      31.539  26.584  21.724  1.00  0.00    -0.275 OA
BRANCH   7  10
ATOM     10  C   UNL A   1      33.159  26.036  23.379  1.00  0.00     0.122 C 
BRANCH  10  11
ATOM     11  C   UNL A   1      33.875  24.861  22.708  1.00  0.00     0.137 C 
BRANCH  11  12
ATOM     12  N   UNL A   1      33.868  23.595  23.466  1.00  0.00    -0.292 N 
ATOM     13  C   UNL A   1      32.830  22.700  23.257  1.00  0.00     0.266 C 
ATOM     14  C   UNL A   1      34.709  23.276  24.515  1.00  0.00     0.148 C 
ATOM     15  O   UNL A   1      31.851  22.892  22.547  1.00  0.00    -0.268 OA
ATOM     16  C   UNL A   1      33.071  21.436  24.009  1.00  0.00     0.081 C 
ATOM     17  S   UNL A   1      34.426  21.615  25.035  1.00  0.00    -0.054 SA
ATOM     18  S   UNL A   1      35.835  24.253  25.268  1.00  0.00    -0.052 S 
ATOM     19  C   UNL A   1      32.379  20.336  23.686  1.00  0.00     0.029 C 
BRANCH  19  20
ATOM     20  C   UNL A   1      32.688  18.931  23.984  1.00  0.00    -0.024 A 
ATOM     21  C   UNL A   1      32.553  18.538  25.328  1.00  0.00     0.015 A 
ATOM     22  C   UNL A   1      33.142  18.003  23.045  1.00  0.00     0.015 A 
ATOM     23  C   UNL A   1      32.885  17.248  25.740  1.00  0.00     0.086 A 
ATOM     24  C   UNL A   1      33.481  16.702  23.448  1.00  0.00     0.086 A 
ATOM     25  C   UNL A   1      33.367  16.337  24.798  1.00  0.00     0.269 A 
BRANCH  25  26
ATOM     26  N   UNL A   1      33.834  15.021  25.248  1.00  0.00     0.062 N 
ATOM     27  O   UNL A   1      35.059  14.838  25.306  1.00  0.00    -0.258 OA
ATOM     28  O   UNL A   1      32.975  14.152  25.453  1.00  0.00    -0.258 OA
ENDBRANCH  25  26
ENDBRANCH  19  20
ENDBRANCH  11  12
ENDBRANCH  10  11
ENDBRANCH   7  10
ENDBRANCH   4   6
ENDBRANCH   2   4
ENDBRANCH   1   2
BRANCH   1  29
ATOM     29  C   UNL A   1      31.772  29.445  25.094  1.00  0.00     0.274 C 
BRANCH  29  30
ATOM     30  C   UNL A   1      31.716  30.589  26.116  1.00  0.00     0.275 C 
BRANCH  30  31
ATOM     31  O   UNL A   1      32.673  30.444  27.184  1.00  0.00    -0.458 OA
BRANCH  31  32
ATOM     32  C   UNL A   1      33.400  31.558  27.438  1.00  0.00     0.338 C 
ATOM     33  O   UNL A   1      32.974  32.697  27.545  1.00  0.00    -0.246 OA
BRANCH  32  34
ATOM     34  C   UNL A   1      34.802  31.229  27.742  1.00  0.00     0.060 A 
ATOM     35  C   UNL A   1      35.094  29.899  28.046  1.00  0.00     0.016 A 
ATOM     36  C   UNL A   1      35.757  32.220  27.951  1.00  0.00     0.016 A 
ATOM     37  C   UNL A   1      36.302  29.552  28.630  1.00  0.00     0.010 A 
ATOM     38  C   UNL A   1      36.995  31.867  28.507  1.00  0.00     0.010 A 
ATOM     39  C   UNL A   1      37.255  30.538  28.890  1.00  0.00    -0.014 A 
BRANCH  39  40
ATOM     40  C   UNL A   1      38.465  30.170  29.663  1.00  0.00     0.031 A 
ATOM     41  C   UNL A   1      39.476  29.236  29.057  1.00  0.00     0.074 A 
ATOM     42  C   UNL A   1      38.688  30.720  30.871  1.00  0.00     0.049 A 
ATOM     43  N   UNL A   1      40.553  28.724  29.592  1.00  0.00    -0.248 NA
ATOM     44  C   UNL A   1      39.250  28.826  27.660  1.00  0.00     0.031 C 
ATOM     45  C   UNL A   1      37.808  31.684  31.535  1.00  0.00     0.029 A 
ATOM     46  N   UNL A   1      39.720  30.546  31.757  1.00  0.00    -0.354 N 
ATOM     47  C   UNL A   1      41.098  27.888  28.625  1.00  0.00     0.074 A 
ATOM     48  C   UNL A   1      40.242  27.969  27.462  1.00  0.00     0.031 C 
ATOM     49  C   UNL A   1      38.333  32.008  32.728  1.00  0.00     0.029 A 
ATOM     50  C   UNL A   1      39.553  31.235  32.935  1.00  0.00     0.049 A 
ATOM     51  H   UNL A   1      40.504  29.981  31.568  1.00  0.00     0.167 HD
ATOM     52  C   UNL A   1      42.219  27.131  28.697  1.00  0.00     0.034 A 
ATOM     53  C   UNL A   1      40.281  31.214  34.068  1.00  0.00     0.034 A 
ATOM     54  C   UNL A   1      43.094  27.098  29.836  1.00  0.00     0.049 A 
ATOM     55  C   UNL A   1      41.507  30.345  34.128  1.00  0.00     0.074 A 
ATOM     56  C   UNL A   1      44.262  26.375  30.004  1.00  0.00     0.029 A 
ATOM     57  N   UNL A   1      42.905  27.828  31.000  1.00  0.00    -0.354 N 
ATOM     58  N   UNL A   1      42.034  29.596  33.189  1.00  0.00    -0.248 NA
ATOM     59  C   UNL A   1      42.250  30.332  35.395  1.00  0.00     0.031 C 
ATOM     60  C   UNL A   1      44.775  26.662  31.273  1.00  0.00     0.029 A 
ATOM     61  C   UNL A   1      43.933  27.573  31.891  1.00  0.00     0.049 A 
ATOM     62  H   UNL A   1      42.151  28.438  31.168  1.00  0.00     0.167 HD
ATOM     63  C   UNL A   1      43.179  29.038  33.746  1.00  0.00     0.074 A 
ATOM     64  C   UNL A   1      43.287  29.564  35.091  1.00  0.00     0.031 C 
ATOM     65  C   UNL A   1      44.049  28.151  33.205  1.00  0.00     0.034 A 
BRANCH  52  66
ATOM     66  C   UNL A   1      42.573  26.288  27.502  1.00  0.00     0.023 A 
ATOM     67  C   UNL A   1      43.356  26.838  26.468  1.00  0.00     0.012 A 
ATOM     68  C   UNL A   1      42.183  24.937  27.431  1.00  0.00     0.148 A 
ATOM     69  C   UNL A   1      43.726  26.062  25.370  1.00  0.00     0.002 A 
ATOM     70  C   UNL A   1      42.587  24.158  26.353  1.00  0.00     0.091 A 
ATOM     71  F   UNL A   1      41.417  24.441  28.414  1.00  0.00    -0.205 F 
ATOM     72  C   UNL A   1      43.352  24.722  25.318  1.00  0.00     0.022 A 
BRANCH  70  73
ATOM     73  S   UNL A   1      42.211  22.407  26.226  1.00  0.00     0.127 S 
ATOM     74  O   UNL A   1      40.754  22.427  26.104  1.00  0.00    -0.237 OA
ATOM     75  O   UNL A   1      42.919  22.027  25.004  1.00  0.00    -0.237 OA
ATOM     76  O   UNL A   1      42.727  21.797  27.442  1.00  0.00    -0.744 OA
ENDBRANCH  70  73
ENDBRANCH  52  66
BRANCH  53  77
ATOM     77  C   UNL A   1      39.872  32.047  35.235  1.00  0.00     0.023 A 
ATOM     78  C   UNL A   1      40.305  33.384  35.323  1.00  0.00     0.012 A 
ATOM     79  C   UNL A   1      39.040  31.528  36.246  1.00  0.00     0.148 A 
ATOM     80  C   UNL A   1      39.938  34.179  36.410  1.00  0.00     0.002 A 
ATOM     81  C   UNL A   1      38.628  32.343  37.293  1.00  0.00     0.091 A 
ATOM     82  F   UNL A   1      38.660  30.244  36.163  1.00  0.00    -0.205 F 
ATOM     83  C   UNL A   1      39.091  33.664  37.387  1.00  0.00     0.022 A 
BRANCH  81  84
ATOM     84  S   UNL A   1      37.421  31.794  38.503  1.00  0.00     0.127 S 
ATOM     85  O   UNL A   1      38.148  31.977  39.757  1.00  0.00    -0.237 OA
ATOM     86  O   UNL A   1      36.320  32.733  38.286  1.00  0.00    -0.237 OA
ATOM     87  O   UNL A   1      37.112  30.420  38.133  1.00  0.00    -0.744 OA
ENDBRANCH  81  84
ENDBRANCH  53  77
BRANCH  65  88
ATOM     88  C   UNL A   1      45.207  27.712  34.060  1.00  0.00     0.023 A 
ATOM     89  C   UNL A   1      45.059  26.596  34.908  1.00  0.00     0.012 A 
ATOM     90  C   UNL A   1      46.454  28.361  33.980  1.00  0.00     0.148 A 
ATOM     91  C   UNL A   1      46.125  26.153  35.689  1.00  0.00     0.002 A 
ATOM     92  C   UNL A   1      47.525  27.886  34.728  1.00  0.00     0.091 A 
ATOM     93  F   UNL A   1      46.569  29.433  33.183  1.00  0.00    -0.205 F 
ATOM     94  C   UNL A   1      47.360  26.790  35.590  1.00  0.00     0.022 A 
BRANCH  92  95
ATOM     95  S   UNL A   1      49.170  28.594  34.590  1.00  0.00     0.127 S 
ATOM     96  O   UNL A   1      49.063  29.770  35.452  1.00  0.00    -0.237 OA
ATOM     97  O   UNL A   1      50.018  27.525  35.119  1.00  0.00    -0.237 OA
ATOM     98  O   UNL A   1      49.366  28.866  33.172  1.00  0.00    -0.744 OA
ENDBRANCH  92  95
ENDBRANCH  65  88
ENDBRANCH  39  40
ENDBRANCH  32  34
ENDBRANCH  31  32
ENDBRANCH  30  31
ENDBRANCH  29  30
ENDBRANCH   1  29
TORSDOF 20
ENDMDL
MODEL 3
REMARK VINA RESULT:     -11.8      1.374      7.414
REMARK SMILES C[C@H](NC(=O)CCN1C(=O)/C(=C/c2ccc([N+](=O)[O-])cc2)SC1=S)C(=O)OCCOC(=O)c1ccc(-c2c3nc(c(-c4cccc(S(=O)(=O)[O-])c4F)c4ccc([nH]4)c(-c4cccc(S(=O)(=O)[O-])c4F)c4nc(c(-c5cccc(S(=O)(=O)[O-])c5F)c5ccc2[nH]5)C=C4)C=C3)cc1
REMARK SMILES IDX 27 1 25 2 26 3 2 4 1 5 3 6 4 7 5 9 6 10 7 11 8 12 9 13 23 14
REMARK SMILES IDX 10 15 11 16 22 17 24 18 12 19 13 20 14 21 21 22 15 23 20 24
REMARK SMILES IDX 16 25 17 26 18 27 19 28 28 29 29 30 30 31 31 32 32 33 33 34
REMARK SMILES IDX 34 35 95 36 35 37 94 38 36 39 37 40 38 41 88 42 39 43 93 44
REMARK SMILES IDX 87 45 89 46 40 47 92 48 86 49 85 50 41 52 73 53 53 54 72 55
REMARK SMILES IDX 54 56 57 57 71 58 90 59 55 60 56 61 70 63 91 64 58 65 42 66
REMARK SMILES IDX 43 67 51 68 44 69 46 70 52 71 45 72 47 73 48 74 49 75 50 76
REMARK SMILES IDX 74 77 75 78 83 79 76 80 78 81 84 82 77 83 79 84 80 85 81 86
REMARK SMILES IDX 82 87 59 88 60 89 68 90 61 91 63 92 69 93 62 94 64 95 65 96
REMARK SMILES IDX 66 97 67 98
REMARK H PARENT 3 8 89 51 57 62
REMARK Flexibility Score: inf
ROOT
ATOM      1  O   UNL A   1      31.032  28.459  25.555  1.00  0.00    -0.461 OA
ENDROOT
BRANCH   1   2
ATOM      2  C   UNL A   1      31.279  27.263  26.163  1.00  0.00     0.328 C 
ATOM      3  O   UNL A   1      31.829  27.150  27.250  1.00  0.00    -0.250 OA
BRANCH   2   4
ATOM      4  C   UNL A   1      30.627  26.088  25.413  1.00  0.00     0.189 C 
ATOM      5  C   UNL A   1      30.936  24.714  26.008  1.00  0.00     0.043 C 
BRANCH   4   6
ATOM      6  N   UNL A   1      30.763  26.226  23.965  1.00  0.00    -0.343 N 
ATOM      7  C   UNL A   1      31.838  26.375  23.155  1.00  0.00     0.222 C 
ATOM      8  H   UNL A   1      29.904  26.206  23.484  1.00  0.00     0.164 HD
ATOM      9  O   UNL A   1      31.636  26.759  22.000  1.00  0.00    -0.275 OA
BRANCH   7  10
ATOM     10  C   UNL A   1      33.242  26.045  23.605  1.00  0.00     0.122 C 
BRANCH  10  11
ATOM     11  C   UNL A   1      33.896  24.877  22.863  1.00  0.00     0.137 C 
BRANCH  11  12
ATOM     12  N   UNL A   1      33.928  23.596  23.597  1.00  0.00    -0.292 N 
ATOM     13  C   UNL A   1      32.879  22.707  23.431  1.00  0.00     0.266 C 
ATOM     14  C   UNL A   1      34.826  23.258  24.592  1.00  0.00     0.148 C 
ATOM     15  O   UNL A   1      31.862  22.913  22.781  1.00  0.00    -0.268 OA
ATOM     16  C   UNL A   1      33.160  21.429  24.145  1.00  0.00     0.081 C 
ATOM     17  S   UNL A   1      34.571  21.588  25.095  1.00  0.00    -0.054 SA
ATOM     18  S   UNL A   1      35.995  24.220  25.297  1.00  0.00    -0.052 S 
ATOM     19  C   UNL A   1      32.448  20.336  23.840  1.00  0.00     0.029 C 
BRANCH  19  20
ATOM     20  C   UNL A   1      32.771  18.925  24.095  1.00  0.00    -0.024 A 
ATOM     21  C   UNL A   1      32.392  18.418  25.351  1.00  0.00     0.015 A 
ATOM     22  C   UNL A   1      33.457  18.096  23.205  1.00  0.00     0.015 A 
ATOM     23  C   UNL A   1      32.709  17.114  25.731  1.00  0.00     0.086 A 
ATOM     24  C   UNL A   1      33.782  16.782  23.575  1.00  0.00     0.086 A 
ATOM     25  C   UNL A   1      33.421  16.304  24.844  1.00  0.00     0.269 A 
BRANCH  25  26
ATOM     26  N   UNL A   1      33.862  14.976  25.286  1.00  0.00     0.062 N 
ATOM     27  O   UNL A   1      35.080  14.745  25.273  1.00  0.00    -0.258 OA
ATOM     28  O   UNL A   1      32.984  14.145  25.555  1.00  0.00    -0.258 OA
ENDBRANCH  25  26
ENDBRANCH  19  20
ENDBRANCH  11  12
ENDBRANCH  10  11
ENDBRANCH   7  10
ENDBRANCH   4   6
ENDBRANCH   2   4
ENDBRANCH   1   2
BRANCH   1  29
ATOM     29  C   UNL A   1      32.173  29.319  25.371  1.00  0.00     0.274 C 
BRANCH  29  30
ATOM     30  C   UNL A   1      32.104  30.613  26.194  1.00  0.00     0.275 C 
BRANCH  30  31
ATOM     31  O   UNL A   1      32.889  30.559  27.403  1.00  0.00    -0.458 OA
BRANCH  31  32
ATOM     32  C   UNL A   1      33.706  31.624  27.585  1.00  0.00     0.338 C 
ATOM     33  O   UNL A   1      33.383  32.801  27.573  1.00  0.00    -0.246 OA
BRANCH  32  34
ATOM     34  C   UNL A   1      35.062  31.202  27.971  1.00  0.00     0.060 A 
ATOM     35  C   UNL A   1      35.234  29.869  28.347  1.00  0.00     0.016 A 
ATOM     36  C   UNL A   1      36.082  32.125  28.184  1.00  0.00     0.016 A 
ATOM     37  C   UNL A   1      36.382  29.457  29.003  1.00  0.00     0.010 A 
ATOM     38  C   UNL A   1      37.261  31.703  28.815  1.00  0.00     0.010 A 
ATOM     39  C   UNL A   1      37.397  30.378  29.268  1.00  0.00    -0.014 A 
BRANCH  39  40
ATOM     40  C   UNL A   1      38.538  29.953  30.115  1.00  0.00     0.031 A 
ATOM     41  C   UNL A   1      38.667  30.496  31.511  1.00  0.00     0.074 A 
ATOM     42  C   UNL A   1      39.412  29.036  29.659  1.00  0.00     0.049 A 
ATOM     43  N   UNL A   1      39.627  30.321  32.380  1.00  0.00    -0.248 NA
ATOM     44  C   UNL A   1      37.568  31.349  31.998  1.00  0.00     0.031 C 
ATOM     45  C   UNL A   1      39.353  28.395  28.344  1.00  0.00     0.029 A 
ATOM     46  N   UNL A   1      40.523  28.489  30.248  1.00  0.00    -0.354 N 
ATOM     47  C   UNL A   1      39.282  31.083  33.489  1.00  0.00     0.074 A 
ATOM     48  C   UNL A   1      38.016  31.717  33.191  1.00  0.00     0.031 C 
ATOM     49  C   UNL A   1      40.388  27.548  28.223  1.00  0.00     0.029 A 
ATOM     50  C   UNL A   1      41.211  27.629  29.426  1.00  0.00     0.049 A 
ATOM     51  H   UNL A   1      40.800  28.693  31.171  1.00  0.00     0.167 HD
ATOM     52  C   UNL A   1      39.955  31.233  34.654  1.00  0.00     0.034 A 
ATOM     53  C   UNL A   1      42.393  27.008  29.607  1.00  0.00     0.034 A 
ATOM     54  C   UNL A   1      41.185  30.558  34.965  1.00  0.00     0.049 A 
ATOM     55  C   UNL A   1      43.129  27.212  30.902  1.00  0.00     0.074 A 
ATOM     56  C   UNL A   1      41.939  30.630  36.123  1.00  0.00     0.029 A 
ATOM     57  N   UNL A   1      41.838  29.676  34.117  1.00  0.00    -0.354 N 
ATOM     58  N   UNL A   1      42.767  27.901  31.958  1.00  0.00    -0.248 NA
ATOM     59  C   UNL A   1      44.428  26.539  31.039  1.00  0.00     0.031 C 
ATOM     60  C   UNL A   1      43.052  29.798  35.971  1.00  0.00     0.029 A 
ATOM     61  C   UNL A   1      42.986  29.198  34.724  1.00  0.00     0.049 A 
ATOM     62  H   UNL A   1      41.531  29.428  33.215  1.00  0.00     0.167 HD
ATOM     63  C   UNL A   1      43.783  27.729  32.891  1.00  0.00     0.074 A 
ATOM     64  C   UNL A   1      44.757  26.843  32.288  1.00  0.00     0.031 C 
ATOM     65  C   UNL A   1      43.913  28.273  34.125  1.00  0.00     0.034 A 
BRANCH  52  66
ATOM     66  C   UNL A   1      39.364  32.150  35.692  1.00  0.00     0.023 A 
ATOM     67  C   UNL A   1      38.369  31.667  36.564  1.00  0.00     0.012 A 
ATOM     68  C   UNL A   1      39.836  33.468  35.842  1.00  0.00     0.148 A 
ATOM     69  C   UNL A   1      37.837  32.489  37.557  1.00  0.00     0.002 A 
ATOM     70  C   UNL A   1      39.328  34.271  36.857  1.00  0.00     0.091 A 
ATOM     71  F   UNL A   1      40.766  33.915  34.985  1.00  0.00    -0.205 F 
ATOM     72  C   UNL A   1      38.323  33.785  37.710  1.00  0.00     0.022 A 
BRANCH  70  73
ATOM     73  S   UNL A   1      39.936  35.930  37.177  1.00  0.00     0.127 S 
ATOM     74  O   UNL A   1      39.619  36.606  35.919  1.00  0.00    -0.237 OA
ATOM     75  O   UNL A   1      39.114  36.345  38.314  1.00  0.00    -0.237 OA
ATOM     76  O   UNL A   1      41.354  35.789  37.470  1.00  0.00    -0.744 OA
ENDBRANCH  70  73
ENDBRANCH  52  66
BRANCH  53  77
ATOM     77  C   UNL A   1      42.949  26.132  28.536  1.00  0.00     0.023 A 
ATOM     78  C   UNL A   1      42.436  24.832  28.363  1.00  0.00     0.012 A 
ATOM     79  C   UNL A   1      43.968  26.587  27.677  1.00  0.00     0.148 A 
ATOM     80  C   UNL A   1      42.945  23.994  27.371  1.00  0.00     0.002 A 
ATOM     81  C   UNL A   1      44.427  25.769  26.652  1.00  0.00     0.091 A 
ATOM     82  F   UNL A   1      44.466  27.816  27.873  1.00  0.00    -0.205 F 
ATOM     83  C   UNL A   1      43.931  24.465  26.508  1.00  0.00     0.022 A 
BRANCH  81  84
ATOM     84  S   UNL A   1      45.585  26.361  25.414  1.00  0.00     0.127 S 
ATOM     85  O   UNL A   1      46.776  26.622  26.216  1.00  0.00    -0.237 OA
ATOM     86  O   UNL A   1      45.686  25.212  24.513  1.00  0.00    -0.237 OA
ATOM     87  O   UNL A   1      44.941  27.525  24.821  1.00  0.00    -0.744 OA
ENDBRANCH  81  84
ENDBRANCH  53  77
BRANCH  65  88
ATOM     88  C   UNL A   1      45.141  27.908  34.914  1.00  0.00     0.023 A 
ATOM     89  C   UNL A   1      46.290  28.718  34.823  1.00  0.00     0.012 A 
ATOM     90  C   UNL A   1      45.139  26.804  35.788  1.00  0.00     0.148 A 
ATOM     91  C   UNL A   1      47.431  28.416  35.565  1.00  0.00     0.002 A 
ATOM     92  C   UNL A   1      46.264  26.535  36.558  1.00  0.00     0.091 A 
ATOM     93  F   UNL A   1      44.043  26.033  35.844  1.00  0.00    -0.205 F 
ATOM     94  C   UNL A   1      47.414  27.333  36.441  1.00  0.00     0.022 A 
BRANCH  92  95
ATOM     95  S   UNL A   1      46.291  25.213  37.775  1.00  0.00     0.127 S 
ATOM     96  O   UNL A   1      45.809  24.077  36.992  1.00  0.00    -0.237 OA
ATOM     97  O   UNL A   1      47.708  25.147  38.137  1.00  0.00    -0.237 OA
ATOM     98  O   UNL A   1      45.418  25.653  38.855  1.00  0.00    -0.744 OA
ENDBRANCH  92  95
ENDBRANCH  65  88
ENDBRANCH  39  40
ENDBRANCH  32  34
ENDBRANCH  31  32
ENDBRANCH  30  31
ENDBRANCH  29  30
ENDBRANCH   1  29
TORSDOF 20
ENDMDL
