MODEL 1
REMARK VINA RESULT:     -13.0      0.000      0.000
REMARK SMILES Cc1ccc2[nH]c(C(=O)OCCOC(=O)c3ccc(-c4c5nc(c(-c6cccc(S(=O)(=O)[O-])c6F)c6ccc([nH]6)c(-c6cccc(S(=O)(=O)[O-])c6F)c6nc(c(-c7cccc(S(=O)(=O)[O-])c7F)c7ccc4[nH]7)C=C6)C=C5)cc3)c(NC(=O)[C@H]3C[C@H]3c3ccccc3)c2c1
REMARK SMILES IDX 11 1 10 2 8 3 9 4 7 5 1 6 2 7 3 8 93 9 4 10 92 11 5 12 79 13
REMARK SMILES IDX 6 14 80 16 81 17 82 19 83 20 84 21 85 22 86 23 87 24 91 25
REMARK SMILES IDX 88 26 90 27 89 28 12 29 13 30 14 31 15 32 16 33 17 34 78 35
REMARK SMILES IDX 18 36 77 37 19 38 20 39 21 40 71 41 22 42 76 43 70 44 72 45
REMARK SMILES IDX 23 46 75 47 69 48 68 49 24 51 56 52 36 53 55 54 37 55 40 56
REMARK SMILES IDX 54 57 73 58 38 59 39 60 53 62 74 63 41 64 25 65 26 66 34 67
REMARK SMILES IDX 27 68 29 69 35 70 28 71 30 72 31 73 32 74 33 75 57 76 58 77
REMARK SMILES IDX 66 78 59 79 61 80 67 81 60 82 62 83 63 84 64 85 65 86 42 87
REMARK SMILES IDX 43 88 51 89 44 90 46 91 52 92 45 93 47 94 48 95 49 96 50 97
REMARK H PARENT 6 15 80 18 72 50 40 61
REMARK Flexibility Score: inf
ROOT
ATOM      1  C   UNL A   1      35.439  21.598  24.292  1.00  0.00     0.275 C 
ENDROOT
BRANCH   1   2
ATOM      2  O   UNL A   1      35.742  22.875  23.675  1.00  0.00    -0.457 OA
BRANCH   2   3
ATOM      3  C   UNL A   1      34.681  23.534  23.123  1.00  0.00     0.357 C 
ATOM      4  O   UNL A   1      34.072  23.134  22.140  1.00  0.00    -0.244 OA
BRANCH   3   5
ATOM      5  C   UNL A   1      34.225  24.629  23.952  1.00  0.00     0.149 A 
ATOM      6  C   UNL A   1      32.666  29.516  27.253  1.00  0.00     0.044 C 
ATOM      7  C   UNL A   1      33.022  28.567  26.146  1.00  0.00    -0.050 A 
ATOM      8  C   UNL A   1      33.198  29.053  24.849  1.00  0.00     0.005 A 
ATOM      9  C   UNL A   1      33.195  27.189  26.413  1.00  0.00     0.016 A 
ATOM     10  C   UNL A   1      33.580  28.206  23.812  1.00  0.00     0.027 A 
ATOM     11  C   UNL A   1      33.588  26.303  25.378  1.00  0.00     0.024 A 
ATOM     12  C   UNL A   1      33.781  26.859  24.122  1.00  0.00     0.048 A 
ATOM     13  C   UNL A   1      33.890  24.870  25.292  1.00  0.00     0.082 A 
ATOM     14  N   UNL A   1      34.237  25.858  23.324  1.00  0.00    -0.347 N 
ATOM     15  H   UNL A   1      34.542  25.995  22.398  1.00  0.00     0.167 HD
BRANCH  13  16
ATOM     16  N   UNL A   1      33.863  24.082  26.463  1.00  0.00    -0.323 N 
ATOM     17  C   UNL A   1      33.134  22.984  26.886  1.00  0.00     0.228 C 
ATOM     18  H   UNL A   1      34.514  24.385  27.136  1.00  0.00     0.170 HD
ATOM     19  O   UNL A   1      33.385  22.421  27.947  1.00  0.00    -0.274 OA
BRANCH  17  20
ATOM     20  C   UNL A   1      32.017  22.570  26.053  1.00  0.00     0.087 C 
ATOM     21  C   UNL A   1      30.671  23.008  26.556  1.00  0.00     0.023 C 
ATOM     22  C   UNL A   1      31.032  23.145  25.093  1.00  0.00     0.032 C 
BRANCH  22  23
ATOM     23  C   UNL A   1      30.491  24.402  24.501  1.00  0.00    -0.044 A 
ATOM     24  C   UNL A   1      30.763  24.640  23.129  1.00  0.00     0.004 A 
ATOM     25  C   UNL A   1      30.044  25.484  25.260  1.00  0.00     0.004 A 
ATOM     26  C   UNL A   1      30.656  25.901  22.554  1.00  0.00     0.000 A 
ATOM     27  C   UNL A   1      29.934  26.758  24.686  1.00  0.00     0.000 A 
ATOM     28  C   UNL A   1      30.257  26.969  23.343  1.00  0.00     0.000 A 
ENDBRANCH  22  23
ENDBRANCH  17  20
ENDBRANCH  13  16
ENDBRANCH   3   5
ENDBRANCH   2   3
ENDBRANCH   1   2
BRANCH   1  29
ATOM     29  C   UNL A   1      36.399  21.328  25.458  1.00  0.00     0.275 C 
BRANCH  29  30
ATOM     30  O   UNL A   1      37.608  22.066  25.232  1.00  0.00    -0.458 OA
BRANCH  30  31
ATOM     31  C   UNL A   1      38.678  21.543  25.874  1.00  0.00     0.338 C 
ATOM     32  O   UNL A   1      39.192  20.452  25.686  1.00  0.00    -0.246 OA
BRANCH  31  33
ATOM     33  C   UNL A   1      39.350  22.662  26.543  1.00  0.00     0.060 A 
ATOM     34  C   UNL A   1      38.851  23.938  26.270  1.00  0.00     0.016 A 
ATOM     35  C   UNL A   1      40.407  22.479  27.428  1.00  0.00     0.016 A 
ATOM     36  C   UNL A   1      39.428  25.059  26.842  1.00  0.00     0.010 A 
ATOM     37  C   UNL A   1      40.997  23.605  28.000  1.00  0.00     0.010 A 
ATOM     38  C   UNL A   1      40.533  24.897  27.678  1.00  0.00    -0.014 A 
BRANCH  38  39
ATOM     39  C   UNL A   1      41.335  26.077  28.062  1.00  0.00     0.031 A 
ATOM     40  C   UNL A   1      40.648  27.160  28.843  1.00  0.00     0.074 A 
ATOM     41  C   UNL A   1      42.630  26.177  27.719  1.00  0.00     0.049 A 
ATOM     42  N   UNL A   1      41.041  28.377  29.098  1.00  0.00    -0.248 NA
ATOM     43  C   UNL A   1      39.319  26.828  29.391  1.00  0.00     0.031 C 
ATOM     44  C   UNL A   1      43.403  25.149  27.022  1.00  0.00     0.029 A 
ATOM     45  N   UNL A   1      43.515  27.211  27.884  1.00  0.00    -0.354 N 
ATOM     46  C   UNL A   1      39.977  28.982  29.756  1.00  0.00     0.074 A 
ATOM     47  C   UNL A   1      38.927  27.996  29.877  1.00  0.00     0.031 C 
ATOM     48  C   UNL A   1      44.641  25.618  26.788  1.00  0.00     0.029 A 
ATOM     49  C   UNL A   1      44.720  26.997  27.258  1.00  0.00     0.049 A 
ATOM     50  H   UNL A   1      43.307  28.025  28.398  1.00  0.00     0.167 HD
ATOM     51  C   UNL A   1      39.891  30.252  30.214  1.00  0.00     0.034 A 
ATOM     52  C   UNL A   1      45.743  27.846  27.040  1.00  0.00     0.034 A 
ATOM     53  C   UNL A   1      40.972  31.192  30.125  1.00  0.00     0.049 A 
ATOM     54  C   UNL A   1      45.619  29.257  27.548  1.00  0.00     0.074 A 
ATOM     55  C   UNL A   1      41.025  32.494  30.584  1.00  0.00     0.029 A 
ATOM     56  N   UNL A   1      42.198  30.923  29.531  1.00  0.00    -0.354 N 
ATOM     57  N   UNL A   1      44.628  29.816  28.201  1.00  0.00    -0.248 NA
ATOM     58  C   UNL A   1      46.758  30.152  27.304  1.00  0.00     0.031 C 
ATOM     59  C   UNL A   1      42.275  33.021  30.245  1.00  0.00     0.029 A 
ATOM     60  C   UNL A   1      43.014  32.036  29.606  1.00  0.00     0.049 A 
ATOM     61  H   UNL A   1      42.449  30.065  29.119  1.00  0.00     0.167 HD
ATOM     62  C   UNL A   1      45.032  31.117  28.473  1.00  0.00     0.074 A 
ATOM     63  C   UNL A   1      46.371  31.254  27.932  1.00  0.00     0.031 C 
ATOM     64  C   UNL A   1      44.359  32.117  29.096  1.00  0.00     0.034 A 
BRANCH  51  65
ATOM     65  C   UNL A   1      38.589  30.687  30.835  1.00  0.00     0.023 A 
ATOM     66  C   UNL A   1      38.329  30.433  32.197  1.00  0.00     0.012 A 
ATOM     67  C   UNL A   1      37.624  31.368  30.065  1.00  0.00     0.148 A 
ATOM     68  C   UNL A   1      37.117  30.815  32.772  1.00  0.00     0.002 A 
ATOM     69  C   UNL A   1      36.440  31.790  30.658  1.00  0.00     0.091 A 
ATOM     70  F   UNL A   1      37.876  31.577  28.765  1.00  0.00    -0.205 F 
ATOM     71  C   UNL A   1      36.179  31.501  32.007  1.00  0.00     0.022 A 
BRANCH  69  72
ATOM     72  S   UNL A   1      35.200  32.745  29.777  1.00  0.00     0.127 S 
ATOM     73  O   UNL A   1      35.990  33.875  29.289  1.00  0.00    -0.237 OA
ATOM     74  O   UNL A   1      34.772  31.806  28.740  1.00  0.00    -0.237 OA
ATOM     75  O   UNL A   1      34.176  33.078  30.757  1.00  0.00    -0.744 OA
ENDBRANCH  69  72
ENDBRANCH  51  65
BRANCH  52  76
ATOM     76  C   UNL A   1      46.956  27.384  26.305  1.00  0.00     0.023 A 
ATOM     77  C   UNL A   1      47.897  26.570  26.963  1.00  0.00     0.012 A 
ATOM     78  C   UNL A   1      47.166  27.718  24.952  1.00  0.00     0.148 A 
ATOM     79  C   UNL A   1      49.036  26.116  26.295  1.00  0.00     0.002 A 
ATOM     80  C   UNL A   1      48.271  27.215  24.276  1.00  0.00     0.091 A 
ATOM     81  F   UNL A   1      46.268  28.509  24.346  1.00  0.00    -0.205 F 
ATOM     82  C   UNL A   1      49.217  26.428  24.951  1.00  0.00     0.022 A 
BRANCH  80  83
ATOM     83  S   UNL A   1      48.514  27.454  22.512  1.00  0.00     0.127 S 
ATOM     84  O   UNL A   1      48.565  26.077  22.027  1.00  0.00    -0.237 OA
ATOM     85  O   UNL A   1      47.309  28.195  22.140  1.00  0.00    -0.237 OA
ATOM     86  O   UNL A   1      49.750  28.215  22.385  1.00  0.00    -0.744 OA
ENDBRANCH  80  83
ENDBRANCH  52  76
BRANCH  64  87
ATOM     87  C   UNL A   1      45.078  33.428  29.265  1.00  0.00     0.023 A 
ATOM     88  C   UNL A   1      45.863  33.658  30.412  1.00  0.00     0.012 A 
ATOM     89  C   UNL A   1      45.034  34.399  28.245  1.00  0.00     0.148 A 
ATOM     90  C   UNL A   1      46.566  34.851  30.557  1.00  0.00     0.002 A 
ATOM     91  C   UNL A   1      45.781  35.562  28.373  1.00  0.00     0.091 A 
ATOM     92  F   UNL A   1      44.266  34.164  27.171  1.00  0.00    -0.205 F 
ATOM     93  C   UNL A   1      46.536  35.797  29.533  1.00  0.00     0.022 A 
BRANCH  91  94
ATOM     94  S   UNL A   1      45.885  36.783  27.061  1.00  0.00     0.127 S 
ATOM     95  O   UNL A   1      46.846  37.736  27.618  1.00  0.00    -0.237 OA
ATOM     96  O   UNL A   1      46.392  35.990  25.940  1.00  0.00    -0.237 OA
ATOM     97  O   UNL A   1      44.534  37.295  26.878  1.00  0.00    -0.744 OA
ENDBRANCH  91  94
ENDBRANCH  64  87
ENDBRANCH  38  39
ENDBRANCH  31  33
ENDBRANCH  30  31
ENDBRANCH  29  30
ENDBRANCH   1  29
TORSDOF 17
ENDMDL
MODEL 2
REMARK VINA RESULT:     -12.8      1.642      3.009
REMARK SMILES Cc1ccc2[nH]c(C(=O)OCCOC(=O)c3ccc(-c4c5nc(c(-c6cccc(S(=O)(=O)[O-])c6F)c6ccc([nH]6)c(-c6cccc(S(=O)(=O)[O-])c6F)c6nc(c(-c7cccc(S(=O)(=O)[O-])c7F)c7ccc4[nH]7)C=C6)C=C5)cc3)c(NC(=O)[C@H]3C[C@H]3c3ccccc3)c2c1
REMARK SMILES IDX 11 1 10 2 8 3 9 4 7 5 1 6 2 7 3 8 93 9 4 10 92 11 5 12 79 13
REMARK SMILES IDX 6 14 80 16 81 17 82 19 83 20 84 21 85 22 86 23 87 24 91 25
REMARK SMILES IDX 88 26 90 27 89 28 12 29 13 30 14 31 15 32 16 33 17 34 78 35
REMARK SMILES IDX 18 36 77 37 19 38 20 39 21 40 71 41 22 42 76 43 70 44 72 45
REMARK SMILES IDX 23 46 75 47 69 48 68 49 24 51 56 52 36 53 55 54 37 55 40 56
REMARK SMILES IDX 54 57 73 58 38 59 39 60 53 62 74 63 41 64 25 65 26 66 34 67
REMARK SMILES IDX 27 68 29 69 35 70 28 71 30 72 31 73 32 74 33 75 57 76 58 77
REMARK SMILES IDX 66 78 59 79 61 80 67 81 60 82 62 83 63 84 64 85 65 86 42 87
REMARK SMILES IDX 43 88 51 89 44 90 46 91 52 92 45 93 47 94 48 95 49 96 50 97
REMARK H PARENT 6 15 80 18 72 50 40 61
REMARK Flexibility Score: inf
ROOT
ATOM      1  C   UNL A   1      35.607  22.699  25.749  1.00  0.00     0.275 C 
ENDROOT
BRANCH   1   2
ATOM      2  O   UNL A   1      35.993  23.829  24.925  1.00  0.00    -0.457 OA
BRANCH   2   3
ATOM      3  C   UNL A   1      35.490  23.836  23.656  1.00  0.00     0.357 C 
ATOM      4  O   UNL A   1      36.035  23.287  22.707  1.00  0.00    -0.244 OA
BRANCH   3   5
ATOM      5  C   UNL A   1      34.147  24.372  23.603  1.00  0.00     0.149 A 
ATOM      6  C   UNL A   1      28.521  26.716  23.861  1.00  0.00     0.044 C 
ATOM      7  C   UNL A   1      29.999  26.477  23.970  1.00  0.00    -0.050 A 
ATOM      8  C   UNL A   1      30.797  27.384  24.670  1.00  0.00     0.005 A 
ATOM      9  C   UNL A   1      30.582  25.331  23.380  1.00  0.00     0.016 A 
ATOM     10  C   UNL A   1      32.162  27.162  24.831  1.00  0.00     0.027 A 
ATOM     11  C   UNL A   1      31.969  25.075  23.533  1.00  0.00     0.024 A 
ATOM     12  C   UNL A   1      32.695  25.999  24.271  1.00  0.00     0.048 A 
ATOM     13  C   UNL A   1      32.885  24.009  23.112  1.00  0.00     0.082 A 
ATOM     14  N   UNL A   1      33.959  25.509  24.362  1.00  0.00    -0.347 N 
ATOM     15  H   UNL A   1      34.665  25.922  24.911  1.00  0.00     0.167 HD
BRANCH  13  16
ATOM     16  N   UNL A   1      32.376  22.888  22.422  1.00  0.00    -0.323 N 
ATOM     17  C   UNL A   1      32.307  21.530  22.679  1.00  0.00     0.228 C 
ATOM     18  H   UNL A   1      31.978  23.128  21.555  1.00  0.00     0.170 HD
ATOM     19  O   UNL A   1      31.708  20.766  21.928  1.00  0.00    -0.274 OA
BRANCH  17  20
ATOM     20  C   UNL A   1      33.031  21.038  23.841  1.00  0.00     0.087 C 
ATOM     21  C   UNL A   1      32.158  20.461  24.918  1.00  0.00     0.023 C 
ATOM     22  C   UNL A   1      33.422  19.752  24.484  1.00  0.00     0.032 C 
BRANCH  22  23
ATOM     23  C   UNL A   1      33.251  18.271  24.461  1.00  0.00    -0.044 A 
ATOM     24  C   UNL A   1      32.631  17.675  25.589  1.00  0.00     0.004 A 
ATOM     25  C   UNL A   1      33.943  17.426  23.591  1.00  0.00     0.004 A 
ATOM     26  C   UNL A   1      32.742  16.318  25.873  1.00  0.00     0.000 A 
ATOM     27  C   UNL A   1      34.058  16.058  23.872  1.00  0.00     0.000 A 
ATOM     28  C   UNL A   1      33.476  15.510  25.019  1.00  0.00     0.000 A 
ENDBRANCH  22  23
ENDBRANCH  17  20
ENDBRANCH  13  16
ENDBRANCH   3   5
ENDBRANCH   2   3
ENDBRANCH   1   2
BRANCH   1  29
ATOM     29  C   UNL A   1      36.561  21.520  25.518  1.00  0.00     0.275 C 
BRANCH  29  30
ATOM     30  O   UNL A   1      37.848  22.039  25.158  1.00  0.00    -0.458 OA
BRANCH  30  31
ATOM     31  C   UNL A   1      38.854  21.534  25.908  1.00  0.00     0.338 C 
ATOM     32  O   UNL A   1      39.364  20.429  25.816  1.00  0.00    -0.246 OA
BRANCH  31  33
ATOM     33  C   UNL A   1      39.488  22.676  26.577  1.00  0.00     0.060 A 
ATOM     34  C   UNL A   1      39.042  23.944  26.194  1.00  0.00     0.016 A 
ATOM     35  C   UNL A   1      40.459  22.524  27.561  1.00  0.00     0.016 A 
ATOM     36  C   UNL A   1      39.590  25.084  26.758  1.00  0.00     0.010 A 
ATOM     37  C   UNL A   1      41.019  23.668  28.124  1.00  0.00     0.010 A 
ATOM     38  C   UNL A   1      40.613  24.949  27.696  1.00  0.00    -0.014 A 
BRANCH  38  39
ATOM     39  C   UNL A   1      41.402  26.135  28.089  1.00  0.00     0.031 A 
ATOM     40  C   UNL A   1      40.704  27.205  28.877  1.00  0.00     0.074 A 
ATOM     41  C   UNL A   1      42.697  26.250  27.747  1.00  0.00     0.049 A 
ATOM     42  N   UNL A   1      41.085  28.424  29.140  1.00  0.00    -0.248 NA
ATOM     43  C   UNL A   1      39.378  26.856  29.421  1.00  0.00     0.031 C 
ATOM     44  C   UNL A   1      43.481  25.235  27.044  1.00  0.00     0.029 A 
ATOM     45  N   UNL A   1      43.571  27.292  27.920  1.00  0.00    -0.354 N 
ATOM     46  C   UNL A   1      40.014  29.014  29.801  1.00  0.00     0.074 A 
ATOM     47  C   UNL A   1      38.974  28.016  29.914  1.00  0.00     0.031 C 
ATOM     48  C   UNL A   1      44.714  25.717  26.815  1.00  0.00     0.029 A 
ATOM     49  C   UNL A   1      44.779  27.094  27.294  1.00  0.00     0.049 A 
ATOM     50  H   UNL A   1      43.355  28.100  28.439  1.00  0.00     0.167 HD
ATOM     51  C   UNL A   1      39.914  30.279  30.268  1.00  0.00     0.034 A 
ATOM     52  C   UNL A   1      45.793  27.954  27.082  1.00  0.00     0.034 A 
ATOM     53  C   UNL A   1      40.987  31.232  30.186  1.00  0.00     0.049 A 
ATOM     54  C   UNL A   1      45.655  29.361  27.600  1.00  0.00     0.074 A 
ATOM     55  C   UNL A   1      41.025  32.530  30.654  1.00  0.00     0.029 A 
ATOM     56  N   UNL A   1      42.216  30.979  29.592  1.00  0.00    -0.354 N 
ATOM     57  N   UNL A   1      44.657  29.906  28.256  1.00  0.00    -0.248 NA
ATOM     58  C   UNL A   1      46.785  30.269  27.363  1.00  0.00     0.031 C 
ATOM     59  C   UNL A   1      42.270  33.072  30.319  1.00  0.00     0.029 A 
ATOM     60  C   UNL A   1      43.020  32.100  29.674  1.00  0.00     0.049 A 
ATOM     61  H   UNL A   1      42.476  30.126  29.173  1.00  0.00     0.167 HD
ATOM     62  C   UNL A   1      45.048  31.209  28.537  1.00  0.00     0.074 A 
ATOM     63  C   UNL A   1      46.386  31.363  27.998  1.00  0.00     0.031 C 
ATOM     64  C   UNL A   1      44.365  32.197  29.166  1.00  0.00     0.034 A 
BRANCH  51  65
ATOM     65  C   UNL A   1      38.607  30.697  30.890  1.00  0.00     0.023 A 
ATOM     66  C   UNL A   1      38.359  30.454  32.256  1.00  0.00     0.012 A 
ATOM     67  C   UNL A   1      37.627  31.352  30.118  1.00  0.00     0.148 A 
ATOM     68  C   UNL A   1      37.143  30.819  32.833  1.00  0.00     0.002 A 
ATOM     69  C   UNL A   1      36.438  31.757  30.712  1.00  0.00     0.091 A 
ATOM     70  F   UNL A   1      37.868  31.550  28.814  1.00  0.00    -0.205 F 
ATOM     71  C   UNL A   1      36.189  31.479  32.066  1.00  0.00     0.022 A 
BRANCH  69  72
ATOM     72  S   UNL A   1      35.176  32.680  29.827  1.00  0.00     0.127 S 
ATOM     73  O   UNL A   1      35.962  33.759  29.231  1.00  0.00    -0.237 OA
ATOM     74  O   UNL A   1      34.683  31.684  28.874  1.00  0.00    -0.237 OA
ATOM     75  O   UNL A   1      34.204  33.097  30.828  1.00  0.00    -0.744 OA
ENDBRANCH  69  72
ENDBRANCH  51  65
BRANCH  52  76
ATOM     76  C   UNL A   1      47.011  27.510  26.346  1.00  0.00     0.023 A 
ATOM     77  C   UNL A   1      47.984  26.743  27.014  1.00  0.00     0.012 A 
ATOM     78  C   UNL A   1      47.195  27.813  24.982  1.00  0.00     0.148 A 
ATOM     79  C   UNL A   1      49.129  26.306  26.344  1.00  0.00     0.002 A 
ATOM     80  C   UNL A   1      48.308  27.326  24.306  1.00  0.00     0.091 A 
ATOM     81  F   UNL A   1      46.267  28.560  24.366  1.00  0.00    -0.205 F 
ATOM     82  C   UNL A   1      49.285  26.587  24.990  1.00  0.00     0.022 A 
BRANCH  80  83
ATOM     83  S   UNL A   1      48.524  27.524  22.534  1.00  0.00     0.127 S 
ATOM     84  O   UNL A   1      49.798  28.234  22.464  1.00  0.00    -0.237 OA
ATOM     85  O   UNL A   1      48.567  26.134  22.079  1.00  0.00    -0.237 OA
ATOM     86  O   UNL A   1      47.358  28.269  22.076  1.00  0.00    -0.744 OA
ENDBRANCH  80  83
ENDBRANCH  52  76
BRANCH  64  87
ATOM     87  C   UNL A   1      45.070  33.514  29.345  1.00  0.00     0.023 A 
ATOM     88  C   UNL A   1      45.847  33.746  30.496  1.00  0.00     0.012 A 
ATOM     89  C   UNL A   1      45.021  34.490  28.329  1.00  0.00     0.148 A 
ATOM     90  C   UNL A   1      46.539  34.946  30.650  1.00  0.00     0.002 A 
ATOM     91  C   UNL A   1      45.757  35.659  28.466  1.00  0.00     0.091 A 
ATOM     92  F   UNL A   1      44.261  34.252  27.250  1.00  0.00    -0.205 F 
ATOM     93  C   UNL A   1      46.504  35.896  29.631  1.00  0.00     0.022 A 
BRANCH  91  94
ATOM     94  S   UNL A   1      45.855  36.888  27.160  1.00  0.00     0.127 S 
ATOM     95  O   UNL A   1      46.347  36.089  26.038  1.00  0.00    -0.237 OA
ATOM     96  O   UNL A   1      44.462  37.320  27.038  1.00  0.00    -0.237 OA
ATOM     97  O   UNL A   1      46.768  37.916  27.642  1.00  0.00    -0.744 OA
ENDBRANCH  91  94
ENDBRANCH  64  87
ENDBRANCH  38  39
ENDBRANCH  31  33
ENDBRANCH  30  31
ENDBRANCH  29  30
ENDBRANCH   1  29
TORSDOF 17
ENDMDL
MODEL 3
REMARK VINA RESULT:     -12.4      1.332      7.521
REMARK SMILES Cc1ccc2[nH]c(C(=O)OCCOC(=O)c3ccc(-c4c5nc(c(-c6cccc(S(=O)(=O)[O-])c6F)c6ccc([nH]6)c(-c6cccc(S(=O)(=O)[O-])c6F)c6nc(c(-c7cccc(S(=O)(=O)[O-])c7F)c7ccc4[nH]7)C=C6)C=C5)cc3)c(NC(=O)[C@H]3C[C@H]3c3ccccc3)c2c1
REMARK SMILES IDX 11 1 10 2 8 3 9 4 7 5 1 6 2 7 3 8 93 9 4 10 92 11 5 12 79 13
REMARK SMILES IDX 6 14 80 16 81 17 82 19 83 20 84 21 85 22 86 23 87 24 91 25
REMARK SMILES IDX 88 26 90 27 89 28 12 29 13 30 14 31 15 32 16 33 17 34 78 35
REMARK SMILES IDX 18 36 77 37 19 38 20 39 21 40 71 41 22 42 76 43 70 44 72 45
REMARK SMILES IDX 23 46 75 47 69 48 68 49 24 51 56 52 36 53 55 54 37 55 40 56
REMARK SMILES IDX 54 57 73 58 38 59 39 60 53 62 74 63 41 64 25 65 26 66 34 67
REMARK SMILES IDX 27 68 29 69 35 70 28 71 30 72 31 73 32 74 33 75 57 76 58 77
REMARK SMILES IDX 66 78 59 79 61 80 67 81 60 82 62 83 63 84 64 85 65 86 42 87
REMARK SMILES IDX 43 88 51 89 44 90 46 91 52 92 45 93 47 94 48 95 49 96 50 97
REMARK H PARENT 6 15 80 18 72 50 40 61
REMARK Flexibility Score: inf
ROOT
ATOM      1  C   UNL A   1      36.551  21.403  24.265  1.00  0.00     0.275 C 
ENDROOT
BRANCH   1   2
ATOM      2  O   UNL A   1      35.487  22.290  24.694  1.00  0.00    -0.457 OA
BRANCH   2   3
ATOM      3  C   UNL A   1      35.138  23.269  23.809  1.00  0.00     0.357 C 
ATOM      4  O   UNL A   1      35.191  23.135  22.594  1.00  0.00    -0.244 OA
BRANCH   3   5
ATOM      5  C   UNL A   1      34.499  24.393  24.460  1.00  0.00     0.149 A 
ATOM      6  C   UNL A   1      32.193  29.398  27.075  1.00  0.00     0.044 C 
ATOM      7  C   UNL A   1      32.792  28.403  26.123  1.00  0.00    -0.050 A 
ATOM      8  C   UNL A   1      33.228  28.826  24.866  1.00  0.00     0.005 A 
ATOM      9  C   UNL A   1      32.928  27.047  26.500  1.00  0.00     0.016 A 
ATOM     10  C   UNL A   1      33.834  27.937  23.982  1.00  0.00     0.027 A 
ATOM     11  C   UNL A   1      33.546  26.120  25.622  1.00  0.00     0.024 A 
ATOM     12  C   UNL A   1      33.990  26.614  24.405  1.00  0.00     0.048 A 
ATOM     13  C   UNL A   1      33.885  24.693  25.684  1.00  0.00     0.082 A 
ATOM     14  N   UNL A   1      34.621  25.587  23.779  1.00  0.00    -0.347 N 
ATOM     15  H   UNL A   1      35.111  25.684  22.931  1.00  0.00     0.167 HD
BRANCH  13  16
ATOM     16  N   UNL A   1      33.626  23.968  26.867  1.00  0.00    -0.323 N 
ATOM     17  C   UNL A   1      32.790  22.919  27.207  1.00  0.00     0.228 C 
ATOM     18  H   UNL A   1      34.165  24.282  27.627  1.00  0.00     0.170 HD
ATOM     19  O   UNL A   1      32.833  22.402  28.319  1.00  0.00    -0.274 OA
BRANCH  17  20
ATOM     20  C   UNL A   1      31.813  22.502  26.213  1.00  0.00     0.087 C 
ATOM     21  C   UNL A   1      30.407  22.941  26.502  1.00  0.00     0.023 C 
ATOM     22  C   UNL A   1      30.988  23.073  25.112  1.00  0.00     0.032 C 
BRANCH  22  23
ATOM     23  C   UNL A   1      30.545  24.328  24.439  1.00  0.00    -0.044 A 
ATOM     24  C   UNL A   1      31.036  24.567  23.130  1.00  0.00     0.004 A 
ATOM     25  C   UNL A   1      29.975  25.408  25.114  1.00  0.00     0.004 A 
ATOM     26  C   UNL A   1      31.019  25.828  22.544  1.00  0.00     0.000 A 
ATOM     27  C   UNL A   1      29.954  26.681  24.529  1.00  0.00     0.000 A 
ATOM     28  C   UNL A   1      30.491  26.894  23.257  1.00  0.00     0.000 A 
ENDBRANCH  22  23
ENDBRANCH  17  20
ENDBRANCH  13  16
ENDBRANCH   3   5
ENDBRANCH   2   3
ENDBRANCH   1   2
BRANCH   1  29
ATOM     29  C   UNL A   1      37.384  20.947  25.470  1.00  0.00     0.275 C 
BRANCH  29  30
ATOM     30  O   UNL A   1      38.743  21.358  25.266  1.00  0.00    -0.458 OA
BRANCH  30  31
ATOM     31  C   UNL A   1      39.521  21.180  26.358  1.00  0.00     0.338 C 
ATOM     32  O   UNL A   1      40.085  20.155  26.706  1.00  0.00    -0.246 OA
BRANCH  31  33
ATOM     33  C   UNL A   1      39.893  22.520  26.826  1.00  0.00     0.060 A 
ATOM     34  C   UNL A   1      39.114  23.580  26.354  1.00  0.00     0.016 A 
ATOM     35  C   UNL A   1      40.940  22.739  27.714  1.00  0.00     0.016 A 
ATOM     36  C   UNL A   1      39.395  24.883  26.728  1.00  0.00     0.010 A 
ATOM     37  C   UNL A   1      41.233  24.050  28.085  1.00  0.00     0.010 A 
ATOM     38  C   UNL A   1      40.485  25.126  27.564  1.00  0.00    -0.014 A 
BRANCH  38  39
ATOM     39  C   UNL A   1      40.975  26.509  27.738  1.00  0.00     0.031 A 
ATOM     40  C   UNL A   1      42.323  26.846  27.168  1.00  0.00     0.074 A 
ATOM     41  C   UNL A   1      40.241  27.428  28.388  1.00  0.00     0.049 A 
ATOM     42  N   UNL A   1      43.075  27.890  27.377  1.00  0.00    -0.248 NA
ATOM     43  C   UNL A   1      42.913  25.851  26.252  1.00  0.00     0.031 C 
ATOM     44  C   UNL A   1      38.894  27.216  28.917  1.00  0.00     0.029 A 
ATOM     45  N   UNL A   1      40.544  28.716  28.743  1.00  0.00    -0.354 N 
ATOM     46  C   UNL A   1      44.259  27.639  26.694  1.00  0.00     0.074 A 
ATOM     47  C   UNL A   1      44.121  26.353  26.050  1.00  0.00     0.031 C 
ATOM     48  C   UNL A   1      38.497  28.327  29.559  1.00  0.00     0.029 A 
ATOM     49  C   UNL A   1      39.588  29.297  29.543  1.00  0.00     0.049 A 
ATOM     50  H   UNL A   1      41.363  29.179  28.454  1.00  0.00     0.167 HD
ATOM     51  C   UNL A   1      45.361  28.419  26.619  1.00  0.00     0.034 A 
ATOM     52  C   UNL A   1      39.624  30.453  30.231  1.00  0.00     0.034 A 
ATOM     53  C   UNL A   1      45.447  29.717  27.228  1.00  0.00     0.049 A 
ATOM     54  C   UNL A   1      40.866  31.299  30.141  1.00  0.00     0.074 A 
ATOM     55  C   UNL A   1      46.491  30.620  27.192  1.00  0.00     0.029 A 
ATOM     56  N   UNL A   1      44.438  30.295  27.986  1.00  0.00    -0.354 N 
ATOM     57  N   UNL A   1      41.969  31.077  29.466  1.00  0.00    -0.248 NA
ATOM     58  C   UNL A   1      40.866  32.560  30.894  1.00  0.00     0.031 C 
ATOM     59  C   UNL A   1      46.124  31.734  27.952  1.00  0.00     0.029 A 
ATOM     60  C   UNL A   1      44.836  31.541  28.432  1.00  0.00     0.049 A 
ATOM     61  H   UNL A   1      43.567  29.878  28.178  1.00  0.00     0.167 HD
ATOM     62  C   UNL A   1      42.783  32.181  29.687  1.00  0.00     0.074 A 
ATOM     63  C   UNL A   1      42.033  33.081  30.541  1.00  0.00     0.031 C 
ATOM     64  C   UNL A   1      44.041  32.427  29.242  1.00  0.00     0.034 A 
BRANCH  51  65
ATOM     65  C   UNL A   1      46.551  27.882  25.865  1.00  0.00     0.023 A 
ATOM     66  C   UNL A   1      46.686  28.122  24.483  1.00  0.00     0.012 A 
ATOM     67  C   UNL A   1      47.549  27.149  26.538  1.00  0.00     0.148 A 
ATOM     68  C   UNL A   1      47.773  27.609  23.776  1.00  0.00     0.002 A 
ATOM     69  C   UNL A   1      48.655  26.684  25.836  1.00  0.00     0.091 A 
ATOM     70  F   UNL A   1      47.391  26.906  27.847  1.00  0.00    -0.205 F 
ATOM     71  C   UNL A   1      48.761  26.901  24.453  1.00  0.00     0.022 A 
BRANCH  69  72
ATOM     72  S   UNL A   1      50.018  25.825  26.630  1.00  0.00     0.127 S 
ATOM     73  O   UNL A   1      50.909  25.575  25.498  1.00  0.00    -0.237 OA
ATOM     74  O   UNL A   1      50.501  26.830  27.577  1.00  0.00    -0.237 OA
ATOM     75  O   UNL A   1      49.443  24.636  27.244  1.00  0.00    -0.744 OA
ENDBRANCH  69  72
ENDBRANCH  51  65
BRANCH  52  76
ATOM     76  C   UNL A   1      38.456  30.868  31.061  1.00  0.00     0.023 A 
ATOM     77  C   UNL A   1      38.479  30.643  32.450  1.00  0.00     0.012 A 
ATOM     78  C   UNL A   1      37.342  31.514  30.490  1.00  0.00     0.148 A 
ATOM     79  C   UNL A   1      37.404  31.031  33.252  1.00  0.00     0.002 A 
ATOM     80  C   UNL A   1      36.301  31.951  31.301  1.00  0.00     0.091 A 
ATOM     81  F   UNL A   1      37.329  31.705  29.163  1.00  0.00    -0.205 F 
ATOM     82  C   UNL A   1      36.322  31.694  32.681  1.00  0.00     0.022 A 
BRANCH  80  83
ATOM     83  S   UNL A   1      34.933  32.930  30.672  1.00  0.00     0.127 S 
ATOM     84  O   UNL A   1      34.046  32.987  31.831  1.00  0.00    -0.237 OA
ATOM     85  O   UNL A   1      35.594  34.191  30.339  1.00  0.00    -0.237 OA
ATOM     86  O   UNL A   1      34.422  32.198  29.520  1.00  0.00    -0.744 OA
ENDBRANCH  80  83
ENDBRANCH  52  76
BRANCH  64  87
ATOM     87  C   UNL A   1      44.664  33.740  29.634  1.00  0.00     0.023 A 
ATOM     88  C   UNL A   1      45.465  33.822  30.790  1.00  0.00     0.012 A 
ATOM     89  C   UNL A   1      44.515  34.871  28.808  1.00  0.00     0.148 A 
ATOM     90  C   UNL A   1      46.081  35.022  31.136  1.00  0.00     0.002 A 
ATOM     91  C   UNL A   1      45.176  36.048  29.131  1.00  0.00     0.091 A 
ATOM     92  F   UNL A   1      43.734  34.772  27.722  1.00  0.00    -0.205 F 
ATOM     93  C   UNL A   1      45.947  36.130  30.301  1.00  0.00     0.022 A 
BRANCH  91  94
ATOM     94  S   UNL A   1      45.148  37.489  28.060  1.00  0.00     0.127 S 
ATOM     95  O   UNL A   1      45.928  38.452  28.838  1.00  0.00    -0.237 OA
ATOM     96  O   UNL A   1      45.815  36.993  26.856  1.00  0.00    -0.237 OA
ATOM     97  O   UNL A   1      43.743  37.827  27.877  1.00  0.00    -0.744 OA
ENDBRANCH  91  94
ENDBRANCH  64  87
ENDBRANCH  38  39
ENDBRANCH  31  33
ENDBRANCH  30  31
ENDBRANCH  29  30
ENDBRANCH   1  29
TORSDOF 17
ENDMDL
