MODEL 1
REMARK VINA RESULT:     -11.3      0.000      0.000
REMARK SMILES NC(=O)[C@@H]1CCCCN1C(=O)N[C@H]1C=C[C@@H](C(=O)OCCOC(=O)c2ccc(-c3c4nc(c(-c5cccc(S(=O)(=O)[O-])c5F)c5ccc([nH]5)c(-c5cccc(S(=O)(=O)[O-])c5F)c5nc(c(-c6cccc(S(=O)(=O)[O-])c6F)c6ccc3[nH]6)C=C5)C=C4)cc2)C1
REMARK SMILES IDX 20 1 19 2 17 3 18 4 16 5 13 6 14 7 88 8 15 9 12 10 10 11
REMARK SMILES IDX 11 12 9 14 4 15 5 16 6 17 8 18 7 19 2 20 1 21 3 24 21 25
REMARK SMILES IDX 22 26 23 27 24 28 25 29 26 30 87 31 27 32 86 33 28 34 29 35
REMARK SMILES IDX 30 36 80 37 31 38 85 39 79 40 81 41 32 42 84 43 78 44 77 45
REMARK SMILES IDX 33 47 65 48 45 49 64 50 46 51 49 52 63 53 82 54 47 55 48 56
REMARK SMILES IDX 62 58 83 59 50 60 34 61 35 62 43 63 36 64 38 65 44 66 37 67
REMARK SMILES IDX 39 68 40 69 41 70 42 71 66 72 67 73 75 74 68 75 70 76 76 77
REMARK SMILES IDX 69 78 71 79 72 80 73 81 74 82 51 83 52 84 60 85 53 86 55 87
REMARK SMILES IDX 61 88 54 89 56 90 57 91 58 92 59 93
REMARK H PARENT 12 13 1 22 1 23 81 46 49 57
REMARK Flexibility Score: inf
ROOT
ATOM      1  C   UNL A   1      35.902  19.816  24.981  1.00  0.00     0.274 C 
ENDROOT
BRANCH   1   2
ATOM      2  O   UNL A   1      35.147  20.950  25.446  1.00  0.00    -0.462 OA
BRANCH   2   3
ATOM      3  C   UNL A   1      34.161  21.399  24.626  1.00  0.00     0.312 C 
ATOM      4  O   UNL A   1      33.235  20.711  24.210  1.00  0.00    -0.252 OA
BRANCH   3   5
ATOM      5  C   UNL A   1      34.331  22.858  24.217  1.00  0.00     0.124 C 
ATOM      6  C   UNL A   1      33.541  25.136  24.615  1.00  0.00     0.107 C 
ATOM      7  C   UNL A   1      34.816  24.848  25.353  1.00  0.00    -0.006 C 
ATOM      8  C   UNL A   1      33.071  23.729  24.226  1.00  0.00     0.048 C 
ATOM      9  C   UNL A   1      35.252  23.602  25.134  1.00  0.00    -0.014 C 
BRANCH   6  10
ATOM     10  N   UNL A   1      32.613  25.780  25.512  1.00  0.00    -0.332 N 
ATOM     11  C   UNL A   1      31.590  26.643  25.419  1.00  0.00     0.318 C 
ATOM     12  O   UNL A   1      30.979  26.775  26.483  1.00  0.00    -0.249 OA
ATOM     13  H   UNL A   1      32.773  25.514  26.446  1.00  0.00     0.165 HD
BRANCH  11  14
ATOM     14  N   UNL A   1      31.246  27.327  24.290  1.00  0.00    -0.313 N 
ATOM     15  C   UNL A   1      31.712  28.729  24.095  1.00  0.00     0.176 C 
ATOM     16  C   UNL A   1      30.517  29.699  24.165  1.00  0.00     0.035 C 
ATOM     17  C   UNL A   1      29.447  29.319  23.143  1.00  0.00     0.004 C 
ATOM     18  C   UNL A   1      30.282  26.942  23.255  1.00  0.00     0.122 C 
ATOM     19  C   UNL A   1      29.051  27.852  23.296  1.00  0.00     0.022 C 
BRANCH  15  20
ATOM     20  C   UNL A   1      32.931  29.316  24.856  1.00  0.00     0.240 C 
ATOM     21  N   UNL A   1      34.166  28.921  24.422  1.00  0.00    -0.368 N 
ATOM     22  H   UNL A   1      34.976  29.261  24.865  1.00  0.00     0.159 HD
ATOM     23  H   UNL A   1      34.245  28.299  23.663  1.00  0.00     0.159 HD
ATOM     24  O   UNL A   1      32.825  30.077  25.815  1.00  0.00    -0.273 OA
ENDBRANCH  15  20
ENDBRANCH  11  14
ENDBRANCH   6  10
ENDBRANCH   3   5
ENDBRANCH   2   3
ENDBRANCH   1   2
BRANCH   1  25
ATOM     25  C   UNL A   1      37.360  20.204  24.722  1.00  0.00     0.275 C 
BRANCH  25  26
ATOM     26  O   UNL A   1      37.824  21.185  25.668  1.00  0.00    -0.458 OA
BRANCH  26  27
ATOM     27  C   UNL A   1      39.093  21.009  26.107  1.00  0.00     0.338 C 
ATOM     28  O   UNL A   1      39.767  19.996  26.034  1.00  0.00    -0.246 OA
BRANCH  27  29
ATOM     29  C   UNL A   1      39.634  22.288  26.592  1.00  0.00     0.060 A 
ATOM     30  C   UNL A   1      39.066  23.469  26.104  1.00  0.00     0.016 A 
ATOM     31  C   UNL A   1      40.731  22.330  27.452  1.00  0.00     0.016 A 
ATOM     32  C   UNL A   1      39.601  24.701  26.466  1.00  0.00     0.010 A 
ATOM     33  C   UNL A   1      41.265  23.569  27.819  1.00  0.00     0.010 A 
ATOM     34  C   UNL A   1      40.711  24.761  27.317  1.00  0.00    -0.014 A 
BRANCH  34  35
ATOM     35  C   UNL A   1      41.307  26.073  27.662  1.00  0.00     0.031 A 
ATOM     36  C   UNL A   1      42.725  26.379  27.278  1.00  0.00     0.074 A 
ATOM     37  C   UNL A   1      40.570  26.982  28.327  1.00  0.00     0.049 A 
ATOM     38  N   UNL A   1      43.436  27.446  27.532  1.00  0.00    -0.248 NA
ATOM     39  C   UNL A   1      43.440  25.349  26.506  1.00  0.00     0.031 C 
ATOM     40  C   UNL A   1      39.182  26.796  28.748  1.00  0.00     0.029 A 
ATOM     41  N   UNL A   1      40.895  28.235  28.782  1.00  0.00    -0.354 N 
ATOM     42  C   UNL A   1      44.689  27.208  26.983  1.00  0.00     0.074 A 
ATOM     43  C   UNL A   1      44.645  25.892  26.383  1.00  0.00     0.031 C 
ATOM     44  C   UNL A   1      38.777  27.890  29.414  1.00  0.00     0.029 A 
ATOM     45  C   UNL A   1      39.885  28.837  29.495  1.00  0.00     0.049 A 
ATOM     46  H   UNL A   1      41.766  28.661  28.614  1.00  0.00     0.167 HD
ATOM     47  C   UNL A   1      45.773  28.020  26.966  1.00  0.00     0.034 A 
ATOM     48  C   UNL A   1      39.865  30.011  30.158  1.00  0.00     0.034 A 
ATOM     49  C   UNL A   1      45.804  29.338  27.540  1.00  0.00     0.049 A 
ATOM     50  C   UNL A   1      41.091  30.884  30.139  1.00  0.00     0.074 A 
ATOM     51  C   UNL A   1      46.845  30.252  27.540  1.00  0.00     0.029 A 
ATOM     52  N   UNL A   1      44.752  29.933  28.218  1.00  0.00    -0.354 N 
ATOM     53  N   UNL A   1      42.233  30.688  29.525  1.00  0.00    -0.248 NA
ATOM     54  C   UNL A   1      41.016  32.150  30.881  1.00  0.00     0.031 C 
ATOM     55  C   UNL A   1      46.424  31.393  28.231  1.00  0.00     0.029 A 
ATOM     56  C   UNL A   1      45.117  31.196  28.649  1.00  0.00     0.049 A 
ATOM     57  H   UNL A   1      43.873  29.516  28.372  1.00  0.00     0.167 HD
ATOM     58  C   UNL A   1      43.003  31.817  29.784  1.00  0.00     0.074 A 
ATOM     59  C   UNL A   1      42.187  32.702  30.591  1.00  0.00     0.031 C 
ATOM     60  C   UNL A   1      44.275  32.088  29.404  1.00  0.00     0.034 A 
BRANCH  47  61
ATOM     61  C   UNL A   1      47.010  27.517  26.272  1.00  0.00     0.023 A 
ATOM     62  C   UNL A   1      47.216  27.828  24.914  1.00  0.00     0.012 A 
ATOM     63  C   UNL A   1      47.992  26.791  26.974  1.00  0.00     0.148 A 
ATOM     64  C   UNL A   1      48.370  27.403  24.256  1.00  0.00     0.002 A 
ATOM     65  C   UNL A   1      49.156  26.401  26.320  1.00  0.00     0.091 A 
ATOM     66  F   UNL A   1      47.766  26.484  28.259  1.00  0.00    -0.205 F 
ATOM     67  C   UNL A   1      49.342  26.699  24.960  1.00  0.00     0.022 A 
BRANCH  65  68
ATOM     68  S   UNL A   1      50.495  25.548  27.161  1.00  0.00     0.127 S 
ATOM     69  O   UNL A   1      51.461  25.376  26.077  1.00  0.00    -0.237 OA
ATOM     70  O   UNL A   1      50.891  26.521  28.181  1.00  0.00    -0.237 OA
ATOM     71  O   UNL A   1      49.916  24.321  27.690  1.00  0.00    -0.744 OA
ENDBRANCH  65  68
ENDBRANCH  47  61
BRANCH  48  72
ATOM     72  C   UNL A   1      38.624  30.445  30.858  1.00  0.00     0.023 A 
ATOM     73  C   UNL A   1      38.487  30.197  32.237  1.00  0.00     0.012 A 
ATOM     74  C   UNL A   1      37.599  31.129  30.177  1.00  0.00     0.148 A 
ATOM     75  C   UNL A   1      37.341  30.605  32.921  1.00  0.00     0.002 A 
ATOM     76  C   UNL A   1      36.485  31.581  30.875  1.00  0.00     0.091 A 
ATOM     77  F   UNL A   1      37.737  31.335  28.859  1.00  0.00    -0.205 F 
ATOM     78  C   UNL A   1      36.347  31.307  32.244  1.00  0.00     0.022 A 
BRANCH  76  79
ATOM     79  S   UNL A   1      35.223  32.603  30.107  1.00  0.00     0.127 S 
ATOM     80  O   UNL A   1      34.277  32.786  31.203  1.00  0.00    -0.237 OA
ATOM     81  O   UNL A   1      35.981  33.800  29.738  1.00  0.00    -0.237 OA
ATOM     82  O   UNL A   1      34.738  31.831  28.969  1.00  0.00    -0.744 OA
ENDBRANCH  76  79
ENDBRANCH  48  72
BRANCH  60  83
ATOM     83  C   UNL A   1      44.866  33.406  29.833  1.00  0.00     0.023 A 
ATOM     84  C   UNL A   1      45.599  33.480  31.033  1.00  0.00     0.012 A 
ATOM     85  C   UNL A   1      44.762  34.545  29.011  1.00  0.00     0.148 A 
ATOM     86  C   UNL A   1      46.201  34.676  31.422  1.00  0.00     0.002 A 
ATOM     87  C   UNL A   1      45.400  35.722  29.385  1.00  0.00     0.091 A 
ATOM     88  F   UNL A   1      44.042  34.459  27.884  1.00  0.00    -0.205 F 
ATOM     89  C   UNL A   1      46.112  35.793  30.593  1.00  0.00     0.022 A 
BRANCH  87  90
ATOM     90  S   UNL A   1      45.413  37.181  28.335  1.00  0.00     0.127 S 
ATOM     91  O   UNL A   1      44.042  37.666  28.480  1.00  0.00    -0.237 OA
ATOM     92  O   UNL A   1      46.428  38.018  28.974  1.00  0.00    -0.237 OA
ATOM     93  O   UNL A   1      45.774  36.709  27.004  1.00  0.00    -0.744 OA
ENDBRANCH  87  90
ENDBRANCH  60  83
ENDBRANCH  34  35
ENDBRANCH  27  29
ENDBRANCH  26  27
ENDBRANCH  25  26
ENDBRANCH   1  25
TORSDOF 17
ENDMDL
MODEL 2
REMARK VINA RESULT:     -11.2      1.407      1.624
REMARK SMILES NC(=O)[C@@H]1CCCCN1C(=O)N[C@H]1C=C[C@@H](C(=O)OCCOC(=O)c2ccc(-c3c4nc(c(-c5cccc(S(=O)(=O)[O-])c5F)c5ccc([nH]5)c(-c5cccc(S(=O)(=O)[O-])c5F)c5nc(c(-c6cccc(S(=O)(=O)[O-])c6F)c6ccc3[nH]6)C=C5)C=C4)cc2)C1
REMARK SMILES IDX 20 1 19 2 17 3 18 4 16 5 13 6 14 7 88 8 15 9 12 10 10 11
REMARK SMILES IDX 11 12 9 14 4 15 5 16 6 17 8 18 7 19 2 20 1 21 3 24 21 25
REMARK SMILES IDX 22 26 23 27 24 28 25 29 26 30 87 31 27 32 86 33 28 34 29 35
REMARK SMILES IDX 30 36 80 37 31 38 85 39 79 40 81 41 32 42 84 43 78 44 77 45
REMARK SMILES IDX 33 47 65 48 45 49 64 50 46 51 49 52 63 53 82 54 47 55 48 56
REMARK SMILES IDX 62 58 83 59 50 60 34 61 35 62 43 63 36 64 38 65 44 66 37 67
REMARK SMILES IDX 39 68 40 69 41 70 42 71 66 72 67 73 75 74 68 75 70 76 76 77
REMARK SMILES IDX 69 78 71 79 72 80 73 81 74 82 51 83 52 84 60 85 53 86 55 87
REMARK SMILES IDX 61 88 54 89 56 90 57 91 58 92 59 93
REMARK H PARENT 12 13 1 22 1 23 81 46 49 57
REMARK Flexibility Score: inf
ROOT
ATOM      1  C   UNL A   1      36.126  20.029  24.941  1.00  0.00     0.274 C 
ENDROOT
BRANCH   1   2
ATOM      2  O   UNL A   1      35.683  21.042  25.865  1.00  0.00    -0.462 OA
BRANCH   2   3
ATOM      3  C   UNL A   1      34.379  21.413  25.779  1.00  0.00     0.312 C 
ATOM      4  O   UNL A   1      33.451  20.816  26.314  1.00  0.00    -0.252 OA
BRANCH   3   5
ATOM      5  C   UNL A   1      34.154  22.639  24.903  1.00  0.00     0.124 C 
ATOM      6  C   UNL A   1      33.068  24.826  24.789  1.00  0.00     0.107 C 
ATOM      7  C   UNL A   1      34.520  24.939  25.152  1.00  0.00    -0.006 C 
ATOM      8  C   UNL A   1      32.795  23.336  25.024  1.00  0.00     0.048 C 
ATOM      9  C   UNL A   1      35.118  23.743  25.211  1.00  0.00    -0.014 C 
BRANCH   6  10
ATOM     10  N   UNL A   1      32.295  25.657  25.679  1.00  0.00    -0.332 N 
ATOM     11  C   UNL A   1      31.460  26.703  25.574  1.00  0.00     0.318 C 
ATOM     12  O   UNL A   1      30.900  26.974  26.640  1.00  0.00    -0.249 OA
ATOM     13  H   UNL A   1      32.410  25.384  26.617  1.00  0.00     0.165 HD
BRANCH  11  14
ATOM     14  N   UNL A   1      31.244  27.418  24.433  1.00  0.00    -0.313 N 
ATOM     15  C   UNL A   1      31.759  28.812  24.318  1.00  0.00     0.176 C 
ATOM     16  C   UNL A   1      30.584  29.809  24.293  1.00  0.00     0.035 C 
ATOM     17  C   UNL A   1      29.611  29.476  23.162  1.00  0.00     0.004 C 
ATOM     18  C   UNL A   1      30.379  27.079  23.300  1.00  0.00     0.122 C 
ATOM     19  C   UNL A   1      29.170  28.016  23.241  1.00  0.00     0.022 C 
BRANCH  15  20
ATOM     20  C   UNL A   1      32.909  29.353  25.208  1.00  0.00     0.240 C 
ATOM     21  N   UNL A   1      34.162  28.879  24.935  1.00  0.00    -0.368 N 
ATOM     22  H   UNL A   1      34.931  29.187  25.466  1.00  0.00     0.159 HD
ATOM     23  H   UNL A   1      34.295  28.232  24.206  1.00  0.00     0.159 HD
ATOM     24  O   UNL A   1      32.733  30.147  26.129  1.00  0.00    -0.273 OA
ENDBRANCH  15  20
ENDBRANCH  11  14
ENDBRANCH   6  10
ENDBRANCH   3   5
ENDBRANCH   2   3
ENDBRANCH   1   2
BRANCH   1  25
ATOM     25  C   UNL A   1      37.653  19.923  24.942  1.00  0.00     0.275 C 
BRANCH  25  26
ATOM     26  O   UNL A   1      38.268  21.131  25.427  1.00  0.00    -0.458 OA
BRANCH  26  27
ATOM     27  C   UNL A   1      39.386  20.951  26.170  1.00  0.00     0.338 C 
ATOM     28  O   UNL A   1      39.984  19.906  26.366  1.00  0.00    -0.246 OA
BRANCH  27  29
ATOM     29  C   UNL A   1      39.890  22.252  26.634  1.00  0.00     0.060 A 
ATOM     30  C   UNL A   1      39.315  23.409  26.099  1.00  0.00     0.016 A 
ATOM     31  C   UNL A   1      40.963  22.338  27.522  1.00  0.00     0.016 A 
ATOM     32  C   UNL A   1      39.817  24.660  26.441  1.00  0.00     0.010 A 
ATOM     33  C   UNL A   1      41.465  23.597  27.867  1.00  0.00     0.010 A 
ATOM     34  C   UNL A   1      40.903  24.764  27.319  1.00  0.00    -0.014 A 
BRANCH  34  35
ATOM     35  C   UNL A   1      41.465  26.095  27.644  1.00  0.00     0.031 A 
ATOM     36  C   UNL A   1      42.863  26.444  27.222  1.00  0.00     0.074 A 
ATOM     37  C   UNL A   1      40.717  26.985  28.323  1.00  0.00     0.049 A 
ATOM     38  N   UNL A   1      43.546  27.535  27.453  1.00  0.00    -0.248 NA
ATOM     39  C   UNL A   1      43.590  25.434  26.436  1.00  0.00     0.031 C 
ATOM     40  C   UNL A   1      39.346  26.757  28.779  1.00  0.00     0.029 A 
ATOM     41  N   UNL A   1      41.014  28.250  28.764  1.00  0.00    -0.354 N 
ATOM     42  C   UNL A   1      44.792  27.333  26.873  1.00  0.00     0.074 A 
ATOM     43  C   UNL A   1      44.774  26.013  26.281  1.00  0.00     0.031 C 
ATOM     44  C   UNL A   1      38.924  27.841  29.451  1.00  0.00     0.029 A 
ATOM     45  C   UNL A   1      40.003  28.823  29.500  1.00  0.00     0.049 A 
ATOM     46  H   UNL A   1      41.866  28.702  28.572  1.00  0.00     0.167 HD
ATOM     47  C   UNL A   1      45.849  28.179  26.826  1.00  0.00     0.034 A 
ATOM     48  C   UNL A   1      39.962  29.999  30.158  1.00  0.00     0.034 A 
ATOM     49  C   UNL A   1      45.853  29.501  27.393  1.00  0.00     0.049 A 
ATOM     50  C   UNL A   1      41.159  30.910  30.104  1.00  0.00     0.074 A 
ATOM     51  C   UNL A   1      46.863  30.446  27.363  1.00  0.00     0.029 A 
ATOM     52  N   UNL A   1      44.799  30.065  28.095  1.00  0.00    -0.354 N 
ATOM     53  N   UNL A   1      42.291  30.747  29.463  1.00  0.00    -0.248 NA
ATOM     54  C   UNL A   1      41.063  32.177  30.843  1.00  0.00     0.031 C 
ATOM     55  C   UNL A   1      46.424  31.577  28.060  1.00  0.00     0.029 A 
ATOM     56  C   UNL A   1      45.135  31.341  28.511  1.00  0.00     0.049 A 
ATOM     57  H   UNL A   1      43.938  29.621  28.273  1.00  0.00     0.167 HD
ATOM     58  C   UNL A   1      43.031  31.901  29.697  1.00  0.00     0.074 A 
ATOM     59  C   UNL A   1      42.209  32.764  30.520  1.00  0.00     0.031 C 
ATOM     60  C   UNL A   1      44.284  32.210  29.283  1.00  0.00     0.034 A 
BRANCH  47  61
ATOM     61  C   UNL A   1      47.083  27.712  26.103  1.00  0.00     0.023 A 
ATOM     62  C   UNL A   1      48.078  27.012  26.815  1.00  0.00     0.012 A 
ATOM     63  C   UNL A   1      47.233  27.911  24.717  1.00  0.00     0.148 A 
ATOM     64  C   UNL A   1      49.216  26.538  26.162  1.00  0.00     0.002 A 
ATOM     65  C   UNL A   1      48.353  27.405  24.068  1.00  0.00     0.091 A 
ATOM     66  F   UNL A   1      46.287  28.600  24.063  1.00  0.00    -0.205 F 
ATOM     67  C   UNL A   1      49.348  26.726  24.789  1.00  0.00     0.022 A 
BRANCH  65  68
ATOM     68  S   UNL A   1      48.580  27.539  22.290  1.00  0.00     0.127 S 
ATOM     69  O   UNL A   1      47.325  28.168  21.881  1.00  0.00    -0.237 OA
ATOM     70  O   UNL A   1      49.755  28.405  22.191  1.00  0.00    -0.237 OA
ATOM     71  O   UNL A   1      48.788  26.180  21.811  1.00  0.00    -0.744 OA
ENDBRANCH  65  68
ENDBRANCH  47  61
BRANCH  48  72
ATOM     72  C   UNL A   1      38.727  30.397  30.887  1.00  0.00     0.023 A 
ATOM     73  C   UNL A   1      38.606  30.097  32.257  1.00  0.00     0.012 A 
ATOM     74  C   UNL A   1      37.689  31.099  30.244  1.00  0.00     0.148 A 
ATOM     75  C   UNL A   1      37.466  30.470  32.969  1.00  0.00     0.002 A 
ATOM     76  C   UNL A   1      36.580  31.516  30.971  1.00  0.00     0.091 A 
ATOM     77  F   UNL A   1      37.811  31.355  28.933  1.00  0.00    -0.205 F 
ATOM     78  C   UNL A   1      36.459  31.190  32.330  1.00  0.00     0.022 A 
BRANCH  76  79
ATOM     79  S   UNL A   1      35.302  32.557  30.255  1.00  0.00     0.127 S 
ATOM     80  O   UNL A   1      36.054  33.759  29.909  1.00  0.00    -0.237 OA
ATOM     81  O   UNL A   1      34.859  31.756  29.113  1.00  0.00    -0.237 OA
ATOM     82  O   UNL A   1      34.298  32.712  31.300  1.00  0.00    -0.744 OA
ENDBRANCH  76  79
ENDBRANCH  48  72
BRANCH  60  83
ATOM     83  C   UNL A   1      44.844  33.548  29.692  1.00  0.00     0.023 A 
ATOM     84  C   UNL A   1      45.602  33.652  30.874  1.00  0.00     0.012 A 
ATOM     85  C   UNL A   1      44.685  34.679  28.867  1.00  0.00     0.148 A 
ATOM     86  C   UNL A   1      46.176  34.868  31.243  1.00  0.00     0.002 A 
ATOM     87  C   UNL A   1      45.295  35.877  29.220  1.00  0.00     0.091 A 
ATOM     88  F   UNL A   1      43.942  34.564  27.758  1.00  0.00    -0.205 F 
ATOM     89  C   UNL A   1      46.032  35.977  30.410  1.00  0.00     0.022 A 
BRANCH  87  90
ATOM     90  S   UNL A   1      45.238  37.330  28.162  1.00  0.00     0.127 S 
ATOM     91  O   UNL A   1      43.810  37.643  28.163  1.00  0.00    -0.237 OA
ATOM     92  O   UNL A   1      46.073  38.283  28.893  1.00  0.00    -0.237 OA
ATOM     93  O   UNL A   1      45.788  36.909  26.880  1.00  0.00    -0.744 OA
ENDBRANCH  87  90
ENDBRANCH  60  83
ENDBRANCH  34  35
ENDBRANCH  27  29
ENDBRANCH  26  27
ENDBRANCH  25  26
ENDBRANCH   1  25
TORSDOF 17
ENDMDL
MODEL 3
REMARK VINA RESULT:     -11.2      5.169     10.599
REMARK SMILES NC(=O)[C@@H]1CCCCN1C(=O)N[C@H]1C=C[C@@H](C(=O)OCCOC(=O)c2ccc(-c3c4nc(c(-c5cccc(S(=O)(=O)[O-])c5F)c5ccc([nH]5)c(-c5cccc(S(=O)(=O)[O-])c5F)c5nc(c(-c6cccc(S(=O)(=O)[O-])c6F)c6ccc3[nH]6)C=C5)C=C4)cc2)C1
REMARK SMILES IDX 20 1 19 2 17 3 18 4 16 5 13 6 14 7 88 8 15 9 12 10 10 11
REMARK SMILES IDX 11 12 9 14 4 15 5 16 6 17 8 18 7 19 2 20 1 21 3 24 21 25
REMARK SMILES IDX 22 26 23 27 24 28 25 29 26 30 87 31 27 32 86 33 28 34 29 35
REMARK SMILES IDX 30 36 80 37 31 38 85 39 79 40 81 41 32 42 84 43 78 44 77 45
REMARK SMILES IDX 33 47 65 48 45 49 64 50 46 51 49 52 63 53 82 54 47 55 48 56
REMARK SMILES IDX 62 58 83 59 50 60 34 61 35 62 43 63 36 64 38 65 44 66 37 67
REMARK SMILES IDX 39 68 40 69 41 70 42 71 66 72 67 73 75 74 68 75 70 76 76 77
REMARK SMILES IDX 69 78 71 79 72 80 73 81 74 82 51 83 52 84 60 85 53 86 55 87
REMARK SMILES IDX 61 88 54 89 56 90 57 91 58 92 59 93
REMARK H PARENT 12 13 1 22 1 23 81 46 49 57
REMARK Flexibility Score: inf
ROOT
ATOM      1  C   UNL A   1      31.345  31.905  26.834  1.00  0.00     0.274 C 
ENDROOT
BRANCH   1   2
ATOM      2  O   UNL A   1      31.866  30.901  25.942  1.00  0.00    -0.462 OA
BRANCH   2   3
ATOM      3  C   UNL A   1      32.599  29.908  26.509  1.00  0.00     0.312 C 
ATOM      4  O   UNL A   1      33.144  29.985  27.605  1.00  0.00    -0.252 OA
BRANCH   3   5
ATOM      5  C   UNL A   1      32.729  28.670  25.628  1.00  0.00     0.124 C 
ATOM      6  C   UNL A   1      32.523  26.236  25.581  1.00  0.00     0.107 C 
ATOM      7  C   UNL A   1      31.304  26.913  25.026  1.00  0.00    -0.006 C 
ATOM      8  C   UNL A   1      33.228  27.390  26.304  1.00  0.00     0.048 C 
ATOM      9  C   UNL A   1      31.416  28.246  25.047  1.00  0.00    -0.014 C 
BRANCH   6  10
ATOM     10  N   UNL A   1      32.111  25.203  26.500  1.00  0.00    -0.332 N 
ATOM     11  C   UNL A   1      31.930  23.874  26.472  1.00  0.00     0.318 C 
ATOM     12  O   UNL A   1      31.719  23.398  27.591  1.00  0.00    -0.249 OA
ATOM     13  H   UNL A   1      31.906  25.574  27.388  1.00  0.00     0.165 HD
BRANCH  11  14
ATOM     14  N   UNL A   1      31.958  23.106  25.345  1.00  0.00    -0.313 N 
ATOM     15  C   UNL A   1      33.079  22.151  25.120  1.00  0.00     0.176 C 
ATOM     16  C   UNL A   1      33.947  22.622  23.937  1.00  0.00     0.035 C 
ATOM     17  C   UNL A   1      33.100  22.797  22.677  1.00  0.00     0.004 C 
ATOM     18  C   UNL A   1      31.102  23.204  24.159  1.00  0.00     0.122 C 
ATOM     19  C   UNL A   1      31.901  23.702  22.953  1.00  0.00     0.022 C 
BRANCH  15  20
ATOM     20  C   UNL A   1      33.976  21.631  26.275  1.00  0.00     0.240 C 
ATOM     21  N   UNL A   1      33.409  20.718  27.120  1.00  0.00    -0.368 N 
ATOM     22  H   UNL A   1      33.929  20.351  27.871  1.00  0.00     0.159 HD
ATOM     23  H   UNL A   1      32.480  20.425  26.977  1.00  0.00     0.159 HD
ATOM     24  O   UNL A   1      35.128  22.014  26.460  1.00  0.00    -0.273 OA
ENDBRANCH  15  20
ENDBRANCH  11  14
ENDBRANCH   6  10
ENDBRANCH   3   5
ENDBRANCH   2   3
ENDBRANCH   1   2
BRANCH   1  25
ATOM     25  C   UNL A   1      32.233  33.152  26.825  1.00  0.00     0.275 C 
BRANCH  25  26
ATOM     26  O   UNL A   1      32.463  33.649  28.157  1.00  0.00    -0.458 OA
BRANCH  26  27
ATOM     27  C   UNL A   1      33.548  34.448  28.295  1.00  0.00     0.338 C 
ATOM     28  O   UNL A   1      33.600  35.658  28.146  1.00  0.00    -0.246 OA
BRANCH  27  29
ATOM     29  C   UNL A   1      34.685  33.661  28.795  1.00  0.00     0.060 A 
ATOM     30  C   UNL A   1      34.411  32.519  29.552  1.00  0.00     0.016 A 
ATOM     31  C   UNL A   1      36.000  34.080  28.591  1.00  0.00     0.016 A 
ATOM     32  C   UNL A   1      35.452  31.792  30.121  1.00  0.00     0.010 A 
ATOM     33  C   UNL A   1      37.046  33.346  29.160  1.00  0.00     0.010 A 
ATOM     34  C   UNL A   1      36.777  32.206  29.938  1.00  0.00    -0.014 A 
BRANCH  34  35
ATOM     35  C   UNL A   1      37.880  31.456  30.584  1.00  0.00     0.031 A 
ATOM     36  C   UNL A   1      38.252  31.746  32.009  1.00  0.00     0.074 A 
ATOM     37  C   UNL A   1      38.547  30.521  29.883  1.00  0.00     0.049 A 
ATOM     38  N   UNL A   1      39.213  31.233  32.730  1.00  0.00    -0.248 NA
ATOM     39  C   UNL A   1      37.435  32.745  32.718  1.00  0.00     0.031 C 
ATOM     40  C   UNL A   1      38.271  30.153  28.494  1.00  0.00     0.029 A 
ATOM     41  N   UNL A   1      39.608  29.727  30.237  1.00  0.00    -0.354 N 
ATOM     42  C   UNL A   1      39.142  31.865  33.965  1.00  0.00     0.074 A 
ATOM     43  C   UNL A   1      38.043  32.804  33.896  1.00  0.00     0.031 C 
ATOM     44  C   UNL A   1      39.151  29.214  28.108  1.00  0.00     0.029 A 
ATOM     45  C   UNL A   1      40.070  28.940  29.208  1.00  0.00     0.049 A 
ATOM     46  H   UNL A   1      40.000  29.721  31.140  1.00  0.00     0.167 HD
ATOM     47  C   UNL A   1      39.912  31.669  35.062  1.00  0.00     0.034 A 
ATOM     48  C   UNL A   1      41.130  28.109  29.154  1.00  0.00     0.034 A 
ATOM     49  C   UNL A   1      40.986  30.715  35.135  1.00  0.00     0.049 A 
ATOM     50  C   UNL A   1      41.980  27.925  30.382  1.00  0.00     0.074 A 
ATOM     51  C   UNL A   1      41.800  30.417  36.214  1.00  0.00     0.029 A 
ATOM     52  N   UNL A   1      41.401  29.906  34.088  1.00  0.00    -0.354 N 
ATOM     53  N   UNL A   1      41.834  28.454  31.573  1.00  0.00    -0.248 NA
ATOM     54  C   UNL A   1      43.126  27.011  30.266  1.00  0.00     0.031 C 
ATOM     55  C   UNL A   1      42.715  29.438  35.815  1.00  0.00     0.029 A 
ATOM     56  C   UNL A   1      42.462  29.115  34.491  1.00  0.00     0.049 A 
ATOM     57  H   UNL A   1      40.999  29.898  33.189  1.00  0.00     0.167 HD
ATOM     58  C   UNL A   1      42.850  27.917  32.356  1.00  0.00     0.074 A 
ATOM     59  C   UNL A   1      43.591  27.004  31.509  1.00  0.00     0.031 C 
ATOM     60  C   UNL A   1      43.154  28.170  33.652  1.00  0.00     0.034 A 
BRANCH  47  61
ATOM     61  C   UNL A   1      39.598  32.481  36.289  1.00  0.00     0.023 A 
ATOM     62  C   UNL A   1      40.267  33.702  36.500  1.00  0.00     0.012 A 
ATOM     63  C   UNL A   1      38.604  32.068  37.198  1.00  0.00     0.148 A 
ATOM     64  C   UNL A   1      39.970  34.491  37.612  1.00  0.00     0.002 A 
ATOM     65  C   UNL A   1      38.289  32.877  38.284  1.00  0.00     0.091 A 
ATOM     66  F   UNL A   1      37.997  30.891  36.992  1.00  0.00    -0.205 F 
ATOM     67  C   UNL A   1      38.976  34.083  38.497  1.00  0.00     0.022 A 
BRANCH  65  68
ATOM     68  S   UNL A   1      36.977  32.468  39.442  1.00  0.00     0.127 S 
ATOM     69  O   UNL A   1      37.168  33.486  40.474  1.00  0.00    -0.237 OA
ATOM     70  O   UNL A   1      35.775  32.646  38.626  1.00  0.00    -0.237 OA
ATOM     71  O   UNL A   1      37.227  31.095  39.858  1.00  0.00    -0.744 OA
ENDBRANCH  65  68
ENDBRANCH  47  61
BRANCH  48  72
ATOM     72  C   UNL A   1      41.417  27.356  27.901  1.00  0.00     0.023 A 
ATOM     73  C   UNL A   1      41.936  28.041  26.787  1.00  0.00     0.012 A 
ATOM     74  C   UNL A   1      41.213  25.965  27.819  1.00  0.00     0.148 A 
ATOM     75  C   UNL A   1      42.228  27.358  25.605  1.00  0.00     0.002 A 
ATOM     76  C   UNL A   1      41.556  25.281  26.658  1.00  0.00     0.091 A 
ATOM     77  F   UNL A   1      40.695  25.333  28.883  1.00  0.00    -0.205 F 
ATOM     78  C   UNL A   1      42.050  25.978  25.545  1.00  0.00     0.022 A 
BRANCH  76  79
ATOM     79  S   UNL A   1      41.480  23.490  26.543  1.00  0.00     0.127 S 
ATOM     80  O   UNL A   1      40.045  23.259  26.406  1.00  0.00    -0.237 OA
ATOM     81  O   UNL A   1      42.266  23.227  25.336  1.00  0.00    -0.237 OA
ATOM     82  O   UNL A   1      42.090  22.997  27.771  1.00  0.00    -0.744 OA
ENDBRANCH  76  79
ENDBRANCH  48  72
BRANCH  60  83
ATOM     83  C   UNL A   1      44.325  27.435  34.251  1.00  0.00     0.023 A 
ATOM     84  C   UNL A   1      45.580  28.070  34.322  1.00  0.00     0.012 A 
ATOM     85  C   UNL A   1      44.162  26.154  34.812  1.00  0.00     0.148 A 
ATOM     86  C   UNL A   1      46.664  27.430  34.921  1.00  0.00     0.002 A 
ATOM     87  C   UNL A   1      45.236  25.540  35.446  1.00  0.00     0.091 A 
ATOM     88  F   UNL A   1      42.965  25.559  34.715  1.00  0.00    -0.205 F 
ATOM     89  C   UNL A   1      46.489  26.171  35.494  1.00  0.00     0.022 A 
BRANCH  87  90
ATOM     90  S   UNL A   1      45.078  23.959  36.287  1.00  0.00     0.127 S 
ATOM     91  O   UNL A   1      46.408  23.385  36.098  1.00  0.00    -0.237 OA
ATOM     92  O   UNL A   1      44.778  24.365  37.661  1.00  0.00    -0.237 OA
ATOM     93  O   UNL A   1      43.990  23.260  35.616  1.00  0.00    -0.744 OA
ENDBRANCH  87  90
ENDBRANCH  60  83
ENDBRANCH  34  35
ENDBRANCH  27  29
ENDBRANCH  26  27
ENDBRANCH  25  26
ENDBRANCH   1  25
TORSDOF 17
ENDMDL
