MODEL 1
REMARK VINA RESULT:     -10.9      0.000      0.000
REMARK SMILES CC[C@@](C)(Nc1nccn(C2CC2)c1=O)C(=O)OCCOC(=O)c1ccc(-c2c3nc(c(-c4cccc(S(=O)(=O)[O-])c4F)c4ccc([nH]4)c(-c4cccc(S(=O)(=O)[O-])c4F)c4nc(c(-c5cccc(S(=O)(=O)[O-])c5F)c5ccc2[nH]5)C=C4)C=C3)cc1
REMARK SMILES IDX 19 1 18 2 16 3 17 4 3 5 4 6 2 7 1 8 5 9 6 11 7 12 14 13 8 14
REMARK SMILES IDX 10 15 15 16 9 17 11 18 12 19 13 20 20 21 21 22 22 23 23 24
REMARK SMILES IDX 24 25 25 26 86 27 26 28 85 29 27 30 28 31 29 32 79 33 30 34
REMARK SMILES IDX 84 35 78 36 80 37 31 38 83 39 77 40 76 41 32 43 64 44 44 45
REMARK SMILES IDX 63 46 45 47 48 48 62 49 81 50 46 51 47 52 61 54 82 55 49 56
REMARK SMILES IDX 33 57 34 58 42 59 35 60 37 61 43 62 36 63 38 64 39 65 40 66
REMARK SMILES IDX 41 67 65 68 66 69 74 70 67 71 69 72 75 73 68 74 70 75 71 76
REMARK SMILES IDX 72 77 73 78 50 79 51 80 59 81 52 82 54 83 60 84 53 85 55 86
REMARK SMILES IDX 56 87 57 88 58 89
REMARK H PARENT 5 10 80 42 48 53
REMARK Flexibility Score: inf
ROOT
ATOM      1  C   UNL A   1      36.856  22.520  23.966  1.00  0.00     0.274 C 
ENDROOT
BRANCH   1   2
ATOM      2  O   UNL A   1      35.795  23.258  24.599  1.00  0.00    -0.460 OA
BRANCH   2   3
ATOM      3  C   UNL A   1      34.754  23.670  23.836  1.00  0.00     0.331 C 
ATOM      4  O   UNL A   1      34.888  23.933  22.646  1.00  0.00    -0.249 OA
BRANCH   3   5
ATOM      5  C   UNL A   1      33.427  23.852  24.643  1.00  0.00     0.134 C 
ATOM      6  C   UNL A   1      33.791  24.222  26.083  1.00  0.00     0.047 C 
BRANCH   5   7
ATOM      7  C   UNL A   1      32.525  24.987  24.032  1.00  0.00     0.037 C 
ATOM      8  C   UNL A   1      32.319  26.282  24.806  1.00  0.00     0.007 C 
ENDBRANCH   5   7
BRANCH   5   9
ATOM      9  N   UNL A   1      32.529  22.680  24.645  1.00  0.00    -0.350 N 
ATOM     10  H   UNL A   1      31.824  22.725  25.331  1.00  0.00     0.163 HD
BRANCH   9  11
ATOM     11  C   UNL A   1      32.477  21.531  23.878  1.00  0.00     0.193 A 
ATOM     12  N   UNL A   1      31.999  21.447  22.671  1.00  0.00    -0.233 NA
ATOM     13  C   UNL A   1      33.096  20.283  24.583  1.00  0.00     0.293 A 
ATOM     14  C   UNL A   1      31.903  20.199  22.115  1.00  0.00     0.131 A 
ATOM     15  N   UNL A   1      32.879  19.068  23.942  1.00  0.00    -0.308 N 
ATOM     16  O   UNL A   1      33.729  20.488  25.616  1.00  0.00    -0.265 OA
ATOM     17  C   UNL A   1      32.275  19.060  22.706  1.00  0.00     0.110 A 
BRANCH  15  18
ATOM     18  C   UNL A   1      33.322  17.802  24.475  1.00  0.00     0.090 C 
ATOM     19  C   UNL A   1      33.630  16.569  23.667  1.00  0.00     0.028 C 
ATOM     20  C   UNL A   1      34.752  17.358  24.268  1.00  0.00     0.028 C 
ENDBRANCH  15  18
ENDBRANCH   9  11
ENDBRANCH   5   9
ENDBRANCH   3   5
ENDBRANCH   2   3
ENDBRANCH   1   2
BRANCH   1  21
ATOM     21  C   UNL A   1      37.109  21.188  24.678  1.00  0.00     0.275 C 
BRANCH  21  22
ATOM     22  O   UNL A   1      37.674  21.419  25.980  1.00  0.00    -0.458 OA
BRANCH  22  23
ATOM     23  C   UNL A   1      39.011  21.247  26.104  1.00  0.00     0.338 C 
ATOM     24  O   UNL A   1      39.669  20.258  25.846  1.00  0.00    -0.246 OA
BRANCH  23  25
ATOM     25  C   UNL A   1      39.580  22.540  26.514  1.00  0.00     0.060 A 
ATOM     26  C   UNL A   1      39.004  23.748  26.134  1.00  0.00     0.016 A 
ATOM     27  C   UNL A   1      40.729  22.523  27.299  1.00  0.00     0.016 A 
ATOM     28  C   UNL A   1      39.627  24.943  26.514  1.00  0.00     0.010 A 
ATOM     29  C   UNL A   1      41.335  23.705  27.702  1.00  0.00     0.010 A 
ATOM     30  C   UNL A   1      40.805  24.927  27.288  1.00  0.00    -0.014 A 
BRANCH  30  31
ATOM     31  C   UNL A   1      41.471  26.185  27.699  1.00  0.00     0.031 A 
ATOM     32  C   UNL A   1      42.890  26.477  27.296  1.00  0.00     0.074 A 
ATOM     33  C   UNL A   1      40.803  27.042  28.492  1.00  0.00     0.049 A 
ATOM     34  N   UNL A   1      43.592  27.562  27.498  1.00  0.00    -0.248 NA
ATOM     35  C   UNL A   1      43.626  25.411  26.593  1.00  0.00     0.031 C 
ATOM     36  C   UNL A   1      39.468  26.809  29.044  1.00  0.00     0.029 A 
ATOM     37  N   UNL A   1      41.155  28.276  28.972  1.00  0.00    -0.354 N 
ATOM     38  C   UNL A   1      44.845  27.314  26.952  1.00  0.00     0.074 A 
ATOM     39  C   UNL A   1      44.826  25.957  26.451  1.00  0.00     0.031 C 
ATOM     40  C   UNL A   1      39.097  27.883  29.758  1.00  0.00     0.029 A 
ATOM     41  C   UNL A   1      40.168  28.875  29.715  1.00  0.00     0.049 A 
ATOM     42  H   UNL A   1      42.031  28.693  28.801  1.00  0.00     0.167 HD
ATOM     43  C   UNL A   1      45.899  28.155  26.840  1.00  0.00     0.034 A 
ATOM     44  C   UNL A   1      40.115  30.101  30.270  1.00  0.00     0.034 A 
ATOM     45  C   UNL A   1      45.898  29.514  27.312  1.00  0.00     0.049 A 
ATOM     46  C   UNL A   1      41.266  31.044  30.073  1.00  0.00     0.074 A 
ATOM     47  C   UNL A   1      46.889  30.471  27.180  1.00  0.00     0.029 A 
ATOM     48  N   UNL A   1      44.855  30.108  28.005  1.00  0.00    -0.354 N 
ATOM     49  N   UNL A   1      42.386  30.845  29.423  1.00  0.00    -0.248 NA
ATOM     50  C   UNL A   1      41.132  32.388  30.651  1.00  0.00     0.031 C 
ATOM     51  C   UNL A   1      46.441  31.647  27.792  1.00  0.00     0.029 A 
ATOM     52  C   UNL A   1      45.171  31.422  28.300  1.00  0.00     0.049 A 
ATOM     53  H   UNL A   1      44.013  29.661  28.249  1.00  0.00     0.167 HD
ATOM     54  C   UNL A   1      43.088  32.041  29.501  1.00  0.00     0.074 A 
ATOM     55  C   UNL A   1      42.256  32.966  30.244  1.00  0.00     0.031 C 
ATOM     56  C   UNL A   1      44.318  32.338  29.013  1.00  0.00     0.034 A 
BRANCH  43  57
ATOM     57  C   UNL A   1      47.108  27.668  26.086  1.00  0.00     0.023 A 
ATOM     58  C   UNL A   1      48.077  26.915  26.780  1.00  0.00     0.012 A 
ATOM     59  C   UNL A   1      47.252  27.873  24.700  1.00  0.00     0.148 A 
ATOM     60  C   UNL A   1      49.180  26.387  26.113  1.00  0.00     0.002 A 
ATOM     61  C   UNL A   1      48.341  27.317  24.035  1.00  0.00     0.091 A 
ATOM     62  F   UNL A   1      46.326  28.601  24.062  1.00  0.00    -0.205 F 
ATOM     63  C   UNL A   1      49.307  26.579  24.742  1.00  0.00     0.022 A 
BRANCH  61  64
ATOM     64  S   UNL A   1      48.580  27.457  22.260  1.00  0.00     0.127 S 
ATOM     65  O   UNL A   1      49.816  28.238  22.189  1.00  0.00    -0.237 OA
ATOM     66  O   UNL A   1      48.720  26.059  21.858  1.00  0.00    -0.237 OA
ATOM     67  O   UNL A   1      47.395  28.127  21.744  1.00  0.00    -0.744 OA
ENDBRANCH  61  64
ENDBRANCH  43  57
BRANCH  44  68
ATOM     68  C   UNL A   1      38.858  30.525  30.940  1.00  0.00     0.023 A 
ATOM     69  C   UNL A   1      38.773  30.432  32.343  1.00  0.00     0.012 A 
ATOM     70  C   UNL A   1      37.808  31.126  30.220  1.00  0.00     0.148 A 
ATOM     71  C   UNL A   1      37.662  30.934  33.020  1.00  0.00     0.002 A 
ATOM     72  C   UNL A   1      36.721  31.657  30.905  1.00  0.00     0.091 A 
ATOM     73  F   UNL A   1      37.922  31.207  28.887  1.00  0.00    -0.205 F 
ATOM     74  C   UNL A   1      36.643  31.556  32.303  1.00  0.00     0.022 A 
BRANCH  72  75
ATOM     75  S   UNL A   1      35.409  32.570  30.087  1.00  0.00     0.127 S 
ATOM     76  O   UNL A   1      36.110  33.781  29.660  1.00  0.00    -0.237 OA
ATOM     77  O   UNL A   1      35.042  31.658  29.004  1.00  0.00    -0.237 OA
ATOM     78  O   UNL A   1      34.376  32.772  31.093  1.00  0.00    -0.744 OA
ENDBRANCH  72  75
ENDBRANCH  44  68
BRANCH  56  79
ATOM     79  C   UNL A   1      44.858  33.716  29.274  1.00  0.00     0.023 A 
ATOM     80  C   UNL A   1      45.577  33.958  30.460  1.00  0.00     0.012 A 
ATOM     81  C   UNL A   1      44.750  34.733  28.304  1.00  0.00     0.148 A 
ATOM     82  C   UNL A   1      46.172  35.198  30.686  1.00  0.00     0.002 A 
ATOM     83  C   UNL A   1      45.373  35.956  28.522  1.00  0.00     0.091 A 
ATOM     84  F   UNL A   1      44.051  34.480  27.189  1.00  0.00    -0.205 F 
ATOM     85  C   UNL A   1      46.079  36.191  29.713  1.00  0.00     0.022 A 
BRANCH  83  86
ATOM     86  S   UNL A   1      45.371  37.273  27.300  1.00  0.00     0.127 S 
ATOM     87  O   UNL A   1      43.941  37.522  27.134  1.00  0.00    -0.237 OA
ATOM     88  O   UNL A   1      46.100  38.338  27.991  1.00  0.00    -0.237 OA
ATOM     89  O   UNL A   1      46.050  36.737  26.128  1.00  0.00    -0.744 OA
ENDBRANCH  83  86
ENDBRANCH  56  79
ENDBRANCH  30  31
ENDBRANCH  23  25
ENDBRANCH  22  23
ENDBRANCH  21  22
ENDBRANCH   1  21
TORSDOF 18
ENDMDL
MODEL 2
REMARK VINA RESULT:     -10.8      5.196      9.958
REMARK SMILES CC[C@@](C)(Nc1nccn(C2CC2)c1=O)C(=O)OCCOC(=O)c1ccc(-c2c3nc(c(-c4cccc(S(=O)(=O)[O-])c4F)c4ccc([nH]4)c(-c4cccc(S(=O)(=O)[O-])c4F)c4nc(c(-c5cccc(S(=O)(=O)[O-])c5F)c5ccc2[nH]5)C=C4)C=C3)cc1
REMARK SMILES IDX 19 1 18 2 16 3 17 4 3 5 4 6 2 7 1 8 5 9 6 11 7 12 14 13 8 14
REMARK SMILES IDX 10 15 15 16 9 17 11 18 12 19 13 20 20 21 21 22 22 23 23 24
REMARK SMILES IDX 24 25 25 26 86 27 26 28 85 29 27 30 28 31 29 32 79 33 30 34
REMARK SMILES IDX 84 35 78 36 80 37 31 38 83 39 77 40 76 41 32 43 64 44 44 45
REMARK SMILES IDX 63 46 45 47 48 48 62 49 81 50 46 51 47 52 61 54 82 55 49 56
REMARK SMILES IDX 33 57 34 58 42 59 35 60 37 61 43 62 36 63 38 64 39 65 40 66
REMARK SMILES IDX 41 67 65 68 66 69 74 70 67 71 69 72 75 73 68 74 70 75 71 76
REMARK SMILES IDX 72 77 73 78 50 79 51 80 59 81 52 82 54 83 60 84 53 85 55 86
REMARK SMILES IDX 56 87 57 88 58 89
REMARK H PARENT 5 10 80 42 48 53
REMARK Flexibility Score: inf
ROOT
ATOM      1  C   UNL A   1      31.221  29.504  24.684  1.00  0.00     0.274 C 
ENDROOT
BRANCH   1   2
ATOM      2  O   UNL A   1      31.174  28.128  24.267  1.00  0.00    -0.460 OA
BRANCH   2   3
ATOM      3  C   UNL A   1      31.218  27.856  22.940  1.00  0.00     0.331 C 
ATOM      4  O   UNL A   1      30.374  28.289  22.163  1.00  0.00    -0.249 OA
BRANCH   3   5
ATOM      5  C   UNL A   1      32.375  26.883  22.544  1.00  0.00     0.134 C 
ATOM      6  C   UNL A   1      31.919  26.066  21.332  1.00  0.00     0.047 C 
BRANCH   5   7
ATOM      7  C   UNL A   1      33.691  27.662  22.173  1.00  0.00     0.037 C 
ATOM      8  C   UNL A   1      34.339  28.576  23.204  1.00  0.00     0.007 C 
ENDBRANCH   5   7
BRANCH   5   9
ATOM      9  N   UNL A   1      32.822  25.970  23.615  1.00  0.00    -0.350 N 
ATOM     10  H   UNL A   1      33.706  26.197  23.983  1.00  0.00     0.163 HD
BRANCH   9  11
ATOM     11  C   UNL A   1      32.247  24.861  24.208  1.00  0.00     0.193 A 
ATOM     12  N   UNL A   1      31.184  24.867  24.957  1.00  0.00    -0.233 NA
ATOM     13  C   UNL A   1      32.981  23.524  23.869  1.00  0.00     0.293 A 
ATOM     14  C   UNL A   1      30.837  23.693  25.571  1.00  0.00     0.131 A 
ATOM     15  N   UNL A   1      32.572  22.418  24.604  1.00  0.00    -0.308 N 
ATOM     16  O   UNL A   1      33.829  23.567  22.981  1.00  0.00    -0.265 OA
ATOM     17  C   UNL A   1      31.495  22.536  25.453  1.00  0.00     0.110 A 
BRANCH  15  18
ATOM     18  C   UNL A   1      33.176  21.113  24.474  1.00  0.00     0.090 C 
ATOM     19  C   UNL A   1      32.706  19.856  25.156  1.00  0.00     0.028 C 
ATOM     20  C   UNL A   1      32.471  20.033  23.688  1.00  0.00     0.028 C 
ENDBRANCH  15  18
ENDBRANCH   9  11
ENDBRANCH   5   9
ENDBRANCH   3   5
ENDBRANCH   2   3
ENDBRANCH   1   2
BRANCH   1  21
ATOM     21  C   UNL A   1      31.743  29.634  26.118  1.00  0.00     0.275 C 
BRANCH  21  22
ATOM     22  O   UNL A   1      33.054  30.224  26.119  1.00  0.00    -0.458 OA
BRANCH  22  23
ATOM     23  C   UNL A   1      33.245  31.284  26.938  1.00  0.00     0.338 C 
ATOM     24  O   UNL A   1      32.493  32.217  27.149  1.00  0.00    -0.246 OA
BRANCH  23  25
ATOM     25  C   UNL A   1      34.513  31.064  27.648  1.00  0.00     0.060 A 
ATOM     26  C   UNL A   1      35.447  32.082  27.815  1.00  0.00     0.016 A 
ATOM     27  C   UNL A   1      34.762  29.790  28.153  1.00  0.00     0.016 A 
ATOM     28  C   UNL A   1      36.658  31.790  28.453  1.00  0.00     0.010 A 
ATOM     29  C   UNL A   1      35.949  29.503  28.812  1.00  0.00     0.010 A 
ATOM     30  C   UNL A   1      36.922  30.494  28.943  1.00  0.00    -0.014 A 
BRANCH  30  31
ATOM     31  C   UNL A   1      38.198  30.175  29.623  1.00  0.00     0.031 A 
ATOM     32  C   UNL A   1      38.509  30.729  30.987  1.00  0.00     0.074 A 
ATOM     33  C   UNL A   1      39.108  29.425  28.975  1.00  0.00     0.049 A 
ATOM     34  N   UNL A   1      39.537  30.481  31.756  1.00  0.00    -0.248 NA
ATOM     35  C   UNL A   1      37.555  31.698  31.555  1.00  0.00     0.031 C 
ATOM     36  C   UNL A   1      38.967  28.934  27.603  1.00  0.00     0.029 A 
ATOM     37  N   UNL A   1      40.326  28.948  29.380  1.00  0.00    -0.354 N 
ATOM     38  C   UNL A   1      39.359  31.259  32.893  1.00  0.00     0.074 A 
ATOM     39  C   UNL A   1      38.148  32.025  32.696  1.00  0.00     0.031 C 
ATOM     40  C   UNL A   1      40.042  28.193  27.293  1.00  0.00     0.029 A 
ATOM     41  C   UNL A   1      40.944  28.160  28.440  1.00  0.00     0.049 A 
ATOM     42  H   UNL A   1      40.721  29.151  30.259  1.00  0.00     0.167 HD
ATOM     43  C   UNL A   1      40.113  31.298  34.017  1.00  0.00     0.034 A 
ATOM     44  C   UNL A   1      42.092  27.458  28.507  1.00  0.00     0.034 A 
ATOM     45  C   UNL A   1      41.298  30.509  34.218  1.00  0.00     0.049 A 
ATOM     46  C   UNL A   1      42.876  27.459  29.787  1.00  0.00     0.074 A 
ATOM     47  C   UNL A   1      42.091  30.419  35.349  1.00  0.00     0.029 A 
ATOM     48  N   UNL A   1      41.860  29.671  33.266  1.00  0.00    -0.354 N 
ATOM     49  N   UNL A   1      42.614  28.082  30.909  1.00  0.00    -0.248 NA
ATOM     50  C   UNL A   1      44.090  26.632  29.824  1.00  0.00     0.031 C 
ATOM     51  C   UNL A   1      43.132  29.523  35.080  1.00  0.00     0.029 A 
ATOM     52  C   UNL A   1      42.984  29.053  33.785  1.00  0.00     0.049 A 
ATOM     53  H   UNL A   1      41.510  29.536  32.357  1.00  0.00     0.167 HD
ATOM     54  C   UNL A   1      43.620  27.716  31.792  1.00  0.00     0.074 A 
ATOM     55  C   UNL A   1      44.487  26.799  31.080  1.00  0.00     0.031 C 
ATOM     56  C   UNL A   1      43.816  28.118  33.072  1.00  0.00     0.034 A 
BRANCH  43  57
ATOM     57  C   UNL A   1      39.622  32.143  35.162  1.00  0.00     0.023 A 
ATOM     58  C   UNL A   1      38.750  31.560  36.104  1.00  0.00     0.012 A 
ATOM     59  C   UNL A   1      40.075  33.462  35.361  1.00  0.00     0.148 A 
ATOM     60  C   UNL A   1      38.320  32.280  37.217  1.00  0.00     0.002 A 
ATOM     61  C   UNL A   1      39.664  34.165  36.489  1.00  0.00     0.091 A 
ATOM     62  F   UNL A   1      40.894  34.000  34.447  1.00  0.00    -0.205 F 
ATOM     63  C   UNL A   1      38.783  33.576  37.414  1.00  0.00     0.022 A 
BRANCH  61  64
ATOM     64  S   UNL A   1      40.238  35.823  36.873  1.00  0.00     0.127 S 
ATOM     65  O   UNL A   1      39.660  36.597  35.774  1.00  0.00    -0.237 OA
ATOM     66  O   UNL A   1      39.623  36.067  38.177  1.00  0.00    -0.237 OA
ATOM     67  O   UNL A   1      41.692  35.755  36.884  1.00  0.00    -0.744 OA
ENDBRANCH  61  64
ENDBRANCH  43  57
BRANCH  44  68
ATOM     68  C   UNL A   1      42.469  26.599  27.355  1.00  0.00     0.023 A 
ATOM     69  C   UNL A   1      43.306  27.131  26.357  1.00  0.00     0.012 A 
ATOM     70  C   UNL A   1      42.108  25.239  27.306  1.00  0.00     0.148 A 
ATOM     71  C   UNL A   1      43.783  26.321  25.326  1.00  0.00     0.002 A 
ATOM     72  C   UNL A   1      42.616  24.430  26.296  1.00  0.00     0.091 A 
ATOM     73  F   UNL A   1      41.316  24.759  28.274  1.00  0.00    -0.205 F 
ATOM     74  C   UNL A   1      43.448  24.970  25.302  1.00  0.00     0.022 A 
BRANCH  72  75
ATOM     75  S   UNL A   1      42.333  22.657  26.235  1.00  0.00     0.127 S 
ATOM     76  O   UNL A   1      43.045  22.200  27.427  1.00  0.00    -0.237 OA
ATOM     77  O   UNL A   1      40.874  22.586  26.326  1.00  0.00    -0.237 OA
ATOM     78  O   UNL A   1      42.888  22.207  24.967  1.00  0.00    -0.744 OA
ENDBRANCH  72  75
ENDBRANCH  44  68
BRANCH  56  79
ATOM     79  C   UNL A   1      45.021  27.584  33.795  1.00  0.00     0.023 A 
ATOM     80  C   UNL A   1      46.207  28.343  33.805  1.00  0.00     0.012 A 
ATOM     81  C   UNL A   1      44.948  26.396  34.549  1.00  0.00     0.148 A 
ATOM     82  C   UNL A   1      47.310  27.922  34.545  1.00  0.00     0.002 A 
ATOM     83  C   UNL A   1      46.040  25.999  35.310  1.00  0.00     0.091 A 
ATOM     84  F   UNL A   1      43.811  25.686  34.513  1.00  0.00    -0.205 F 
ATOM     85  C   UNL A   1      47.223  26.758  35.305  1.00  0.00     0.022 A 
BRANCH  83  86
ATOM     86  S   UNL A   1      46.002  24.554  36.377  1.00  0.00     0.127 S 
ATOM     87  O   UNL A   1      45.826  23.474  35.407  1.00  0.00    -0.237 OA
ATOM     88  O   UNL A   1      47.322  24.598  37.007  1.00  0.00    -0.237 OA
ATOM     89  O   UNL A   1      44.887  24.757  37.291  1.00  0.00    -0.744 OA
ENDBRANCH  83  86
ENDBRANCH  56  79
ENDBRANCH  30  31
ENDBRANCH  23  25
ENDBRANCH  22  23
ENDBRANCH  21  22
ENDBRANCH   1  21
TORSDOF 18
ENDMDL
MODEL 3
REMARK VINA RESULT:     -10.8      5.688     10.811
REMARK SMILES CC[C@@](C)(Nc1nccn(C2CC2)c1=O)C(=O)OCCOC(=O)c1ccc(-c2c3nc(c(-c4cccc(S(=O)(=O)[O-])c4F)c4ccc([nH]4)c(-c4cccc(S(=O)(=O)[O-])c4F)c4nc(c(-c5cccc(S(=O)(=O)[O-])c5F)c5ccc2[nH]5)C=C4)C=C3)cc1
REMARK SMILES IDX 19 1 18 2 16 3 17 4 3 5 4 6 2 7 1 8 5 9 6 11 7 12 14 13 8 14
REMARK SMILES IDX 10 15 15 16 9 17 11 18 12 19 13 20 20 21 21 22 22 23 23 24
REMARK SMILES IDX 24 25 25 26 86 27 26 28 85 29 27 30 28 31 29 32 79 33 30 34
REMARK SMILES IDX 84 35 78 36 80 37 31 38 83 39 77 40 76 41 32 43 64 44 44 45
REMARK SMILES IDX 63 46 45 47 48 48 62 49 81 50 46 51 47 52 61 54 82 55 49 56
REMARK SMILES IDX 33 57 34 58 42 59 35 60 37 61 43 62 36 63 38 64 39 65 40 66
REMARK SMILES IDX 41 67 65 68 66 69 74 70 67 71 69 72 75 73 68 74 70 75 71 76
REMARK SMILES IDX 72 77 73 78 50 79 51 80 59 81 52 82 54 83 60 84 53 85 55 86
REMARK SMILES IDX 56 87 57 88 58 89
REMARK H PARENT 5 10 80 42 48 53
REMARK Flexibility Score: inf
ROOT
ATOM      1  C   UNL A   1      31.774  28.897  26.516  1.00  0.00     0.274 C 
ENDROOT
BRANCH   1   2
ATOM      2  O   UNL A   1      31.659  28.338  25.195  1.00  0.00    -0.460 OA
BRANCH   2   3
ATOM      3  C   UNL A   1      31.710  26.991  25.060  1.00  0.00     0.331 C 
ATOM      4  O   UNL A   1      31.667  26.242  26.030  1.00  0.00    -0.249 OA
BRANCH   3   5
ATOM      5  C   UNL A   1      31.919  26.522  23.584  1.00  0.00     0.134 C 
ATOM      6  C   UNL A   1      33.311  26.973  23.131  1.00  0.00     0.047 C 
BRANCH   5   7
ATOM      7  C   UNL A   1      31.815  24.958  23.448  1.00  0.00     0.037 C 
ATOM      8  C   UNL A   1      30.445  24.295  23.426  1.00  0.00     0.007 C 
ENDBRANCH   5   7
BRANCH   5   9
ATOM      9  N   UNL A   1      30.907  27.006  22.623  1.00  0.00    -0.350 N 
ATOM     10  H   UNL A   1      31.020  26.643  21.715  1.00  0.00     0.163 HD
BRANCH   9  11
ATOM     11  C   UNL A   1      29.831  27.866  22.742  1.00  0.00     0.193 A 
ATOM     12  N   UNL A   1      28.676  27.569  23.262  1.00  0.00    -0.233 NA
ATOM     13  C   UNL A   1      30.124  29.306  22.213  1.00  0.00     0.293 A 
ATOM     14  C   UNL A   1      27.682  28.505  23.171  1.00  0.00     0.131 A 
ATOM     15  N   UNL A   1      29.017  30.142  22.117  1.00  0.00    -0.308 N 
ATOM     16  O   UNL A   1      31.295  29.573  21.952  1.00  0.00    -0.265 OA
ATOM     17  C   UNL A   1      27.805  29.709  22.603  1.00  0.00     0.110 A 
BRANCH  15  18
ATOM     18  C   UNL A   1      29.083  31.485  21.593  1.00  0.00     0.090 C 
ATOM     19  C   UNL A   1      27.941  32.238  20.962  1.00  0.00     0.028 C 
ATOM     20  C   UNL A   1      28.408  32.615  22.334  1.00  0.00     0.028 C 
ENDBRANCH  15  18
ENDBRANCH   9  11
ENDBRANCH   5   9
ENDBRANCH   3   5
ENDBRANCH   2   3
ENDBRANCH   1   2
BRANCH   1  21
ATOM     21  C   UNL A   1      31.718  30.428  26.480  1.00  0.00     0.275 C 
BRANCH  21  22
ATOM     22  O   UNL A   1      33.036  30.970  26.297  1.00  0.00    -0.458 OA
BRANCH  22  23
ATOM     23  C   UNL A   1      33.427  31.931  27.166  1.00  0.00     0.338 C 
ATOM     24  O   UNL A   1      32.858  32.970  27.443  1.00  0.00    -0.246 OA
BRANCH  23  25
ATOM     25  C   UNL A   1      34.645  31.448  27.832  1.00  0.00     0.060 A 
ATOM     26  C   UNL A   1      34.776  30.129  28.256  1.00  0.00     0.016 A 
ATOM     27  C   UNL A   1      35.679  32.358  28.034  1.00  0.00     0.016 A 
ATOM     28  C   UNL A   1      35.941  29.749  28.932  1.00  0.00     0.010 A 
ATOM     29  C   UNL A   1      36.849  31.979  28.678  1.00  0.00     0.010 A 
ATOM     30  C   UNL A   1      36.979  30.676  29.159  1.00  0.00    -0.014 A 
BRANCH  30  31
ATOM     31  C   UNL A   1      38.217  30.284  29.870  1.00  0.00     0.031 A 
ATOM     32  C   UNL A   1      38.525  30.817  31.242  1.00  0.00     0.074 A 
ATOM     33  C   UNL A   1      39.098  29.483  29.242  1.00  0.00     0.049 A 
ATOM     34  N   UNL A   1      39.519  30.511  32.035  1.00  0.00    -0.248 NA
ATOM     35  C   UNL A   1      37.616  31.839  31.789  1.00  0.00     0.031 C 
ATOM     36  C   UNL A   1      38.963  29.002  27.866  1.00  0.00     0.029 A 
ATOM     37  N   UNL A   1      40.277  28.936  29.676  1.00  0.00    -0.354 N 
ATOM     38  C   UNL A   1      39.358  31.297  33.169  1.00  0.00     0.074 A 
ATOM     39  C   UNL A   1      38.198  32.131  32.944  1.00  0.00     0.031 C 
ATOM     40  C   UNL A   1      40.001  28.201  27.581  1.00  0.00     0.029 A 
ATOM     41  C   UNL A   1      40.871  28.115  28.750  1.00  0.00     0.049 A 
ATOM     42  H   UNL A   1      40.661  29.116  30.564  1.00  0.00     0.167 HD
ATOM     43  C   UNL A   1      40.085  31.291  34.311  1.00  0.00     0.034 A 
ATOM     44  C   UNL A   1      41.975  27.349  28.843  1.00  0.00     0.034 A 
ATOM     45  C   UNL A   1      41.218  30.435  34.539  1.00  0.00     0.049 A 
ATOM     46  C   UNL A   1      42.727  27.304  30.141  1.00  0.00     0.074 A 
ATOM     47  C   UNL A   1      41.977  30.299  35.689  1.00  0.00     0.029 A 
ATOM     48  N   UNL A   1      41.754  29.568  33.600  1.00  0.00    -0.354 N 
ATOM     49  N   UNL A   1      42.473  27.940  31.258  1.00  0.00    -0.248 NA
ATOM     50  C   UNL A   1      43.890  26.409  30.206  1.00  0.00     0.031 C 
ATOM     51  C   UNL A   1      42.971  29.345  35.444  1.00  0.00     0.029 A 
ATOM     52  C   UNL A   1      42.828  28.886  34.144  1.00  0.00     0.049 A 
ATOM     53  H   UNL A   1      41.419  29.453  32.681  1.00  0.00     0.167 HD
ATOM     54  C   UNL A   1      43.436  27.517  32.165  1.00  0.00     0.074 A 
ATOM     55  C   UNL A   1      44.266  26.551  31.472  1.00  0.00     0.031 C 
ATOM     56  C   UNL A   1      43.623  27.905  33.450  1.00  0.00     0.034 A 
BRANCH  43  57
ATOM     57  C   UNL A   1      39.616  32.162  35.446  1.00  0.00     0.023 A 
ATOM     58  C   UNL A   1      38.781  31.594  36.430  1.00  0.00     0.012 A 
ATOM     59  C   UNL A   1      40.054  33.492  35.593  1.00  0.00     0.148 A 
ATOM     60  C   UNL A   1      38.372  32.340  37.534  1.00  0.00     0.002 A 
ATOM     61  C   UNL A   1      39.666  34.222  36.713  1.00  0.00     0.091 A 
ATOM     62  F   UNL A   1      40.838  34.016  34.641  1.00  0.00    -0.205 F 
ATOM     63  C   UNL A   1      38.822  33.648  37.680  1.00  0.00     0.022 A 
BRANCH  61  64
ATOM     64  S   UNL A   1      40.226  35.898  37.032  1.00  0.00     0.127 S 
ATOM     65  O   UNL A   1      39.532  36.209  38.282  1.00  0.00    -0.237 OA
ATOM     66  O   UNL A   1      41.671  35.719  37.167  1.00  0.00    -0.237 OA
ATOM     67  O   UNL A   1      39.812  36.689  35.881  1.00  0.00    -0.744 OA
ENDBRANCH  61  64
ENDBRANCH  43  57
BRANCH  44  68
ATOM     68  C   UNL A   1      42.330  26.470  27.698  1.00  0.00     0.023 A 
ATOM     69  C   UNL A   1      43.257  26.937  26.747  1.00  0.00     0.012 A 
ATOM     70  C   UNL A   1      41.856  25.147  27.615  1.00  0.00     0.148 A 
ATOM     71  C   UNL A   1      43.711  26.098  25.729  1.00  0.00     0.002 A 
ATOM     72  C   UNL A   1      42.340  24.306  26.619  1.00  0.00     0.091 A 
ATOM     73  F   UNL A   1      40.981  24.730  28.539  1.00  0.00    -0.205 F 
ATOM     74  C   UNL A   1      43.262  24.781  25.672  1.00  0.00     0.022 A 
BRANCH  72  75
ATOM     75  S   UNL A   1      41.907  22.566  26.522  1.00  0.00     0.127 S 
ATOM     76  O   UNL A   1      42.454  22.052  27.777  1.00  0.00    -0.237 OA
ATOM     77  O   UNL A   1      40.447  22.625  26.467  1.00  0.00    -0.237 OA
ATOM     78  O   UNL A   1      42.544  22.062  25.314  1.00  0.00    -0.744 OA
ENDBRANCH  72  75
ENDBRANCH  44  68
BRANCH  56  79
ATOM     79  C   UNL A   1      44.777  27.303  34.201  1.00  0.00     0.023 A 
ATOM     80  C   UNL A   1      46.001  27.998  34.250  1.00  0.00     0.012 A 
ATOM     81  C   UNL A   1      44.620  26.115  34.942  1.00  0.00     0.148 A 
ATOM     82  C   UNL A   1      47.059  27.513  35.016  1.00  0.00     0.002 A 
ATOM     83  C   UNL A   1      45.668  25.654  35.729  1.00  0.00     0.091 A 
ATOM     84  F   UNL A   1      43.449  25.467  34.868  1.00  0.00    -0.205 F 
ATOM     85  C   UNL A   1      46.889  26.349  35.763  1.00  0.00     0.022 A 
BRANCH  83  86
ATOM     86  S   UNL A   1      45.524  24.206  36.781  1.00  0.00     0.127 S 
ATOM     87  O   UNL A   1      46.907  24.014  37.213  1.00  0.00    -0.237 OA
ATOM     88  O   UNL A   1      44.617  24.673  37.830  1.00  0.00    -0.237 OA
ATOM     89  O   UNL A   1      44.982  23.148  35.939  1.00  0.00    -0.744 OA
ENDBRANCH  83  86
ENDBRANCH  56  79
ENDBRANCH  30  31
ENDBRANCH  23  25
ENDBRANCH  22  23
ENDBRANCH  21  22
ENDBRANCH   1  21
TORSDOF 18
ENDMDL
