MODEL 1
REMARK VINA RESULT:     -11.9      0.000      0.000
REMARK SMILES CCC1(C(=O)OCCOC(=O)c2ccc(-c3c4nc(c(-c5cccc(S(=O)(=O)[O-])c5F)c5ccc([nH]5)c(-c5cccc(S(=O)(=O)[O-])c5F)c5nc(c(-c6cccc(S(=O)(=O)[O-])c6F)c6ccc3[nH]6)C=C5)C=C4)cc2)CCN(C(=O)C[C@H]2CSCC[NH2+]2)CC1
REMARK SMILES IDX 8 1 7 2 6 3 4 4 5 5 3 6 75 7 88 8 76 9 87 10 77 11 78 12
REMARK SMILES IDX 79 13 2 14 1 15 80 16 81 17 82 18 86 19 83 20 85 21 84 24
REMARK SMILES IDX 9 25 10 26 11 27 12 28 13 29 74 30 14 31 73 32 15 33 16 34
REMARK SMILES IDX 17 35 67 36 18 37 72 38 66 39 68 40 19 41 71 42 65 43 64 44
REMARK SMILES IDX 20 46 52 47 32 48 51 49 33 50 36 51 50 52 69 53 34 54 35 55
REMARK SMILES IDX 49 57 70 58 37 59 21 60 22 61 30 62 23 63 25 64 31 65 24 66
REMARK SMILES IDX 26 67 27 68 28 69 29 70 53 71 54 72 62 73 55 74 57 75 63 76
REMARK SMILES IDX 56 77 58 78 59 79 60 80 61 81 38 82 39 83 47 84 40 85 42 86
REMARK SMILES IDX 48 87 41 88 43 89 44 90 45 91 46 92
REMARK H PARENT 86 22 86 23 68 45 36 56
REMARK Flexibility Score: inf
ROOT
ATOM      1  C   UNL A   1      36.194  21.117  24.552  1.00  0.00     0.275 C 
ENDROOT
BRANCH   1   2
ATOM      2  C   UNL A   1      34.838  20.555  24.965  1.00  0.00     0.274 C 
BRANCH   2   3
ATOM      3  O   UNL A   1      33.773  21.360  24.413  1.00  0.00    -0.462 OA
BRANCH   3   4
ATOM      4  C   UNL A   1      32.621  21.441  25.131  1.00  0.00     0.312 C 
ATOM      5  O   UNL A   1      31.754  20.574  25.140  1.00  0.00    -0.252 OA
BRANCH   4   6
ATOM      6  C   UNL A   1      32.471  22.776  25.890  1.00  0.00     0.071 C 
ATOM      7  C   UNL A   1      33.431  23.858  25.322  1.00  0.00     0.040 C 
ATOM      8  C   UNL A   1      30.977  23.179  25.648  1.00  0.00     0.040 C 
ATOM      9  C   UNL A   1      33.020  25.267  25.728  1.00  0.00     0.120 C 
ATOM     10  C   UNL A   1      30.673  24.652  25.913  1.00  0.00     0.120 C 
ATOM     11  N   UNL A   1      31.664  25.487  25.246  1.00  0.00    -0.342 N 
ATOM     12  C   UNL A   1      31.484  26.197  24.072  1.00  0.00     0.228 C 
ATOM     13  O   UNL A   1      32.423  26.752  23.492  1.00  0.00    -0.275 OA
BRANCH   6  14
ATOM     14  C   UNL A   1      32.654  22.545  27.417  1.00  0.00     0.015 C 
ATOM     15  C   UNL A   1      34.088  22.527  27.930  1.00  0.00     0.005 C 
ENDBRANCH   6  14
BRANCH  12  16
ATOM     16  C   UNL A   1      30.105  26.271  23.445  1.00  0.00     0.166 C 
BRANCH  16  17
ATOM     17  C   UNL A   1      29.455  27.676  23.412  1.00  0.00     0.201 C 
ATOM     18  C   UNL A   1      30.103  28.632  22.380  1.00  0.00     0.135 C 
ATOM     19  N   UNL A   1      27.986  27.515  23.288  1.00  0.00    -0.342 N 
ATOM     20  S   UNL A   1      29.336  30.288  22.317  1.00  0.00    -0.150 SA
ATOM     21  C   UNL A   1      27.264  28.792  23.351  1.00  0.00     0.271 C 
ATOM     22  H   UNL A   1      27.659  26.918  24.047  1.00  0.00     0.346 HD
ATOM     23  H   UNL A   1      27.800  27.103  22.374  1.00  0.00     0.346 HD
ATOM     24  C   UNL A   1      27.601  29.751  22.211  1.00  0.00     0.131 C 
ENDBRANCH  16  17
ENDBRANCH  12  16
ENDBRANCH   4   6
ENDBRANCH   3   4
ENDBRANCH   2   3
ENDBRANCH   1   2
BRANCH   1  25
ATOM     25  O   UNL A   1      36.876  21.539  25.742  1.00  0.00    -0.458 OA
BRANCH  25  26
ATOM     26  C   UNL A   1      38.207  21.305  25.788  1.00  0.00     0.338 C 
ATOM     27  O   UNL A   1      38.800  20.339  25.340  1.00  0.00    -0.246 OA
BRANCH  26  28
ATOM     28  C   UNL A   1      38.879  22.464  26.415  1.00  0.00     0.060 A 
ATOM     29  C   UNL A   1      38.430  23.759  26.153  1.00  0.00     0.016 A 
ATOM     30  C   UNL A   1      40.038  22.274  27.164  1.00  0.00     0.016 A 
ATOM     31  C   UNL A   1      39.188  24.858  26.541  1.00  0.00     0.010 A 
ATOM     32  C   UNL A   1      40.733  23.385  27.657  1.00  0.00     0.010 A 
ATOM     33  C   UNL A   1      40.340  24.693  27.320  1.00  0.00    -0.014 A 
BRANCH  33  34
ATOM     34  C   UNL A   1      41.144  25.872  27.759  1.00  0.00     0.031 A 
ATOM     35  C   UNL A   1      40.522  26.927  28.638  1.00  0.00     0.074 A 
ATOM     36  C   UNL A   1      42.425  26.022  27.358  1.00  0.00     0.049 A 
ATOM     37  N   UNL A   1      40.944  28.137  28.899  1.00  0.00    -0.248 NA
ATOM     38  C   UNL A   1      39.247  26.585  29.291  1.00  0.00     0.031 C 
ATOM     39  C   UNL A   1      43.175  25.074  26.533  1.00  0.00     0.029 A 
ATOM     40  N   UNL A   1      43.321  27.039  27.583  1.00  0.00    -0.354 N 
ATOM     41  C   UNL A   1      39.937  28.737  29.648  1.00  0.00     0.074 A 
ATOM     42  C   UNL A   1      38.900  27.745  29.833  1.00  0.00     0.031 C 
ATOM     43  C   UNL A   1      44.422  25.531  26.353  1.00  0.00     0.029 A 
ATOM     44  C   UNL A   1      44.530  26.855  26.953  1.00  0.00     0.049 A 
ATOM     45  H   UNL A   1      43.119  27.824  28.143  1.00  0.00     0.167 HD
ATOM     46  C   UNL A   1      39.885  29.999  30.136  1.00  0.00     0.034 A 
ATOM     47  C   UNL A   1      45.592  27.675  26.815  1.00  0.00     0.034 A 
ATOM     48  C   UNL A   1      40.966  30.944  30.047  1.00  0.00     0.049 A 
ATOM     49  C   UNL A   1      45.529  29.054  27.404  1.00  0.00     0.074 A 
ATOM     50  C   UNL A   1      41.026  32.233  30.547  1.00  0.00     0.029 A 
ATOM     51  N   UNL A   1      42.190  30.691  29.446  1.00  0.00    -0.354 N 
ATOM     52  N   UNL A   1      44.568  29.607  28.103  1.00  0.00    -0.248 NA
ATOM     53  C   UNL A   1      46.691  29.925  27.182  1.00  0.00     0.031 C 
ATOM     54  C   UNL A   1      42.290  32.757  30.253  1.00  0.00     0.029 A 
ATOM     55  C   UNL A   1      43.017  31.794  29.572  1.00  0.00     0.049 A 
ATOM     56  H   UNL A   1      42.435  29.850  28.995  1.00  0.00     0.167 HD
ATOM     57  C   UNL A   1      45.009  30.888  28.406  1.00  0.00     0.074 A 
ATOM     58  C   UNL A   1      46.340  31.017  27.849  1.00  0.00     0.031 C 
ATOM     59  C   UNL A   1      44.357  31.883  29.058  1.00  0.00     0.034 A 
BRANCH  46  60
ATOM     60  C   UNL A   1      38.625  30.435  30.834  1.00  0.00     0.023 A 
ATOM     61  C   UNL A   1      38.478  30.217  32.217  1.00  0.00     0.012 A 
ATOM     62  C   UNL A   1      37.615  31.121  30.130  1.00  0.00     0.148 A 
ATOM     63  C   UNL A   1      37.335  30.657  32.886  1.00  0.00     0.002 A 
ATOM     64  C   UNL A   1      36.496  31.589  30.810  1.00  0.00     0.091 A 
ATOM     65  F   UNL A   1      37.759  31.294  28.808  1.00  0.00    -0.205 F 
ATOM     66  C   UNL A   1      36.352  31.351  32.186  1.00  0.00     0.022 A 
BRANCH  64  67
ATOM     67  S   UNL A   1      35.218  32.560  30.000  1.00  0.00     0.127 S 
ATOM     68  O   UNL A   1      35.978  33.717  29.532  1.00  0.00    -0.237 OA
ATOM     69  O   UNL A   1      34.765  31.659  28.939  1.00  0.00    -0.237 OA
ATOM     70  O   UNL A   1      34.220  32.831  31.026  1.00  0.00    -0.744 OA
ENDBRANCH  64  67
ENDBRANCH  46  60
BRANCH  47  71
ATOM     71  C   UNL A   1      46.800  27.198  26.083  1.00  0.00     0.023 A 
ATOM     72  C   UNL A   1      46.954  27.524  24.723  1.00  0.00     0.012 A 
ATOM     73  C   UNL A   1      47.828  26.494  26.740  1.00  0.00     0.148 A 
ATOM     74  C   UNL A   1      48.107  27.152  24.029  1.00  0.00     0.002 A 
ATOM     75  C   UNL A   1      49.003  26.189  26.063  1.00  0.00     0.091 A 
ATOM     76  F   UNL A   1      47.654  26.160  28.027  1.00  0.00    -0.205 F 
ATOM     77  C   UNL A   1      49.140  26.504  24.703  1.00  0.00     0.022 A 
BRANCH  75  78
ATOM     78  S   UNL A   1      50.433  25.519  26.920  1.00  0.00     0.127 S 
ATOM     79  O   UNL A   1      51.386  25.345  25.830  1.00  0.00    -0.237 OA
ATOM     80  O   UNL A   1      50.763  26.589  27.863  1.00  0.00    -0.237 OA
ATOM     81  O   UNL A   1      49.953  24.299  27.557  1.00  0.00    -0.744 OA
ENDBRANCH  75  78
ENDBRANCH  47  71
BRANCH  59  82
ATOM     82  C   UNL A   1      45.077  33.193  29.213  1.00  0.00     0.023 A 
ATOM     83  C   UNL A   1      45.907  33.395  30.333  1.00  0.00     0.012 A 
ATOM     84  C   UNL A   1      44.988  34.191  28.224  1.00  0.00     0.148 A 
ATOM     85  C   UNL A   1      46.623  34.582  30.477  1.00  0.00     0.002 A 
ATOM     86  C   UNL A   1      45.733  35.358  28.357  1.00  0.00     0.091 A 
ATOM     87  F   UNL A   1      44.174  33.988  27.179  1.00  0.00    -0.205 F 
ATOM     88  C   UNL A   1      46.545  35.558  29.486  1.00  0.00     0.022 A 
BRANCH  86  89
ATOM     89  S   UNL A   1      45.747  36.628  27.088  1.00  0.00     0.127 S 
ATOM     90  O   UNL A   1      46.680  37.603  27.651  1.00  0.00    -0.237 OA
ATOM     91  O   UNL A   1      46.253  35.904  25.921  1.00  0.00    -0.237 OA
ATOM     92  O   UNL A   1      44.367  37.077  26.963  1.00  0.00    -0.744 OA
ENDBRANCH  86  89
ENDBRANCH  59  82
ENDBRANCH  33  34
ENDBRANCH  26  28
ENDBRANCH  25  26
ENDBRANCH   1  25
TORSDOF 17
ENDMDL
MODEL 2
REMARK VINA RESULT:     -11.9      5.288     10.125
REMARK SMILES CCC1(C(=O)OCCOC(=O)c2ccc(-c3c4nc(c(-c5cccc(S(=O)(=O)[O-])c5F)c5ccc([nH]5)c(-c5cccc(S(=O)(=O)[O-])c5F)c5nc(c(-c6cccc(S(=O)(=O)[O-])c6F)c6ccc3[nH]6)C=C5)C=C4)cc2)CCN(C(=O)C[C@H]2CSCC[NH2+]2)CC1
REMARK SMILES IDX 8 1 7 2 6 3 4 4 5 5 3 6 75 7 88 8 76 9 87 10 77 11 78 12
REMARK SMILES IDX 79 13 2 14 1 15 80 16 81 17 82 18 86 19 83 20 85 21 84 24
REMARK SMILES IDX 9 25 10 26 11 27 12 28 13 29 74 30 14 31 73 32 15 33 16 34
REMARK SMILES IDX 17 35 67 36 18 37 72 38 66 39 68 40 19 41 71 42 65 43 64 44
REMARK SMILES IDX 20 46 52 47 32 48 51 49 33 50 36 51 50 52 69 53 34 54 35 55
REMARK SMILES IDX 49 57 70 58 37 59 21 60 22 61 30 62 23 63 25 64 31 65 24 66
REMARK SMILES IDX 26 67 27 68 28 69 29 70 53 71 54 72 62 73 55 74 57 75 63 76
REMARK SMILES IDX 56 77 58 78 59 79 60 80 61 81 38 82 39 83 47 84 40 85 42 86
REMARK SMILES IDX 48 87 41 88 43 89 44 90 45 91 46 92
REMARK H PARENT 86 22 86 23 68 45 36 56
REMARK Flexibility Score: inf
ROOT
ATOM      1  C   UNL A   1      31.976  30.032  25.415  1.00  0.00     0.275 C 
ENDROOT
BRANCH   1   2
ATOM      2  C   UNL A   1      33.068  29.301  24.642  1.00  0.00     0.274 C 
BRANCH   2   3
ATOM      3  O   UNL A   1      32.984  27.878  24.882  1.00  0.00    -0.462 OA
BRANCH   3   4
ATOM      4  C   UNL A   1      32.701  27.086  23.814  1.00  0.00     0.312 C 
ATOM      5  O   UNL A   1      33.271  27.162  22.730  1.00  0.00    -0.252 OA
BRANCH   4   6
ATOM      6  C   UNL A   1      31.530  26.114  24.070  1.00  0.00     0.071 C 
ATOM      7  C   UNL A   1      31.426  25.048  22.945  1.00  0.00     0.040 C 
ATOM      8  C   UNL A   1      31.892  25.442  25.437  1.00  0.00     0.040 C 
ATOM      9  C   UNL A   1      30.596  23.843  23.364  1.00  0.00     0.120 C 
ATOM     10  C   UNL A   1      31.143  24.140  25.716  1.00  0.00     0.120 C 
ATOM     11  N   UNL A   1      31.217  23.270  24.550  1.00  0.00    -0.342 N 
ATOM     12  C   UNL A   1      32.033  22.162  24.402  1.00  0.00     0.228 C 
ATOM     13  O   UNL A   1      32.149  21.573  23.322  1.00  0.00    -0.275 OA
BRANCH   6  14
ATOM     14  C   UNL A   1      30.210  26.911  24.274  1.00  0.00     0.015 C 
ATOM     15  C   UNL A   1      29.685  27.669  23.062  1.00  0.00     0.005 C 
ENDBRANCH   6  14
BRANCH  12  16
ATOM     16  C   UNL A   1      32.847  21.668  25.583  1.00  0.00     0.166 C 
BRANCH  16  17
ATOM     17  C   UNL A   1      34.372  21.919  25.501  1.00  0.00     0.201 C 
ATOM     18  C   UNL A   1      35.180  20.676  25.052  1.00  0.00     0.135 C 
ATOM     19  N   UNL A   1      34.609  23.147  24.705  1.00  0.00    -0.342 N 
ATOM     20  S   UNL A   1      36.979  20.960  24.936  1.00  0.00    -0.150 SA
ATOM     21  C   UNL A   1      36.025  23.532  24.655  1.00  0.00     0.271 C 
ATOM     22  H   UNL A   1      34.079  23.912  25.122  1.00  0.00     0.346 HD
ATOM     23  H   UNL A   1      34.310  22.953  23.749  1.00  0.00     0.346 HD
ATOM     24  C   UNL A   1      36.922  22.501  23.971  1.00  0.00     0.131 C 
ENDBRANCH  16  17
ENDBRANCH  12  16
ENDBRANCH   4   6
ENDBRANCH   3   4
ENDBRANCH   2   3
ENDBRANCH   1   2
BRANCH   1  25
ATOM     25  O   UNL A   1      32.405  30.149  26.779  1.00  0.00    -0.458 OA
BRANCH  25  26
ATOM     26  C   UNL A   1      32.976  31.323  27.132  1.00  0.00     0.338 C 
ATOM     27  O   UNL A   1      32.459  32.427  27.114  1.00  0.00    -0.246 OA
BRANCH  26  28
ATOM     28  C   UNL A   1      34.342  31.063  27.635  1.00  0.00     0.060 A 
ATOM     29  C   UNL A   1      34.731  29.764  27.963  1.00  0.00     0.016 A 
ATOM     30  C   UNL A   1      35.199  32.128  27.905  1.00  0.00     0.016 A 
ATOM     31  C   UNL A   1      35.918  29.538  28.653  1.00  0.00     0.010 A 
ATOM     32  C   UNL A   1      36.447  31.882  28.488  1.00  0.00     0.010 A 
ATOM     33  C   UNL A   1      36.808  30.588  28.907  1.00  0.00    -0.014 A 
BRANCH  33  34
ATOM     34  C   UNL A   1      38.094  30.347  29.626  1.00  0.00     0.031 A 
ATOM     35  C   UNL A   1      39.164  29.493  28.995  1.00  0.00     0.074 A 
ATOM     36  C   UNL A   1      38.307  30.866  30.854  1.00  0.00     0.049 A 
ATOM     37  N   UNL A   1      40.213  28.942  29.549  1.00  0.00    -0.248 NA
ATOM     38  C   UNL A   1      39.025  29.200  27.558  1.00  0.00     0.031 C 
ATOM     39  C   UNL A   1      37.381  31.736  31.583  1.00  0.00     0.029 A 
ATOM     40  N   UNL A   1      39.370  30.727  31.714  1.00  0.00    -0.354 N 
ATOM     41  C   UNL A   1      40.792  28.150  28.562  1.00  0.00     0.074 A 
ATOM     42  C   UNL A   1      39.999  28.322  27.364  1.00  0.00     0.031 C 
ATOM     43  C   UNL A   1      37.928  32.083  32.756  1.00  0.00     0.029 A 
ATOM     44  C   UNL A   1      39.191  31.374  32.916  1.00  0.00     0.049 A 
ATOM     45  H   UNL A   1      40.181  30.216  31.492  1.00  0.00     0.167 HD
ATOM     46  C   UNL A   1      41.884  27.354  28.651  1.00  0.00     0.034 A 
ATOM     47  C   UNL A   1      39.925  31.358  34.047  1.00  0.00     0.034 A 
ATOM     48  C   UNL A   1      42.733  27.275  29.809  1.00  0.00     0.049 A 
ATOM     49  C   UNL A   1      41.157  30.503  34.106  1.00  0.00     0.074 A 
ATOM     50  C   UNL A   1      43.887  26.530  29.982  1.00  0.00     0.029 A 
ATOM     51  N   UNL A   1      42.541  27.990  30.981  1.00  0.00    -0.354 N 
ATOM     52  N   UNL A   1      41.686  29.757  33.168  1.00  0.00    -0.248 NA
ATOM     53  C   UNL A   1      41.891  30.483  35.379  1.00  0.00     0.031 C 
ATOM     54  C   UNL A   1      44.395  26.801  31.257  1.00  0.00     0.029 A 
ATOM     55  C   UNL A   1      43.559  27.714  31.877  1.00  0.00     0.049 A 
ATOM     56  H   UNL A   1      41.789  28.604  31.151  1.00  0.00     0.167 HD
ATOM     57  C   UNL A   1      42.814  29.179  33.734  1.00  0.00     0.074 A 
ATOM     58  C   UNL A   1      42.915  29.693  35.085  1.00  0.00     0.031 C 
ATOM     59  C   UNL A   1      43.672  28.277  33.196  1.00  0.00     0.034 A 
BRANCH  46  60
ATOM     60  C   UNL A   1      42.245  26.516  27.454  1.00  0.00     0.023 A 
ATOM     61  C   UNL A   1      42.978  27.083  26.394  1.00  0.00     0.012 A 
ATOM     62  C   UNL A   1      41.914  25.146  27.412  1.00  0.00     0.148 A 
ATOM     63  C   UNL A   1      43.359  26.306  25.301  1.00  0.00     0.002 A 
ATOM     64  C   UNL A   1      42.329  24.369  26.336  1.00  0.00     0.091 A 
ATOM     65  F   UNL A   1      41.190  24.629  28.416  1.00  0.00    -0.205 F 
ATOM     66  C   UNL A   1      43.045  24.949  25.277  1.00  0.00     0.022 A 
BRANCH  64  67
ATOM     67  S   UNL A   1      42.034  22.597  26.262  1.00  0.00     0.127 S 
ATOM     68  O   UNL A   1      42.669  22.140  27.497  1.00  0.00    -0.237 OA
ATOM     69  O   UNL A   1      40.572  22.522  26.266  1.00  0.00    -0.237 OA
ATOM     70  O   UNL A   1      42.656  22.145  25.025  1.00  0.00    -0.744 OA
ENDBRANCH  64  67
ENDBRANCH  46  60
BRANCH  47  71
ATOM     71  C   UNL A   1      39.497  32.186  35.212  1.00  0.00     0.023 A 
ATOM     72  C   UNL A   1      39.703  33.577  35.180  1.00  0.00     0.012 A 
ATOM     73  C   UNL A   1      38.823  31.617  36.311  1.00  0.00     0.148 A 
ATOM     74  C   UNL A   1      39.250  34.386  36.224  1.00  0.00     0.002 A 
ATOM     75  C   UNL A   1      38.314  32.436  37.312  1.00  0.00     0.091 A 
ATOM     76  F   UNL A   1      38.664  30.286  36.345  1.00  0.00    -0.205 F 
ATOM     77  C   UNL A   1      38.538  33.819  37.279  1.00  0.00     0.022 A 
BRANCH  75  78
ATOM     78  S   UNL A   1      37.238  31.787  38.596  1.00  0.00     0.127 S 
ATOM     79  O   UNL A   1      36.987  30.429  38.125  1.00  0.00    -0.237 OA
ATOM     80  O   UNL A   1      38.083  31.879  39.789  1.00  0.00    -0.237 OA
ATOM     81  O   UNL A   1      36.090  32.685  38.616  1.00  0.00    -0.744 OA
ENDBRANCH  75  78
ENDBRANCH  47  71
BRANCH  59  82
ATOM     82  C   UNL A   1      44.800  27.795  34.065  1.00  0.00     0.023 A 
ATOM     83  C   UNL A   1      46.016  28.506  34.072  1.00  0.00     0.012 A 
ATOM     84  C   UNL A   1      44.635  26.689  34.920  1.00  0.00     0.148 A 
ATOM     85  C   UNL A   1      47.062  28.109  34.903  1.00  0.00     0.002 A 
ATOM     86  C   UNL A   1      45.671  26.320  35.772  1.00  0.00     0.091 A 
ATOM     87  F   UNL A   1      43.479  26.013  34.879  1.00  0.00    -0.205 F 
ATOM     88  C   UNL A   1      46.887  27.024  35.760  1.00  0.00     0.022 A 
BRANCH  86  89
ATOM     89  S   UNL A   1      45.496  24.984  36.959  1.00  0.00     0.127 S 
ATOM     90  O   UNL A   1      45.633  23.806  36.106  1.00  0.00    -0.237 OA
ATOM     91  O   UNL A   1      46.624  25.216  37.864  1.00  0.00    -0.237 OA
ATOM     92  O   UNL A   1      44.189  25.170  37.573  1.00  0.00    -0.744 OA
ENDBRANCH  86  89
ENDBRANCH  59  82
ENDBRANCH  33  34
ENDBRANCH  26  28
ENDBRANCH  25  26
ENDBRANCH   1  25
TORSDOF 17
ENDMDL
MODEL 3
REMARK VINA RESULT:     -11.8      4.948     10.078
REMARK SMILES CCC1(C(=O)OCCOC(=O)c2ccc(-c3c4nc(c(-c5cccc(S(=O)(=O)[O-])c5F)c5ccc([nH]5)c(-c5cccc(S(=O)(=O)[O-])c5F)c5nc(c(-c6cccc(S(=O)(=O)[O-])c6F)c6ccc3[nH]6)C=C5)C=C4)cc2)CCN(C(=O)C[C@H]2CSCC[NH2+]2)CC1
REMARK SMILES IDX 8 1 7 2 6 3 4 4 5 5 3 6 75 7 88 8 76 9 87 10 77 11 78 12
REMARK SMILES IDX 79 13 2 14 1 15 80 16 81 17 82 18 86 19 83 20 85 21 84 24
REMARK SMILES IDX 9 25 10 26 11 27 12 28 13 29 74 30 14 31 73 32 15 33 16 34
REMARK SMILES IDX 17 35 67 36 18 37 72 38 66 39 68 40 19 41 71 42 65 43 64 44
REMARK SMILES IDX 20 46 52 47 32 48 51 49 33 50 36 51 50 52 69 53 34 54 35 55
REMARK SMILES IDX 49 57 70 58 37 59 21 60 22 61 30 62 23 63 25 64 31 65 24 66
REMARK SMILES IDX 26 67 27 68 28 69 29 70 53 71 54 72 62 73 55 74 57 75 63 76
REMARK SMILES IDX 56 77 58 78 59 79 60 80 61 81 38 82 39 83 47 84 40 85 42 86
REMARK SMILES IDX 48 87 41 88 43 89 44 90 45 91 46 92
REMARK H PARENT 86 22 86 23 68 45 36 56
REMARK Flexibility Score: inf
ROOT
ATOM      1  C   UNL A   1      31.420  29.922  25.496  1.00  0.00     0.275 C 
ENDROOT
BRANCH   1   2
ATOM      2  C   UNL A   1      31.390  28.855  24.408  1.00  0.00     0.274 C 
BRANCH   2   3
ATOM      3  O   UNL A   1      32.051  27.654  24.867  1.00  0.00    -0.462 OA
BRANCH   3   4
ATOM      4  C   UNL A   1      31.396  26.899  25.788  1.00  0.00     0.312 C 
ATOM      5  O   UNL A   1      31.414  27.118  26.995  1.00  0.00    -0.252 OA
BRANCH   4   6
ATOM      6  C   UNL A   1      30.675  25.682  25.175  1.00  0.00     0.071 C 
ATOM      7  C   UNL A   1      31.287  25.298  23.799  1.00  0.00     0.040 C 
ATOM      8  C   UNL A   1      30.907  24.540  26.221  1.00  0.00     0.040 C 
ATOM      9  C   UNL A   1      30.916  23.884  23.374  1.00  0.00     0.120 C 
ATOM     10  C   UNL A   1      30.681  23.132  25.675  1.00  0.00     0.120 C 
ATOM     11  N   UNL A   1      31.386  22.975  24.410  1.00  0.00    -0.342 N 
ATOM     12  C   UNL A   1      32.577  22.300  24.211  1.00  0.00     0.228 C 
ATOM     13  O   UNL A   1      33.187  22.350  23.137  1.00  0.00    -0.275 OA
BRANCH   6  14
ATOM     14  C   UNL A   1      29.144  25.948  25.103  1.00  0.00     0.015 C 
ATOM     15  C   UNL A   1      28.646  26.697  23.874  1.00  0.00     0.005 C 
ENDBRANCH   6  14
BRANCH  12  16
ATOM     16  C   UNL A   1      33.187  21.505  25.349  1.00  0.00     0.166 C 
BRANCH  16  17
ATOM     17  C   UNL A   1      34.664  21.829  25.682  1.00  0.00     0.201 C 
ATOM     18  C   UNL A   1      35.675  20.874  25.000  1.00  0.00     0.135 C 
ATOM     19  N   UNL A   1      34.899  23.273  25.441  1.00  0.00    -0.342 N 
ATOM     20  S   UNL A   1      37.422  21.252  25.369  1.00  0.00    -0.150 SA
ATOM     21  C   UNL A   1      36.248  23.705  25.826  1.00  0.00     0.271 C 
ATOM     22  H   UNL A   1      34.219  23.807  25.981  1.00  0.00     0.346 HD
ATOM     23  H   UNL A   1      34.800  23.435  24.439  1.00  0.00     0.346 HD
ATOM     24  C   UNL A   1      37.364  23.038  25.024  1.00  0.00     0.131 C 
ENDBRANCH  16  17
ENDBRANCH  12  16
ENDBRANCH   4   6
ENDBRANCH   3   4
ENDBRANCH   2   3
ENDBRANCH   1   2
BRANCH   1  25
ATOM     25  O   UNL A   1      32.793  30.200  25.803  1.00  0.00    -0.458 OA
BRANCH  25  26
ATOM     26  C   UNL A   1      33.021  31.094  26.792  1.00  0.00     0.338 C 
ATOM     27  O   UNL A   1      32.246  31.932  27.218  1.00  0.00    -0.246 OA
BRANCH  26  28
ATOM     28  C   UNL A   1      34.366  30.854  27.357  1.00  0.00     0.060 A 
ATOM     29  C   UNL A   1      34.788  29.553  27.633  1.00  0.00     0.016 A 
ATOM     30  C   UNL A   1      35.164  31.932  27.736  1.00  0.00     0.016 A 
ATOM     31  C   UNL A   1      35.942  29.330  28.376  1.00  0.00     0.010 A 
ATOM     32  C   UNL A   1      36.386  31.697  28.376  1.00  0.00     0.010 A 
ATOM     33  C   UNL A   1      36.775  30.395  28.741  1.00  0.00    -0.014 A 
BRANCH  33  34
ATOM     34  C   UNL A   1      38.027  30.158  29.518  1.00  0.00     0.031 A 
ATOM     35  C   UNL A   1      39.131  29.314  28.934  1.00  0.00     0.074 A 
ATOM     36  C   UNL A   1      38.179  30.672  30.757  1.00  0.00     0.049 A 
ATOM     37  N   UNL A   1      40.157  28.767  29.533  1.00  0.00    -0.248 NA
ATOM     38  C   UNL A   1      39.062  29.028  27.491  1.00  0.00     0.031 C 
ATOM     39  C   UNL A   1      37.214  31.533  31.446  1.00  0.00     0.029 A 
ATOM     40  N   UNL A   1      39.201  30.536  31.665  1.00  0.00    -0.354 N 
ATOM     41  C   UNL A   1      40.787  27.984  28.572  1.00  0.00     0.074 A 
ATOM     42  C   UNL A   1      40.050  28.157  27.339  1.00  0.00     0.031 C 
ATOM     43  C   UNL A   1      37.703  31.877  32.644  1.00  0.00     0.029 A 
ATOM     44  C   UNL A   1      38.963  31.176  32.860  1.00  0.00     0.049 A 
ATOM     45  H   UNL A   1      40.025  30.032  31.479  1.00  0.00     0.167 HD
ATOM     46  C   UNL A   1      41.879  27.195  28.707  1.00  0.00     0.034 A 
ATOM     47  C   UNL A   1      39.642  31.159  34.025  1.00  0.00     0.034 A 
ATOM     48  C   UNL A   1      42.673  27.116  29.904  1.00  0.00     0.049 A 
ATOM     49  C   UNL A   1      40.876  30.312  34.137  1.00  0.00     0.074 A 
ATOM     50  C   UNL A   1      43.823  26.377  30.126  1.00  0.00     0.029 A 
ATOM     51  N   UNL A   1      42.421  27.824  31.069  1.00  0.00    -0.354 N 
ATOM     52  N   UNL A   1      41.453  29.574  33.221  1.00  0.00    -0.248 NA
ATOM     53  C   UNL A   1      41.550  30.290  35.443  1.00  0.00     0.031 C 
ATOM     54  C   UNL A   1      44.269  26.645  31.425  1.00  0.00     0.029 A 
ATOM     55  C   UNL A   1      43.399  27.550  32.010  1.00  0.00     0.049 A 
ATOM     56  H   UNL A   1      41.659  28.432  31.206  1.00  0.00     0.167 HD
ATOM     57  C   UNL A   1      42.558  29.001  33.837  1.00  0.00     0.074 A 
ATOM     58  C   UNL A   1      42.592  29.508  35.193  1.00  0.00     0.031 C 
ATOM     59  C   UNL A   1      43.446  28.107  33.336  1.00  0.00     0.034 A 
BRANCH  46  60
ATOM     60  C   UNL A   1      42.301  26.365  27.525  1.00  0.00     0.023 A 
ATOM     61  C   UNL A   1      43.103  26.935  26.518  1.00  0.00     0.012 A 
ATOM     62  C   UNL A   1      41.957  25.000  27.447  1.00  0.00     0.148 A 
ATOM     63  C   UNL A   1      43.541  26.164  25.440  1.00  0.00     0.002 A 
ATOM     64  C   UNL A   1      42.427  24.230  26.389  1.00  0.00     0.091 A 
ATOM     65  F   UNL A   1      41.168  24.482  28.400  1.00  0.00    -0.205 F 
ATOM     66  C   UNL A   1      43.212  24.812  25.382  1.00  0.00     0.022 A 
BRANCH  64  67
ATOM     67  S   UNL A   1      42.115  22.463  26.277  1.00  0.00     0.127 S 
ATOM     68  O   UNL A   1      40.655  22.424  26.213  1.00  0.00    -0.237 OA
ATOM     69  O   UNL A   1      42.789  22.104  25.028  1.00  0.00    -0.237 OA
ATOM     70  O   UNL A   1      42.712  21.881  27.471  1.00  0.00    -0.744 OA
ENDBRANCH  64  67
ENDBRANCH  46  60
BRANCH  47  71
ATOM     71  C   UNL A   1      39.155  31.978  35.172  1.00  0.00     0.023 A 
ATOM     72  C   UNL A   1      38.265  31.404  36.099  1.00  0.00     0.012 A 
ATOM     73  C   UNL A   1      39.624  33.288  35.394  1.00  0.00     0.148 A 
ATOM     74  C   UNL A   1      37.847  32.121  37.221  1.00  0.00     0.002 A 
ATOM     75  C   UNL A   1      39.260  33.970  36.548  1.00  0.00     0.091 A 
ATOM     76  F   UNL A   1      40.445  33.835  34.485  1.00  0.00    -0.205 F 
ATOM     77  C   UNL A   1      38.360  33.395  37.457  1.00  0.00     0.022 A 
BRANCH  75  78
ATOM     78  S   UNL A   1      40.025  35.533  36.995  1.00  0.00     0.127 S 
ATOM     79  O   UNL A   1      39.647  36.387  35.874  1.00  0.00    -0.237 OA
ATOM     80  O   UNL A   1      39.368  35.852  38.264  1.00  0.00    -0.237 OA
ATOM     81  O   UNL A   1      41.446  35.234  37.127  1.00  0.00    -0.744 OA
ENDBRANCH  75  78
ENDBRANCH  47  71
BRANCH  59  82
ATOM     82  C   UNL A   1      44.535  27.628  34.254  1.00  0.00     0.023 A 
ATOM     83  C   UNL A   1      45.734  28.363  34.344  1.00  0.00     0.012 A 
ATOM     84  C   UNL A   1      44.349  26.499  35.073  1.00  0.00     0.148 A 
ATOM     85  C   UNL A   1      46.741  27.968  35.222  1.00  0.00     0.002 A 
ATOM     86  C   UNL A   1      45.344  26.132  35.972  1.00  0.00     0.091 A 
ATOM     87  F   UNL A   1      43.211  25.800  34.954  1.00  0.00    -0.205 F 
ATOM     88  C   UNL A   1      46.543  26.861  36.043  1.00  0.00     0.022 A 
BRANCH  86  89
ATOM     89  S   UNL A   1      45.134  24.765  37.118  1.00  0.00     0.127 S 
ATOM     90  O   UNL A   1      46.385  24.813  37.873  1.00  0.00    -0.237 OA
ATOM     91  O   UNL A   1      43.949  25.167  37.878  1.00  0.00    -0.237 OA
ATOM     92  O   UNL A   1      44.942  23.582  36.291  1.00  0.00    -0.744 OA
ENDBRANCH  86  89
ENDBRANCH  59  82
ENDBRANCH  33  34
ENDBRANCH  26  28
ENDBRANCH  25  26
ENDBRANCH   1  25
TORSDOF 17
ENDMDL
