MODEL 1
REMARK VINA RESULT:     -12.2      0.000      0.000
REMARK SMILES Cc1coc2c(C)c3oc(=O)c(CCC(=O)N[C@H](CC(C)C)C(=O)OCCOC(=O)c4ccc(-c5c6nc(c(-c7cccc(S(=O)(=O)[O-])c7F)c7ccc([nH]7)c(-c7cccc(S(=O)(=O)[O-])c7F)c7nc(c(-c8cccc(S(=O)(=O)[O-])c8F)c8ccc5[nH]8)C=C7)C=C6)cc4)c(C)c3cc12
REMARK SMILES IDX 26 1 25 2 23 3 24 4 18 5 17 6 15 7 16 8 14 10 13 11 12 12
REMARK SMILES IDX 1 13 2 14 3 15 98 16 4 17 5 18 97 19 6 20 96 21 7 22 8 23
REMARK SMILES IDX 94 24 9 25 95 26 10 27 11 28 19 29 20 30 21 31 22 32 27 33
REMARK SMILES IDX 28 34 29 35 30 36 31 37 32 38 93 39 33 40 92 41 34 42 35 43
REMARK SMILES IDX 36 44 86 45 37 46 91 47 85 48 87 49 38 50 90 51 84 52 83 53
REMARK SMILES IDX 39 55 71 56 51 57 70 58 52 59 55 60 69 61 88 62 53 63 54 64
REMARK SMILES IDX 68 66 89 67 56 68 40 69 41 70 49 71 42 72 44 73 50 74 43 75
REMARK SMILES IDX 45 76 46 77 47 78 48 79 72 80 73 81 81 82 74 83 76 84 82 85
REMARK SMILES IDX 75 86 77 87 78 88 79 89 80 90 57 91 58 92 66 93 59 94 61 95
REMARK SMILES IDX 67 96 60 97 62 98 63 99 64 100 65 101
REMARK H PARENT 17 9 87 54 55 65
REMARK Flexibility Score: inf
ROOT
ATOM      1  C   UNL A   1      36.518  21.552  25.475  1.00  0.00     0.274 C 
ENDROOT
BRANCH   1   2
ATOM      2  O   UNL A   1      34.940  22.027  24.951  1.00  0.00    -0.461 OA
BRANCH   2   3
ATOM      3  C   UNL A   1      33.685  22.099  24.303  1.00  0.00     0.328 C 
ATOM      4  O   UNL A   1      33.134  21.006  24.090  1.00  0.00    -0.250 OA
BRANCH   3   5
ATOM      5  C   UNL A   1      32.821  23.491  23.722  1.00  0.00     0.192 C 
BRANCH   5   6
ATOM      6  N   UNL A   1      31.544  23.396  24.453  1.00  0.00    -0.343 N 
ATOM      7  C   UNL A   1      30.906  24.378  25.158  1.00  0.00     0.221 C 
ATOM      8  O   UNL A   1      30.275  24.037  26.161  1.00  0.00    -0.275 OA
ATOM      9  H   UNL A   1      31.098  22.519  24.433  1.00  0.00     0.164 HD
BRANCH   7  10
ATOM     10  C   UNL A   1      30.869  25.835  24.676  1.00  0.00     0.105 C 
BRANCH  10  11
ATOM     11  C   UNL A   1      30.708  26.937  25.731  1.00  0.00     0.053 C 
BRANCH  11  12
ATOM     12  C   UNL A   1      32.003  27.719  25.953  1.00  0.00     0.042 A 
ATOM     13  C   UNL A   1      33.264  34.256  28.288  1.00  0.00     0.048 C 
ATOM     14  C   UNL A   1      34.332  33.218  28.181  1.00  0.00    -0.005 A 
ATOM     15  C   UNL A   1      35.700  33.391  28.223  1.00  0.00     0.199 A 
ATOM     16  C   UNL A   1      34.181  31.836  27.858  1.00  0.00     0.024 A 
ATOM     17  O   UNL A   1      36.355  32.211  28.003  1.00  0.00    -0.464 OA
ATOM     18  C   UNL A   1      35.410  31.258  27.736  1.00  0.00     0.140 A 
ATOM     19  C   UNL A   1      33.096  31.002  27.587  1.00  0.00     0.024 A 
ATOM     20  C   UNL A   1      35.559  29.893  27.437  1.00  0.00     0.036 A 
ATOM     21  C   UNL A   1      33.149  29.805  26.804  1.00  0.00     0.022 A 
ATOM     22  C   UNL A   1      36.908  29.295  27.571  1.00  0.00     0.052 C 
ATOM     23  C   UNL A   1      34.372  29.204  26.964  1.00  0.00     0.145 A 
ATOM     24  C   UNL A   1      32.068  29.054  25.851  1.00  0.00    -0.030 A 
ATOM     25  O   UNL A   1      34.346  27.799  26.721  1.00  0.00    -0.422 OA
ATOM     26  C   UNL A   1      31.087  29.572  24.752  1.00  0.00     0.046 C 
ATOM     27  C   UNL A   1      33.236  27.019  26.307  1.00  0.00     0.339 A 
ATOM     28  O   UNL A   1      33.305  25.794  26.184  1.00  0.00    -0.246 OA
ENDBRANCH  11  12
ENDBRANCH  10  11
ENDBRANCH   7  10
ENDBRANCH   5   6
BRANCH   5  29
ATOM     29  C   UNL A   1      32.544  23.834  22.186  1.00  0.00     0.040 C 
BRANCH  29  30
ATOM     30  C   UNL A   1      32.523  25.381  21.724  1.00  0.00    -0.015 C 
ATOM     31  C   UNL A   1      33.612  26.299  22.260  1.00  0.00     0.007 C 
ATOM     32  C   UNL A   1      32.669  25.555  20.202  1.00  0.00     0.007 C 
ENDBRANCH  29  30
ENDBRANCH   5  29
ENDBRANCH   3   5
ENDBRANCH   2   3
ENDBRANCH   1   2
BRANCH   1  33
ATOM     33  C   UNL A   1      38.040  22.365  25.940  1.00  0.00     0.275 C 
BRANCH  33  34
ATOM     34  O   UNL A   1      38.402  23.851  26.040  1.00  0.00    -0.458 OA
BRANCH  34  35
ATOM     35  C   UNL A   1      39.224  24.232  27.116  1.00  0.00     0.338 C 
ATOM     36  O   UNL A   1      39.923  23.371  27.651  1.00  0.00    -0.246 OA
BRANCH  35  37
ATOM     37  C   UNL A   1      39.480  25.720  27.577  1.00  0.00     0.060 A 
ATOM     38  C   UNL A   1      39.986  26.817  26.874  1.00  0.00     0.016 A 
ATOM     39  C   UNL A   1      39.320  25.983  28.952  1.00  0.00     0.016 A 
ATOM     40  C   UNL A   1      40.674  27.893  27.512  1.00  0.00     0.010 A 
ATOM     41  C   UNL A   1      39.880  27.111  29.600  1.00  0.00     0.010 A 
ATOM     42  C   UNL A   1      40.674  28.020  28.903  1.00  0.00    -0.014 A 
BRANCH  42  43
ATOM     43  C   UNL A   1      41.137  29.291  29.535  1.00  0.00     0.031 A 
ATOM     44  C   UNL A   1      39.985  30.117  30.028  1.00  0.00     0.074 A 
ATOM     45  C   UNL A   1      42.415  29.572  29.894  1.00  0.00     0.049 A 
ATOM     46  N   UNL A   1      39.676  31.355  29.795  1.00  0.00    -0.248 NA
ATOM     47  C   UNL A   1      38.931  29.365  30.735  1.00  0.00     0.031 C 
ATOM     48  C   UNL A   1      43.589  28.724  29.674  1.00  0.00     0.029 A 
ATOM     49  N   UNL A   1      42.920  30.577  30.690  1.00  0.00    -0.354 N 
ATOM     50  C   UNL A   1      38.481  31.555  30.499  1.00  0.00     0.074 A 
ATOM     51  C   UNL A   1      37.946  30.255  30.769  1.00  0.00     0.031 C 
ATOM     52  C   UNL A   1      44.570  29.080  30.534  1.00  0.00     0.029 A 
ATOM     53  C   UNL A   1      44.133  30.231  31.305  1.00  0.00     0.049 A 
ATOM     54  H   UNL A   1      42.475  31.447  30.814  1.00  0.00     0.167 HD
ATOM     55  C   UNL A   1      38.185  32.727  31.126  1.00  0.00     0.034 A 
ATOM     56  C   UNL A   1      44.676  30.767  32.432  1.00  0.00     0.034 A 
ATOM     57  C   UNL A   1      38.945  33.820  30.586  1.00  0.00     0.049 A 
ATOM     58  C   UNL A   1      43.999  32.055  32.684  1.00  0.00     0.074 A 
ATOM     59  C   UNL A   1      39.070  34.424  29.354  1.00  0.00     0.029 A 
ATOM     60  N   UNL A   1      40.013  34.239  31.337  1.00  0.00    -0.354 N 
ATOM     61  N   UNL A   1      44.144  33.114  31.943  1.00  0.00    -0.248 NA
ATOM     62  C   UNL A   1      42.864  32.073  33.592  1.00  0.00     0.031 C 
ATOM     63  C   UNL A   1      40.425  34.855  29.286  1.00  0.00     0.029 A 
ATOM     64  C   UNL A   1      41.046  34.536  30.496  1.00  0.00     0.049 A 
ATOM     65  H   UNL A   1      40.030  34.312  32.319  1.00  0.00     0.167 HD
ATOM     66  C   UNL A   1      42.890  33.703  31.949  1.00  0.00     0.074 A 
ATOM     67  C   UNL A   1      42.198  33.114  33.091  1.00  0.00     0.031 C 
ATOM     68  C   UNL A   1      42.439  34.374  30.851  1.00  0.00     0.034 A 
BRANCH  55  69
ATOM     69  C   UNL A   1      37.528  32.813  32.502  1.00  0.00     0.023 A 
ATOM     70  C   UNL A   1      36.435  33.699  32.641  1.00  0.00     0.012 A 
ATOM     71  C   UNL A   1      38.067  32.297  33.708  1.00  0.00     0.148 A 
ATOM     72  C   UNL A   1      35.955  34.093  33.898  1.00  0.00     0.002 A 
ATOM     73  C   UNL A   1      37.530  32.617  34.950  1.00  0.00     0.091 A 
ATOM     74  F   UNL A   1      39.199  31.595  33.704  1.00  0.00    -0.205 F 
ATOM     75  C   UNL A   1      36.497  33.545  35.054  1.00  0.00     0.022 A 
BRANCH  73  76
ATOM     76  S   UNL A   1      38.166  31.885  36.467  1.00  0.00     0.127 S 
ATOM     77  O   UNL A   1      38.161  30.465  36.131  1.00  0.00    -0.237 OA
ATOM     78  O   UNL A   1      39.490  32.498  36.559  1.00  0.00    -0.237 OA
ATOM     79  O   UNL A   1      37.247  32.293  37.523  1.00  0.00    -0.744 OA
ENDBRANCH  73  76
ENDBRANCH  55  69
BRANCH  56  80
ATOM     80  C   UNL A   1      45.542  30.167  33.490  1.00  0.00     0.023 A 
ATOM     81  C   UNL A   1      46.798  30.751  33.775  1.00  0.00     0.012 A 
ATOM     82  C   UNL A   1      45.029  29.235  34.418  1.00  0.00     0.148 A 
ATOM     83  C   UNL A   1      47.490  30.459  34.961  1.00  0.00     0.002 A 
ATOM     84  C   UNL A   1      45.722  28.943  35.593  1.00  0.00     0.091 A 
ATOM     85  F   UNL A   1      43.819  28.707  34.200  1.00  0.00    -0.205 F 
ATOM     86  C   UNL A   1      46.945  29.564  35.875  1.00  0.00     0.022 A 
BRANCH  84  87
ATOM     87  S   UNL A   1      45.060  27.830  36.841  1.00  0.00     0.127 S 
ATOM     88  O   UNL A   1      46.058  27.939  37.906  1.00  0.00    -0.237 OA
ATOM     89  O   UNL A   1      43.772  28.448  37.143  1.00  0.00    -0.237 OA
ATOM     90  O   UNL A   1      45.000  26.517  36.210  1.00  0.00    -0.744 OA
ENDBRANCH  84  87
ENDBRANCH  56  80
BRANCH  68  91
ATOM     91  C   UNL A   1      43.438  34.726  29.778  1.00  0.00     0.023 A 
ATOM     92  C   UNL A   1      44.245  35.881  29.852  1.00  0.00     0.012 A 
ATOM     93  C   UNL A   1      43.707  33.769  28.787  1.00  0.00     0.148 A 
ATOM     94  C   UNL A   1      45.293  36.079  28.950  1.00  0.00     0.002 A 
ATOM     95  C   UNL A   1      44.787  33.940  27.931  1.00  0.00     0.091 A 
ATOM     96  F   UNL A   1      42.926  32.679  28.732  1.00  0.00    -0.205 F 
ATOM     97  C   UNL A   1      45.576  35.099  28.001  1.00  0.00     0.022 A 
BRANCH  95  98
ATOM     98  S   UNL A   1      45.301  32.649  26.798  1.00  0.00     0.127 S 
ATOM     99  O   UNL A   1      45.470  31.506  27.693  1.00  0.00    -0.237 OA
ATOM    100  O   UNL A   1      44.154  32.554  25.894  1.00  0.00    -0.237 OA
ATOM    101  O   UNL A   1      46.521  33.132  26.163  1.00  0.00    -0.744 OA
ENDBRANCH  95  98
ENDBRANCH  68  91
ENDBRANCH  42  43
ENDBRANCH  35  37
ENDBRANCH  34  35
ENDBRANCH  33  34
ENDBRANCH   1  33
TORSDOF 20
ENDMDL
MODEL 2
REMARK VINA RESULT:     -11.6      4.231      6.678
REMARK SMILES Cc1coc2c(C)c3oc(=O)c(CCC(=O)N[C@H](CC(C)C)C(=O)OCCOC(=O)c4ccc(-c5c6nc(c(-c7cccc(S(=O)(=O)[O-])c7F)c7ccc([nH]7)c(-c7cccc(S(=O)(=O)[O-])c7F)c7nc(c(-c8cccc(S(=O)(=O)[O-])c8F)c8ccc5[nH]8)C=C7)C=C6)cc4)c(C)c3cc12
REMARK SMILES IDX 26 1 25 2 23 3 24 4 18 5 17 6 15 7 16 8 14 10 13 11 12 12
REMARK SMILES IDX 1 13 2 14 3 15 98 16 4 17 5 18 97 19 6 20 96 21 7 22 8 23
REMARK SMILES IDX 94 24 9 25 95 26 10 27 11 28 19 29 20 30 21 31 22 32 27 33
REMARK SMILES IDX 28 34 29 35 30 36 31 37 32 38 93 39 33 40 92 41 34 42 35 43
REMARK SMILES IDX 36 44 86 45 37 46 91 47 85 48 87 49 38 50 90 51 84 52 83 53
REMARK SMILES IDX 39 55 71 56 51 57 70 58 52 59 55 60 69 61 88 62 53 63 54 64
REMARK SMILES IDX 68 66 89 67 56 68 40 69 41 70 49 71 42 72 44 73 50 74 43 75
REMARK SMILES IDX 45 76 46 77 47 78 48 79 72 80 73 81 81 82 74 83 76 84 82 85
REMARK SMILES IDX 75 86 77 87 78 88 79 89 80 90 57 91 58 92 66 93 59 94 61 95
REMARK SMILES IDX 67 96 60 97 62 98 63 99 64 100 65 101
REMARK H PARENT 17 9 87 54 55 65
REMARK Flexibility Score: inf
ROOT
ATOM      1  C   UNL A   1      42.084  19.562  26.258  1.00  0.00     0.274 C 
ENDROOT
BRANCH   1   2
ATOM      2  O   UNL A   1      41.416  20.881  27.154  1.00  0.00    -0.461 OA
BRANCH   2   3
ATOM      3  C   UNL A   1      40.935  22.149  27.555  1.00  0.00     0.328 C 
ATOM      4  O   UNL A   1      41.493  22.639  28.551  1.00  0.00    -0.250 OA
BRANCH   3   5
ATOM      5  C   UNL A   1      39.645  23.103  26.884  1.00  0.00     0.192 C 
BRANCH   5   6
ATOM      6  N   UNL A   1      39.251  22.313  25.704  1.00  0.00    -0.343 N 
ATOM      7  C   UNL A   1      37.989  21.977  25.301  1.00  0.00     0.221 C 
ATOM      8  O   UNL A   1      37.842  20.883  24.753  1.00  0.00    -0.275 OA
ATOM      9  H   UNL A   1      39.987  21.986  25.137  1.00  0.00     0.164 HD
BRANCH   7  10
ATOM     10  C   UNL A   1      36.809  22.953  25.418  1.00  0.00     0.105 C 
BRANCH  10  11
ATOM     11  C   UNL A   1      35.416  22.447  25.021  1.00  0.00     0.053 C 
BRANCH  11  12
ATOM     12  C   UNL A   1      34.467  23.591  24.661  1.00  0.00     0.042 A 
ATOM     13  C   UNL A   1      33.187  29.830  27.696  1.00  0.00     0.048 C 
ATOM     14  C   UNL A   1      32.732  29.497  26.313  1.00  0.00    -0.005 A 
ATOM     15  C   UNL A   1      31.803  30.158  25.536  1.00  0.00     0.199 A 
ATOM     16  C   UNL A   1      33.043  28.336  25.544  1.00  0.00     0.024 A 
ATOM     17  O   UNL A   1      31.588  29.501  24.356  1.00  0.00    -0.464 OA
ATOM     18  C   UNL A   1      32.327  28.350  24.383  1.00  0.00     0.140 A 
ATOM     19  C   UNL A   1      33.835  27.205  25.746  1.00  0.00     0.024 A 
ATOM     20  C   UNL A   1      32.452  27.330  23.425  1.00  0.00     0.036 A 
ATOM     21  C   UNL A   1      33.639  25.935  25.115  1.00  0.00     0.022 A 
ATOM     22  C   UNL A   1      31.837  27.547  22.094  1.00  0.00     0.052 C 
ATOM     23  C   UNL A   1      33.128  26.120  23.856  1.00  0.00     0.145 A 
ATOM     24  C   UNL A   1      33.938  24.407  25.583  1.00  0.00    -0.030 A 
ATOM     25  O   UNL A   1      33.418  25.044  22.966  1.00  0.00    -0.422 OA
ATOM     26  C   UNL A   1      33.674  23.638  26.916  1.00  0.00     0.046 C 
ATOM     27  C   UNL A   1      34.112  23.844  23.266  1.00  0.00     0.339 A 
ATOM     28  O   UNL A   1      34.365  23.000  22.404  1.00  0.00    -0.246 OA
ENDBRANCH  11  12
ENDBRANCH  10  11
ENDBRANCH   7  10
ENDBRANCH   5   6
BRANCH   5  29
ATOM     29  C   UNL A   1      39.743  24.650  26.497  1.00  0.00     0.040 C 
BRANCH  29  30
ATOM     30  C   UNL A   1      40.561  25.647  27.468  1.00  0.00    -0.015 C 
ATOM     31  C   UNL A   1      40.974  27.002  26.911  1.00  0.00     0.007 C 
ATOM     32  C   UNL A   1      39.773  26.038  28.730  1.00  0.00     0.007 C 
ENDBRANCH  29  30
ENDBRANCH   5  29
ENDBRANCH   3   5
ENDBRANCH   2   3
ENDBRANCH   1   2
BRANCH   1  33
ATOM     33  C   UNL A   1      43.558  19.251  25.296  1.00  0.00     0.275 C 
BRANCH  33  34
ATOM     34  O   UNL A   1      44.833  20.080  25.103  1.00  0.00    -0.458 OA
BRANCH  34  35
ATOM     35  C   UNL A   1      44.668  21.397  24.640  1.00  0.00     0.338 C 
ATOM     36  O   UNL A   1      44.440  21.573  23.443  1.00  0.00    -0.246 OA
BRANCH  35  37
ATOM     37  C   UNL A   1      44.552  22.673  25.563  1.00  0.00     0.060 A 
ATOM     38  C   UNL A   1      43.578  23.673  25.616  1.00  0.00     0.016 A 
ATOM     39  C   UNL A   1      45.668  22.959  26.375  1.00  0.00     0.016 A 
ATOM     40  C   UNL A   1      43.857  25.001  26.060  1.00  0.00     0.010 A 
ATOM     41  C   UNL A   1      45.914  24.233  26.942  1.00  0.00     0.010 A 
ATOM     42  C   UNL A   1      45.067  25.310  26.686  1.00  0.00    -0.014 A 
BRANCH  42  43
ATOM     43  C   UNL A   1      45.226  26.611  27.400  1.00  0.00     0.031 A 
ATOM     44  C   UNL A   1      44.441  26.640  28.679  1.00  0.00     0.074 A 
ATOM     45  C   UNL A   1      46.161  27.553  27.122  1.00  0.00     0.049 A 
ATOM     46  N   UNL A   1      43.566  27.496  29.111  1.00  0.00    -0.248 NA
ATOM     47  C   UNL A   1      44.525  25.415  29.496  1.00  0.00     0.031 C 
ATOM     48  C   UNL A   1      47.143  27.513  26.035  1.00  0.00     0.029 A 
ATOM     49  N   UNL A   1      46.563  28.655  27.845  1.00  0.00    -0.354 N 
ATOM     50  C   UNL A   1      43.153  26.979  30.346  1.00  0.00     0.074 A 
ATOM     51  C   UNL A   1      43.531  25.598  30.357  1.00  0.00     0.031 C 
ATOM     52  C   UNL A   1      48.171  28.343  26.325  1.00  0.00     0.029 A 
ATOM     53  C   UNL A   1      47.885  29.037  27.569  1.00  0.00     0.049 A 
ATOM     54  H   UNL A   1      45.985  29.124  28.489  1.00  0.00     0.167 HD
ATOM     55  C   UNL A   1      42.859  27.773  31.413  1.00  0.00     0.034 A 
ATOM     56  C   UNL A   1      48.722  29.767  28.357  1.00  0.00     0.034 A 
ATOM     57  C   UNL A   1      42.546  29.114  31.002  1.00  0.00     0.049 A 
ATOM     58  C   UNL A   1      47.895  30.449  29.373  1.00  0.00     0.074 A 
ATOM     59  C   UNL A   1      41.590  29.705  30.204  1.00  0.00     0.029 A 
ATOM     60  N   UNL A   1      43.533  30.046  31.186  1.00  0.00    -0.354 N 
ATOM     61  N   UNL A   1      47.070  31.419  29.111  1.00  0.00    -0.248 NA
ATOM     62  C   UNL A   1      47.727  29.812  30.668  1.00  0.00     0.031 C 
ATOM     63  C   UNL A   1      42.242  30.822  29.609  1.00  0.00     0.029 A 
ATOM     64  C   UNL A   1      43.544  30.886  30.110  1.00  0.00     0.049 A 
ATOM     65  H   UNL A   1      44.135  30.099  31.964  1.00  0.00     0.167 HD
ATOM     66  C   UNL A   1      46.012  31.205  29.978  1.00  0.00     0.074 A 
ATOM     67  C   UNL A   1      46.536  30.309  31.005  1.00  0.00     0.031 C 
ATOM     68  C   UNL A   1      44.739  31.525  29.606  1.00  0.00     0.034 A 
BRANCH  55  69
ATOM     69  C   UNL A   1      43.267  27.452  32.849  1.00  0.00     0.023 A 
ATOM     70  C   UNL A   1      44.609  27.066  33.068  1.00  0.00     0.012 A 
ATOM     71  C   UNL A   1      42.376  27.247  33.935  1.00  0.00     0.148 A 
ATOM     72  C   UNL A   1      45.020  26.459  34.263  1.00  0.00     0.002 A 
ATOM     73  C   UNL A   1      42.807  26.730  35.152  1.00  0.00     0.091 A 
ATOM     74  F   UNL A   1      41.064  27.414  33.780  1.00  0.00    -0.205 F 
ATOM     75  C   UNL A   1      44.121  26.299  35.309  1.00  0.00     0.022 A 
BRANCH  73  76
ATOM     76  S   UNL A   1      41.685  26.560  36.550  1.00  0.00     0.127 S 
ATOM     77  O   UNL A   1      40.720  25.594  36.036  1.00  0.00    -0.237 OA
ATOM     78  O   UNL A   1      42.582  26.050  37.587  1.00  0.00    -0.237 OA
ATOM     79  O   UNL A   1      41.170  27.898  36.814  1.00  0.00    -0.744 OA
ENDBRANCH  73  76
ENDBRANCH  55  69
BRANCH  56  80
ATOM     80  C   UNL A   1      50.207  29.737  28.510  1.00  0.00     0.023 A 
ATOM     81  C   UNL A   1      50.922  30.954  28.593  1.00  0.00     0.012 A 
ATOM     82  C   UNL A   1      50.884  28.555  28.880  1.00  0.00     0.148 A 
ATOM     83  C   UNL A   1      52.240  30.998  29.074  1.00  0.00     0.002 A 
ATOM     84  C   UNL A   1      52.195  28.601  29.354  1.00  0.00     0.091 A 
ATOM     85  F   UNL A   1      50.215  27.396  28.862  1.00  0.00    -0.205 F 
ATOM     86  C   UNL A   1      52.871  29.822  29.467  1.00  0.00     0.022 A 
BRANCH  84  87
ATOM     87  S   UNL A   1      53.060  27.130  29.919  1.00  0.00     0.127 S 
ATOM     88  O   UNL A   1      53.205  26.366  28.678  1.00  0.00    -0.237 OA
ATOM     89  O   UNL A   1      54.303  27.693  30.439  1.00  0.00    -0.237 OA
ATOM     90  O   UNL A   1      52.185  26.508  30.905  1.00  0.00    -0.744 OA
ENDBRANCH  84  87
ENDBRANCH  56  80
BRANCH  68  91
ATOM     91  C   UNL A   1      44.559  32.396  28.388  1.00  0.00     0.023 A 
ATOM     92  C   UNL A   1      44.616  31.876  27.077  1.00  0.00     0.012 A 
ATOM     93  C   UNL A   1      44.123  33.716  28.579  1.00  0.00     0.148 A 
ATOM     94  C   UNL A   1      44.253  32.663  25.981  1.00  0.00     0.002 A 
ATOM     95  C   UNL A   1      43.706  34.475  27.494  1.00  0.00     0.091 A 
ATOM     96  F   UNL A   1      44.080  34.192  29.834  1.00  0.00    -0.205 F 
ATOM     97  C   UNL A   1      43.780  33.956  26.191  1.00  0.00     0.022 A 
BRANCH  95  98
ATOM     98  S   UNL A   1      42.940  36.082  27.709  1.00  0.00     0.127 S 
ATOM     99  O   UNL A   1      43.081  36.669  26.378  1.00  0.00    -0.237 OA
ATOM    100  O   UNL A   1      41.570  35.726  28.080  1.00  0.00    -0.237 OA
ATOM    101  O   UNL A   1      43.690  36.746  28.768  1.00  0.00    -0.744 OA
ENDBRANCH  95  98
ENDBRANCH  68  91
ENDBRANCH  42  43
ENDBRANCH  35  37
ENDBRANCH  34  35
ENDBRANCH  33  34
ENDBRANCH   1  33
TORSDOF 20
ENDMDL
MODEL 3
REMARK VINA RESULT:     -11.5      2.566      7.349
REMARK SMILES Cc1coc2c(C)c3oc(=O)c(CCC(=O)N[C@H](CC(C)C)C(=O)OCCOC(=O)c4ccc(-c5c6nc(c(-c7cccc(S(=O)(=O)[O-])c7F)c7ccc([nH]7)c(-c7cccc(S(=O)(=O)[O-])c7F)c7nc(c(-c8cccc(S(=O)(=O)[O-])c8F)c8ccc5[nH]8)C=C7)C=C6)cc4)c(C)c3cc12
REMARK SMILES IDX 26 1 25 2 23 3 24 4 18 5 17 6 15 7 16 8 14 10 13 11 12 12
REMARK SMILES IDX 1 13 2 14 3 15 98 16 4 17 5 18 97 19 6 20 96 21 7 22 8 23
REMARK SMILES IDX 94 24 9 25 95 26 10 27 11 28 19 29 20 30 21 31 22 32 27 33
REMARK SMILES IDX 28 34 29 35 30 36 31 37 32 38 93 39 33 40 92 41 34 42 35 43
REMARK SMILES IDX 36 44 86 45 37 46 91 47 85 48 87 49 38 50 90 51 84 52 83 53
REMARK SMILES IDX 39 55 71 56 51 57 70 58 52 59 55 60 69 61 88 62 53 63 54 64
REMARK SMILES IDX 68 66 89 67 56 68 40 69 41 70 49 71 42 72 44 73 50 74 43 75
REMARK SMILES IDX 45 76 46 77 47 78 48 79 72 80 73 81 81 82 74 83 76 84 82 85
REMARK SMILES IDX 75 86 77 87 78 88 79 89 80 90 57 91 58 92 66 93 59 94 61 95
REMARK SMILES IDX 67 96 60 97 62 98 63 99 64 100 65 101
REMARK H PARENT 17 9 87 54 55 65
REMARK Flexibility Score: inf
ROOT
ATOM      1  C   UNL A   1      37.464  21.631  25.161  1.00  0.00     0.274 C 
ENDROOT
BRANCH   1   2
ATOM      2  O   UNL A   1      35.886  20.933  25.249  1.00  0.00    -0.461 OA
BRANCH   2   3
ATOM      3  C   UNL A   1      34.521  20.682  25.527  1.00  0.00     0.328 C 
ATOM      4  O   UNL A   1      34.086  21.203  26.567  1.00  0.00    -0.250 OA
BRANCH   3   5
ATOM      5  C   UNL A   1      33.376  19.713  24.647  1.00  0.00     0.192 C 
BRANCH   5   6
ATOM      6  N   UNL A   1      32.326  20.693  24.314  1.00  0.00    -0.343 N 
ATOM      7  C   UNL A   1      32.484  22.002  23.954  1.00  0.00     0.221 C 
ATOM      8  O   UNL A   1      31.616  22.798  24.318  1.00  0.00    -0.275 OA
ATOM      9  H   UNL A   1      31.399  20.365  24.357  1.00  0.00     0.164 HD
BRANCH   7  10
ATOM     10  C   UNL A   1      33.629  22.465  23.041  1.00  0.00     0.105 C 
BRANCH  10  11
ATOM     11  C   UNL A   1      33.300  23.469  21.929  1.00  0.00     0.053 C 
BRANCH  11  12
ATOM     12  C   UNL A   1      33.140  24.892  22.465  1.00  0.00     0.042 A 
ATOM     13  C   UNL A   1      27.799  29.494  22.198  1.00  0.00     0.048 C 
ATOM     14  C   UNL A   1      28.966  29.666  23.113  1.00  0.00    -0.005 A 
ATOM     15  C   UNL A   1      29.352  30.796  23.805  1.00  0.00     0.199 A 
ATOM     16  C   UNL A   1      30.030  28.747  23.358  1.00  0.00     0.024 A 
ATOM     17  O   UNL A   1      30.527  30.589  24.473  1.00  0.00    -0.464 OA
ATOM     18  C   UNL A   1      30.965  29.332  24.160  1.00  0.00     0.140 A 
ATOM     19  C   UNL A   1      30.338  27.459  22.918  1.00  0.00     0.024 A 
ATOM     20  C   UNL A   1      32.118  28.644  24.575  1.00  0.00     0.036 A 
ATOM     21  C   UNL A   1      31.654  26.900  22.856  1.00  0.00     0.022 A 
ATOM     22  C   UNL A   1      32.948  29.257  25.639  1.00  0.00     0.052 C 
ATOM     23  C   UNL A   1      32.421  27.410  23.873  1.00  0.00     0.145 A 
ATOM     24  C   UNL A   1      32.347  25.801  21.879  1.00  0.00    -0.030 A 
ATOM     25  O   UNL A   1      33.497  26.555  24.253  1.00  0.00    -0.422 OA
ATOM     26  C   UNL A   1      32.333  25.603  20.330  1.00  0.00     0.046 C 
ATOM     27  C   UNL A   1      33.851  25.310  23.671  1.00  0.00     0.339 A 
ATOM     28  O   UNL A   1      34.768  24.616  24.118  1.00  0.00    -0.246 OA
ENDBRANCH  11  12
ENDBRANCH  10  11
ENDBRANCH   7  10
ENDBRANCH   5   6
BRANCH   5  29
ATOM     29  C   UNL A   1      32.711  18.360  25.174  1.00  0.00     0.040 C 
BRANCH  29  30
ATOM     30  C   UNL A   1      33.201  16.954  24.550  1.00  0.00    -0.015 C 
ATOM     31  C   UNL A   1      34.694  16.660  24.546  1.00  0.00     0.007 C 
ATOM     32  C   UNL A   1      32.628  15.735  25.293  1.00  0.00     0.007 C 
ENDBRANCH  29  30
ENDBRANCH   5  29
ENDBRANCH   3   5
ENDBRANCH   2   3
ENDBRANCH   1   2
BRANCH   1  33
ATOM     33  C   UNL A   1      38.528  22.595  26.227  1.00  0.00     0.275 C 
BRANCH  33  34
ATOM     34  O   UNL A   1      39.918  22.301  26.801  1.00  0.00    -0.458 OA
BRANCH  34  35
ATOM     35  C   UNL A   1      40.829  23.372  26.836  1.00  0.00     0.338 C 
ATOM     36  O   UNL A   1      41.622  23.496  25.902  1.00  0.00    -0.246 OA
BRANCH  35  37
ATOM     37  C   UNL A   1      40.795  24.556  27.879  1.00  0.00     0.060 A 
ATOM     38  C   UNL A   1      39.804  25.503  28.151  1.00  0.00     0.016 A 
ATOM     39  C   UNL A   1      41.999  24.819  28.563  1.00  0.00     0.016 A 
ATOM     40  C   UNL A   1      40.095  26.798  28.675  1.00  0.00     0.010 A 
ATOM     41  C   UNL A   1      42.276  26.050  29.209  1.00  0.00     0.010 A 
ATOM     42  C   UNL A   1      41.367  27.105  29.165  1.00  0.00    -0.014 A 
BRANCH  42  43
ATOM     43  C   UNL A   1      41.576  28.345  29.970  1.00  0.00     0.031 A 
ATOM     44  C   UNL A   1      42.559  29.271  29.315  1.00  0.00     0.074 A 
ATOM     45  C   UNL A   1      40.799  28.753  31.004  1.00  0.00     0.049 A 
ATOM     46  N   UNL A   1      43.638  29.821  29.782  1.00  0.00    -0.248 NA
ATOM     47  C   UNL A   1      42.389  29.440  27.860  1.00  0.00     0.031 C 
ATOM     48  C   UNL A   1      39.657  28.034  31.574  1.00  0.00     0.029 A 
ATOM     49  N   UNL A   1      40.738  29.968  31.651  1.00  0.00    -0.354 N 
ATOM     50  C   UNL A   1      44.152  30.551  28.702  1.00  0.00     0.074 A 
ATOM     51  C   UNL A   1      43.532  30.027  27.523  1.00  0.00     0.031 C 
ATOM     52  C   UNL A   1      38.866  28.902  32.243  1.00  0.00     0.029 A 
ATOM     53  C   UNL A   1      39.483  30.217  32.228  1.00  0.00     0.049 A 
ATOM     54  H   UNL A   1      41.495  30.595  31.703  1.00  0.00     0.167 HD
ATOM     55  C   UNL A   1      44.766  31.758  28.857  1.00  0.00     0.034 A 
ATOM     56  C   UNL A   1      38.943  31.424  32.555  1.00  0.00     0.034 A 
ATOM     57  C   UNL A   1      45.248  31.934  30.199  1.00  0.00     0.049 A 
ATOM     58  C   UNL A   1      40.042  32.408  32.593  1.00  0.00     0.074 A 
ATOM     59  C   UNL A   1      46.147  31.288  31.019  1.00  0.00     0.029 A 
ATOM     60  N   UNL A   1      44.497  32.748  31.006  1.00  0.00    -0.354 N 
ATOM     61  N   UNL A   1      40.977  32.425  33.497  1.00  0.00    -0.248 NA
ATOM     62  C   UNL A   1      40.307  33.195  31.400  1.00  0.00     0.031 C 
ATOM     63  C   UNL A   1      45.623  31.435  32.335  1.00  0.00     0.029 A 
ATOM     64  C   UNL A   1      44.459  32.204  32.258  1.00  0.00     0.049 A 
ATOM     65  H   UNL A   1      44.057  33.584  30.729  1.00  0.00     0.167 HD
ATOM     66  C   UNL A   1      42.109  32.822  32.804  1.00  0.00     0.074 A 
ATOM     67  C   UNL A   1      41.609  33.426  31.573  1.00  0.00     0.031 C 
ATOM     68  C   UNL A   1      43.336  32.344  33.158  1.00  0.00     0.034 A 
BRANCH  55  69
ATOM     69  C   UNL A   1      44.555  32.945  27.920  1.00  0.00     0.023 A 
ATOM     70  C   UNL A   1      45.543  33.172  26.935  1.00  0.00     0.012 A 
ATOM     71  C   UNL A   1      43.614  33.990  28.109  1.00  0.00     0.148 A 
ATOM     72  C   UNL A   1      45.624  34.383  26.232  1.00  0.00     0.002 A 
ATOM     73  C   UNL A   1      43.641  35.152  27.346  1.00  0.00     0.091 A 
ATOM     74  F   UNL A   1      42.751  33.955  29.124  1.00  0.00    -0.205 F 
ATOM     75  C   UNL A   1      44.667  35.370  26.431  1.00  0.00     0.022 A 
BRANCH  73  76
ATOM     76  S   UNL A   1      42.387  36.430  27.533  1.00  0.00     0.127 S 
ATOM     77  O   UNL A   1      42.747  37.353  26.462  1.00  0.00    -0.237 OA
ATOM     78  O   UNL A   1      41.156  35.671  27.312  1.00  0.00    -0.237 OA
ATOM     79  O   UNL A   1      42.536  36.939  28.891  1.00  0.00    -0.744 OA
ENDBRANCH  73  76
ENDBRANCH  55  69
BRANCH  56  80
ATOM     80  C   UNL A   1      37.526  31.894  32.579  1.00  0.00     0.023 A 
ATOM     81  C   UNL A   1      36.960  32.334  33.798  1.00  0.00     0.012 A 
ATOM     82  C   UNL A   1      36.834  32.204  31.388  1.00  0.00     0.148 A 
ATOM     83  C   UNL A   1      35.782  33.096  33.826  1.00  0.00     0.002 A 
ATOM     84  C   UNL A   1      35.662  32.958  31.420  1.00  0.00     0.091 A 
ATOM     85  F   UNL A   1      37.375  31.848  30.217  1.00  0.00    -0.205 F 
ATOM     86  C   UNL A   1      35.140  33.419  32.635  1.00  0.00     0.022 A 
BRANCH  84  87
ATOM     87  S   UNL A   1      34.800  33.450  29.919  1.00  0.00     0.127 S 
ATOM     88  O   UNL A   1      34.442  32.156  29.336  1.00  0.00    -0.237 OA
ATOM     89  O   UNL A   1      33.676  34.213  30.455  1.00  0.00    -0.237 OA
ATOM     90  O   UNL A   1      35.767  34.211  29.138  1.00  0.00    -0.744 OA
ENDBRANCH  84  87
ENDBRANCH  56  80
BRANCH  68  91
ATOM     91  C   UNL A   1      43.466  31.646  34.488  1.00  0.00     0.023 A 
ATOM     92  C   UNL A   1      43.699  32.351  35.687  1.00  0.00     0.012 A 
ATOM     93  C   UNL A   1      43.144  30.281  34.551  1.00  0.00     0.148 A 
ATOM     94  C   UNL A   1      43.621  31.705  36.923  1.00  0.00     0.002 A 
ATOM     95  C   UNL A   1      43.007  29.656  35.784  1.00  0.00     0.091 A 
ATOM     96  F   UNL A   1      42.930  29.628  33.399  1.00  0.00    -0.205 F 
ATOM     97  C   UNL A   1      43.255  30.361  36.973  1.00  0.00     0.022 A 
BRANCH  95  98
ATOM     98  S   UNL A   1      42.387  27.979  35.922  1.00  0.00     0.127 S 
ATOM     99  O   UNL A   1      40.946  28.173  35.774  1.00  0.00    -0.237 OA
ATOM    100  O   UNL A   1      43.036  27.313  34.792  1.00  0.00    -0.237 OA
ATOM    101  O   UNL A   1      42.822  27.496  37.227  1.00  0.00    -0.744 OA
ENDBRANCH  95  98
ENDBRANCH  68  91
ENDBRANCH  42  43
ENDBRANCH  35  37
ENDBRANCH  34  35
ENDBRANCH  33  34
ENDBRANCH   1  33
TORSDOF 20
ENDMDL
