MODEL 1
REMARK VINA RESULT:     -11.6      0.000      0.000
REMARK SMILES O=C(C[C@H](C1CCCCC1)N1Cc2ccccc2C1=O)OCCOC(=O)c1ccc(-c2c3nc(c(-c4cccc(S(=O)(=O)[O-])c4F)c4ccc([nH]4)c(-c4cccc(S(=O)(=O)[O-])c4F)c4nc(c(-c5cccc(S(=O)(=O)[O-])c5F)c5ccc2[nH]5)C=C4)C=C3)cc1
REMARK SMILES IDX 23 1 22 2 21 3 2 4 1 5 3 6 4 7 11 8 12 9 19 10 13 11 18 12
REMARK SMILES IDX 20 13 14 14 17 15 15 16 16 17 5 18 6 19 10 20 7 21 9 22 8 23
REMARK SMILES IDX 24 24 25 25 26 26 27 27 28 28 89 29 29 30 88 31 30 32 31 33
REMARK SMILES IDX 32 34 82 35 33 36 87 37 81 38 83 39 34 40 86 41 80 42 79 43
REMARK SMILES IDX 35 45 67 46 47 47 66 48 48 49 51 50 65 51 84 52 49 53 50 54
REMARK SMILES IDX 64 56 85 57 52 58 36 59 37 60 45 61 38 62 40 63 46 64 39 65
REMARK SMILES IDX 41 66 42 67 43 68 44 69 68 70 69 71 77 72 70 73 72 74 78 75
REMARK SMILES IDX 71 76 73 77 74 78 75 79 76 80 53 81 54 82 62 83 55 84 57 85
REMARK SMILES IDX 63 86 56 87 58 88 59 89 60 90 61 91
REMARK H PARENT 83 44 51 55
REMARK Flexibility Score: inf
ROOT
ATOM      1  C   UNL A   1      31.836  32.064  27.047  1.00  0.00     0.275 C 
ENDROOT
BRANCH   1   2
ATOM      2  C   UNL A   1      32.130  30.687  26.426  1.00  0.00     0.274 C 
BRANCH   2   3
ATOM      3  O   UNL A   1      32.341  29.675  27.429  1.00  0.00    -0.462 OA
BRANCH   3   4
ATOM      4  C   UNL A   1      32.192  28.351  27.212  1.00  0.00     0.308 C 
ATOM      5  O   UNL A   1      31.388  27.717  27.889  1.00  0.00    -0.252 OA
BRANCH   4   6
ATOM      6  C   UNL A   1      33.069  27.671  26.185  1.00  0.00     0.148 C 
BRANCH   6   7
ATOM      7  C   UNL A   1      32.438  26.651  25.236  1.00  0.00     0.100 C 
BRANCH   7   8
ATOM      8  N   UNL A   1      31.446  27.358  24.371  1.00  0.00    -0.330 N 
ATOM      9  C   UNL A   1      31.745  28.559  23.584  1.00  0.00     0.156 C 
ATOM     10  C   UNL A   1      30.072  27.126  24.403  1.00  0.00     0.254 C 
ATOM     11  C   UNL A   1      30.431  28.936  23.002  1.00  0.00    -0.016 A 
ATOM     12  C   UNL A   1      29.440  28.090  23.484  1.00  0.00     0.045 A 
ATOM     13  O   UNL A   1      29.464  26.325  25.095  1.00  0.00    -0.269 OA
ATOM     14  C   UNL A   1      30.143  29.926  22.077  1.00  0.00     0.006 A 
ATOM     15  C   UNL A   1      28.124  28.202  23.074  1.00  0.00     0.014 A 
ATOM     16  C   UNL A   1      28.824  30.042  21.632  1.00  0.00     0.000 A 
ATOM     17  C   UNL A   1      27.822  29.189  22.129  1.00  0.00     0.001 A 
ENDBRANCH   7   8
BRANCH   7  18
ATOM     18  C   UNL A   1      33.478  25.781  24.430  1.00  0.00     0.012 C 
ATOM     19  C   UNL A   1      34.490  25.031  25.313  1.00  0.00     0.006 C 
ATOM     20  C   UNL A   1      32.759  24.791  23.490  1.00  0.00     0.006 C 
ATOM     21  C   UNL A   1      35.347  23.983  24.612  1.00  0.00     0.000 C 
ATOM     22  C   UNL A   1      33.692  23.824  22.770  1.00  0.00     0.000 C 
ATOM     23  C   UNL A   1      34.511  23.033  23.779  1.00  0.00     0.000 C 
ENDBRANCH   7  18
ENDBRANCH   6   7
ENDBRANCH   4   6
ENDBRANCH   3   4
ENDBRANCH   2   3
ENDBRANCH   1   2
BRANCH   1  24
ATOM     24  O   UNL A   1      32.929  32.996  26.868  1.00  0.00    -0.458 OA
BRANCH  24  25
ATOM     25  C   UNL A   1      33.231  33.820  27.910  1.00  0.00     0.338 C 
ATOM     26  O   UNL A   1      32.531  34.721  28.338  1.00  0.00    -0.246 OA
BRANCH  25  27
ATOM     27  C   UNL A   1      34.451  33.311  28.609  1.00  0.00     0.060 A 
ATOM     28  C   UNL A   1      34.321  32.211  29.472  1.00  0.00     0.016 A 
ATOM     29  C   UNL A   1      35.724  33.828  28.354  1.00  0.00     0.016 A 
ATOM     30  C   UNL A   1      35.456  31.611  30.044  1.00  0.00     0.010 A 
ATOM     31  C   UNL A   1      36.856  33.239  28.945  1.00  0.00     0.010 A 
ATOM     32  C   UNL A   1      36.737  32.123  29.793  1.00  0.00    -0.014 A 
BRANCH  32  33
ATOM     33  C   UNL A   1      37.944  31.560  30.474  1.00  0.00     0.031 A 
ATOM     34  C   UNL A   1      38.757  30.510  29.777  1.00  0.00     0.074 A 
ATOM     35  C   UNL A   1      38.307  31.928  31.720  1.00  0.00     0.049 A 
ATOM     36  N   UNL A   1      39.800  29.854  30.216  1.00  0.00    -0.248 NA
ATOM     37  C   UNL A   1      38.337  30.143  28.417  1.00  0.00     0.031 C 
ATOM     38  C   UNL A   1      37.611  32.921  32.520  1.00  0.00     0.029 A 
ATOM     39  N   UNL A   1      39.323  31.500  32.546  1.00  0.00    -0.354 N 
ATOM     40  C   UNL A   1      40.142  28.972  29.203  1.00  0.00     0.074 A 
ATOM     41  C   UNL A   1      39.198  29.179  28.124  1.00  0.00     0.031 C 
ATOM     42  C   UNL A   1      38.193  33.021  33.726  1.00  0.00     0.029 A 
ATOM     43  C   UNL A   1      39.295  32.066  33.804  1.00  0.00     0.049 A 
ATOM     44  H   UNL A   1      40.007  30.850  32.264  1.00  0.00     0.167 HD
ATOM     45  C   UNL A   1      41.152  28.072  29.170  1.00  0.00     0.034 A 
ATOM     46  C   UNL A   1      40.043  31.828  34.904  1.00  0.00     0.034 A 
ATOM     47  C   UNL A   1      42.103  27.861  30.228  1.00  0.00     0.049 A 
ATOM     48  C   UNL A   1      41.140  30.794  34.842  1.00  0.00     0.074 A 
ATOM     49  C   UNL A   1      43.197  27.012  30.234  1.00  0.00     0.029 A 
ATOM     50  N   UNL A   1      42.067  28.471  31.469  1.00  0.00    -0.354 N 
ATOM     51  N   UNL A   1      41.541  30.080  33.821  1.00  0.00    -0.248 NA
ATOM     52  C   UNL A   1      41.900  30.546  36.079  1.00  0.00     0.031 C 
ATOM     53  C   UNL A   1      43.791  27.069  31.497  1.00  0.00     0.029 A 
ATOM     54  C   UNL A   1      43.097  27.991  32.262  1.00  0.00     0.049 A 
ATOM     55  H   UNL A   1      41.408  29.146  31.749  1.00  0.00     0.167 HD
ATOM     56  C   UNL A   1      42.611  29.320  34.284  1.00  0.00     0.074 A 
ATOM     57  C   UNL A   1      42.821  29.685  35.667  1.00  0.00     0.031 C 
ATOM     58  C   UNL A   1      43.338  28.385  33.626  1.00  0.00     0.034 A 
BRANCH  45  59
ATOM     59  C   UNL A   1      41.291  27.227  27.936  1.00  0.00     0.023 A 
ATOM     60  C   UNL A   1      41.942  27.745  26.801  1.00  0.00     0.012 A 
ATOM     61  C   UNL A   1      40.856  25.888  27.943  1.00  0.00     0.148 A 
ATOM     62  C   UNL A   1      42.145  26.943  25.680  1.00  0.00     0.002 A 
ATOM     63  C   UNL A   1      41.103  25.083  26.840  1.00  0.00     0.091 A 
ATOM     64  F   UNL A   1      40.220  25.429  29.030  1.00  0.00    -0.205 F 
ATOM     65  C   UNL A   1      41.739  25.610  25.704  1.00  0.00     0.022 A 
BRANCH  63  66
ATOM     66  S   UNL A   1      40.693  23.336  26.806  1.00  0.00     0.127 S 
ATOM     67  O   UNL A   1      39.268  23.375  26.480  1.00  0.00    -0.237 OA
ATOM     68  O   UNL A   1      41.553  22.842  25.731  1.00  0.00    -0.237 OA
ATOM     69  O   UNL A   1      41.009  22.819  28.130  1.00  0.00    -0.744 OA
ENDBRANCH  63  66
ENDBRANCH  45  59
BRANCH  46  70
ATOM     70  C   UNL A   1      39.782  32.554  36.185  1.00  0.00     0.023 A 
ATOM     71  C   UNL A   1      40.583  33.658  36.544  1.00  0.00     0.012 A 
ATOM     72  C   UNL A   1      38.785  32.118  37.078  1.00  0.00     0.148 A 
ATOM     73  C   UNL A   1      40.429  34.278  37.786  1.00  0.00     0.002 A 
ATOM     74  C   UNL A   1      38.596  32.780  38.287  1.00  0.00     0.091 A 
ATOM     75  F   UNL A   1      38.047  31.053  36.736  1.00  0.00    -0.205 F 
ATOM     76  C   UNL A   1      39.431  33.845  38.654  1.00  0.00     0.022 A 
BRANCH  74  77
ATOM     77  S   UNL A   1      37.254  32.365  39.407  1.00  0.00     0.127 S 
ATOM     78  O   UNL A   1      37.510  33.265  40.528  1.00  0.00    -0.237 OA
ATOM     79  O   UNL A   1      36.078  32.697  38.603  1.00  0.00    -0.237 OA
ATOM     80  O   UNL A   1      37.408  30.943  39.687  1.00  0.00    -0.744 OA
ENDBRANCH  74  77
ENDBRANCH  46  70
BRANCH  58  81
ATOM     81  C   UNL A   1      44.454  27.699  34.372  1.00  0.00     0.023 A 
ATOM     82  C   UNL A   1      45.726  28.302  34.443  1.00  0.00     0.012 A 
ATOM     83  C   UNL A   1      44.223  26.497  35.071  1.00  0.00     0.148 A 
ATOM     84  C   UNL A   1      46.756  27.705  35.171  1.00  0.00     0.002 A 
ATOM     85  C   UNL A   1      45.238  25.934  35.835  1.00  0.00     0.091 A 
ATOM     86  F   UNL A   1      43.011  25.931  34.981  1.00  0.00    -0.205 F 
ATOM     87  C   UNL A   1      46.509  26.530  35.876  1.00  0.00     0.022 A 
BRANCH  85  88
ATOM     88  S   UNL A   1      44.991  24.474  36.853  1.00  0.00     0.127 S 
ATOM     89  O   UNL A   1      43.938  24.921  37.763  1.00  0.00    -0.237 OA
ATOM     90  O   UNL A   1      44.565  23.480  35.867  1.00  0.00    -0.237 OA
ATOM     91  O   UNL A   1      46.275  24.196  37.480  1.00  0.00    -0.744 OA
ENDBRANCH  85  88
ENDBRANCH  58  81
ENDBRANCH  32  33
ENDBRANCH  25  27
ENDBRANCH  24  25
ENDBRANCH   1  24
TORSDOF 17
ENDMDL
MODEL 2
REMARK VINA RESULT:     -11.4      1.452      1.794
REMARK SMILES O=C(C[C@H](C1CCCCC1)N1Cc2ccccc2C1=O)OCCOC(=O)c1ccc(-c2c3nc(c(-c4cccc(S(=O)(=O)[O-])c4F)c4ccc([nH]4)c(-c4cccc(S(=O)(=O)[O-])c4F)c4nc(c(-c5cccc(S(=O)(=O)[O-])c5F)c5ccc2[nH]5)C=C4)C=C3)cc1
REMARK SMILES IDX 23 1 22 2 21 3 2 4 1 5 3 6 4 7 11 8 12 9 19 10 13 11 18 12
REMARK SMILES IDX 20 13 14 14 17 15 15 16 16 17 5 18 6 19 10 20 7 21 9 22 8 23
REMARK SMILES IDX 24 24 25 25 26 26 27 27 28 28 89 29 29 30 88 31 30 32 31 33
REMARK SMILES IDX 32 34 82 35 33 36 87 37 81 38 83 39 34 40 86 41 80 42 79 43
REMARK SMILES IDX 35 45 67 46 47 47 66 48 48 49 51 50 65 51 84 52 49 53 50 54
REMARK SMILES IDX 64 56 85 57 52 58 36 59 37 60 45 61 38 62 40 63 46 64 39 65
REMARK SMILES IDX 41 66 42 67 43 68 44 69 68 70 69 71 77 72 70 73 72 74 78 75
REMARK SMILES IDX 71 76 73 77 74 78 75 79 76 80 53 81 54 82 62 83 55 84 57 85
REMARK SMILES IDX 63 86 56 87 58 88 59 89 60 90 61 91
REMARK H PARENT 83 44 51 55
REMARK Flexibility Score: inf
ROOT
ATOM      1  C   UNL A   1      31.776  32.318  27.198  1.00  0.00     0.275 C 
ENDROOT
BRANCH   1   2
ATOM      2  C   UNL A   1      31.919  30.948  26.513  1.00  0.00     0.274 C 
BRANCH   2   3
ATOM      3  O   UNL A   1      32.512  29.966  27.386  1.00  0.00    -0.462 OA
BRANCH   3   4
ATOM      4  C   UNL A   1      32.344  28.634  27.252  1.00  0.00     0.308 C 
ATOM      5  O   UNL A   1      31.489  28.064  27.926  1.00  0.00    -0.252 OA
BRANCH   4   6
ATOM      6  C   UNL A   1      33.258  27.867  26.323  1.00  0.00     0.148 C 
BRANCH   6   7
ATOM      7  C   UNL A   1      32.657  26.780  25.429  1.00  0.00     0.100 C 
BRANCH   7   8
ATOM      8  N   UNL A   1      31.609  27.403  24.565  1.00  0.00    -0.330 N 
ATOM      9  C   UNL A   1      31.809  28.620  23.771  1.00  0.00     0.156 C 
ATOM     10  C   UNL A   1      30.258  27.064  24.604  1.00  0.00     0.254 C 
ATOM     11  C   UNL A   1      30.467  28.890  23.193  1.00  0.00    -0.016 A 
ATOM     12  C   UNL A   1      29.548  27.970  23.683  1.00  0.00     0.045 A 
ATOM     13  O   UNL A   1      29.718  26.221  25.302  1.00  0.00    -0.269 OA
ATOM     14  C   UNL A   1      30.099  29.849  22.264  1.00  0.00     0.006 A 
ATOM     15  C   UNL A   1      28.226  27.976  23.279  1.00  0.00     0.014 A 
ATOM     16  C   UNL A   1      28.773  29.859  21.825  1.00  0.00     0.000 A 
ATOM     17  C   UNL A   1      27.843  28.931  22.330  1.00  0.00     0.001 A 
ENDBRANCH   7   8
BRANCH   7  18
ATOM     18  C   UNL A   1      33.721  25.934  24.629  1.00  0.00     0.012 C 
ATOM     19  C   UNL A   1      34.660  25.101  25.517  1.00  0.00     0.006 C 
ATOM     20  C   UNL A   1      33.034  25.028  23.586  1.00  0.00     0.006 C 
ATOM     21  C   UNL A   1      35.530  24.076  24.799  1.00  0.00     0.000 C 
ATOM     22  C   UNL A   1      33.983  24.083  22.858  1.00  0.00     0.000 C 
ATOM     23  C   UNL A   1      34.721  23.205  23.858  1.00  0.00     0.000 C 
ENDBRANCH   7  18
ENDBRANCH   6   7
ENDBRANCH   4   6
ENDBRANCH   3   4
ENDBRANCH   2   3
ENDBRANCH   1   2
BRANCH   1  24
ATOM     24  O   UNL A   1      32.999  33.091  27.152  1.00  0.00    -0.458 OA
BRANCH  24  25
ATOM     25  C   UNL A   1      33.232  33.964  28.172  1.00  0.00     0.338 C 
ATOM     26  O   UNL A   1      32.484  34.852  28.540  1.00  0.00    -0.246 OA
BRANCH  25  27
ATOM     27  C   UNL A   1      34.444  33.528  28.931  1.00  0.00     0.060 A 
ATOM     28  C   UNL A   1      34.315  32.483  29.861  1.00  0.00     0.016 A 
ATOM     29  C   UNL A   1      35.712  34.055  28.673  1.00  0.00     0.016 A 
ATOM     30  C   UNL A   1      35.447  31.946  30.498  1.00  0.00     0.010 A 
ATOM     31  C   UNL A   1      36.840  33.531  29.328  1.00  0.00     0.010 A 
ATOM     32  C   UNL A   1      36.723  32.469  30.245  1.00  0.00    -0.014 A 
BRANCH  32  33
ATOM     33  C   UNL A   1      37.924  31.979  30.989  1.00  0.00     0.031 A 
ATOM     34  C   UNL A   1      38.735  30.854  30.416  1.00  0.00     0.074 A 
ATOM     35  C   UNL A   1      38.284  32.479  32.189  1.00  0.00     0.049 A 
ATOM     36  N   UNL A   1      39.772  30.246  30.929  1.00  0.00    -0.248 NA
ATOM     37  C   UNL A   1      38.319  30.343  29.102  1.00  0.00     0.031 C 
ATOM     38  C   UNL A   1      37.589  33.557  32.872  1.00  0.00     0.029 A 
ATOM     39  N   UNL A   1      39.293  32.139  33.062  1.00  0.00    -0.354 N 
ATOM     40  C   UNL A   1      40.114  29.256  30.020  1.00  0.00     0.074 A 
ATOM     41  C   UNL A   1      39.176  29.348  28.921  1.00  0.00     0.031 C 
ATOM     42  C   UNL A   1      38.166  33.786  34.063  1.00  0.00     0.029 A 
ATOM     43  C   UNL A   1      39.262  32.840  34.250  1.00  0.00     0.049 A 
ATOM     44  H   UNL A   1      39.975  31.459  32.857  1.00  0.00     0.167 HD
ATOM     45  C   UNL A   1      41.119  28.353  30.092  1.00  0.00     0.034 A 
ATOM     46  C   UNL A   1      40.003  32.720  35.374  1.00  0.00     0.034 A 
ATOM     47  C   UNL A   1      42.064  28.255  31.171  1.00  0.00     0.049 A 
ATOM     48  C   UNL A   1      41.096  31.680  35.432  1.00  0.00     0.074 A 
ATOM     49  C   UNL A   1      43.153  27.406  31.276  1.00  0.00     0.029 A 
ATOM     50  N   UNL A   1      42.026  28.997  32.338  1.00  0.00    -0.354 N 
ATOM     51  N   UNL A   1      41.497  30.856  34.497  1.00  0.00    -0.248 NA
ATOM     52  C   UNL A   1      41.849  31.565  36.692  1.00  0.00     0.031 C 
ATOM     53  C   UNL A   1      43.742  27.598  32.529  1.00  0.00     0.029 A 
ATOM     54  C   UNL A   1      43.049  28.601  33.184  1.00  0.00     0.049 A 
ATOM     55  H   UNL A   1      41.369  29.702  32.539  1.00  0.00     0.167 HD
ATOM     56  C   UNL A   1      42.561  30.147  35.046  1.00  0.00     0.074 A 
ATOM     57  C   UNL A   1      42.767  30.660  36.382  1.00  0.00     0.031 C 
ATOM     58  C   UNL A   1      43.286  29.142  34.498  1.00  0.00     0.034 A 
BRANCH  45  59
ATOM     59  C   UNL A   1      41.259  27.378  28.958  1.00  0.00     0.023 A 
ATOM     60  C   UNL A   1      40.457  26.222  28.924  1.00  0.00     0.012 A 
ATOM     61  C   UNL A   1      42.120  27.664  27.881  1.00  0.00     0.148 A 
ATOM     62  C   UNL A   1      40.523  25.352  27.838  1.00  0.00     0.002 A 
ATOM     63  C   UNL A   1      42.145  26.817  26.782  1.00  0.00     0.091 A 
ATOM     64  F   UNL A   1      42.887  28.761  27.951  1.00  0.00    -0.205 F 
ATOM     65  C   UNL A   1      41.355  25.656  26.762  1.00  0.00     0.022 A 
BRANCH  63  66
ATOM     66  S   UNL A   1      43.121  27.164  25.316  1.00  0.00     0.127 S 
ATOM     67  O   UNL A   1      43.101  25.868  24.637  1.00  0.00    -0.237 OA
ATOM     68  O   UNL A   1      42.330  28.208  24.665  1.00  0.00    -0.237 OA
ATOM     69  O   UNL A   1      44.429  27.593  25.791  1.00  0.00    -0.744 OA
ENDBRANCH  63  66
ENDBRANCH  45  59
BRANCH  46  70
ATOM     70  C   UNL A   1      39.741  33.584  36.566  1.00  0.00     0.023 A 
ATOM     71  C   UNL A   1      40.222  34.908  36.596  1.00  0.00     0.012 A 
ATOM     72  C   UNL A   1      39.071  33.078  37.697  1.00  0.00     0.148 A 
ATOM     73  C   UNL A   1      40.085  35.693  37.743  1.00  0.00     0.002 A 
ATOM     74  C   UNL A   1      38.884  33.885  38.814  1.00  0.00     0.091 A 
ATOM     75  F   UNL A   1      38.640  31.809  37.665  1.00  0.00    -0.205 F 
ATOM     76  C   UNL A   1      39.410  35.185  38.849  1.00  0.00     0.022 A 
BRANCH  74  77
ATOM     77  S   UNL A   1      37.918  33.352  40.231  1.00  0.00     0.127 S 
ATOM     78  O   UNL A   1      36.647  32.991  39.609  1.00  0.00    -0.237 OA
ATOM     79  O   UNL A   1      38.707  32.224  40.726  1.00  0.00    -0.237 OA
ATOM     80  O   UNL A   1      37.881  34.499  41.130  1.00  0.00    -0.744 OA
ENDBRANCH  74  77
ENDBRANCH  46  70
BRANCH  58  81
ATOM     81  C   UNL A   1      44.395  28.536  35.321  1.00  0.00     0.023 A 
ATOM     82  C   UNL A   1      45.706  29.042  35.213  1.00  0.00     0.012 A 
ATOM     83  C   UNL A   1      44.124  27.520  36.260  1.00  0.00     0.148 A 
ATOM     84  C   UNL A   1      46.734  28.525  36.003  1.00  0.00     0.002 A 
ATOM     85  C   UNL A   1      45.142  27.046  37.079  1.00  0.00     0.091 A 
ATOM     86  F   UNL A   1      42.874  27.042  36.339  1.00  0.00    -0.205 F 
ATOM     87  C   UNL A   1      46.450  27.539  36.943  1.00  0.00     0.022 A 
BRANCH  85  88
ATOM     88  S   UNL A   1      44.857  25.844  38.383  1.00  0.00     0.127 S 
ATOM     89  O   UNL A   1      46.201  25.674  38.930  1.00  0.00    -0.237 OA
ATOM     90  O   UNL A   1      43.926  26.556  39.260  1.00  0.00    -0.237 OA
ATOM     91  O   UNL A   1      44.298  24.666  37.733  1.00  0.00    -0.744 OA
ENDBRANCH  85  88
ENDBRANCH  58  81
ENDBRANCH  32  33
ENDBRANCH  25  27
ENDBRANCH  24  25
ENDBRANCH   1  24
TORSDOF 17
ENDMDL
MODEL 3
REMARK VINA RESULT:     -11.4      5.622     11.025
REMARK SMILES O=C(C[C@H](C1CCCCC1)N1Cc2ccccc2C1=O)OCCOC(=O)c1ccc(-c2c3nc(c(-c4cccc(S(=O)(=O)[O-])c4F)c4ccc([nH]4)c(-c4cccc(S(=O)(=O)[O-])c4F)c4nc(c(-c5cccc(S(=O)(=O)[O-])c5F)c5ccc2[nH]5)C=C4)C=C3)cc1
REMARK SMILES IDX 23 1 22 2 21 3 2 4 1 5 3 6 4 7 11 8 12 9 19 10 13 11 18 12
REMARK SMILES IDX 20 13 14 14 17 15 15 16 16 17 5 18 6 19 10 20 7 21 9 22 8 23
REMARK SMILES IDX 24 24 25 25 26 26 27 27 28 28 89 29 29 30 88 31 30 32 31 33
REMARK SMILES IDX 32 34 82 35 33 36 87 37 81 38 83 39 34 40 86 41 80 42 79 43
REMARK SMILES IDX 35 45 67 46 47 47 66 48 48 49 51 50 65 51 84 52 49 53 50 54
REMARK SMILES IDX 64 56 85 57 52 58 36 59 37 60 45 61 38 62 40 63 46 64 39 65
REMARK SMILES IDX 41 66 42 67 43 68 44 69 68 70 69 71 77 72 70 73 72 74 78 75
REMARK SMILES IDX 71 76 73 77 74 78 75 79 76 80 53 81 54 82 62 83 55 84 57 85
REMARK SMILES IDX 63 86 56 87 58 88 59 89 60 90 61 91
REMARK H PARENT 83 44 51 55
REMARK Flexibility Score: inf
ROOT
ATOM      1  C   UNL A   1      38.426  19.859  25.002  1.00  0.00     0.275 C 
ENDROOT
BRANCH   1   2
ATOM      2  C   UNL A   1      37.127  20.682  24.945  1.00  0.00     0.274 C 
BRANCH   2   3
ATOM      3  O   UNL A   1      37.357  22.076  25.230  1.00  0.00    -0.462 OA
BRANCH   3   4
ATOM      4  C   UNL A   1      36.693  23.090  24.635  1.00  0.00     0.308 C 
ATOM      5  O   UNL A   1      36.938  23.365  23.463  1.00  0.00    -0.252 OA
BRANCH   4   6
ATOM      6  C   UNL A   1      35.712  23.903  25.448  1.00  0.00     0.148 C 
BRANCH   6   7
ATOM      7  C   UNL A   1      34.266  24.017  24.961  1.00  0.00     0.100 C 
BRANCH   7   8
ATOM      8  N   UNL A   1      33.717  22.639  24.779  1.00  0.00    -0.330 N 
ATOM      9  C   UNL A   1      33.778  21.585  25.797  1.00  0.00     0.156 C 
ATOM     10  C   UNL A   1      33.319  22.110  23.553  1.00  0.00     0.254 C 
ATOM     11  C   UNL A   1      33.215  20.395  25.108  1.00  0.00    -0.016 A 
ATOM     12  C   UNL A   1      32.941  20.703  23.781  1.00  0.00     0.045 A 
ATOM     13  O   UNL A   1      33.326  22.659  22.463  1.00  0.00    -0.269 OA
ATOM     14  C   UNL A   1      32.921  19.147  25.631  1.00  0.00     0.006 A 
ATOM     15  C   UNL A   1      32.378  19.780  22.920  1.00  0.00     0.014 A 
ATOM     16  C   UNL A   1      32.330  18.206  24.785  1.00  0.00     0.000 A 
ATOM     17  C   UNL A   1      32.063  18.519  23.440  1.00  0.00     0.001 A 
ENDBRANCH   7   8
BRANCH   7  18
ATOM     18  C   UNL A   1      33.354  24.954  25.844  1.00  0.00     0.012 C 
ATOM     19  C   UNL A   1      33.811  26.421  25.884  1.00  0.00     0.006 C 
ATOM     20  C   UNL A   1      31.880  24.870  25.395  1.00  0.00     0.006 C 
ATOM     21  C   UNL A   1      32.834  27.413  26.504  1.00  0.00     0.000 C 
ATOM     22  C   UNL A   1      30.952  25.842  26.114  1.00  0.00     0.000 C 
ATOM     23  C   UNL A   1      31.440  27.271  25.926  1.00  0.00     0.000 C 
ENDBRANCH   7  18
ENDBRANCH   6   7
ENDBRANCH   4   6
ENDBRANCH   3   4
ENDBRANCH   2   3
ENDBRANCH   1   2
BRANCH   1  24
ATOM     24  O   UNL A   1      39.100  19.976  26.278  1.00  0.00    -0.458 OA
BRANCH  24  25
ATOM     25  C   UNL A   1      40.458  19.874  26.285  1.00  0.00     0.338 C 
ATOM     26  O   UNL A   1      41.108  18.924  25.885  1.00  0.00    -0.246 OA
BRANCH  25  27
ATOM     27  C   UNL A   1      41.054  21.198  26.642  1.00  0.00     0.060 A 
ATOM     28  C   UNL A   1      40.943  22.255  25.725  1.00  0.00     0.016 A 
ATOM     29  C   UNL A   1      41.625  21.443  27.894  1.00  0.00     0.016 A 
ATOM     30  C   UNL A   1      41.363  23.551  26.069  1.00  0.00     0.010 A 
ATOM     31  C   UNL A   1      42.065  22.736  28.228  1.00  0.00     0.010 A 
ATOM     32  C   UNL A   1      41.937  23.806  27.323  1.00  0.00    -0.014 A 
BRANCH  32  33
ATOM     33  C   UNL A   1      42.483  25.155  27.667  1.00  0.00     0.031 A 
ATOM     34  C   UNL A   1      41.584  26.168  28.310  1.00  0.00     0.074 A 
ATOM     35  C   UNL A   1      43.749  25.517  27.377  1.00  0.00     0.049 A 
ATOM     36  N   UNL A   1      41.843  27.409  28.632  1.00  0.00    -0.248 NA
ATOM     37  C   UNL A   1      40.214  25.734  28.622  1.00  0.00     0.031 C 
ATOM     38  C   UNL A   1      44.728  24.649  26.745  1.00  0.00     0.029 A 
ATOM     39  N   UNL A   1      44.428  26.705  27.541  1.00  0.00    -0.354 N 
ATOM     40  C   UNL A   1      40.662  27.917  29.152  1.00  0.00     0.074 A 
ATOM     41  C   UNL A   1      39.686  26.849  29.106  1.00  0.00     0.031 C 
ATOM     42  C   UNL A   1      45.874  25.322  26.550  1.00  0.00     0.029 A 
ATOM     43  C   UNL A   1      45.703  26.696  27.015  1.00  0.00     0.049 A 
ATOM     44  H   UNL A   1      44.037  27.487  27.993  1.00  0.00     0.167 HD
ATOM     45  C   UNL A   1      40.413  29.159  29.627  1.00  0.00     0.034 A 
ATOM     46  C   UNL A   1      46.620  27.680  26.889  1.00  0.00     0.034 A 
ATOM     47  C   UNL A   1      41.373  30.227  29.688  1.00  0.00     0.049 A 
ATOM     48  C   UNL A   1      46.297  29.062  27.401  1.00  0.00     0.074 A 
ATOM     49  C   UNL A   1      41.207  31.494  30.222  1.00  0.00     0.029 A 
ATOM     50  N   UNL A   1      42.660  30.176  29.180  1.00  0.00    -0.354 N 
ATOM     51  N   UNL A   1      45.224  29.478  28.027  1.00  0.00    -0.248 NA
ATOM     52  C   UNL A   1      47.316  30.108  27.205  1.00  0.00     0.031 C 
ATOM     53  C   UNL A   1      42.375  32.225  29.990  1.00  0.00     0.029 A 
ATOM     54  C   UNL A   1      43.286  31.399  29.356  1.00  0.00     0.049 A 
ATOM     55  H   UNL A   1      43.070  29.388  28.757  1.00  0.00     0.167 HD
ATOM     56  C   UNL A   1      45.450  30.819  28.320  1.00  0.00     0.074 A 
ATOM     57  C   UNL A   1      46.774  31.140  27.837  1.00  0.00     0.031 C 
ATOM     58  C   UNL A   1      44.621  31.710  28.917  1.00  0.00     0.034 A 
BRANCH  45  59
ATOM     59  C   UNL A   1      39.026  29.445  30.128  1.00  0.00     0.023 A 
ATOM     60  C   UNL A   1      38.674  29.110  31.448  1.00  0.00     0.012 A 
ATOM     61  C   UNL A   1      38.107  30.135  29.312  1.00  0.00     0.148 A 
ATOM     62  C   UNL A   1      37.416  29.442  31.947  1.00  0.00     0.002 A 
ATOM     63  C   UNL A   1      36.875  30.503  29.831  1.00  0.00     0.091 A 
ATOM     64  F   UNL A   1      38.463  30.422  28.052  1.00  0.00    -0.205 F 
ATOM     65  C   UNL A   1      36.523  30.150  31.144  1.00  0.00     0.022 A 
BRANCH  63  66
ATOM     66  S   UNL A   1      35.690  31.485  28.907  1.00  0.00     0.127 S 
ATOM     67  O   UNL A   1      35.168  30.500  27.960  1.00  0.00    -0.237 OA
ATOM     68  O   UNL A   1      34.749  31.889  29.951  1.00  0.00    -0.237 OA
ATOM     69  O   UNL A   1      36.447  32.576  28.309  1.00  0.00    -0.744 OA
ENDBRANCH  63  66
ENDBRANCH  45  59
BRANCH  46  70
ATOM     70  C   UNL A   1      47.938  27.426  26.230  1.00  0.00     0.023 A 
ATOM     71  C   UNL A   1      49.078  27.159  27.014  1.00  0.00     0.012 A 
ATOM     72  C   UNL A   1      48.079  27.509  24.831  1.00  0.00     0.148 A 
ATOM     73  C   UNL A   1      50.338  27.030  26.424  1.00  0.00     0.002 A 
ATOM     74  C   UNL A   1      49.326  27.319  24.245  1.00  0.00     0.091 A 
ATOM     75  F   UNL A   1      46.992  27.788  24.098  1.00  0.00    -0.205 F 
ATOM     76  C   UNL A   1      50.461  27.102  25.040  1.00  0.00     0.022 A 
BRANCH  74  77
ATOM     77  S   UNL A   1      49.550  27.272  22.463  1.00  0.00     0.127 S 
ATOM     78  O   UNL A   1      48.682  26.161  22.081  1.00  0.00    -0.237 OA
ATOM     79  O   UNL A   1      49.072  28.596  22.065  1.00  0.00    -0.237 OA
ATOM     80  O   UNL A   1      50.978  27.062  22.257  1.00  0.00    -0.744 OA
ENDBRANCH  74  77
ENDBRANCH  46  70
BRANCH  58  81
ATOM     81  C   UNL A   1      45.119  33.120  29.113  1.00  0.00     0.023 A 
ATOM     82  C   UNL A   1      45.804  33.465  30.296  1.00  0.00     0.012 A 
ATOM     83  C   UNL A   1      44.979  34.083  28.093  1.00  0.00     0.148 A 
ATOM     84  C   UNL A   1      46.313  34.752  30.472  1.00  0.00     0.002 A 
ATOM     85  C   UNL A   1      45.533  35.347  28.254  1.00  0.00     0.091 A 
ATOM     86  F   UNL A   1      44.313  33.741  26.981  1.00  0.00    -0.205 F 
ATOM     87  C   UNL A   1      46.189  35.687  29.448  1.00  0.00     0.022 A 
BRANCH  85  88
ATOM     88  S   UNL A   1      45.508  36.590  26.957  1.00  0.00     0.127 S 
ATOM     89  O   UNL A   1      44.077  36.864  26.835  1.00  0.00    -0.237 OA
ATOM     90  O   UNL A   1      46.288  37.674  27.554  1.00  0.00    -0.237 OA
ATOM     91  O   UNL A   1      46.122  35.970  25.791  1.00  0.00    -0.744 OA
ENDBRANCH  85  88
ENDBRANCH  58  81
ENDBRANCH  32  33
ENDBRANCH  25  27
ENDBRANCH  24  25
ENDBRANCH   1  24
TORSDOF 17
ENDMDL
