MODEL 1
REMARK VINA RESULT:     -10.3      0.000      0.000
REMARK SMILES C#CCN(CC(=O)OCCOC(=O)c1ccc(-c2c3nc(c(-c4cccc(S(=O)(=O)[O-])c4F)c4ccc([nH]4)c(-c4cccc(S(=O)(=O)[O-])c4F)c4nc(c(-c5cccc(S(=O)(=O)[O-])c5F)c5ccc2[nH]5)C=C4)C=C3)cc1)C(=O)N1CCO[C@@H](C#N)C1
REMARK SMILES IDX 9 1 8 2 6 3 7 4 5 5 4 6 3 7 2 8 1 9 77 10 78 11 79 12 80 13
REMARK SMILES IDX 86 14 81 15 83 16 82 17 84 18 85 19 10 20 11 21 12 22 13 23
REMARK SMILES IDX 14 24 15 25 76 26 16 27 75 28 17 29 18 30 19 31 69 32 20 33
REMARK SMILES IDX 74 34 68 35 70 36 21 37 73 38 67 39 66 40 22 42 54 43 34 44
REMARK SMILES IDX 53 45 35 46 38 47 52 48 71 49 36 50 37 51 51 53 72 54 39 55
REMARK SMILES IDX 23 56 24 57 32 58 25 59 27 60 33 61 26 62 28 63 29 64 30 65
REMARK SMILES IDX 31 66 55 67 56 68 64 69 57 70 59 71 65 72 58 73 60 74 61 75
REMARK SMILES IDX 62 76 63 77 40 78 41 79 49 80 42 81 44 82 50 83 43 84 45 85
REMARK SMILES IDX 46 86 47 87 48 88
REMARK H PARENT 70 41 38 52
REMARK Flexibility Score: inf
ROOT
ATOM      1  C   UNL A   1      31.534  28.412  24.614  1.00  0.00     0.274 C 
ENDROOT
BRANCH   1   2
ATOM      2  O   UNL A   1      31.227  27.153  25.245  1.00  0.00    -0.461 OA
BRANCH   2   3
ATOM      3  C   UNL A   1      32.300  26.375  25.518  1.00  0.00     0.325 C 
ATOM      4  O   UNL A   1      33.121  26.595  26.403  1.00  0.00    -0.250 OA
BRANCH   3   5
ATOM      5  C   UNL A   1      32.334  25.071  24.724  1.00  0.00     0.245 C 
BRANCH   5   6
ATOM      6  N   UNL A   1      33.395  24.692  23.744  1.00  0.00    -0.302 N 
BRANCH   6   7
ATOM      7  C   UNL A   1      33.625  25.732  22.807  1.00  0.00     0.211 C 
BRANCH   7   8
ATOM      8  C   UNL A   1      32.879  25.736  21.482  1.00  0.00    -0.085 C 
ATOM      9  C   UNL A   1      32.240  25.739  20.346  1.00  0.00     0.006 C 
ENDBRANCH   7   8
ENDBRANCH   6   7
BRANCH   6  10
ATOM     10  C   UNL A   1      34.270  23.630  23.555  1.00  0.00     0.321 C 
ATOM     11  O   UNL A   1      34.559  23.231  22.421  1.00  0.00    -0.248 OA
BRANCH  10  12
ATOM     12  N   UNL A   1      34.929  23.089  24.612  1.00  0.00    -0.319 N 
ATOM     13  C   UNL A   1      34.944  23.756  25.932  1.00  0.00     0.150 C 
ATOM     14  C   UNL A   1      35.343  21.735  24.705  1.00  0.00     0.169 C 
ATOM     15  C   UNL A   1      34.280  22.871  27.030  1.00  0.00     0.183 C 
ATOM     16  C   UNL A   1      34.353  21.010  25.588  1.00  0.00     0.240 C 
ATOM     17  O   UNL A   1      34.579  21.470  26.924  1.00  0.00    -0.360 OA
BRANCH  16  18
ATOM     18  C   UNL A   1      32.931  21.001  25.209  1.00  0.00     0.096 C 
ATOM     19  N   UNL A   1      31.787  21.002  24.979  1.00  0.00    -0.195 NA
ENDBRANCH  16  18
ENDBRANCH  10  12
ENDBRANCH   6  10
ENDBRANCH   5   6
ENDBRANCH   3   5
ENDBRANCH   2   3
ENDBRANCH   1   2
BRANCH   1  20
ATOM     20  C   UNL A   1      31.598  29.514  25.680  1.00  0.00     0.275 C 
BRANCH  20  21
ATOM     21  O   UNL A   1      32.887  30.153  25.864  1.00  0.00    -0.458 OA
BRANCH  21  22
ATOM     22  C   UNL A   1      33.018  31.047  26.875  1.00  0.00     0.338 C 
ATOM     23  O   UNL A   1      32.233  31.940  27.141  1.00  0.00    -0.246 OA
BRANCH  22  24
ATOM     24  C   UNL A   1      34.382  30.939  27.463  1.00  0.00     0.060 A 
ATOM     25  C   UNL A   1      34.752  29.676  27.893  1.00  0.00     0.016 A 
ATOM     26  C   UNL A   1      35.239  32.021  27.729  1.00  0.00     0.016 A 
ATOM     27  C   UNL A   1      35.903  29.538  28.677  1.00  0.00     0.010 A 
ATOM     28  C   UNL A   1      36.484  31.824  28.394  1.00  0.00     0.010 A 
ATOM     29  C   UNL A   1      36.851  30.566  28.890  1.00  0.00    -0.014 A 
BRANCH  29  30
ATOM     30  C   UNL A   1      38.177  30.210  29.544  1.00  0.00     0.031 A 
ATOM     31  C   UNL A   1      39.247  29.302  28.940  1.00  0.00     0.074 A 
ATOM     32  C   UNL A   1      38.446  30.762  30.755  1.00  0.00     0.049 A 
ATOM     33  N   UNL A   1      40.336  28.824  29.507  1.00  0.00    -0.248 NA
ATOM     34  C   UNL A   1      39.104  28.882  27.538  1.00  0.00     0.031 C 
ATOM     35  C   UNL A   1      37.559  31.676  31.488  1.00  0.00     0.029 A 
ATOM     36  N   UNL A   1      39.532  30.660  31.597  1.00  0.00    -0.354 N 
ATOM     37  C   UNL A   1      40.968  28.012  28.562  1.00  0.00     0.074 A 
ATOM     38  C   UNL A   1      40.162  28.094  27.362  1.00  0.00     0.031 C 
ATOM     39  C   UNL A   1      38.170  32.150  32.569  1.00  0.00     0.029 A 
ATOM     40  C   UNL A   1      39.354  31.349  32.777  1.00  0.00     0.049 A 
ATOM     41  H   UNL A   1      40.346  30.149  31.379  1.00  0.00     0.167 HD
ATOM     42  C   UNL A   1      42.091  27.253  28.691  1.00  0.00     0.034 A 
ATOM     43  C   UNL A   1      39.943  31.261  33.981  1.00  0.00     0.034 A 
ATOM     44  C   UNL A   1      42.880  27.167  29.901  1.00  0.00     0.049 A 
ATOM     45  C   UNL A   1      41.067  30.304  34.151  1.00  0.00     0.074 A 
ATOM     46  C   UNL A   1      44.019  26.412  30.139  1.00  0.00     0.029 A 
ATOM     47  N   UNL A   1      42.599  27.832  31.085  1.00  0.00    -0.354 N 
ATOM     48  N   UNL A   1      41.623  29.534  33.252  1.00  0.00    -0.248 NA
ATOM     49  C   UNL A   1      41.648  30.210  35.491  1.00  0.00     0.031 C 
ATOM     50  C   UNL A   1      44.377  26.561  31.484  1.00  0.00     0.029 A 
ATOM     51  C   UNL A   1      43.511  27.470  32.066  1.00  0.00     0.049 A 
ATOM     52  H   UNL A   1      41.859  28.469  31.212  1.00  0.00     0.167 HD
ATOM     53  C   UNL A   1      42.651  28.882  33.910  1.00  0.00     0.074 A 
ATOM     54  C   UNL A   1      42.646  29.365  35.278  1.00  0.00     0.031 C 
ATOM     55  C   UNL A   1      43.517  27.965  33.420  1.00  0.00     0.034 A 
BRANCH  42  56
ATOM     56  C   UNL A   1      42.524  26.383  27.523  1.00  0.00     0.023 A 
ATOM     57  C   UNL A   1      43.457  26.854  26.577  1.00  0.00     0.012 A 
ATOM     58  C   UNL A   1      42.065  25.049  27.421  1.00  0.00     0.148 A 
ATOM     59  C   UNL A   1      43.890  26.030  25.531  1.00  0.00     0.002 A 
ATOM     60  C   UNL A   1      42.532  24.224  26.401  1.00  0.00     0.091 A 
ATOM     61  F   UNL A   1      41.184  24.609  28.329  1.00  0.00    -0.205 F 
ATOM     62  C   UNL A   1      43.434  24.717  25.447  1.00  0.00     0.022 A 
BRANCH  60  63
ATOM     63  S   UNL A   1      42.052  22.497  26.248  1.00  0.00     0.127 S 
ATOM     64  O   UNL A   1      42.626  21.924  27.464  1.00  0.00    -0.237 OA
ATOM     65  O   UNL A   1      40.591  22.582  26.244  1.00  0.00    -0.237 OA
ATOM     66  O   UNL A   1      42.637  22.023  25.002  1.00  0.00    -0.744 OA
ENDBRANCH  60  63
ENDBRANCH  42  56
BRANCH  43  67
ATOM     67  C   UNL A   1      39.383  32.037  35.126  1.00  0.00     0.023 A 
ATOM     68  C   UNL A   1      38.521  31.407  36.037  1.00  0.00     0.012 A 
ATOM     69  C   UNL A   1      39.786  33.372  35.364  1.00  0.00     0.148 A 
ATOM     70  C   UNL A   1      38.059  32.094  37.161  1.00  0.00     0.002 A 
ATOM     71  C   UNL A   1      39.384  34.022  36.523  1.00  0.00     0.091 A 
ATOM     72  F   UNL A   1      40.609  33.956  34.481  1.00  0.00    -0.205 F 
ATOM     73  C   UNL A   1      38.503  33.391  37.412  1.00  0.00     0.022 A 
BRANCH  71  74
ATOM     74  S   UNL A   1      40.042  35.622  37.008  1.00  0.00     0.127 S 
ATOM     75  O   UNL A   1      39.653  36.459  35.875  1.00  0.00    -0.237 OA
ATOM     76  O   UNL A   1      39.310  35.885  38.248  1.00  0.00    -0.237 OA
ATOM     77  O   UNL A   1      41.473  35.426  37.188  1.00  0.00    -0.744 OA
ENDBRANCH  71  74
ENDBRANCH  43  67
BRANCH  55  78
ATOM     78  C   UNL A   1      44.577  27.471  34.361  1.00  0.00     0.023 A 
ATOM     79  C   UNL A   1      45.771  28.198  34.539  1.00  0.00     0.012 A 
ATOM     80  C   UNL A   1      44.378  26.276  35.079  1.00  0.00     0.148 A 
ATOM     81  C   UNL A   1      46.771  27.717  35.381  1.00  0.00     0.002 A 
ATOM     82  C   UNL A   1      45.351  25.837  35.964  1.00  0.00     0.091 A 
ATOM     83  F   UNL A   1      43.247  25.587  34.872  1.00  0.00    -0.205 F 
ATOM     84  C   UNL A   1      46.557  26.544  36.102  1.00  0.00     0.022 A 
BRANCH  82  85
ATOM     85  S   UNL A   1      45.121  24.393  37.005  1.00  0.00     0.127 S 
ATOM     86  O   UNL A   1      46.448  24.242  37.601  1.00  0.00    -0.237 OA
ATOM     87  O   UNL A   1      44.083  24.848  37.931  1.00  0.00    -0.237 OA
ATOM     88  O   UNL A   1      44.712  23.314  36.116  1.00  0.00    -0.744 OA
ENDBRANCH  82  85
ENDBRANCH  55  78
ENDBRANCH  29  30
ENDBRANCH  22  24
ENDBRANCH  21  22
ENDBRANCH  20  21
ENDBRANCH   1  20
TORSDOF 20
ENDMDL
MODEL 2
REMARK VINA RESULT:     -10.3      5.139     10.032
REMARK SMILES C#CCN(CC(=O)OCCOC(=O)c1ccc(-c2c3nc(c(-c4cccc(S(=O)(=O)[O-])c4F)c4ccc([nH]4)c(-c4cccc(S(=O)(=O)[O-])c4F)c4nc(c(-c5cccc(S(=O)(=O)[O-])c5F)c5ccc2[nH]5)C=C4)C=C3)cc1)C(=O)N1CCO[C@@H](C#N)C1
REMARK SMILES IDX 9 1 8 2 6 3 7 4 5 5 4 6 3 7 2 8 1 9 77 10 78 11 79 12 80 13
REMARK SMILES IDX 86 14 81 15 83 16 82 17 84 18 85 19 10 20 11 21 12 22 13 23
REMARK SMILES IDX 14 24 15 25 76 26 16 27 75 28 17 29 18 30 19 31 69 32 20 33
REMARK SMILES IDX 74 34 68 35 70 36 21 37 73 38 67 39 66 40 22 42 54 43 34 44
REMARK SMILES IDX 53 45 35 46 38 47 52 48 71 49 36 50 37 51 51 53 72 54 39 55
REMARK SMILES IDX 23 56 24 57 32 58 25 59 27 60 33 61 26 62 28 63 29 64 30 65
REMARK SMILES IDX 31 66 55 67 56 68 64 69 57 70 59 71 65 72 58 73 60 74 61 75
REMARK SMILES IDX 62 76 63 77 40 78 41 79 49 80 42 81 44 82 50 83 43 84 45 85
REMARK SMILES IDX 46 86 47 87 48 88
REMARK H PARENT 70 41 38 52
REMARK Flexibility Score: inf
ROOT
ATOM      1  C   UNL A   1      34.952  21.147  25.260  1.00  0.00     0.274 C 
ENDROOT
BRANCH   1   2
ATOM      2  O   UNL A   1      34.551  22.407  24.687  1.00  0.00    -0.461 OA
BRANCH   2   3
ATOM      3  C   UNL A   1      34.394  23.414  25.578  1.00  0.00     0.325 C 
ATOM      4  O   UNL A   1      34.142  23.264  26.770  1.00  0.00    -0.250 OA
BRANCH   3   5
ATOM      5  C   UNL A   1      34.718  24.794  25.013  1.00  0.00     0.245 C 
BRANCH   5   6
ATOM      6  N   UNL A   1      33.724  25.887  24.794  1.00  0.00    -0.302 N 
BRANCH   6   7
ATOM      7  C   UNL A   1      33.284  26.435  26.026  1.00  0.00     0.211 C 
BRANCH   7   8
ATOM      8  C   UNL A   1      33.797  27.793  26.476  1.00  0.00    -0.085 C 
ATOM      9  C   UNL A   1      34.238  28.959  26.861  1.00  0.00     0.006 C 
ENDBRANCH   7   8
ENDBRANCH   6   7
BRANCH   6  10
ATOM     10  C   UNL A   1      33.179  26.561  23.710  1.00  0.00     0.321 C 
ATOM     11  O   UNL A   1      33.858  27.342  23.033  1.00  0.00    -0.248 OA
BRANCH  10  12
ATOM     12  N   UNL A   1      31.918  26.279  23.290  1.00  0.00    -0.319 N 
ATOM     13  C   UNL A   1      31.013  25.430  24.094  1.00  0.00     0.150 C 
ATOM     14  C   UNL A   1      31.212  27.003  22.295  1.00  0.00     0.169 C 
ATOM     15  C   UNL A   1      29.737  26.210  24.536  1.00  0.00     0.183 C 
ATOM     16  C   UNL A   1      30.238  27.922  22.997  1.00  0.00     0.240 C 
ATOM     17  O   UNL A   1      29.203  27.092  23.535  1.00  0.00    -0.360 OA
BRANCH  16  18
ATOM     18  C   UNL A   1      30.754  28.906  23.962  1.00  0.00     0.096 C 
ATOM     19  N   UNL A   1      31.178  29.630  24.772  1.00  0.00    -0.195 NA
ENDBRANCH  16  18
ENDBRANCH  10  12
ENDBRANCH   6  10
ENDBRANCH   5   6
ENDBRANCH   3   5
ENDBRANCH   2   3
ENDBRANCH   1   2
BRANCH   1  20
ATOM     20  C   UNL A   1      36.464  20.959  25.073  1.00  0.00     0.275 C 
BRANCH  20  21
ATOM     21  O   UNL A   1      37.315  21.926  25.739  1.00  0.00    -0.458 OA
BRANCH  21  22
ATOM     22  C   UNL A   1      38.620  21.605  25.924  1.00  0.00     0.338 C 
ATOM     23  O   UNL A   1      39.115  20.506  25.749  1.00  0.00    -0.246 OA
BRANCH  22  24
ATOM     24  C   UNL A   1      39.316  22.727  26.613  1.00  0.00     0.060 A 
ATOM     25  C   UNL A   1      38.882  23.999  26.278  1.00  0.00     0.016 A 
ATOM     26  C   UNL A   1      40.440  22.596  27.447  1.00  0.00     0.016 A 
ATOM     27  C   UNL A   1      39.642  25.103  26.682  1.00  0.00     0.010 A 
ATOM     28  C   UNL A   1      41.100  23.743  27.974  1.00  0.00     0.010 A 
ATOM     29  C   UNL A   1      40.715  25.038  27.601  1.00  0.00    -0.014 A 
BRANCH  29  30
ATOM     30  C   UNL A   1      41.285  26.337  28.149  1.00  0.00     0.031 A 
ATOM     31  C   UNL A   1      40.494  27.402  28.907  1.00  0.00     0.074 A 
ATOM     32  C   UNL A   1      42.613  26.563  27.971  1.00  0.00     0.049 A 
ATOM     33  N   UNL A   1      40.875  28.610  29.266  1.00  0.00    -0.248 NA
ATOM     34  C   UNL A   1      39.120  27.089  29.329  1.00  0.00     0.031 C 
ATOM     35  C   UNL A   1      43.546  25.653  27.291  1.00  0.00     0.029 A 
ATOM     36  N   UNL A   1      43.430  27.607  28.342  1.00  0.00    -0.354 N 
ATOM     37  C   UNL A   1      39.785  29.214  29.897  1.00  0.00     0.074 A 
ATOM     38  C   UNL A   1      38.731  28.221  29.912  1.00  0.00     0.031 C 
ATOM     39  C   UNL A   1      44.794  26.094  27.410  1.00  0.00     0.029 A 
ATOM     40  C   UNL A   1      44.724  27.454  27.893  1.00  0.00     0.049 A 
ATOM     41  H   UNL A   1      43.123  28.381  28.871  1.00  0.00     0.167 HD
ATOM     42  C   UNL A   1      39.665  30.478  30.390  1.00  0.00     0.034 A 
ATOM     43  C   UNL A   1      45.733  28.321  27.708  1.00  0.00     0.034 A 
ATOM     44  C   UNL A   1      40.720  31.467  30.355  1.00  0.00     0.049 A 
ATOM     45  C   UNL A   1      45.529  29.739  28.100  1.00  0.00     0.074 A 
ATOM     46  C   UNL A   1      40.692  32.778  30.807  1.00  0.00     0.029 A 
ATOM     47  N   UNL A   1      41.983  31.269  29.815  1.00  0.00    -0.354 N 
ATOM     48  N   UNL A   1      44.484  30.284  28.667  1.00  0.00    -0.248 NA
ATOM     49  C   UNL A   1      46.640  30.656  27.839  1.00  0.00     0.031 C 
ATOM     50  C   UNL A   1      41.905  33.390  30.469  1.00  0.00     0.029 A 
ATOM     51  C   UNL A   1      42.721  32.441  29.879  1.00  0.00     0.049 A 
ATOM     52  H   UNL A   1      42.308  30.418  29.440  1.00  0.00     0.167 HD
ATOM     53  C   UNL A   1      44.823  31.611  28.864  1.00  0.00     0.074 A 
ATOM     54  C   UNL A   1      46.177  31.777  28.371  1.00  0.00     0.031 C 
ATOM     55  C   UNL A   1      44.074  32.600  29.406  1.00  0.00     0.034 A 
BRANCH  42  56
ATOM     56  C   UNL A   1      38.326  30.919  30.956  1.00  0.00     0.023 A 
ATOM     57  C   UNL A   1      38.025  30.744  32.322  1.00  0.00     0.012 A 
ATOM     58  C   UNL A   1      37.395  31.597  30.135  1.00  0.00     0.148 A 
ATOM     59  C   UNL A   1      36.810  31.197  32.849  1.00  0.00     0.002 A 
ATOM     60  C   UNL A   1      36.206  32.080  30.676  1.00  0.00     0.091 A 
ATOM     61  F   UNL A   1      37.693  31.764  28.840  1.00  0.00    -0.205 F 
ATOM     62  C   UNL A   1      35.906  31.869  32.030  1.00  0.00     0.022 A 
BRANCH  60  63
ATOM     63  S   UNL A   1      35.007  33.015  29.715  1.00  0.00     0.127 S 
ATOM     64  O   UNL A   1      34.525  32.000  28.780  1.00  0.00    -0.237 OA
ATOM     65  O   UNL A   1      34.037  33.413  30.736  1.00  0.00    -0.237 OA
ATOM     66  O   UNL A   1      35.742  34.117  29.112  1.00  0.00    -0.744 OA
ENDBRANCH  60  63
ENDBRANCH  42  56
BRANCH  43  67
ATOM     67  C   UNL A   1      46.973  27.859  27.017  1.00  0.00     0.023 A 
ATOM     68  C   UNL A   1      47.952  27.159  27.739  1.00  0.00     0.012 A 
ATOM     69  C   UNL A   1      47.133  28.030  25.622  1.00  0.00     0.148 A 
ATOM     70  C   UNL A   1      49.074  26.645  27.089  1.00  0.00     0.002 A 
ATOM     71  C   UNL A   1      48.212  27.451  24.971  1.00  0.00     0.091 A 
ATOM     72  F   UNL A   1      46.187  28.704  24.950  1.00  0.00    -0.205 F 
ATOM     73  C   UNL A   1      49.195  26.775  25.706  1.00  0.00     0.022 A 
BRANCH  71  74
ATOM     74  S   UNL A   1      48.356  27.423  23.180  1.00  0.00     0.127 S 
ATOM     75  O   UNL A   1      48.290  25.991  22.899  1.00  0.00    -0.237 OA
ATOM     76  O   UNL A   1      47.176  28.186  22.771  1.00  0.00    -0.237 OA
ATOM     77  O   UNL A   1      49.624  28.070  22.872  1.00  0.00    -0.744 OA
ENDBRANCH  71  74
ENDBRANCH  43  67
BRANCH  55  78
ATOM     78  C   UNL A   1      44.733  33.941  29.550  1.00  0.00     0.023 A 
ATOM     79  C   UNL A   1      45.442  34.267  30.723  1.00  0.00     0.012 A 
ATOM     80  C   UNL A   1      44.651  34.881  28.505  1.00  0.00     0.148 A 
ATOM     81  C   UNL A   1      46.018  35.527  30.872  1.00  0.00     0.002 A 
ATOM     82  C   UNL A   1      45.281  36.109  28.634  1.00  0.00     0.091 A 
ATOM     83  F   UNL A   1      43.947  34.558  27.410  1.00  0.00    -0.205 F 
ATOM     84  C   UNL A   1      45.948  36.443  29.825  1.00  0.00     0.022 A 
BRANCH  82  85
ATOM     85  S   UNL A   1      45.327  37.310  27.302  1.00  0.00     0.127 S 
ATOM     86  O   UNL A   1      45.994  36.555  26.242  1.00  0.00    -0.237 OA
ATOM     87  O   UNL A   1      43.904  37.562  27.070  1.00  0.00    -0.237 OA
ATOM     88  O   UNL A   1      46.071  38.453  27.813  1.00  0.00    -0.744 OA
ENDBRANCH  82  85
ENDBRANCH  55  78
ENDBRANCH  29  30
ENDBRANCH  22  24
ENDBRANCH  21  22
ENDBRANCH  20  21
ENDBRANCH   1  20
TORSDOF 20
ENDMDL
MODEL 3
REMARK VINA RESULT:     -10.3      5.038     10.018
REMARK SMILES C#CCN(CC(=O)OCCOC(=O)c1ccc(-c2c3nc(c(-c4cccc(S(=O)(=O)[O-])c4F)c4ccc([nH]4)c(-c4cccc(S(=O)(=O)[O-])c4F)c4nc(c(-c5cccc(S(=O)(=O)[O-])c5F)c5ccc2[nH]5)C=C4)C=C3)cc1)C(=O)N1CCO[C@@H](C#N)C1
REMARK SMILES IDX 9 1 8 2 6 3 7 4 5 5 4 6 3 7 2 8 1 9 77 10 78 11 79 12 80 13
REMARK SMILES IDX 86 14 81 15 83 16 82 17 84 18 85 19 10 20 11 21 12 22 13 23
REMARK SMILES IDX 14 24 15 25 76 26 16 27 75 28 17 29 18 30 19 31 69 32 20 33
REMARK SMILES IDX 74 34 68 35 70 36 21 37 73 38 67 39 66 40 22 42 54 43 34 44
REMARK SMILES IDX 53 45 35 46 38 47 52 48 71 49 36 50 37 51 51 53 72 54 39 55
REMARK SMILES IDX 23 56 24 57 32 58 25 59 27 60 33 61 26 62 28 63 29 64 30 65
REMARK SMILES IDX 31 66 55 67 56 68 64 69 57 70 59 71 65 72 58 73 60 74 61 75
REMARK SMILES IDX 62 76 63 77 40 78 41 79 49 80 42 81 44 82 50 83 43 84 45 85
REMARK SMILES IDX 46 86 47 87 48 88
REMARK H PARENT 70 41 38 52
REMARK Flexibility Score: inf
ROOT
ATOM      1  C   UNL A   1      35.772  20.961  24.978  1.00  0.00     0.274 C 
ENDROOT
BRANCH   1   2
ATOM      2  O   UNL A   1      35.396  22.348  24.869  1.00  0.00    -0.461 OA
BRANCH   2   3
ATOM      3  C   UNL A   1      35.190  22.786  23.605  1.00  0.00     0.325 C 
ATOM      4  O   UNL A   1      36.076  23.110  22.820  1.00  0.00    -0.250 OA
BRANCH   3   5
ATOM      5  C   UNL A   1      33.736  22.695  23.149  1.00  0.00     0.245 C 
BRANCH   5   6
ATOM      6  N   UNL A   1      32.645  23.623  23.572  1.00  0.00    -0.302 N 
BRANCH   6   7
ATOM      7  C   UNL A   1      31.802  23.018  24.540  1.00  0.00     0.211 C 
BRANCH   7   8
ATOM      8  C   UNL A   1      32.294  22.842  25.967  1.00  0.00    -0.085 C 
ATOM      9  C   UNL A   1      32.716  22.691  27.192  1.00  0.00     0.006 C 
ENDBRANCH   7   8
ENDBRANCH   6   7
BRANCH   6  10
ATOM     10  C   UNL A   1      32.285  24.942  23.333  1.00  0.00     0.321 C 
ATOM     11  O   UNL A   1      31.161  25.234  22.910  1.00  0.00    -0.248 OA
BRANCH  10  12
ATOM     12  N   UNL A   1      33.120  25.955  23.685  1.00  0.00    -0.319 N 
ATOM     13  C   UNL A   1      32.985  27.303  23.094  1.00  0.00     0.150 C 
ATOM     14  C   UNL A   1      33.930  25.973  24.850  1.00  0.00     0.169 C 
ATOM     15  C   UNL A   1      32.667  28.377  24.179  1.00  0.00     0.183 C 
ATOM     16  C   UNL A   1      33.244  26.847  25.875  1.00  0.00     0.240 C 
ATOM     17  O   UNL A   1      33.373  28.197  25.417  1.00  0.00    -0.360 OA
BRANCH  16  18
ATOM     18  C   UNL A   1      31.878  26.507  26.305  1.00  0.00     0.096 C 
ATOM     19  N   UNL A   1      30.814  26.166  26.640  1.00  0.00    -0.195 NA
ENDBRANCH  16  18
ENDBRANCH  10  12
ENDBRANCH   6  10
ENDBRANCH   5   6
ENDBRANCH   3   5
ENDBRANCH   2   3
ENDBRANCH   1   2
BRANCH   1  20
ATOM     20  C   UNL A   1      37.302  20.845  24.953  1.00  0.00     0.275 C 
BRANCH  20  21
ATOM     21  O   UNL A   1      38.032  21.830  25.729  1.00  0.00    -0.458 OA
BRANCH  21  22
ATOM     22  C   UNL A   1      39.291  21.522  26.128  1.00  0.00     0.338 C 
ATOM     23  O   UNL A   1      39.789  20.410  26.117  1.00  0.00    -0.246 OA
BRANCH  22  24
ATOM     24  C   UNL A   1      39.896  22.696  26.815  1.00  0.00     0.060 A 
ATOM     25  C   UNL A   1      39.465  23.937  26.378  1.00  0.00     0.016 A 
ATOM     26  C   UNL A   1      40.944  22.638  27.751  1.00  0.00     0.016 A 
ATOM     27  C   UNL A   1      40.159  25.080  26.790  1.00  0.00     0.010 A 
ATOM     28  C   UNL A   1      41.528  23.828  28.273  1.00  0.00     0.010 A 
ATOM     29  C   UNL A   1      41.147  25.091  27.801  1.00  0.00    -0.014 A 
BRANCH  29  30
ATOM     30  C   UNL A   1      41.636  26.431  28.328  1.00  0.00     0.031 A 
ATOM     31  C   UNL A   1      40.774  27.466  29.050  1.00  0.00     0.074 A 
ATOM     32  C   UNL A   1      42.951  26.727  28.167  1.00  0.00     0.049 A 
ATOM     33  N   UNL A   1      41.083  28.701  29.388  1.00  0.00    -0.248 NA
ATOM     34  C   UNL A   1      39.413  27.088  29.457  1.00  0.00     0.031 C 
ATOM     35  C   UNL A   1      43.945  25.855  27.523  1.00  0.00     0.029 A 
ATOM     36  N   UNL A   1      43.704  27.822  28.528  1.00  0.00    -0.354 N 
ATOM     37  C   UNL A   1      39.951  29.257  29.988  1.00  0.00     0.074 A 
ATOM     38  C   UNL A   1      38.953  28.208  30.009  1.00  0.00     0.031 C 
ATOM     39  C   UNL A   1      45.165  26.367  27.651  1.00  0.00     0.029 A 
ATOM     40  C   UNL A   1      45.012  27.731  28.102  1.00  0.00     0.049 A 
ATOM     41  H   UNL A   1      43.346  28.588  29.034  1.00  0.00     0.167 HD
ATOM     42  C   UNL A   1      39.753  30.523  30.450  1.00  0.00     0.034 A 
ATOM     43  C   UNL A   1      45.975  28.648  27.914  1.00  0.00     0.034 A 
ATOM     44  C   UNL A   1      40.753  31.568  30.410  1.00  0.00     0.049 A 
ATOM     45  C   UNL A   1      45.687  30.060  28.271  1.00  0.00     0.074 A 
ATOM     46  C   UNL A   1      40.645  32.885  30.832  1.00  0.00     0.029 A 
ATOM     47  N   UNL A   1      42.033  31.428  29.895  1.00  0.00    -0.354 N 
ATOM     48  N   UNL A   1      44.604  30.560  28.809  1.00  0.00    -0.248 NA
ATOM     49  C   UNL A   1      46.750  31.031  28.006  1.00  0.00     0.031 C 
ATOM     50  C   UNL A   1      41.828  33.556  30.500  1.00  0.00     0.029 A 
ATOM     51  C   UNL A   1      42.705  32.641  29.944  1.00  0.00     0.049 A 
ATOM     52  H   UNL A   1      42.411  30.590  29.544  1.00  0.00     0.167 HD
ATOM     53  C   UNL A   1      44.866  31.907  28.982  1.00  0.00     0.074 A 
ATOM     54  C   UNL A   1      46.217  32.137  28.506  1.00  0.00     0.031 C 
ATOM     55  C   UNL A   1      44.054  32.864  29.489  1.00  0.00     0.034 A 
BRANCH  42  56
ATOM     56  C   UNL A   1      38.383  30.901  30.986  1.00  0.00     0.023 A 
ATOM     57  C   UNL A   1      38.055  30.702  32.342  1.00  0.00     0.012 A 
ATOM     58  C   UNL A   1      37.444  31.547  30.147  1.00  0.00     0.148 A 
ATOM     59  C   UNL A   1      36.808  31.098  32.841  1.00  0.00     0.002 A 
ATOM     60  C   UNL A   1      36.222  31.974  30.660  1.00  0.00     0.091 A 
ATOM     61  F   UNL A   1      37.767  31.738  28.860  1.00  0.00    -0.205 F 
ATOM     62  C   UNL A   1      35.897  31.738  32.004  1.00  0.00     0.022 A 
BRANCH  60  63
ATOM     63  S   UNL A   1      35.009  32.866  29.676  1.00  0.00     0.127 S 
ATOM     64  O   UNL A   1      35.836  33.901  29.059  1.00  0.00    -0.237 OA
ATOM     65  O   UNL A   1      34.539  31.831  28.754  1.00  0.00    -0.237 OA
ATOM     66  O   UNL A   1      34.004  33.349  30.612  1.00  0.00    -0.744 OA
ENDBRANCH  60  63
ENDBRANCH  42  56
BRANCH  43  67
ATOM     67  C   UNL A   1      47.250  28.241  27.253  1.00  0.00     0.023 A 
ATOM     68  C   UNL A   1      48.368  27.920  28.038  1.00  0.00     0.012 A 
ATOM     69  C   UNL A   1      47.320  28.078  25.850  1.00  0.00     0.148 A 
ATOM     70  C   UNL A   1      49.539  27.453  27.440  1.00  0.00     0.002 A 
ATOM     71  C   UNL A   1      48.460  27.541  25.270  1.00  0.00     0.091 A 
ATOM     72  F   UNL A   1      46.241  28.391  25.117  1.00  0.00    -0.205 F 
ATOM     73  C   UNL A   1      49.579  27.247  26.061  1.00  0.00     0.022 A 
BRANCH  71  74
ATOM     74  S   UNL A   1      48.536  27.085  23.533  1.00  0.00     0.127 S 
ATOM     75  O   UNL A   1      47.881  28.226  22.898  1.00  0.00    -0.237 OA
ATOM     76  O   UNL A   1      49.979  26.999  23.307  1.00  0.00    -0.237 OA
ATOM     77  O   UNL A   1      47.836  25.813  23.424  1.00  0.00    -0.744 OA
ENDBRANCH  71  74
ENDBRANCH  43  67
BRANCH  55  78
ATOM     78  C   UNL A   1      44.637  34.242  29.613  1.00  0.00     0.023 A 
ATOM     79  C   UNL A   1      45.236  34.660  30.819  1.00  0.00     0.012 A 
ATOM     80  C   UNL A   1      44.592  35.126  28.518  1.00  0.00     0.148 A 
ATOM     81  C   UNL A   1      45.738  35.953  30.946  1.00  0.00     0.002 A 
ATOM     82  C   UNL A   1      45.151  36.389  28.632  1.00  0.00     0.091 A 
ATOM     83  F   UNL A   1      43.992  34.717  27.391  1.00  0.00    -0.205 F 
ATOM     84  C   UNL A   1      45.707  36.813  29.850  1.00  0.00     0.022 A 
BRANCH  82  85
ATOM     85  S   UNL A   1      45.245  37.527  27.247  1.00  0.00     0.127 S 
ATOM     86  O   UNL A   1      45.980  38.648  27.831  1.00  0.00    -0.237 OA
ATOM     87  O   UNL A   1      45.999  36.748  26.264  1.00  0.00    -0.237 OA
ATOM     88  O   UNL A   1      43.869  37.816  26.867  1.00  0.00    -0.744 OA
ENDBRANCH  82  85
ENDBRANCH  55  78
ENDBRANCH  29  30
ENDBRANCH  22  24
ENDBRANCH  21  22
ENDBRANCH  20  21
ENDBRANCH   1  20
TORSDOF 20
ENDMDL
