MODEL 1
REMARK VINA RESULT:     -12.3      0.000      0.000
REMARK SMILES CCC[N@@H+]1CC2(CC[NH+](c3nccnc3C)CC2)C[C@H]1C(=O)OCCOC(=O)c1ccc(-c2c3nc(c(-c4cccc(S(=O)(=O)[O-])c4F)c4ccc([nH]4)c(-c4cccc(S(=O)(=O)[O-])c4F)c4nc(c(-c5cccc(S(=O)(=O)[O-])c5F)c5ccc2[nH]5)C=C4)C=C3)cc1
REMARK SMILES IDX 25 1 24 2 23 3 21 4 22 5 20 6 4 7 5 8 6 10 19 11 7 12 18 13
REMARK SMILES IDX 8 14 17 15 9 16 3 18 2 19 1 20 10 21 11 22 15 23 12 24 14 25
REMARK SMILES IDX 16 26 13 27 26 28 27 29 28 30 29 31 30 32 91 33 31 34 90 35
REMARK SMILES IDX 32 36 33 37 34 38 84 39 35 40 89 41 83 42 85 43 36 44 88 45
REMARK SMILES IDX 82 46 81 47 37 49 69 50 49 51 68 52 50 53 53 54 67 55 86 56
REMARK SMILES IDX 51 57 52 58 66 60 87 61 54 62 38 63 39 64 47 65 40 66 42 67
REMARK SMILES IDX 48 68 41 69 43 70 44 71 45 72 46 73 70 74 71 75 79 76 72 77
REMARK SMILES IDX 74 78 80 79 73 80 75 81 76 82 77 83 78 84 55 85 56 86 64 87
REMARK SMILES IDX 57 88 59 89 65 90 58 91 60 92 61 93 62 94 63 95
REMARK H PARENT 4 9 9 17 85 48 53 59
REMARK Flexibility Score: inf
ROOT
ATOM      1  C   UNL A   1      37.720  20.359  24.997  1.00  0.00     0.275 C 
ENDROOT
BRANCH   1   2
ATOM      2  C   UNL A   1      36.199  20.356  25.142  1.00  0.00     0.274 C 
BRANCH   2   3
ATOM      3  O   UNL A   1      35.766  21.369  26.069  1.00  0.00    -0.458 OA
BRANCH   3   4
ATOM      4  C   UNL A   1      35.140  22.442  25.521  1.00  0.00     0.365 C 
ATOM      5  O   UNL A   1      35.255  23.592  25.939  1.00  0.00    -0.245 OA
BRANCH   4   6
ATOM      6  C   UNL A   1      34.213  22.116  24.342  1.00  0.00     0.295 C 
ATOM      7  N   UNL A   1      32.889  21.532  24.698  1.00  0.00    -0.323 N 
ATOM      8  C   UNL A   1      32.043  22.694  24.975  1.00  0.00     0.270 C 
ATOM      9  H   UNL A   1      32.889  20.924  25.517  1.00  0.00     0.348 HD
ATOM     10  C   UNL A   1      32.531  23.846  24.074  1.00  0.00     0.036 C 
ATOM     11  C   UNL A   1      33.910  23.387  23.570  1.00  0.00     0.091 C 
ATOM     12  C   UNL A   1      32.673  25.156  24.892  1.00  0.00     0.075 C 
ATOM     13  C   UNL A   1      31.605  24.055  22.852  1.00  0.00     0.075 C 
ATOM     14  C   UNL A   1      31.331  25.840  25.162  1.00  0.00     0.269 C 
ATOM     15  C   UNL A   1      30.282  24.714  23.225  1.00  0.00     0.269 C 
ATOM     16  N   UNL A   1      30.618  25.951  23.902  1.00  0.00    -0.284 N 
ATOM     17  H   UNL A   1      30.676  26.862  24.272  1.00  0.00     0.355 HD
BRANCH   7  18
ATOM     18  C   UNL A   1      32.433  20.643  23.612  1.00  0.00     0.262 C 
BRANCH  18  19
ATOM     19  C   UNL A   1      32.556  19.125  23.830  1.00  0.00     0.058 C 
ATOM     20  C   UNL A   1      32.347  18.266  22.590  1.00  0.00     0.010 C 
ENDBRANCH  18  19
ENDBRANCH   7  18
BRANCH  16  21
ATOM     21  C   UNL A   1      29.929  27.086  23.546  1.00  0.00     0.247 A 
ATOM     22  N   UNL A   1      28.579  27.055  23.665  1.00  0.00    -0.202 NA
ATOM     23  C   UNL A   1      30.559  28.209  22.967  1.00  0.00     0.119 A 
ATOM     24  C   UNL A   1      27.900  28.136  23.231  1.00  0.00     0.137 A 
ATOM     25  N   UNL A   1      29.864  29.306  22.551  1.00  0.00    -0.252 NA
ATOM     26  C   UNL A   1      32.034  28.248  22.698  1.00  0.00     0.075 C 
ATOM     27  C   UNL A   1      28.527  29.238  22.688  1.00  0.00     0.132 A 
ENDBRANCH  16  21
ENDBRANCH   4   6
ENDBRANCH   3   4
ENDBRANCH   2   3
ENDBRANCH   1   2
BRANCH   1  28
ATOM     28  O   UNL A   1      38.303  21.454  25.723  1.00  0.00    -0.458 OA
BRANCH  28  29
ATOM     29  C   UNL A   1      39.523  21.214  26.254  1.00  0.00     0.338 C 
ATOM     30  O   UNL A   1      40.140  20.159  26.263  1.00  0.00    -0.246 OA
BRANCH  29  31
ATOM     31  C   UNL A   1      40.070  22.467  26.782  1.00  0.00     0.060 A 
ATOM     32  C   UNL A   1      39.699  23.667  26.176  1.00  0.00     0.016 A 
ATOM     33  C   UNL A   1      41.003  22.455  27.815  1.00  0.00     0.016 A 
ATOM     34  C   UNL A   1      40.267  24.868  26.580  1.00  0.00     0.010 A 
ATOM     35  C   UNL A   1      41.553  23.665  28.245  1.00  0.00     0.010 A 
ATOM     36  C   UNL A   1      41.196  24.877  27.623  1.00  0.00    -0.014 A 
BRANCH  36  37
ATOM     37  C   UNL A   1      41.819  26.149  28.053  1.00  0.00     0.031 A 
ATOM     38  C   UNL A   1      40.991  27.173  28.771  1.00  0.00     0.074 A 
ATOM     39  C   UNL A   1      43.115  26.385  27.773  1.00  0.00     0.049 A 
ATOM     40  N   UNL A   1      41.289  28.408  29.073  1.00  0.00    -0.248 NA
ATOM     41  C   UNL A   1      39.647  26.753  29.201  1.00  0.00     0.031 C 
ATOM     42  C   UNL A   1      44.023  25.442  27.116  1.00  0.00     0.029 A 
ATOM     43  N   UNL A   1      43.886  27.500  27.980  1.00  0.00    -0.354 N 
ATOM     44  C   UNL A   1      40.155  28.931  29.680  1.00  0.00     0.074 A 
ATOM     45  C   UNL A   1      39.164  27.877  29.713  1.00  0.00     0.031 C 
ATOM     46  C   UNL A   1      45.221  26.026  26.956  1.00  0.00     0.029 A 
ATOM     47  C   UNL A   1      45.147  27.399  27.442  1.00  0.00     0.049 A 
ATOM     48  H   UNL A   1      43.567  28.295  28.466  1.00  0.00     0.167 HD
ATOM     49  C   UNL A   1      39.963  30.178  30.171  1.00  0.00     0.034 A 
ATOM     50  C   UNL A   1      46.117  28.326  27.313  1.00  0.00     0.034 A 
ATOM     51  C   UNL A   1      40.972  31.203  30.170  1.00  0.00     0.049 A 
ATOM     52  C   UNL A   1      45.861  29.715  27.828  1.00  0.00     0.074 A 
ATOM     53  C   UNL A   1      40.893  32.489  30.671  1.00  0.00     0.029 A 
ATOM     54  N   UNL A   1      42.246  31.054  29.643  1.00  0.00    -0.354 N 
ATOM     55  N   UNL A   1      44.807  30.182  28.455  1.00  0.00    -0.248 NA
ATOM     56  C   UNL A   1      46.928  30.706  27.627  1.00  0.00     0.031 C 
ATOM     57  C   UNL A   1      42.116  33.124  30.435  1.00  0.00     0.029 A 
ATOM     58  C   UNL A   1      42.961  32.229  29.796  1.00  0.00     0.049 A 
ATOM     59  H   UNL A   1      42.590  30.234  29.220  1.00  0.00     0.167 HD
ATOM     60  C   UNL A   1      45.091  31.512  28.740  1.00  0.00     0.074 A 
ATOM     61  C   UNL A   1      46.427  31.770  28.241  1.00  0.00     0.031 C 
ATOM     62  C   UNL A   1      44.309  32.444  29.338  1.00  0.00     0.034 A 
BRANCH  49  63
ATOM     63  C   UNL A   1      38.623  30.496  30.775  1.00  0.00     0.023 A 
ATOM     64  C   UNL A   1      38.360  30.136  32.111  1.00  0.00     0.012 A 
ATOM     65  C   UNL A   1      37.646  31.197  30.041  1.00  0.00     0.148 A 
ATOM     66  C   UNL A   1      37.137  30.450  32.702  1.00  0.00     0.002 A 
ATOM     67  C   UNL A   1      36.442  31.537  30.647  1.00  0.00     0.091 A 
ATOM     68  F   UNL A   1      37.907  31.507  28.762  1.00  0.00    -0.205 F 
ATOM     69  C   UNL A   1      36.184  31.158  31.975  1.00  0.00     0.022 A 
BRANCH  67  70
ATOM     70  S   UNL A   1      35.178  32.503  29.815  1.00  0.00     0.127 S 
ATOM     71  O   UNL A   1      35.941  33.669  29.371  1.00  0.00    -0.237 OA
ATOM     72  O   UNL A   1      34.758  31.604  28.739  1.00  0.00    -0.237 OA
ATOM     73  O   UNL A   1      34.153  32.770  30.815  1.00  0.00    -0.744 OA
ENDBRANCH  67  70
ENDBRANCH  49  63
BRANCH  50  74
ATOM     74  C   UNL A   1      47.415  27.964  26.678  1.00  0.00     0.023 A 
ATOM     75  C   UNL A   1      48.519  27.649  27.493  1.00  0.00     0.012 A 
ATOM     76  C   UNL A   1      47.557  27.896  25.277  1.00  0.00     0.148 A 
ATOM     77  C   UNL A   1      49.744  27.293  26.927  1.00  0.00     0.002 A 
ATOM     78  C   UNL A   1      48.764  27.488  24.721  1.00  0.00     0.091 A 
ATOM     79  F   UNL A   1      46.506  28.227  24.514  1.00  0.00    -0.205 F 
ATOM     80  C   UNL A   1      49.862  27.200  25.543  1.00  0.00     0.022 A 
BRANCH  78  81
ATOM     81  S   UNL A   1      48.951  27.212  22.955  1.00  0.00     0.127 S 
ATOM     82  O   UNL A   1      50.403  27.157  22.813  1.00  0.00    -0.237 OA
ATOM     83  O   UNL A   1      48.265  25.933  22.766  1.00  0.00    -0.237 OA
ATOM     84  O   UNL A   1      48.287  28.341  22.317  1.00  0.00    -0.744 OA
ENDBRANCH  78  81
ENDBRANCH  50  74
BRANCH  62  85
ATOM     85  C   UNL A   1      44.880  33.826  29.502  1.00  0.00     0.023 A 
ATOM     86  C   UNL A   1      45.564  34.155  30.688  1.00  0.00     0.012 A 
ATOM     87  C   UNL A   1      44.816  34.763  28.453  1.00  0.00     0.148 A 
ATOM     88  C   UNL A   1      46.161  35.404  30.836  1.00  0.00     0.002 A 
ATOM     89  C   UNL A   1      45.450  35.992  28.591  1.00  0.00     0.091 A 
ATOM     90  F   UNL A   1      44.144  34.433  27.340  1.00  0.00    -0.205 F 
ATOM     91  C   UNL A   1      46.115  36.318  29.784  1.00  0.00     0.022 A 
BRANCH  89  92
ATOM     92  S   UNL A   1      45.519  37.195  27.259  1.00  0.00     0.127 S 
ATOM     93  O   UNL A   1      46.121  36.412  26.181  1.00  0.00    -0.237 OA
ATOM     94  O   UNL A   1      44.106  37.521  27.061  1.00  0.00    -0.237 OA
ATOM     95  O   UNL A   1      46.329  38.299  27.755  1.00  0.00    -0.744 OA
ENDBRANCH  89  92
ENDBRANCH  62  85
ENDBRANCH  36  37
ENDBRANCH  29  31
ENDBRANCH  28  29
ENDBRANCH   1  28
TORSDOF 17
ENDMDL
MODEL 2
REMARK VINA RESULT:     -12.3      5.095     10.420
REMARK SMILES CCC[N@@H+]1CC2(CC[NH+](c3nccnc3C)CC2)C[C@H]1C(=O)OCCOC(=O)c1ccc(-c2c3nc(c(-c4cccc(S(=O)(=O)[O-])c4F)c4ccc([nH]4)c(-c4cccc(S(=O)(=O)[O-])c4F)c4nc(c(-c5cccc(S(=O)(=O)[O-])c5F)c5ccc2[nH]5)C=C4)C=C3)cc1
REMARK SMILES IDX 25 1 24 2 23 3 21 4 22 5 20 6 4 7 5 8 6 10 19 11 7 12 18 13
REMARK SMILES IDX 8 14 17 15 9 16 3 18 2 19 1 20 10 21 11 22 15 23 12 24 14 25
REMARK SMILES IDX 16 26 13 27 26 28 27 29 28 30 29 31 30 32 91 33 31 34 90 35
REMARK SMILES IDX 32 36 33 37 34 38 84 39 35 40 89 41 83 42 85 43 36 44 88 45
REMARK SMILES IDX 82 46 81 47 37 49 69 50 49 51 68 52 50 53 53 54 67 55 86 56
REMARK SMILES IDX 51 57 52 58 66 60 87 61 54 62 38 63 39 64 47 65 40 66 42 67
REMARK SMILES IDX 48 68 41 69 43 70 44 71 45 72 46 73 70 74 71 75 79 76 72 77
REMARK SMILES IDX 74 78 80 79 73 80 75 81 76 82 77 83 78 84 55 85 56 86 64 87
REMARK SMILES IDX 57 88 59 89 65 90 58 91 60 92 61 93 62 94 63 95
REMARK H PARENT 4 9 9 17 85 48 53 59
REMARK Flexibility Score: inf
ROOT
ATOM      1  C   UNL A   1      31.754  31.373  26.510  1.00  0.00     0.275 C 
ENDROOT
BRANCH   1   2
ATOM      2  C   UNL A   1      31.524  30.327  25.421  1.00  0.00     0.274 C 
BRANCH   2   3
ATOM      3  O   UNL A   1      32.767  29.738  24.998  1.00  0.00    -0.458 OA
BRANCH   3   4
ATOM      4  C   UNL A   1      32.826  28.382  25.048  1.00  0.00     0.365 C 
ATOM      5  O   UNL A   1      33.868  27.744  25.181  1.00  0.00    -0.245 OA
BRANCH   4   6
ATOM      6  C   UNL A   1      31.477  27.671  24.875  1.00  0.00     0.295 C 
ATOM      7  N   UNL A   1      31.057  27.408  23.469  1.00  0.00    -0.323 N 
ATOM      8  C   UNL A   1      31.709  26.144  23.126  1.00  0.00     0.270 C 
ATOM      9  H   UNL A   1      31.339  28.117  22.792  1.00  0.00     0.348 HD
ATOM     10  C   UNL A   1      31.808  25.309  24.419  1.00  0.00     0.036 C 
ATOM     11  C   UNL A   1      31.530  26.313  25.551  1.00  0.00     0.091 C 
ATOM     12  C   UNL A   1      33.232  24.714  24.575  1.00  0.00     0.075 C 
ATOM     13  C   UNL A   1      30.735  24.197  24.473  1.00  0.00     0.075 C 
ATOM     14  C   UNL A   1      33.470  23.492  23.685  1.00  0.00     0.269 C 
ATOM     15  C   UNL A   1      31.043  23.039  23.530  1.00  0.00     0.269 C 
ATOM     16  N   UNL A   1      32.368  22.567  23.881  1.00  0.00    -0.284 N 
ATOM     17  H   UNL A   1      33.193  22.063  24.067  1.00  0.00     0.355 HD
BRANCH   7  18
ATOM     18  C   UNL A   1      29.584  27.421  23.383  1.00  0.00     0.262 C 
BRANCH  18  19
ATOM     19  C   UNL A   1      28.913  28.657  22.759  1.00  0.00     0.058 C 
ATOM     20  C   UNL A   1      27.439  28.840  23.092  1.00  0.00     0.010 C 
ENDBRANCH  18  19
ENDBRANCH   7  18
BRANCH  16  21
ATOM     21  C   UNL A   1      32.559  21.210  23.990  1.00  0.00     0.247 A 
ATOM     22  N   UNL A   1      32.224  20.449  22.920  1.00  0.00    -0.202 NA
ATOM     23  C   UNL A   1      32.973  20.594  25.190  1.00  0.00     0.119 A 
ATOM     24  C   UNL A   1      32.327  19.112  23.062  1.00  0.00     0.137 A 
ATOM     25  N   UNL A   1      33.096  19.242  25.317  1.00  0.00    -0.252 NA
ATOM     26  C   UNL A   1      33.239  21.378  26.442  1.00  0.00     0.075 C 
ATOM     27  C   UNL A   1      32.755  18.521  24.232  1.00  0.00     0.132 A 
ENDBRANCH  16  21
ENDBRANCH   4   6
ENDBRANCH   3   4
ENDBRANCH   2   3
ENDBRANCH   1   2
BRANCH   1  28
ATOM     28  O   UNL A   1      32.970  31.108  27.228  1.00  0.00    -0.458 OA
BRANCH  28  29
ATOM     29  C   UNL A   1      33.689  32.199  27.573  1.00  0.00     0.338 C 
ATOM     30  O   UNL A   1      33.347  33.370  27.514  1.00  0.00    -0.246 OA
BRANCH  29  31
ATOM     31  C   UNL A   1      34.977  31.768  28.125  1.00  0.00     0.060 A 
ATOM     32  C   UNL A   1      35.073  30.493  28.684  1.00  0.00     0.016 A 
ATOM     33  C   UNL A   1      36.061  32.641  28.166  1.00  0.00     0.016 A 
ATOM     34  C   UNL A   1      36.244  30.080  29.304  1.00  0.00     0.010 A 
ATOM     35  C   UNL A   1      37.251  32.216  28.761  1.00  0.00     0.010 A 
ATOM     36  C   UNL A   1      37.346  30.938  29.343  1.00  0.00    -0.014 A 
BRANCH  36  37
ATOM     37  C   UNL A   1      38.595  30.514  30.015  1.00  0.00     0.031 A 
ATOM     38  C   UNL A   1      39.494  29.518  29.345  1.00  0.00     0.074 A 
ATOM     39  C   UNL A   1      38.899  31.006  31.230  1.00  0.00     0.049 A 
ATOM     40  N   UNL A   1      40.530  28.886  29.829  1.00  0.00    -0.248 NA
ATOM     41  C   UNL A   1      39.183  29.182  27.945  1.00  0.00     0.031 C 
ATOM     42  C   UNL A   1      38.116  32.010  31.955  1.00  0.00     0.029 A 
ATOM     43  N   UNL A   1      39.931  30.709  32.084  1.00  0.00    -0.354 N 
ATOM     44  C   UNL A   1      40.963  28.041  28.816  1.00  0.00     0.074 A 
ATOM     45  C   UNL A   1      40.085  28.246  27.685  1.00  0.00     0.031 C 
ATOM     46  C   UNL A   1      38.686  32.230  33.151  1.00  0.00     0.029 A 
ATOM     47  C   UNL A   1      39.833  31.342  33.301  1.00  0.00     0.049 A 
ATOM     48  H   UNL A   1      40.669  30.102  31.848  1.00  0.00     0.167 HD
ATOM     49  C   UNL A   1      42.006  27.179  28.830  1.00  0.00     0.034 A 
ATOM     50  C   UNL A   1      40.558  31.187  34.425  1.00  0.00     0.034 A 
ATOM     51  C   UNL A   1      42.897  27.017  29.947  1.00  0.00     0.049 A 
ATOM     52  C   UNL A   1      41.683  30.189  34.426  1.00  0.00     0.074 A 
ATOM     53  C   UNL A   1      44.003  26.194  30.054  1.00  0.00     0.029 A 
ATOM     54  N   UNL A   1      42.783  27.696  31.151  1.00  0.00    -0.354 N 
ATOM     55  N   UNL A   1      42.123  29.439  33.443  1.00  0.00    -0.248 NA
ATOM     56  C   UNL A   1      42.420  30.020  35.687  1.00  0.00     0.031 C 
ATOM     57  C   UNL A   1      44.552  26.366  31.329  1.00  0.00     0.029 A 
ATOM     58  C   UNL A   1      43.792  27.304  32.012  1.00  0.00     0.049 A 
ATOM     59  H   UNL A   1      42.086  28.358  31.362  1.00  0.00     0.167 HD
ATOM     60  C   UNL A   1      43.196  28.724  33.960  1.00  0.00     0.074 A 
ATOM     61  C   UNL A   1      43.359  29.150  35.336  1.00  0.00     0.031 C 
ATOM     62  C   UNL A   1      43.965  27.782  33.360  1.00  0.00     0.034 A 
BRANCH  49  63
ATOM     63  C   UNL A   1      42.257  26.362  27.592  1.00  0.00     0.023 A 
ATOM     64  C   UNL A   1      42.908  26.952  26.491  1.00  0.00     0.012 A 
ATOM     65  C   UNL A   1      41.900  25.001  27.538  1.00  0.00     0.148 A 
ATOM     66  C   UNL A   1      43.181  26.206  25.346  1.00  0.00     0.002 A 
ATOM     67  C   UNL A   1      42.207  24.253  26.407  1.00  0.00     0.091 A 
ATOM     68  F   UNL A   1      41.259  24.465  28.588  1.00  0.00    -0.205 F 
ATOM     69  C   UNL A   1      42.841  24.857  25.307  1.00  0.00     0.022 A 
BRANCH  67  70
ATOM     70  S   UNL A   1      41.866  22.494  26.286  1.00  0.00     0.127 S 
ATOM     71  O   UNL A   1      42.522  22.152  25.025  1.00  0.00    -0.237 OA
ATOM     72  O   UNL A   1      42.530  21.968  27.480  1.00  0.00    -0.237 OA
ATOM     73  O   UNL A   1      40.416  22.364  26.293  1.00  0.00    -0.744 OA
ENDBRANCH  67  70
ENDBRANCH  49  63
BRANCH  50  74
ATOM     74  C   UNL A   1      40.245  32.000  35.634  1.00  0.00     0.023 A 
ATOM     75  C   UNL A   1      41.067  33.095  35.960  1.00  0.00     0.012 A 
ATOM     76  C   UNL A   1      39.124  31.719  36.441  1.00  0.00     0.148 A 
ATOM     77  C   UNL A   1      40.791  33.884  37.078  1.00  0.00     0.002 A 
ATOM     78  C   UNL A   1      38.824  32.542  37.521  1.00  0.00     0.091 A 
ATOM     79  F   UNL A   1      38.368  30.656  36.135  1.00  0.00    -0.205 F 
ATOM     80  C   UNL A   1      39.663  33.616  37.850  1.00  0.00     0.022 A 
BRANCH  78  81
ATOM     81  S   UNL A   1      37.316  32.341  38.477  1.00  0.00     0.127 S 
ATOM     82  O   UNL A   1      37.651  33.039  39.715  1.00  0.00    -0.237 OA
ATOM     83  O   UNL A   1      36.324  33.016  37.639  1.00  0.00    -0.237 OA
ATOM     84  O   UNL A   1      37.119  30.902  38.587  1.00  0.00    -0.744 OA
ENDBRANCH  78  81
ENDBRANCH  50  74
BRANCH  62  85
ATOM     85  C   UNL A   1      45.061  27.157  34.178  1.00  0.00     0.023 A 
ATOM     86  C   UNL A   1      46.352  27.717  34.146  1.00  0.00     0.012 A 
ATOM     87  C   UNL A   1      44.792  26.077  35.040  1.00  0.00     0.148 A 
ATOM     88  C   UNL A   1      47.367  27.199  34.947  1.00  0.00     0.002 A 
ATOM     89  C   UNL A   1      45.798  25.592  35.867  1.00  0.00     0.091 A 
ATOM     90  F   UNL A   1      43.559  25.549  35.039  1.00  0.00    -0.205 F 
ATOM     91  C   UNL A   1      47.087  26.145  35.816  1.00  0.00     0.022 A 
BRANCH  89  92
ATOM     92  S   UNL A   1      45.508  24.298  37.079  1.00  0.00     0.127 S 
ATOM     93  O   UNL A   1      45.156  23.164  36.226  1.00  0.00    -0.237 OA
ATOM     94  O   UNL A   1      46.813  24.188  37.733  1.00  0.00    -0.237 OA
ATOM     95  O   UNL A   1      44.440  24.786  37.941  1.00  0.00    -0.744 OA
ENDBRANCH  89  92
ENDBRANCH  62  85
ENDBRANCH  36  37
ENDBRANCH  29  31
ENDBRANCH  28  29
ENDBRANCH   1  28
TORSDOF 17
ENDMDL
MODEL 3
REMARK VINA RESULT:     -12.2      5.111     10.276
REMARK SMILES CCC[N@@H+]1CC2(CC[NH+](c3nccnc3C)CC2)C[C@H]1C(=O)OCCOC(=O)c1ccc(-c2c3nc(c(-c4cccc(S(=O)(=O)[O-])c4F)c4ccc([nH]4)c(-c4cccc(S(=O)(=O)[O-])c4F)c4nc(c(-c5cccc(S(=O)(=O)[O-])c5F)c5ccc2[nH]5)C=C4)C=C3)cc1
REMARK SMILES IDX 25 1 24 2 23 3 21 4 22 5 20 6 4 7 5 8 6 10 19 11 7 12 18 13
REMARK SMILES IDX 8 14 17 15 9 16 3 18 2 19 1 20 10 21 11 22 15 23 12 24 14 25
REMARK SMILES IDX 16 26 13 27 26 28 27 29 28 30 29 31 30 32 91 33 31 34 90 35
REMARK SMILES IDX 32 36 33 37 34 38 84 39 35 40 89 41 83 42 85 43 36 44 88 45
REMARK SMILES IDX 82 46 81 47 37 49 69 50 49 51 68 52 50 53 53 54 67 55 86 56
REMARK SMILES IDX 51 57 52 58 66 60 87 61 54 62 38 63 39 64 47 65 40 66 42 67
REMARK SMILES IDX 48 68 41 69 43 70 44 71 45 72 46 73 70 74 71 75 79 76 72 77
REMARK SMILES IDX 74 78 80 79 73 80 75 81 76 82 77 83 78 84 55 85 56 86 64 87
REMARK SMILES IDX 57 88 59 89 65 90 58 91 60 92 61 93 62 94 63 95
REMARK H PARENT 4 9 9 17 85 48 53 59
REMARK Flexibility Score: inf
ROOT
ATOM      1  C   UNL A   1      31.580  30.323  25.896  1.00  0.00     0.275 C 
ENDROOT
BRANCH   1   2
ATOM      2  C   UNL A   1      31.325  28.945  25.287  1.00  0.00     0.274 C 
BRANCH   2   3
ATOM      3  O   UNL A   1      31.654  27.898  26.219  1.00  0.00    -0.458 OA
BRANCH   3   4
ATOM      4  C   UNL A   1      31.322  26.639  25.834  1.00  0.00     0.365 C 
ATOM      5  O   UNL A   1      30.705  25.845  26.541  1.00  0.00    -0.245 OA
BRANCH   4   6
ATOM      6  C   UNL A   1      31.822  26.238  24.440  1.00  0.00     0.295 C 
ATOM      7  N   UNL A   1      33.258  26.521  24.157  1.00  0.00    -0.323 N 
ATOM      8  C   UNL A   1      33.967  25.356  24.689  1.00  0.00     0.270 C 
ATOM      9  H   UNL A   1      33.630  27.361  24.599  1.00  0.00     0.348 HD
ATOM     10  C   UNL A   1      33.035  24.137  24.538  1.00  0.00     0.036 C 
ATOM     11  C   UNL A   1      31.650  24.741  24.252  1.00  0.00     0.091 C 
ATOM     12  C   UNL A   1      32.995  23.315  25.853  1.00  0.00     0.075 C 
ATOM     13  C   UNL A   1      33.440  23.245  23.341  1.00  0.00     0.075 C 
ATOM     14  C   UNL A   1      34.231  22.435  26.045  1.00  0.00     0.269 C 
ATOM     15  C   UNL A   1      34.699  22.431  23.617  1.00  0.00     0.269 C 
ATOM     16  N   UNL A   1      34.441  21.675  24.826  1.00  0.00    -0.284 N 
ATOM     17  H   UNL A   1      34.382  21.019  25.558  1.00  0.00     0.355 HD
BRANCH   7  18
ATOM     18  C   UNL A   1      33.436  26.783  22.716  1.00  0.00     0.262 C 
BRANCH  18  19
ATOM     19  C   UNL A   1      32.225  26.559  21.793  1.00  0.00     0.058 C 
ATOM     20  C   UNL A   1      32.448  25.579  20.649  1.00  0.00     0.010 C 
ENDBRANCH  18  19
ENDBRANCH   7  18
BRANCH  16  21
ATOM     21  C   UNL A   1      34.790  20.346  24.840  1.00  0.00     0.247 A 
ATOM     22  N   UNL A   1      36.101  20.052  25.016  1.00  0.00    -0.202 NA
ATOM     23  C   UNL A   1      33.867  19.313  24.569  1.00  0.00     0.119 A 
ATOM     24  C   UNL A   1      36.454  18.752  24.939  1.00  0.00     0.137 A 
ATOM     25  N   UNL A   1      34.230  18.000  24.516  1.00  0.00    -0.252 NA
ATOM     26  C   UNL A   1      32.428  19.590  24.247  1.00  0.00     0.075 C 
ATOM     27  C   UNL A   1      35.540  17.748  24.697  1.00  0.00     0.132 A 
ENDBRANCH  16  21
ENDBRANCH   4   6
ENDBRANCH   3   4
ENDBRANCH   2   3
ENDBRANCH   1   2
BRANCH   1  28
ATOM     28  O   UNL A   1      32.982  30.522  26.146  1.00  0.00    -0.458 OA
BRANCH  28  29
ATOM     29  C   UNL A   1      33.281  31.523  27.004  1.00  0.00     0.338 C 
ATOM     30  O   UNL A   1      32.596  32.494  27.289  1.00  0.00    -0.246 OA
BRANCH  29  31
ATOM     31  C   UNL A   1      34.573  31.240  27.636  1.00  0.00     0.060 A 
ATOM     32  C   UNL A   1      34.853  29.932  28.031  1.00  0.00     0.016 A 
ATOM     33  C   UNL A   1      35.469  32.269  27.912  1.00  0.00     0.016 A 
ATOM     34  C   UNL A   1      36.021  29.636  28.719  1.00  0.00     0.010 A 
ATOM     35  C   UNL A   1      36.661  31.969  28.577  1.00  0.00     0.010 A 
ATOM     36  C   UNL A   1      36.938  30.654  28.994  1.00  0.00    -0.014 A 
BRANCH  36  37
ATOM     37  C   UNL A   1      38.181  30.353  29.741  1.00  0.00     0.031 A 
ATOM     38  C   UNL A   1      39.192  29.417  29.149  1.00  0.00     0.074 A 
ATOM     39  C   UNL A   1      38.379  30.902  30.954  1.00  0.00     0.049 A 
ATOM     40  N   UNL A   1      40.248  28.887  29.704  1.00  0.00    -0.248 NA
ATOM     41  C   UNL A   1      38.984  29.019  27.746  1.00  0.00     0.031 C 
ATOM     42  C   UNL A   1      37.480  31.857  31.606  1.00  0.00     0.029 A 
ATOM     43  N   UNL A   1      39.385  30.715  31.867  1.00  0.00    -0.354 N 
ATOM     44  C   UNL A   1      40.802  28.054  28.741  1.00  0.00     0.074 A 
ATOM     45  C   UNL A   1      39.971  28.154  27.562  1.00  0.00     0.031 C 
ATOM     46  C   UNL A   1      37.966  32.156  32.822  1.00  0.00     0.029 A 
ATOM     47  C   UNL A   1      39.172  31.370  33.057  1.00  0.00     0.049 A 
ATOM     48  H   UNL A   1      40.182  30.165  31.688  1.00  0.00     0.167 HD
ATOM     49  C   UNL A   1      41.910  27.281  28.835  1.00  0.00     0.034 A 
ATOM     50  C   UNL A   1      39.847  31.307  34.221  1.00  0.00     0.034 A 
ATOM     51  C   UNL A   1      42.751  27.225  30.000  1.00  0.00     0.049 A 
ATOM     52  C   UNL A   1      41.048  30.406  34.310  1.00  0.00     0.074 A 
ATOM     53  C   UNL A   1      43.913  26.499  30.189  1.00  0.00     0.029 A 
ATOM     54  N   UNL A   1      42.518  27.924  31.175  1.00  0.00    -0.354 N 
ATOM     55  N   UNL A   1      41.598  29.668  33.375  1.00  0.00    -0.248 NA
ATOM     56  C   UNL A   1      41.728  30.333  35.611  1.00  0.00     0.031 C 
ATOM     57  C   UNL A   1      44.378  26.751  31.483  1.00  0.00     0.029 A 
ATOM     58  C   UNL A   1      43.510  27.641  32.098  1.00  0.00     0.049 A 
ATOM     59  H   UNL A   1      41.759  28.532  31.330  1.00  0.00     0.167 HD
ATOM     60  C   UNL A   1      42.698  29.059  33.967  1.00  0.00     0.074 A 
ATOM     61  C   UNL A   1      42.752  29.535  35.335  1.00  0.00     0.031 C 
ATOM     62  C   UNL A   1      43.571  28.169  33.437  1.00  0.00     0.034 A 
BRANCH  49  63
ATOM     63  C   UNL A   1      42.292  26.455  27.638  1.00  0.00     0.023 A 
ATOM     64  C   UNL A   1      43.075  27.030  26.618  1.00  0.00     0.012 A 
ATOM     65  C   UNL A   1      41.923  25.098  27.547  1.00  0.00     0.148 A 
ATOM     66  C   UNL A   1      43.469  26.274  25.515  1.00  0.00     0.002 A 
ATOM     67  C   UNL A   1      42.349  24.341  26.462  1.00  0.00     0.091 A 
ATOM     68  F   UNL A   1      41.156  24.578  28.516  1.00  0.00    -0.205 F 
ATOM     69  C   UNL A   1      43.115  24.929  25.442  1.00  0.00     0.022 A 
BRANCH  67  70
ATOM     70  S   UNL A   1      41.999  22.586  26.309  1.00  0.00     0.127 S 
ATOM     71  O   UNL A   1      40.536  22.578  26.282  1.00  0.00    -0.237 OA
ATOM     72  O   UNL A   1      42.633  22.253  25.033  1.00  0.00    -0.237 OA
ATOM     73  O   UNL A   1      42.607  21.952  27.471  1.00  0.00    -0.744 OA
ENDBRANCH  67  70
ENDBRANCH  49  63
BRANCH  50  74
ATOM     74  C   UNL A   1      39.405  32.123  35.386  1.00  0.00     0.023 A 
ATOM     75  C   UNL A   1      38.557  31.546  36.351  1.00  0.00     0.012 A 
ATOM     76  C   UNL A   1      39.845  33.450  35.566  1.00  0.00     0.148 A 
ATOM     77  C   UNL A   1      38.138  32.282  37.461  1.00  0.00     0.002 A 
ATOM     78  C   UNL A   1      39.468  34.158  36.701  1.00  0.00     0.091 A 
ATOM     79  F   UNL A   1      40.628  33.995  34.625  1.00  0.00    -0.205 F 
ATOM     80  C   UNL A   1      38.603  33.581  37.643  1.00  0.00     0.022 A 
BRANCH  78  81
ATOM     81  S   UNL A   1      40.135  35.785  37.073  1.00  0.00     0.127 S 
ATOM     82  O   UNL A   1      41.563  35.503  37.190  1.00  0.00    -0.237 OA
ATOM     83  O   UNL A   1      39.755  36.555  35.888  1.00  0.00    -0.237 OA
ATOM     84  O   UNL A   1      39.463  36.206  38.295  1.00  0.00    -0.744 OA
ENDBRANCH  78  81
ENDBRANCH  50  74
BRANCH  62  85
ATOM     85  C   UNL A   1      44.670  27.659  34.328  1.00  0.00     0.023 A 
ATOM     86  C   UNL A   1      45.879  28.375  34.412  1.00  0.00     0.012 A 
ATOM     87  C   UNL A   1      44.472  26.529  35.144  1.00  0.00     0.148 A 
ATOM     88  C   UNL A   1      46.886  27.962  35.282  1.00  0.00     0.002 A 
ATOM     89  C   UNL A   1      45.463  26.147  36.040  1.00  0.00     0.091 A 
ATOM     90  F   UNL A   1      43.318  25.854  35.033  1.00  0.00    -0.205 F 
ATOM     91  C   UNL A   1      46.673  26.857  36.104  1.00  0.00     0.022 A 
BRANCH  89  92
ATOM     92  S   UNL A   1      45.244  24.792  37.199  1.00  0.00     0.127 S 
ATOM     93  O   UNL A   1      46.535  24.777  37.887  1.00  0.00    -0.237 OA
ATOM     94  O   UNL A   1      44.123  25.260  38.015  1.00  0.00    -0.237 OA
ATOM     95  O   UNL A   1      44.954  23.615  36.392  1.00  0.00    -0.744 OA
ENDBRANCH  89  92
ENDBRANCH  62  85
ENDBRANCH  36  37
ENDBRANCH  29  31
ENDBRANCH  28  29
ENDBRANCH   1  28
TORSDOF 17
ENDMDL
