MODEL 1
REMARK VINA RESULT:     -12.1      0.000      0.000
REMARK SMILES CC1(C)CCN(S(=O)(=O)c2ccc(O)c(C(=O)OCCOC(=O)c3ccc(-c4c5nc(c(-c6cccc(S(=O)(=O)[O-])c6F)c6ccc([nH]6)c(-c6cccc(S(=O)(=O)[O-])c6F)c6nc(c(-c7cccc(S(=O)(=O)[O-])c7F)c7ccc4[nH]7)C=C6)C=C5)cc3)c2)C1
REMARK SMILES IDX 20 1 19 2 18 3 16 4 17 5 15 6 10 7 11 8 87 9 12 10 13 11
REMARK SMILES IDX 7 12 8 13 9 14 6 15 1 16 2 17 3 18 4 19 88 20 5 21 14 22
REMARK SMILES IDX 21 24 22 25 23 26 24 27 25 28 86 29 26 30 85 31 27 32 28 33
REMARK SMILES IDX 29 34 79 35 30 36 84 37 78 38 80 39 31 40 83 41 77 42 76 43
REMARK SMILES IDX 32 45 64 46 44 47 63 48 45 49 48 50 62 51 81 52 46 53 47 54
REMARK SMILES IDX 61 56 82 57 49 58 33 59 34 60 42 61 35 62 37 63 43 64 36 65
REMARK SMILES IDX 38 66 39 67 40 68 41 69 65 70 66 71 74 72 67 73 69 74 75 75
REMARK SMILES IDX 68 76 70 77 71 78 72 79 73 80 50 81 51 82 59 83 52 84 54 85
REMARK SMILES IDX 60 86 53 87 55 88 56 89 57 90 58 91
REMARK H PARENT 14 23 80 44 48 55
REMARK Flexibility Score: inf
ROOT
ATOM      1  C   UNL A   1      36.492  20.248  24.954  1.00  0.00     0.275 C 
ENDROOT
BRANCH   1   2
ATOM      2  C   UNL A   1      35.030  20.644  25.142  1.00  0.00     0.275 C 
BRANCH   2   3
ATOM      3  O   UNL A   1      34.159  19.654  24.558  1.00  0.00    -0.458 OA
BRANCH   3   4
ATOM      4  C   UNL A   1      32.859  19.675  24.949  1.00  0.00     0.342 C 
ATOM      5  O   UNL A   1      32.295  18.856  25.655  1.00  0.00    -0.246 OA
BRANCH   4   6
ATOM      6  C   UNL A   1      32.212  20.933  24.512  1.00  0.00     0.103 A 
ATOM      7  C   UNL A   1      31.378  23.128  25.115  1.00  0.00     0.083 A 
ATOM      8  C   UNL A   1      31.143  23.416  23.769  1.00  0.00     0.025 A 
ATOM      9  C   UNL A   1      31.883  21.881  25.492  1.00  0.00     0.041 A 
ATOM     10  C   UNL A   1      31.392  22.442  22.798  1.00  0.00     0.048 A 
ATOM     11  C   UNL A   1      31.934  21.208  23.168  1.00  0.00     0.130 A 
BRANCH   7  12
ATOM     12  S   UNL A   1      31.212  24.413  26.341  1.00  0.00     0.243 S 
ATOM     13  O   UNL A   1      32.064  24.052  27.462  1.00  0.00    -0.207 OA
ATOM     14  O   UNL A   1      29.806  24.659  26.522  1.00  0.00    -0.207 OA
BRANCH  12  15
ATOM     15  N   UNL A   1      31.899  25.770  25.583  1.00  0.00    -0.197 NA
ATOM     16  C   UNL A   1      33.636  28.278  24.660  1.00  0.00     0.012 C 
ATOM     17  C   UNL A   1      33.104  27.815  26.025  1.00  0.00    -0.020 C 
ATOM     18  C   UNL A   1      33.900  28.502  27.138  1.00  0.00     0.012 C 
ATOM     19  C   UNL A   1      31.604  28.079  26.165  1.00  0.00     0.024 C 
ATOM     20  C   UNL A   1      33.169  26.288  26.160  1.00  0.00     0.109 C 
ATOM     21  C   UNL A   1      30.955  26.919  25.421  1.00  0.00     0.103 C 
ENDBRANCH  12  15
ENDBRANCH   7  12
BRANCH  11  22
ATOM     22  O   UNL A   1      32.160  20.264  22.206  1.00  0.00    -0.507 OA
ATOM     23  H   UNL A   1      31.440  19.805  21.821  1.00  0.00     0.293 HD
ENDBRANCH  11  22
ENDBRANCH   4   6
ENDBRANCH   3   4
ENDBRANCH   2   3
ENDBRANCH   1   2
BRANCH   1  24
ATOM     24  O   UNL A   1      37.336  21.359  25.296  1.00  0.00    -0.458 OA
BRANCH  24  25
ATOM     25  C   UNL A   1      38.569  21.039  25.748  1.00  0.00     0.338 C 
ATOM     26  O   UNL A   1      39.164  19.984  25.611  1.00  0.00    -0.246 OA
BRANCH  25  27
ATOM     27  C   UNL A   1      39.160  22.213  26.407  1.00  0.00     0.060 A 
ATOM     28  C   UNL A   1      38.646  23.468  26.099  1.00  0.00     0.016 A 
ATOM     29  C   UNL A   1      40.295  22.092  27.203  1.00  0.00     0.016 A 
ATOM     30  C   UNL A   1      39.333  24.615  26.485  1.00  0.00     0.010 A 
ATOM     31  C   UNL A   1      40.920  23.251  27.684  1.00  0.00     0.010 A 
ATOM     32  C   UNL A   1      40.478  24.529  27.291  1.00  0.00    -0.014 A 
BRANCH  32  33
ATOM     33  C   UNL A   1      41.229  25.762  27.682  1.00  0.00     0.031 A 
ATOM     34  C   UNL A   1      40.564  26.821  28.528  1.00  0.00     0.074 A 
ATOM     35  C   UNL A   1      42.503  25.950  27.279  1.00  0.00     0.049 A 
ATOM     36  N   UNL A   1      40.966  28.037  28.801  1.00  0.00    -0.248 NA
ATOM     37  C   UNL A   1      39.262  26.479  29.126  1.00  0.00     0.031 C 
ATOM     38  C   UNL A   1      43.287  25.011  26.475  1.00  0.00     0.029 A 
ATOM     39  N   UNL A   1      43.363  27.004  27.483  1.00  0.00    -0.354 N 
ATOM     40  C   UNL A   1      39.933  28.630  29.521  1.00  0.00     0.074 A 
ATOM     41  C   UNL A   1      38.890  27.638  29.652  1.00  0.00     0.031 C 
ATOM     42  C   UNL A   1      44.515  25.512  26.279  1.00  0.00     0.029 A 
ATOM     43  C   UNL A   1      44.582  26.847  26.861  1.00  0.00     0.049 A 
ATOM     44  H   UNL A   1      43.130  27.794  28.021  1.00  0.00     0.167 HD
ATOM     45  C   UNL A   1      39.864  29.883  30.034  1.00  0.00     0.034 A 
ATOM     46  C   UNL A   1      45.624  27.692  26.731  1.00  0.00     0.034 A 
ATOM     47  C   UNL A   1      40.944  30.835  29.993  1.00  0.00     0.049 A 
ATOM     48  C   UNL A   1      45.535  29.064  27.337  1.00  0.00     0.074 A 
ATOM     49  C   UNL A   1      40.988  32.109  30.532  1.00  0.00     0.029 A 
ATOM     50  N   UNL A   1      42.177  30.610  29.401  1.00  0.00    -0.354 N 
ATOM     51  N   UNL A   1      44.564  29.596  28.037  1.00  0.00    -0.248 NA
ATOM     52  C   UNL A   1      46.692  29.951  27.144  1.00  0.00     0.031 C 
ATOM     53  C   UNL A   1      42.244  32.659  30.256  1.00  0.00     0.029 A 
ATOM     54  C   UNL A   1      42.989  31.719  29.562  1.00  0.00     0.049 A 
ATOM     55  H   UNL A   1      42.437  29.782  28.934  1.00  0.00     0.167 HD
ATOM     56  C   UNL A   1      44.998  30.869  28.386  1.00  0.00     0.074 A 
ATOM     57  C   UNL A   1      46.333  31.019  27.844  1.00  0.00     0.031 C 
ATOM     58  C   UNL A   1      44.339  31.834  29.071  1.00  0.00     0.034 A 
BRANCH  45  59
ATOM     59  C   UNL A   1      38.583  30.301  30.711  1.00  0.00     0.023 A 
ATOM     60  C   UNL A   1      38.392  30.038  32.082  1.00  0.00     0.012 A 
ATOM     61  C   UNL A   1      37.597  31.018  30.003  1.00  0.00     0.148 A 
ATOM     62  C   UNL A   1      37.227  30.452  32.730  1.00  0.00     0.002 A 
ATOM     63  C   UNL A   1      36.459  31.467  30.665  1.00  0.00     0.091 A 
ATOM     64  F   UNL A   1      37.786  31.244  28.695  1.00  0.00    -0.205 F 
ATOM     65  C   UNL A   1      36.267  31.174  32.026  1.00  0.00     0.022 A 
BRANCH  63  66
ATOM     66  S   UNL A   1      35.209  32.477  29.863  1.00  0.00     0.127 S 
ATOM     67  O   UNL A   1      34.277  32.726  30.962  1.00  0.00    -0.237 OA
ATOM     68  O   UNL A   1      35.979  33.649  29.443  1.00  0.00    -0.237 OA
ATOM     69  O   UNL A   1      34.687  31.674  28.767  1.00  0.00    -0.744 OA
ENDBRANCH  63  66
ENDBRANCH  45  59
BRANCH  46  70
ATOM     70  C   UNL A   1      46.846  27.252  25.999  1.00  0.00     0.023 A 
ATOM     71  C   UNL A   1      46.976  27.546  24.627  1.00  0.00     0.012 A 
ATOM     72  C   UNL A   1      47.901  26.591  26.660  1.00  0.00     0.148 A 
ATOM     73  C   UNL A   1      48.124  27.176  23.926  1.00  0.00     0.002 A 
ATOM     74  C   UNL A   1      49.067  26.284  25.971  1.00  0.00     0.091 A 
ATOM     75  F   UNL A   1      47.750  26.293  27.958  1.00  0.00    -0.205 F 
ATOM     76  C   UNL A   1      49.175  26.560  24.600  1.00  0.00     0.022 A 
BRANCH  74  77
ATOM     77  S   UNL A   1      50.523  25.631  26.799  1.00  0.00     0.127 S 
ATOM     78  O   UNL A   1      50.854  26.714  27.721  1.00  0.00    -0.237 OA
ATOM     79  O   UNL A   1      49.996  24.421  27.434  1.00  0.00    -0.237 OA
ATOM     80  O   UNL A   1      51.492  25.376  25.742  1.00  0.00    -0.744 OA
ENDBRANCH  74  77
ENDBRANCH  46  70
BRANCH  58  81
ATOM     81  C   UNL A   1      45.062  33.133  29.314  1.00  0.00     0.023 A 
ATOM     82  C   UNL A   1      45.892  33.269  30.444  1.00  0.00     0.012 A 
ATOM     83  C   UNL A   1      44.974  34.190  28.387  1.00  0.00     0.148 A 
ATOM     84  C   UNL A   1      46.601  34.450  30.664  1.00  0.00     0.002 A 
ATOM     85  C   UNL A   1      45.717  35.346  28.589  1.00  0.00     0.091 A 
ATOM     86  F   UNL A   1      44.162  34.047  27.329  1.00  0.00    -0.205 F 
ATOM     87  C   UNL A   1      46.522  35.482  29.732  1.00  0.00     0.022 A 
BRANCH  85  88
ATOM     88  S   UNL A   1      45.746  36.691  27.398  1.00  0.00     0.127 S 
ATOM     89  O   UNL A   1      46.609  37.663  28.066  1.00  0.00    -0.237 OA
ATOM     90  O   UNL A   1      46.340  36.053  26.222  1.00  0.00    -0.237 OA
ATOM     91  O   UNL A   1      44.359  37.101  27.224  1.00  0.00    -0.744 OA
ENDBRANCH  85  88
ENDBRANCH  58  81
ENDBRANCH  32  33
ENDBRANCH  25  27
ENDBRANCH  24  25
ENDBRANCH   1  24
TORSDOF 17
ENDMDL
MODEL 2
REMARK VINA RESULT:     -12.0      1.956      7.953
REMARK SMILES CC1(C)CCN(S(=O)(=O)c2ccc(O)c(C(=O)OCCOC(=O)c3ccc(-c4c5nc(c(-c6cccc(S(=O)(=O)[O-])c6F)c6ccc([nH]6)c(-c6cccc(S(=O)(=O)[O-])c6F)c6nc(c(-c7cccc(S(=O)(=O)[O-])c7F)c7ccc4[nH]7)C=C6)C=C5)cc3)c2)C1
REMARK SMILES IDX 20 1 19 2 18 3 16 4 17 5 15 6 10 7 11 8 87 9 12 10 13 11
REMARK SMILES IDX 7 12 8 13 9 14 6 15 1 16 2 17 3 18 4 19 88 20 5 21 14 22
REMARK SMILES IDX 21 24 22 25 23 26 24 27 25 28 86 29 26 30 85 31 27 32 28 33
REMARK SMILES IDX 29 34 79 35 30 36 84 37 78 38 80 39 31 40 83 41 77 42 76 43
REMARK SMILES IDX 32 45 64 46 44 47 63 48 45 49 48 50 62 51 81 52 46 53 47 54
REMARK SMILES IDX 61 56 82 57 49 58 33 59 34 60 42 61 35 62 37 63 43 64 36 65
REMARK SMILES IDX 38 66 39 67 40 68 41 69 65 70 66 71 74 72 67 73 69 74 75 75
REMARK SMILES IDX 68 76 70 77 71 78 72 79 73 80 50 81 51 82 59 83 52 84 54 85
REMARK SMILES IDX 60 86 53 87 55 88 56 89 57 90 58 91
REMARK H PARENT 14 23 80 44 48 55
REMARK Flexibility Score: inf
ROOT
ATOM      1  C   UNL A   1      38.036  19.606  24.677  1.00  0.00     0.275 C 
ENDROOT
BRANCH   1   2
ATOM      2  C   UNL A   1      36.522  19.408  24.704  1.00  0.00     0.275 C 
BRANCH   2   3
ATOM      3  O   UNL A   1      35.873  20.547  25.304  1.00  0.00    -0.458 OA
BRANCH   3   4
ATOM      4  C   UNL A   1      34.692  20.936  24.761  1.00  0.00     0.342 C 
ATOM      5  O   UNL A   1      33.747  20.218  24.476  1.00  0.00    -0.246 OA
BRANCH   4   6
ATOM      6  C   UNL A   1      34.626  22.413  24.677  1.00  0.00     0.103 A 
ATOM      7  C   UNL A   1      33.988  24.369  23.395  1.00  0.00     0.083 A 
ATOM      8  C   UNL A   1      34.301  25.190  24.480  1.00  0.00     0.025 A 
ATOM      9  C   UNL A   1      34.176  22.987  23.479  1.00  0.00     0.041 A 
ATOM     10  C   UNL A   1      34.828  24.628  25.646  1.00  0.00     0.048 A 
ATOM     11  C   UNL A   1      34.980  23.243  25.747  1.00  0.00     0.130 A 
BRANCH   7  12
ATOM     12  S   UNL A   1      33.172  25.056  21.966  1.00  0.00     0.243 S 
ATOM     13  O   UNL A   1      33.067  23.995  20.977  1.00  0.00    -0.207 OA
ATOM     14  O   UNL A   1      33.821  26.303  21.655  1.00  0.00    -0.207 OA
BRANCH  12  15
ATOM     15  N   UNL A   1      31.606  25.395  22.532  1.00  0.00    -0.197 NA
ATOM     16  C   UNL A   1      28.983  26.479  23.981  1.00  0.00     0.012 C 
ATOM     17  C   UNL A   1      30.376  26.082  24.492  1.00  0.00    -0.020 C 
ATOM     18  C   UNL A   1      30.603  26.699  25.875  1.00  0.00     0.012 C 
ATOM     19  C   UNL A   1      30.555  24.564  24.521  1.00  0.00     0.024 C 
ATOM     20  C   UNL A   1      31.473  26.509  23.508  1.00  0.00     0.109 C 
ATOM     21  C   UNL A   1      30.885  24.204  23.079  1.00  0.00     0.103 C 
ENDBRANCH  12  15
ENDBRANCH   7  12
BRANCH  11  22
ATOM     22  O   UNL A   1      35.508  22.712  26.891  1.00  0.00    -0.507 OA
ATOM     23  H   UNL A   1      35.404  21.799  27.075  1.00  0.00     0.293 HD
ENDBRANCH  11  22
ENDBRANCH   4   6
ENDBRANCH   3   4
ENDBRANCH   2   3
ENDBRANCH   1   2
BRANCH   1  24
ATOM     24  O   UNL A   1      38.392  20.697  25.540  1.00  0.00    -0.458 OA
BRANCH  24  25
ATOM     25  C   UNL A   1      39.586  20.583  26.163  1.00  0.00     0.338 C 
ATOM     26  O   UNL A   1      40.292  19.593  26.248  1.00  0.00    -0.246 OA
BRANCH  25  27
ATOM     27  C   UNL A   1      39.977  21.895  26.697  1.00  0.00     0.060 A 
ATOM     28  C   UNL A   1      39.207  23.001  26.354  1.00  0.00     0.016 A 
ATOM     29  C   UNL A   1      41.164  22.057  27.405  1.00  0.00     0.016 A 
ATOM     30  C   UNL A   1      39.679  24.285  26.610  1.00  0.00     0.010 A 
ATOM     31  C   UNL A   1      41.579  23.347  27.761  1.00  0.00     0.010 A 
ATOM     32  C   UNL A   1      40.870  24.482  27.325  1.00  0.00    -0.014 A 
BRANCH  32  33
ATOM     33  C   UNL A   1      41.388  25.863  27.577  1.00  0.00     0.031 A 
ATOM     34  C   UNL A   1      42.754  26.265  27.075  1.00  0.00     0.074 A 
ATOM     35  C   UNL A   1      40.650  26.762  28.260  1.00  0.00     0.049 A 
ATOM     36  N   UNL A   1      43.461  27.330  27.360  1.00  0.00    -0.248 NA
ATOM     37  C   UNL A   1      43.428  25.336  26.153  1.00  0.00     0.031 C 
ATOM     38  C   UNL A   1      39.306  26.530  28.792  1.00  0.00     0.029 A 
ATOM     39  N   UNL A   1      40.932  28.055  28.637  1.00  0.00    -0.354 N 
ATOM     40  C   UNL A   1      44.689  27.156  26.728  1.00  0.00     0.074 A 
ATOM     41  C   UNL A   1      44.627  25.888  26.036  1.00  0.00     0.031 C 
ATOM     42  C   UNL A   1      38.869  27.644  29.396  1.00  0.00     0.029 A 
ATOM     43  C   UNL A   1      39.932  28.642  29.379  1.00  0.00     0.049 A 
ATOM     44  H   UNL A   1      41.768  28.516  28.399  1.00  0.00     0.167 HD
ATOM     45  C   UNL A   1      45.764  27.981  26.717  1.00  0.00     0.034 A 
ATOM     46  C   UNL A   1      39.884  29.829  30.016  1.00  0.00     0.034 A 
ATOM     47  C   UNL A   1      45.787  29.289  27.319  1.00  0.00     0.049 A 
ATOM     48  C   UNL A   1      41.077  30.740  29.961  1.00  0.00     0.074 A 
ATOM     49  C   UNL A   1      46.812  30.220  27.315  1.00  0.00     0.029 A 
ATOM     50  N   UNL A   1      44.732  29.861  28.013  1.00  0.00    -0.354 N 
ATOM     51  N   UNL A   1      42.216  30.571  29.336  1.00  0.00    -0.248 NA
ATOM     52  C   UNL A   1      40.977  32.012  30.693  1.00  0.00     0.031 C 
ATOM     53  C   UNL A   1      46.379  31.350  28.015  1.00  0.00     0.029 A 
ATOM     54  C   UNL A   1      45.079  31.132  28.439  1.00  0.00     0.049 A 
ATOM     55  H   UNL A   1      43.863  29.427  28.178  1.00  0.00     0.167 HD
ATOM     56  C   UNL A   1      42.959  31.719  29.579  1.00  0.00     0.074 A 
ATOM     57  C   UNL A   1      42.130  32.591  30.386  1.00  0.00     0.031 C 
ATOM     58  C   UNL A   1      44.223  32.014  29.190  1.00  0.00     0.034 A 
BRANCH  45  59
ATOM     59  C   UNL A   1      47.010  27.510  26.009  1.00  0.00     0.023 A 
ATOM     60  C   UNL A   1      47.955  26.721  26.693  1.00  0.00     0.012 A 
ATOM     61  C   UNL A   1      47.209  27.793  24.641  1.00  0.00     0.148 A 
ATOM     62  C   UNL A   1      49.094  26.248  26.039  1.00  0.00     0.002 A 
ATOM     63  C   UNL A   1      48.322  27.280  23.985  1.00  0.00     0.091 A 
ATOM     64  F   UNL A   1      46.309  28.559  24.009  1.00  0.00    -0.205 F 
ATOM     65  C   UNL A   1      49.272  26.518  24.685  1.00  0.00     0.022 A 
BRANCH  63  66
ATOM     66  S   UNL A   1      48.593  27.503  22.222  1.00  0.00     0.127 S 
ATOM     67  O   UNL A   1      49.845  28.258  22.207  1.00  0.00    -0.237 OA
ATOM     68  O   UNL A   1      48.709  26.123  21.749  1.00  0.00    -0.237 OA
ATOM     69  O   UNL A   1      47.425  28.215  21.724  1.00  0.00    -0.744 OA
ENDBRANCH  63  66
ENDBRANCH  45  59
BRANCH  46  70
ATOM     70  C   UNL A   1      38.649  30.223  30.754  1.00  0.00     0.023 A 
ATOM     71  C   UNL A   1      38.524  29.900  32.120  1.00  0.00     0.012 A 
ATOM     72  C   UNL A   1      37.622  30.958  30.128  1.00  0.00     0.148 A 
ATOM     73  C   UNL A   1      37.395  30.286  32.842  1.00  0.00     0.002 A 
ATOM     74  C   UNL A   1      36.531  31.395  30.870  1.00  0.00     0.091 A 
ATOM     75  F   UNL A   1      37.742  31.233  28.822  1.00  0.00    -0.205 F 
ATOM     76  C   UNL A   1      36.407  31.046  32.222  1.00  0.00     0.022 A 
BRANCH  74  77
ATOM     77  S   UNL A   1      35.295  32.506  30.186  1.00  0.00     0.127 S 
ATOM     78  O   UNL A   1      34.767  31.720  29.075  1.00  0.00    -0.237 OA
ATOM     79  O   UNL A   1      34.377  32.673  31.315  1.00  0.00    -0.237 OA
ATOM     80  O   UNL A   1      36.018  33.718  29.822  1.00  0.00    -0.744 OA
ENDBRANCH  74  77
ENDBRANCH  46  70
BRANCH  58  81
ATOM     81  C   UNL A   1      44.782  33.352  29.595  1.00  0.00     0.023 A 
ATOM     82  C   UNL A   1      45.513  33.468  30.794  1.00  0.00     0.012 A 
ATOM     83  C   UNL A   1      44.643  34.475  28.756  1.00  0.00     0.148 A 
ATOM     84  C   UNL A   1      46.072  34.691  31.166  1.00  0.00     0.002 A 
ATOM     85  C   UNL A   1      45.240  35.678  29.112  1.00  0.00     0.091 A 
ATOM     86  F   UNL A   1      43.926  34.348  27.630  1.00  0.00    -0.205 F 
ATOM     87  C   UNL A   1      45.946  35.791  30.321  1.00  0.00     0.022 A 
BRANCH  85  88
ATOM     88  S   UNL A   1      45.204  37.122  28.044  1.00  0.00     0.127 S 
ATOM     89  O   UNL A   1      45.727  36.580  26.792  1.00  0.00    -0.237 OA
ATOM     90  O   UNL A   1      43.778  37.454  28.016  1.00  0.00    -0.237 OA
ATOM     91  O   UNL A   1      46.042  38.121  28.692  1.00  0.00    -0.744 OA
ENDBRANCH  85  88
ENDBRANCH  58  81
ENDBRANCH  32  33
ENDBRANCH  25  27
ENDBRANCH  24  25
ENDBRANCH   1  24
TORSDOF 17
ENDMDL
MODEL 3
REMARK VINA RESULT:     -12.0      1.704      2.219
REMARK SMILES CC1(C)CCN(S(=O)(=O)c2ccc(O)c(C(=O)OCCOC(=O)c3ccc(-c4c5nc(c(-c6cccc(S(=O)(=O)[O-])c6F)c6ccc([nH]6)c(-c6cccc(S(=O)(=O)[O-])c6F)c6nc(c(-c7cccc(S(=O)(=O)[O-])c7F)c7ccc4[nH]7)C=C6)C=C5)cc3)c2)C1
REMARK SMILES IDX 20 1 19 2 18 3 16 4 17 5 15 6 10 7 11 8 87 9 12 10 13 11
REMARK SMILES IDX 7 12 8 13 9 14 6 15 1 16 2 17 3 18 4 19 88 20 5 21 14 22
REMARK SMILES IDX 21 24 22 25 23 26 24 27 25 28 86 29 26 30 85 31 27 32 28 33
REMARK SMILES IDX 29 34 79 35 30 36 84 37 78 38 80 39 31 40 83 41 77 42 76 43
REMARK SMILES IDX 32 45 64 46 44 47 63 48 45 49 48 50 62 51 81 52 46 53 47 54
REMARK SMILES IDX 61 56 82 57 49 58 33 59 34 60 42 61 35 62 37 63 43 64 36 65
REMARK SMILES IDX 38 66 39 67 40 68 41 69 65 70 66 71 74 72 67 73 69 74 75 75
REMARK SMILES IDX 68 76 70 77 71 78 72 79 73 80 50 81 51 82 59 83 52 84 54 85
REMARK SMILES IDX 60 86 53 87 55 88 56 89 57 90 58 91
REMARK H PARENT 14 23 80 44 48 55
REMARK Flexibility Score: inf
ROOT
ATOM      1  C   UNL A   1      36.419  20.554  25.009  1.00  0.00     0.275 C 
ENDROOT
BRANCH   1   2
ATOM      2  C   UNL A   1      35.047  21.148  25.320  1.00  0.00     0.275 C 
BRANCH   2   3
ATOM      3  O   UNL A   1      34.726  22.198  24.385  1.00  0.00    -0.458 OA
BRANCH   3   4
ATOM      4  C   UNL A   1      33.443  22.258  23.949  1.00  0.00     0.342 C 
ATOM      5  O   UNL A   1      32.995  21.766  22.927  1.00  0.00    -0.246 OA
BRANCH   4   6
ATOM      6  C   UNL A   1      32.583  22.901  24.969  1.00  0.00     0.103 A 
ATOM      7  C   UNL A   1      31.925  24.936  26.110  1.00  0.00     0.083 A 
ATOM      8  C   UNL A   1      30.895  24.248  26.755  1.00  0.00     0.025 A 
ATOM      9  C   UNL A   1      32.787  24.261  25.242  1.00  0.00     0.041 A 
ATOM     10  C   UNL A   1      30.742  22.875  26.548  1.00  0.00     0.048 A 
ATOM     11  C   UNL A   1      31.577  22.206  25.650  1.00  0.00     0.130 A 
BRANCH   7  12
ATOM     12  S   UNL A   1      32.031  26.711  26.246  1.00  0.00     0.243 S 
ATOM     13  O   UNL A   1      33.422  27.041  26.507  1.00  0.00    -0.207 OA
ATOM     14  O   UNL A   1      30.983  27.140  27.135  1.00  0.00    -0.207 OA
BRANCH  12  15
ATOM     15  N   UNL A   1      31.655  27.249  24.678  1.00  0.00    -0.197 NA
ATOM     16  C   UNL A   1      30.908  28.859  22.032  1.00  0.00     0.012 C 
ATOM     17  C   UNL A   1      30.355  28.881  23.464  1.00  0.00    -0.020 C 
ATOM     18  C   UNL A   1      29.584  30.185  23.691  1.00  0.00     0.012 C 
ATOM     19  C   UNL A   1      29.482  27.658  23.751  1.00  0.00     0.024 C 
ATOM     20  C   UNL A   1      31.477  28.714  24.498  1.00  0.00     0.109 C 
ATOM     21  C   UNL A   1      30.484  26.554  24.061  1.00  0.00     0.103 C 
ENDBRANCH  12  15
ENDBRANCH   7  12
BRANCH  11  22
ATOM     22  O   UNL A   1      31.420  20.860  25.469  1.00  0.00    -0.507 OA
ATOM     23  H   UNL A   1      30.570  20.473  25.544  1.00  0.00     0.293 HD
ENDBRANCH  11  22
ENDBRANCH   4   6
ENDBRANCH   3   4
ENDBRANCH   2   3
ENDBRANCH   1   2
BRANCH   1  24
ATOM     24  O   UNL A   1      37.422  21.575  25.135  1.00  0.00    -0.458 OA
BRANCH  24  25
ATOM     25  C   UNL A   1      38.574  21.191  25.728  1.00  0.00     0.338 C 
ATOM     26  O   UNL A   1      39.100  20.091  25.697  1.00  0.00    -0.246 OA
BRANCH  25  27
ATOM     27  C   UNL A   1      39.181  22.351  26.397  1.00  0.00     0.060 A 
ATOM     28  C   UNL A   1      38.661  23.612  26.127  1.00  0.00     0.016 A 
ATOM     29  C   UNL A   1      40.335  22.214  27.162  1.00  0.00     0.016 A 
ATOM     30  C   UNL A   1      39.357  24.751  26.521  1.00  0.00     0.010 A 
ATOM     31  C   UNL A   1      40.971  23.362  27.653  1.00  0.00     0.010 A 
ATOM     32  C   UNL A   1      40.521  24.648  27.297  1.00  0.00    -0.014 A 
BRANCH  32  33
ATOM     33  C   UNL A   1      41.281  25.873  27.696  1.00  0.00     0.031 A 
ATOM     34  C   UNL A   1      40.627  26.928  28.555  1.00  0.00     0.074 A 
ATOM     35  C   UNL A   1      42.554  26.057  27.289  1.00  0.00     0.049 A 
ATOM     36  N   UNL A   1      41.038  28.140  28.837  1.00  0.00    -0.248 NA
ATOM     37  C   UNL A   1      39.326  26.589  29.155  1.00  0.00     0.031 C 
ATOM     38  C   UNL A   1      43.329  25.120  26.472  1.00  0.00     0.029 A 
ATOM     39  N   UNL A   1      43.422  27.104  27.497  1.00  0.00    -0.354 N 
ATOM     40  C   UNL A   1      40.012  28.732  29.567  1.00  0.00     0.074 A 
ATOM     41  C   UNL A   1      38.964  27.745  29.694  1.00  0.00     0.031 C 
ATOM     42  C   UNL A   1      44.559  25.616  26.275  1.00  0.00     0.029 A 
ATOM     43  C   UNL A   1      44.637  26.945  26.869  1.00  0.00     0.049 A 
ATOM     44  H   UNL A   1      43.197  27.890  28.044  1.00  0.00     0.167 HD
ATOM     45  C   UNL A   1      39.953  29.981  30.092  1.00  0.00     0.034 A 
ATOM     46  C   UNL A   1      45.683  27.785  26.741  1.00  0.00     0.034 A 
ATOM     47  C   UNL A   1      41.039  30.926  30.055  1.00  0.00     0.049 A 
ATOM     48  C   UNL A   1      45.607  29.151  27.360  1.00  0.00     0.074 A 
ATOM     49  C   UNL A   1      41.093  32.195  30.605  1.00  0.00     0.029 A 
ATOM     50  N   UNL A   1      42.268  30.699  29.454  1.00  0.00    -0.354 N 
ATOM     51  N   UNL A   1      44.641  29.683  28.070  1.00  0.00    -0.248 NA
ATOM     52  C   UNL A   1      46.767  30.034  27.170  1.00  0.00     0.031 C 
ATOM     53  C   UNL A   1      42.352  32.739  30.327  1.00  0.00     0.029 A 
ATOM     54  C   UNL A   1      43.088  31.802  29.622  1.00  0.00     0.049 A 
ATOM     55  H   UNL A   1      42.520  29.874  28.979  1.00  0.00     0.167 HD
ATOM     56  C   UNL A   1      45.085  30.950  28.428  1.00  0.00     0.074 A 
ATOM     57  C   UNL A   1      46.418  31.097  27.881  1.00  0.00     0.031 C 
ATOM     58  C   UNL A   1      44.436  31.913  29.125  1.00  0.00     0.034 A 
BRANCH  45  59
ATOM     59  C   UNL A   1      38.679  30.400  30.779  1.00  0.00     0.023 A 
ATOM     60  C   UNL A   1      38.511  30.168  32.159  1.00  0.00     0.012 A 
ATOM     61  C   UNL A   1      37.673  31.090  30.070  1.00  0.00     0.148 A 
ATOM     62  C   UNL A   1      37.352  30.583  32.815  1.00  0.00     0.002 A 
ATOM     63  C   UNL A   1      36.541  31.541  30.740  1.00  0.00     0.091 A 
ATOM     64  F   UNL A   1      37.840  31.288  28.755  1.00  0.00    -0.205 F 
ATOM     65  C   UNL A   1      36.373  31.278  32.109  1.00  0.00     0.022 A 
BRANCH  63  66
ATOM     66  S   UNL A   1      35.267  32.519  29.933  1.00  0.00     0.127 S 
ATOM     67  O   UNL A   1      34.797  31.600  28.898  1.00  0.00    -0.237 OA
ATOM     68  O   UNL A   1      34.315  32.747  31.022  1.00  0.00    -0.237 OA
ATOM     69  O   UNL A   1      35.930  33.722  29.451  1.00  0.00    -0.744 OA
ENDBRANCH  63  66
ENDBRANCH  45  59
BRANCH  46  70
ATOM     70  C   UNL A   1      46.900  27.344  25.999  1.00  0.00     0.023 A 
ATOM     71  C   UNL A   1      47.813  26.470  26.622  1.00  0.00     0.012 A 
ATOM     72  C   UNL A   1      47.132  27.741  24.666  1.00  0.00     0.148 A 
ATOM     73  C   UNL A   1      48.941  26.015  25.938  1.00  0.00     0.002 A 
ATOM     74  C   UNL A   1      48.222  27.232  23.972  1.00  0.00     0.091 A 
ATOM     75  F   UNL A   1      46.269  28.594  24.098  1.00  0.00    -0.205 F 
ATOM     76  C   UNL A   1      49.137  26.382  24.610  1.00  0.00     0.022 A 
BRANCH  74  77
ATOM     77  S   UNL A   1      48.460  27.532  22.215  1.00  0.00     0.127 S 
ATOM     78  O   UNL A   1      49.622  28.417  22.218  1.00  0.00    -0.237 OA
ATOM     79  O   UNL A   1      48.714  26.183  21.707  1.00  0.00    -0.237 OA
ATOM     80  O   UNL A   1      47.212  28.121  21.748  1.00  0.00    -0.744 OA
ENDBRANCH  74  77
ENDBRANCH  46  70
BRANCH  58  81
ATOM     81  C   UNL A   1      45.168  33.205  29.376  1.00  0.00     0.023 A 
ATOM     82  C   UNL A   1      45.966  33.342  30.529  1.00  0.00     0.012 A 
ATOM     83  C   UNL A   1      45.121  34.253  28.437  1.00  0.00     0.148 A 
ATOM     84  C   UNL A   1      46.683  34.517  30.758  1.00  0.00     0.002 A 
ATOM     85  C   UNL A   1      45.872  35.403  28.649  1.00  0.00     0.091 A 
ATOM     86  F   UNL A   1      44.339  34.110  27.356  1.00  0.00    -0.205 F 
ATOM     87  C   UNL A   1      46.645  35.540  29.814  1.00  0.00     0.022 A 
BRANCH  85  88
ATOM     88  S   UNL A   1      45.954  36.734  27.446  1.00  0.00     0.127 S 
ATOM     89  O   UNL A   1      46.426  36.032  26.255  1.00  0.00    -0.237 OA
ATOM     90  O   UNL A   1      44.561  37.180  27.380  1.00  0.00    -0.237 OA
ATOM     91  O   UNL A   1      46.875  37.718  28.000  1.00  0.00    -0.744 OA
ENDBRANCH  85  88
ENDBRANCH  58  81
ENDBRANCH  32  33
ENDBRANCH  25  27
ENDBRANCH  24  25
ENDBRANCH   1  24
TORSDOF 17
ENDMDL
