MODEL 1
REMARK VINA RESULT:     -12.1      0.000      0.000
REMARK SMILES Cc1ccc(Cl)c(Nc2ccccc2C(=O)N[C@@H](C)C(=O)OCCOC(=O)c2ccc(-c3c4nc(c(-c5cccc(S(=O)(=O)[O-])c5F)c5ccc([nH]5)c(-c5cccc(S(=O)(=O)[O-])c5F)c5nc(c(-c6cccc(S(=O)(=O)[O-])c6F)c6ccc3[nH]6)C=C5)C=C4)cc2)c1Cl
REMARK SMILES IDX 23 1 22 2 20 3 21 4 18 5 19 6 17 7 15 8 16 9 14 11 9 12
REMARK SMILES IDX 10 13 11 14 13 15 12 16 8 17 7 19 1 20 2 21 3 22 91 23 4 24
REMARK SMILES IDX 92 25 5 26 6 27 24 28 25 29 26 30 27 31 28 32 29 33 90 34
REMARK SMILES IDX 30 35 89 36 31 37 32 38 33 39 83 40 34 41 88 42 82 43 84 44
REMARK SMILES IDX 35 45 87 46 81 47 80 48 36 50 68 51 48 52 67 53 49 54 52 55
REMARK SMILES IDX 66 56 85 57 50 58 51 59 65 61 86 62 53 63 37 64 38 65 46 66
REMARK SMILES IDX 39 67 41 68 47 69 40 70 42 71 43 72 44 73 45 74 69 75 70 76
REMARK SMILES IDX 78 77 71 78 73 79 79 80 72 81 74 82 75 83 76 84 77 85 54 86
REMARK SMILES IDX 55 87 63 88 56 89 58 90 64 91 57 92 59 93 60 94 61 95 62 96
REMARK H PARENT 17 10 8 18 84 49 52 60
REMARK Flexibility Score: inf
ROOT
ATOM      1  C   UNL A   1      33.630  20.656  25.449  1.00  0.00     0.274 C 
ENDROOT
BRANCH   1   2
ATOM      2  O   UNL A   1      33.112  22.043  25.613  1.00  0.00    -0.461 OA
BRANCH   2   3
ATOM      3  C   UNL A   1      32.479  22.548  26.737  1.00  0.00     0.328 C 
ATOM      4  O   UNL A   1      32.886  22.367  27.865  1.00  0.00    -0.250 OA
BRANCH   3   5
ATOM      5  C   UNL A   1      31.134  23.399  26.387  1.00  0.00     0.189 C 
ATOM      6  C   UNL A   1      30.875  23.372  24.881  1.00  0.00     0.043 C 
BRANCH   5   7
ATOM      7  N   UNL A   1      31.210  24.814  26.878  1.00  0.00    -0.339 N 
ATOM      8  C   UNL A   1      31.057  26.147  26.535  1.00  0.00     0.254 C 
ATOM      9  O   UNL A   1      31.462  26.856  27.478  1.00  0.00    -0.269 OA
ATOM     10  H   UNL A   1      31.477  24.782  27.825  1.00  0.00     0.164 HD
BRANCH   8  11
ATOM     11  C   UNL A   1      30.525  26.941  25.319  1.00  0.00     0.063 A 
ATOM     12  C   UNL A   1      31.035  28.035  24.581  1.00  0.00     0.051 A 
ATOM     13  C   UNL A   1      30.361  28.562  23.437  1.00  0.00     0.027 A 
ATOM     14  C   UNL A   1      29.260  27.929  22.895  1.00  0.00     0.002 A 
ATOM     15  C   UNL A   1      29.358  26.365  24.741  1.00  0.00     0.016 A 
ATOM     16  C   UNL A   1      28.767  26.814  23.542  1.00  0.00     0.001 A 
BRANCH  12  17
ATOM     17  N   UNL A   1      32.372  28.420  24.579  1.00  0.00    -0.352 N 
ATOM     18  H   UNL A   1      32.584  29.373  24.703  1.00  0.00     0.167 HD
BRANCH  17  19
ATOM     19  C   UNL A   1      33.439  27.512  24.408  1.00  0.00     0.077 A 
ATOM     20  C   UNL A   1      33.718  24.057  22.717  1.00  0.00     0.046 C 
ATOM     21  C   UNL A   1      33.859  25.227  23.643  1.00  0.00    -0.030 A 
ATOM     22  C   UNL A   1      34.387  25.021  24.891  1.00  0.00     0.006 A 
ATOM     23  C   UNL A   1      33.477  26.526  23.369  1.00  0.00     0.069 A 
ATOM     24  C   UNL A   1      34.653  26.083  25.782  1.00  0.00     0.023 A 
ATOM     25  Cl  UNL A   1      33.130  26.916  21.719  1.00  0.00    -0.082 Cl
ATOM     26  C   UNL A   1      34.199  27.343  25.545  1.00  0.00     0.066 A 
ATOM     27  Cl  UNL A   1      34.328  28.532  26.793  1.00  0.00    -0.082 Cl
ENDBRANCH  17  19
ENDBRANCH  12  17
ENDBRANCH   8  11
ENDBRANCH   5   7
ENDBRANCH   3   5
ENDBRANCH   2   3
ENDBRANCH   1   2
BRANCH   1  28
ATOM     28  C   UNL A   1      35.163  20.334  24.996  1.00  0.00     0.275 C 
BRANCH  28  29
ATOM     29  O   UNL A   1      36.192  21.405  25.005  1.00  0.00    -0.458 OA
BRANCH  29  30
ATOM     30  C   UNL A   1      37.517  21.063  25.289  1.00  0.00     0.338 C 
ATOM     31  O   UNL A   1      38.059  20.072  24.818  1.00  0.00    -0.246 OA
BRANCH  30  32
ATOM     32  C   UNL A   1      38.335  22.141  26.036  1.00  0.00     0.060 A 
ATOM     33  C   UNL A   1      37.970  23.476  26.023  1.00  0.00     0.016 A 
ATOM     34  C   UNL A   1      39.602  21.873  26.597  1.00  0.00     0.016 A 
ATOM     35  C   UNL A   1      38.909  24.491  26.348  1.00  0.00     0.010 A 
ATOM     36  C   UNL A   1      40.456  22.910  27.124  1.00  0.00     0.010 A 
ATOM     37  C   UNL A   1      40.128  24.270  27.015  1.00  0.00    -0.014 A 
BRANCH  37  38
ATOM     38  C   UNL A   1      40.896  25.444  27.660  1.00  0.00     0.031 A 
ATOM     39  C   UNL A   1      40.267  26.549  28.525  1.00  0.00     0.074 A 
ATOM     40  C   UNL A   1      42.234  25.585  27.446  1.00  0.00     0.049 A 
ATOM     41  N   UNL A   1      40.774  27.717  28.881  1.00  0.00    -0.248 NA
ATOM     42  C   UNL A   1      38.931  26.316  29.087  1.00  0.00     0.031 C 
ATOM     43  C   UNL A   1      43.084  24.668  26.685  1.00  0.00     0.029 A 
ATOM     44  N   UNL A   1      43.130  26.574  27.831  1.00  0.00    -0.354 N 
ATOM     45  C   UNL A   1      39.802  28.377  29.637  1.00  0.00     0.074 A 
ATOM     46  C   UNL A   1      38.689  27.453  29.738  1.00  0.00     0.031 C 
ATOM     47  C   UNL A   1      44.353  25.073  26.719  1.00  0.00     0.029 A 
ATOM     48  C   UNL A   1      44.392  26.402  27.298  1.00  0.00     0.049 A 
ATOM     49  H   UNL A   1      42.889  27.322  28.423  1.00  0.00     0.167 HD
ATOM     50  C   UNL A   1      39.815  29.624  30.188  1.00  0.00     0.034 A 
ATOM     51  C   UNL A   1      45.455  27.219  27.135  1.00  0.00     0.034 A 
ATOM     52  C   UNL A   1      40.931  30.549  30.159  1.00  0.00     0.049 A 
ATOM     53  C   UNL A   1      45.410  28.629  27.622  1.00  0.00     0.074 A 
ATOM     54  C   UNL A   1      41.013  31.819  30.721  1.00  0.00     0.029 A 
ATOM     55  N   UNL A   1      42.149  30.324  29.542  1.00  0.00    -0.354 N 
ATOM     56  N   UNL A   1      44.474  29.227  28.307  1.00  0.00    -0.248 NA
ATOM     57  C   UNL A   1      46.569  29.477  27.306  1.00  0.00     0.031 C 
ATOM     58  C   UNL A   1      42.264  32.370  30.414  1.00  0.00     0.029 A 
ATOM     59  C   UNL A   1      42.972  31.435  29.684  1.00  0.00     0.049 A 
ATOM     60  H   UNL A   1      42.396  29.496  29.071  1.00  0.00     0.167 HD
ATOM     61  C   UNL A   1      44.930  30.523  28.510  1.00  0.00     0.074 A 
ATOM     62  C   UNL A   1      46.242  30.612  27.908  1.00  0.00     0.031 C 
ATOM     63  C   UNL A   1      44.293  31.548  29.124  1.00  0.00     0.034 A 
BRANCH  50  64
ATOM     64  C   UNL A   1      38.570  30.128  30.896  1.00  0.00     0.023 A 
ATOM     65  C   UNL A   1      38.464  30.027  32.297  1.00  0.00     0.012 A 
ATOM     66  C   UNL A   1      37.587  30.856  30.186  1.00  0.00     0.148 A 
ATOM     67  C   UNL A   1      37.393  30.618  32.975  1.00  0.00     0.002 A 
ATOM     68  C   UNL A   1      36.542  31.470  30.873  1.00  0.00     0.091 A 
ATOM     69  F   UNL A   1      37.703  30.952  28.854  1.00  0.00    -0.205 F 
ATOM     70  C   UNL A   1      36.440  31.347  32.266  1.00  0.00     0.022 A 
BRANCH  68  71
ATOM     71  S   UNL A   1      35.319  32.504  30.052  1.00  0.00     0.127 S 
ATOM     72  O   UNL A   1      36.144  33.606  29.562  1.00  0.00    -0.237 OA
ATOM     73  O   UNL A   1      34.807  31.617  29.006  1.00  0.00    -0.237 OA
ATOM     74  O   UNL A   1      34.343  32.855  31.074  1.00  0.00    -0.744 OA
ENDBRANCH  68  71
ENDBRANCH  50  64
BRANCH  51  75
ATOM     75  C   UNL A   1      46.637  26.718  26.368  1.00  0.00     0.023 A 
ATOM     76  C   UNL A   1      46.721  26.951  24.985  1.00  0.00     0.012 A 
ATOM     77  C   UNL A   1      47.718  26.098  27.032  1.00  0.00     0.148 A 
ATOM     78  C   UNL A   1      47.866  26.583  24.278  1.00  0.00     0.002 A 
ATOM     79  C   UNL A   1      48.887  25.817  26.338  1.00  0.00     0.091 A 
ATOM     80  F   UNL A   1      47.604  25.851  28.345  1.00  0.00    -0.205 F 
ATOM     81  C   UNL A   1      48.958  26.042  24.956  1.00  0.00     0.022 A 
BRANCH  79  82
ATOM     82  S   UNL A   1      50.395  25.328  27.185  1.00  0.00     0.127 S 
ATOM     83  O   UNL A   1      50.695  26.516  27.976  1.00  0.00    -0.237 OA
ATOM     84  O   UNL A   1      49.949  24.167  27.958  1.00  0.00    -0.237 OA
ATOM     85  O   UNL A   1      51.344  25.003  26.128  1.00  0.00    -0.744 OA
ENDBRANCH  79  82
ENDBRANCH  51  75
BRANCH  63  86
ATOM     86  C   UNL A   1      45.014  32.868  29.193  1.00  0.00     0.023 A 
ATOM     87  C   UNL A   1      45.852  33.143  30.292  1.00  0.00     0.012 A 
ATOM     88  C   UNL A   1      44.876  33.830  28.174  1.00  0.00     0.148 A 
ATOM     89  C   UNL A   1      46.516  34.364  30.393  1.00  0.00     0.002 A 
ATOM     90  C   UNL A   1      45.572  35.032  28.261  1.00  0.00     0.091 A 
ATOM     91  F   UNL A   1      44.054  33.561  27.148  1.00  0.00    -0.205 F 
ATOM     92  C   UNL A   1      46.384  35.305  29.374  1.00  0.00     0.022 A 
BRANCH  90  93
ATOM     93  S   UNL A   1      45.516  36.280  26.969  1.00  0.00     0.127 S 
ATOM     94  O   UNL A   1      44.079  36.529  26.858  1.00  0.00    -0.237 OA
ATOM     95  O   UNL A   1      46.280  37.377  27.565  1.00  0.00    -0.237 OA
ATOM     96  O   UNL A   1      46.136  35.676  25.799  1.00  0.00    -0.744 OA
ENDBRANCH  90  93
ENDBRANCH  63  86
ENDBRANCH  37  38
ENDBRANCH  30  32
ENDBRANCH  29  30
ENDBRANCH  28  29
ENDBRANCH   1  28
TORSDOF 18
ENDMDL
MODEL 2
REMARK VINA RESULT:     -11.6      1.759      2.608
REMARK SMILES Cc1ccc(Cl)c(Nc2ccccc2C(=O)N[C@@H](C)C(=O)OCCOC(=O)c2ccc(-c3c4nc(c(-c5cccc(S(=O)(=O)[O-])c5F)c5ccc([nH]5)c(-c5cccc(S(=O)(=O)[O-])c5F)c5nc(c(-c6cccc(S(=O)(=O)[O-])c6F)c6ccc3[nH]6)C=C5)C=C4)cc2)c1Cl
REMARK SMILES IDX 23 1 22 2 20 3 21 4 18 5 19 6 17 7 15 8 16 9 14 11 9 12
REMARK SMILES IDX 10 13 11 14 13 15 12 16 8 17 7 19 1 20 2 21 3 22 91 23 4 24
REMARK SMILES IDX 92 25 5 26 6 27 24 28 25 29 26 30 27 31 28 32 29 33 90 34
REMARK SMILES IDX 30 35 89 36 31 37 32 38 33 39 83 40 34 41 88 42 82 43 84 44
REMARK SMILES IDX 35 45 87 46 81 47 80 48 36 50 68 51 48 52 67 53 49 54 52 55
REMARK SMILES IDX 66 56 85 57 50 58 51 59 65 61 86 62 53 63 37 64 38 65 46 66
REMARK SMILES IDX 39 67 41 68 47 69 40 70 42 71 43 72 44 73 45 74 69 75 70 76
REMARK SMILES IDX 78 77 71 78 73 79 79 80 72 81 74 82 75 83 76 84 77 85 54 86
REMARK SMILES IDX 55 87 63 88 56 89 58 90 64 91 57 92 59 93 60 94 61 95 62 96
REMARK H PARENT 17 10 8 18 84 49 52 60
REMARK Flexibility Score: inf
ROOT
ATOM      1  C   UNL A   1      34.655  20.378  25.235  1.00  0.00     0.274 C 
ENDROOT
BRANCH   1   2
ATOM      2  O   UNL A   1      33.702  21.243  25.984  1.00  0.00    -0.461 OA
BRANCH   2   3
ATOM      3  C   UNL A   1      34.008  22.441  26.609  1.00  0.00     0.328 C 
ATOM      4  O   UNL A   1      34.454  22.507  27.735  1.00  0.00    -0.250 OA
BRANCH   3   5
ATOM      5  C   UNL A   1      33.700  23.745  25.682  1.00  0.00     0.189 C 
ATOM      6  C   UNL A   1      34.913  24.676  25.670  1.00  0.00     0.043 C 
BRANCH   5   7
ATOM      7  N   UNL A   1      32.478  24.489  26.130  1.00  0.00    -0.339 N 
ATOM      8  C   UNL A   1      31.940  25.736  26.403  1.00  0.00     0.254 C 
ATOM      9  O   UNL A   1      30.815  25.587  26.920  1.00  0.00    -0.269 OA
ATOM     10  H   UNL A   1      31.773  23.821  26.298  1.00  0.00     0.164 HD
BRANCH   8  11
ATOM     11  C   UNL A   1      32.373  27.210  26.227  1.00  0.00     0.063 A 
ATOM     12  C   UNL A   1      33.022  27.909  25.181  1.00  0.00     0.051 A 
ATOM     13  C   UNL A   1      33.263  29.315  25.241  1.00  0.00     0.027 A 
ATOM     14  C   UNL A   1      32.732  30.095  26.249  1.00  0.00     0.002 A 
ATOM     15  C   UNL A   1      31.895  28.062  27.264  1.00  0.00     0.016 A 
ATOM     16  C   UNL A   1      32.029  29.466  27.257  1.00  0.00     0.001 A 
BRANCH  12  17
ATOM     17  N   UNL A   1      33.093  27.457  23.867  1.00  0.00    -0.352 N 
ATOM     18  H   UNL A   1      33.947  27.552  23.386  1.00  0.00     0.167 HD
BRANCH  17  19
ATOM     19  C   UNL A   1      32.003  26.870  23.190  1.00  0.00     0.077 A 
ATOM     20  C   UNL A   1      28.235  26.623  23.973  1.00  0.00     0.046 C 
ATOM     21  C   UNL A   1      29.640  26.341  23.534  1.00  0.00    -0.030 A 
ATOM     22  C   UNL A   1      30.004  25.045  23.278  1.00  0.00     0.006 A 
ATOM     23  C   UNL A   1      30.643  27.279  23.382  1.00  0.00     0.069 A 
ATOM     24  C   UNL A   1      31.274  24.706  22.760  1.00  0.00     0.023 A 
ATOM     25  Cl  UNL A   1      30.171  28.943  23.353  1.00  0.00    -0.082 Cl
ATOM     26  C   UNL A   1      32.282  25.615  22.693  1.00  0.00     0.066 A 
ATOM     27  Cl  UNL A   1      33.876  25.076  22.299  1.00  0.00    -0.082 Cl
ENDBRANCH  17  19
ENDBRANCH  12  17
ENDBRANCH   8  11
ENDBRANCH   5   7
ENDBRANCH   3   5
ENDBRANCH   2   3
ENDBRANCH   1   2
BRANCH   1  28
ATOM     28  C   UNL A   1      36.203  20.805  24.956  1.00  0.00     0.275 C 
BRANCH  28  29
ATOM     29  O   UNL A   1      36.885  21.784  25.841  1.00  0.00    -0.458 OA
BRANCH  29  30
ATOM     30  C   UNL A   1      38.281  21.769  25.912  1.00  0.00     0.338 C 
ATOM     31  O   UNL A   1      38.967  20.995  25.259  1.00  0.00    -0.246 OA
BRANCH  30  32
ATOM     32  C   UNL A   1      38.920  22.951  26.677  1.00  0.00     0.060 A 
ATOM     33  C   UNL A   1      38.484  24.254  26.507  1.00  0.00     0.016 A 
ATOM     34  C   UNL A   1      40.107  22.811  27.429  1.00  0.00     0.016 A 
ATOM     35  C   UNL A   1      39.306  25.351  26.876  1.00  0.00     0.010 A 
ATOM     36  C   UNL A   1      40.814  23.939  27.984  1.00  0.00     0.010 A 
ATOM     37  C   UNL A   1      40.428  25.262  27.721  1.00  0.00    -0.014 A 
BRANCH  37  38
ATOM     38  C   UNL A   1      41.026  26.529  28.371  1.00  0.00     0.031 A 
ATOM     39  C   UNL A   1      40.220  27.628  29.082  1.00  0.00     0.074 A 
ATOM     40  C   UNL A   1      42.366  26.763  28.303  1.00  0.00     0.049 A 
ATOM     41  N   UNL A   1      40.595  28.851  29.415  1.00  0.00    -0.248 NA
ATOM     42  C   UNL A   1      38.846  27.323  29.500  1.00  0.00     0.031 C 
ATOM     43  C   UNL A   1      43.365  25.874  27.708  1.00  0.00     0.029 A 
ATOM     44  N   UNL A   1      43.136  27.842  28.722  1.00  0.00    -0.354 N 
ATOM     45  C   UNL A   1      39.494  29.475  30.008  1.00  0.00     0.074 A 
ATOM     46  C   UNL A   1      38.446  28.472  30.042  1.00  0.00     0.031 C 
ATOM     47  C   UNL A   1      44.588  26.381  27.861  1.00  0.00     0.029 A 
ATOM     48  C   UNL A   1      44.462  27.740  28.350  1.00  0.00     0.049 A 
ATOM     49  H   UNL A   1      42.772  28.601  29.231  1.00  0.00     0.167 HD
ATOM     50  C   UNL A   1      39.351  30.749  30.473  1.00  0.00     0.034 A 
ATOM     51  C   UNL A   1      45.475  28.627  28.256  1.00  0.00     0.034 A 
ATOM     52  C   UNL A   1      40.392  31.757  30.510  1.00  0.00     0.049 A 
ATOM     53  C   UNL A   1      45.270  30.055  28.639  1.00  0.00     0.074 A 
ATOM     54  C   UNL A   1      40.315  33.059  30.992  1.00  0.00     0.029 A 
ATOM     55  N   UNL A   1      41.688  31.594  30.054  1.00  0.00    -0.354 N 
ATOM     56  N   UNL A   1      44.218  30.616  29.171  1.00  0.00    -0.248 NA
ATOM     57  C   UNL A   1      46.394  30.973  28.403  1.00  0.00     0.031 C 
ATOM     58  C   UNL A   1      41.550  33.689  30.795  1.00  0.00     0.029 A 
ATOM     59  C   UNL A   1      42.406  32.774  30.216  1.00  0.00     0.049 A 
ATOM     60  H   UNL A   1      42.050  30.762  29.671  1.00  0.00     0.167 HD
ATOM     61  C   UNL A   1      44.552  31.953  29.338  1.00  0.00     0.074 A 
ATOM     62  C   UNL A   1      45.916  32.112  28.886  1.00  0.00     0.031 C 
ATOM     63  C   UNL A   1      43.773  32.958  29.805  1.00  0.00     0.034 A 
BRANCH  50  64
ATOM     64  C   UNL A   1      37.997  31.193  30.998  1.00  0.00     0.023 A 
ATOM     65  C   UNL A   1      37.710  31.108  32.374  1.00  0.00     0.012 A 
ATOM     66  C   UNL A   1      37.079  31.851  30.147  1.00  0.00     0.148 A 
ATOM     67  C   UNL A   1      36.528  31.648  32.890  1.00  0.00     0.002 A 
ATOM     68  C   UNL A   1      35.920  32.416  30.674  1.00  0.00     0.091 A 
ATOM     69  F   UNL A   1      37.367  31.933  28.840  1.00  0.00    -0.205 F 
ATOM     70  C   UNL A   1      35.640  32.310  32.044  1.00  0.00     0.022 A 
BRANCH  68  71
ATOM     71  S   UNL A   1      34.763  33.365  29.674  1.00  0.00     0.127 S 
ATOM     72  O   UNL A   1      33.860  33.898  30.693  1.00  0.00    -0.237 OA
ATOM     73  O   UNL A   1      35.632  34.365  29.050  1.00  0.00    -0.237 OA
ATOM     74  O   UNL A   1      34.170  32.417  28.742  1.00  0.00    -0.744 OA
ENDBRANCH  68  71
ENDBRANCH  50  64
BRANCH  51  75
ATOM     75  C   UNL A   1      46.773  28.179  27.666  1.00  0.00     0.023 A 
ATOM     76  C   UNL A   1      47.831  27.803  28.510  1.00  0.00     0.012 A 
ATOM     77  C   UNL A   1      46.919  28.035  26.269  1.00  0.00     0.148 A 
ATOM     78  C   UNL A   1      49.010  27.283  27.973  1.00  0.00     0.002 A 
ATOM     79  C   UNL A   1      48.058  27.435  25.750  1.00  0.00     0.091 A 
ATOM     80  F   UNL A   1      45.913  28.433  25.477  1.00  0.00    -0.205 F 
ATOM     81  C   UNL A   1      49.113  27.074  26.599  1.00  0.00     0.022 A 
BRANCH  79  82
ATOM     82  S   UNL A   1      48.163  26.938  24.026  1.00  0.00     0.127 S 
ATOM     83  O   UNL A   1      47.178  25.863  23.961  1.00  0.00    -0.237 OA
ATOM     84  O   UNL A   1      47.782  28.169  23.329  1.00  0.00    -0.237 OA
ATOM     85  O   UNL A   1      49.552  26.550  23.819  1.00  0.00    -0.744 OA
ENDBRANCH  79  82
ENDBRANCH  51  75
BRANCH  63  86
ATOM     86  C   UNL A   1      44.383  34.333  29.867  1.00  0.00     0.023 A 
ATOM     87  C   UNL A   1      45.000  34.763  31.060  1.00  0.00     0.012 A 
ATOM     88  C   UNL A   1      44.360  35.195  28.754  1.00  0.00     0.148 A 
ATOM     89  C   UNL A   1      45.555  36.039  31.154  1.00  0.00     0.002 A 
ATOM     90  C   UNL A   1      44.951  36.452  28.841  1.00  0.00     0.091 A 
ATOM     91  F   UNL A   1      43.747  34.778  27.636  1.00  0.00    -0.205 F 
ATOM     92  C   UNL A   1      45.539  36.879  30.043  1.00  0.00     0.022 A 
BRANCH  90  93
ATOM     93  S   UNL A   1      45.036  37.582  27.447  1.00  0.00     0.127 S 
ATOM     94  O   UNL A   1      45.674  38.752  28.050  1.00  0.00    -0.237 OA
ATOM     95  O   UNL A   1      45.879  36.847  26.503  1.00  0.00    -0.237 OA
ATOM     96  O   UNL A   1      43.663  37.780  27.005  1.00  0.00    -0.744 OA
ENDBRANCH  90  93
ENDBRANCH  63  86
ENDBRANCH  37  38
ENDBRANCH  30  32
ENDBRANCH  29  30
ENDBRANCH  28  29
ENDBRANCH   1  28
TORSDOF 18
ENDMDL
MODEL 3
REMARK VINA RESULT:     -11.6      5.027      9.921
REMARK SMILES Cc1ccc(Cl)c(Nc2ccccc2C(=O)N[C@@H](C)C(=O)OCCOC(=O)c2ccc(-c3c4nc(c(-c5cccc(S(=O)(=O)[O-])c5F)c5ccc([nH]5)c(-c5cccc(S(=O)(=O)[O-])c5F)c5nc(c(-c6cccc(S(=O)(=O)[O-])c6F)c6ccc3[nH]6)C=C5)C=C4)cc2)c1Cl
REMARK SMILES IDX 23 1 22 2 20 3 21 4 18 5 19 6 17 7 15 8 16 9 14 11 9 12
REMARK SMILES IDX 10 13 11 14 13 15 12 16 8 17 7 19 1 20 2 21 3 22 91 23 4 24
REMARK SMILES IDX 92 25 5 26 6 27 24 28 25 29 26 30 27 31 28 32 29 33 90 34
REMARK SMILES IDX 30 35 89 36 31 37 32 38 33 39 83 40 34 41 88 42 82 43 84 44
REMARK SMILES IDX 35 45 87 46 81 47 80 48 36 50 68 51 48 52 67 53 49 54 52 55
REMARK SMILES IDX 66 56 85 57 50 58 51 59 65 61 86 62 53 63 37 64 38 65 46 66
REMARK SMILES IDX 39 67 41 68 47 69 40 70 42 71 43 72 44 73 45 74 69 75 70 76
REMARK SMILES IDX 78 77 71 78 73 79 79 80 72 81 74 82 75 83 76 84 77 85 54 86
REMARK SMILES IDX 55 87 63 88 56 89 58 90 64 91 57 92 59 93 60 94 61 95 62 96
REMARK H PARENT 17 10 8 18 84 49 52 60
REMARK Flexibility Score: inf
ROOT
ATOM      1  C   UNL A   1      32.966  28.865  24.617  1.00  0.00     0.274 C 
ENDROOT
BRANCH   1   2
ATOM      2  O   UNL A   1      32.536  27.441  24.669  1.00  0.00    -0.461 OA
BRANCH   2   3
ATOM      3  C   UNL A   1      32.436  26.662  25.810  1.00  0.00     0.328 C 
ATOM      4  O   UNL A   1      33.012  26.924  26.845  1.00  0.00    -0.250 OA
BRANCH   3   5
ATOM      5  C   UNL A   1      31.477  25.359  25.615  1.00  0.00     0.189 C 
ATOM      6  C   UNL A   1      30.014  25.753  25.814  1.00  0.00     0.043 C 
BRANCH   5   7
ATOM      7  N   UNL A   1      31.844  24.236  26.538  1.00  0.00    -0.339 N 
ATOM      8  C   UNL A   1      32.697  23.164  26.743  1.00  0.00     0.254 C 
ATOM      9  O   UNL A   1      32.305  22.520  27.736  1.00  0.00    -0.269 OA
ATOM     10  H   UNL A   1      31.231  24.277  27.308  1.00  0.00     0.164 HD
BRANCH   8  11
ATOM     11  C   UNL A   1      33.969  22.595  26.073  1.00  0.00     0.063 A 
ATOM     12  C   UNL A   1      34.178  21.654  25.037  1.00  0.00     0.051 A 
ATOM     13  C   UNL A   1      35.481  21.335  24.550  1.00  0.00     0.027 A 
ATOM     14  C   UNL A   1      36.595  22.046  24.952  1.00  0.00     0.002 A 
ATOM     15  C   UNL A   1      35.162  23.257  26.484  1.00  0.00     0.016 A 
ATOM     16  C   UNL A   1      36.430  23.024  25.912  1.00  0.00     0.001 A 
BRANCH  12  17
ATOM     17  N   UNL A   1      33.207  21.286  24.111  1.00  0.00    -0.352 N 
ATOM     18  H   UNL A   1      32.863  21.973  23.496  1.00  0.00     0.167 HD
BRANCH  17  19
ATOM     19  C   UNL A   1      32.692  19.976  24.009  1.00  0.00     0.077 A 
ATOM     20  C   UNL A   1      33.895  16.558  25.330  1.00  0.00     0.046 C 
ATOM     21  C   UNL A   1      33.325  17.663  24.493  1.00  0.00    -0.030 A 
ATOM     22  C   UNL A   1      33.116  17.440  23.157  1.00  0.00     0.006 A 
ATOM     23  C   UNL A   1      33.004  18.931  24.939  1.00  0.00     0.069 A 
ATOM     24  C   UNL A   1      32.486  18.389  22.323  1.00  0.00     0.023 A 
ATOM     25  Cl  UNL A   1      32.918  19.169  26.650  1.00  0.00    -0.082 Cl
ATOM     26  C   UNL A   1      32.251  19.661  22.742  1.00  0.00     0.066 A 
ATOM     27  Cl  UNL A   1      31.722  20.840  21.594  1.00  0.00    -0.082 Cl
ENDBRANCH  17  19
ENDBRANCH  12  17
ENDBRANCH   8  11
ENDBRANCH   5   7
ENDBRANCH   3   5
ENDBRANCH   2   3
ENDBRANCH   1   2
BRANCH   1  28
ATOM     28  C   UNL A   1      32.207  30.048  25.444  1.00  0.00     0.275 C 
BRANCH  28  29
ATOM     29  O   UNL A   1      32.505  30.272  26.882  1.00  0.00    -0.458 OA
BRANCH  29  30
ATOM     30  C   UNL A   1      33.252  31.396  27.248  1.00  0.00     0.338 C 
ATOM     31  O   UNL A   1      32.752  32.504  27.387  1.00  0.00    -0.246 OA
BRANCH  30  32
ATOM     32  C   UNL A   1      34.700  31.110  27.705  1.00  0.00     0.060 A 
ATOM     33  C   UNL A   1      35.125  29.834  28.034  1.00  0.00     0.016 A 
ATOM     34  C   UNL A   1      35.612  32.143  28.013  1.00  0.00     0.016 A 
ATOM     35  C   UNL A   1      36.290  29.635  28.822  1.00  0.00     0.010 A 
ATOM     36  C   UNL A   1      36.896  31.891  28.622  1.00  0.00     0.010 A 
ATOM     37  C   UNL A   1      37.278  30.611  29.049  1.00  0.00    -0.014 A 
BRANCH  37  38
ATOM     38  C   UNL A   1      38.671  30.210  29.583  1.00  0.00     0.031 A 
ATOM     39  C   UNL A   1      39.611  29.183  28.931  1.00  0.00     0.074 A 
ATOM     40  C   UNL A   1      39.139  30.748  30.744  1.00  0.00     0.049 A 
ATOM     41  N   UNL A   1      40.670  28.581  29.444  1.00  0.00    -0.248 NA
ATOM     42  C   UNL A   1      39.364  28.803  27.534  1.00  0.00     0.031 C 
ATOM     43  C   UNL A   1      38.463  31.763  31.553  1.00  0.00     0.029 A 
ATOM     44  N   UNL A   1      40.296  30.503  31.473  1.00  0.00    -0.354 N 
ATOM     45  C   UNL A   1      41.164  27.710  28.468  1.00  0.00     0.074 A 
ATOM     46  C   UNL A   1      40.319  27.903  27.305  1.00  0.00     0.031 C 
ATOM     47  C   UNL A   1      39.222  32.108  32.594  1.00  0.00     0.029 A 
ATOM     48  C   UNL A   1      40.334  31.182  32.676  1.00  0.00     0.049 A 
ATOM     49  H   UNL A   1      41.014  29.907  31.164  1.00  0.00     0.167 HD
ATOM     50  C   UNL A   1      42.204  26.830  28.523  1.00  0.00     0.034 A 
ATOM     51  C   UNL A   1      41.058  31.036  33.805  1.00  0.00     0.034 A 
ATOM     52  C   UNL A   1      43.105  26.655  29.644  1.00  0.00     0.049 A 
ATOM     53  C   UNL A   1      42.105  29.977  33.905  1.00  0.00     0.074 A 
ATOM     54  C   UNL A   1      44.194  25.795  29.749  1.00  0.00     0.029 A 
ATOM     55  N   UNL A   1      43.036  27.333  30.848  1.00  0.00    -0.354 N 
ATOM     56  N   UNL A   1      42.530  29.159  32.980  1.00  0.00    -0.248 NA
ATOM     57  C   UNL A   1      42.768  29.819  35.207  1.00  0.00     0.031 C 
ATOM     58  C   UNL A   1      44.756  25.931  31.025  1.00  0.00     0.029 A 
ATOM     59  C   UNL A   1      44.037  26.893  31.706  1.00  0.00     0.049 A 
ATOM     60  H   UNL A   1      42.372  28.027  31.065  1.00  0.00     0.167 HD
ATOM     61  C   UNL A   1      43.514  28.389  33.586  1.00  0.00     0.074 A 
ATOM     62  C   UNL A   1      43.649  28.864  34.945  1.00  0.00     0.031 C 
ATOM     63  C   UNL A   1      44.220  27.363  33.054  1.00  0.00     0.034 A 
BRANCH  50  64
ATOM     64  C   UNL A   1      42.470  25.931  27.327  1.00  0.00     0.023 A 
ATOM     65  C   UNL A   1      43.308  26.372  26.284  1.00  0.00     0.012 A 
ATOM     66  C   UNL A   1      42.026  24.589  27.327  1.00  0.00     0.148 A 
ATOM     67  C   UNL A   1      43.679  25.503  25.254  1.00  0.00     0.002 A 
ATOM     68  C   UNL A   1      42.428  23.721  26.315  1.00  0.00     0.091 A 
ATOM     69  F   UNL A   1      41.235  24.179  28.330  1.00  0.00    -0.205 F 
ATOM     70  C   UNL A   1      43.249  24.177  25.274  1.00  0.00     0.022 A 
BRANCH  68  71
ATOM     71  S   UNL A   1      41.995  21.973  26.308  1.00  0.00     0.127 S 
ATOM     72  O   UNL A   1      40.565  22.024  26.008  1.00  0.00    -0.237 OA
ATOM     73  O   UNL A   1      42.826  21.447  25.224  1.00  0.00    -0.237 OA
ATOM     74  O   UNL A   1      42.342  21.472  27.631  1.00  0.00    -0.744 OA
ENDBRANCH  68  71
ENDBRANCH  50  64
BRANCH  51  75
ATOM     75  C   UNL A   1      40.723  31.884  34.990  1.00  0.00     0.023 A 
ATOM     76  C   UNL A   1      41.336  33.139  35.146  1.00  0.00     0.012 A 
ATOM     77  C   UNL A   1      39.725  31.484  35.905  1.00  0.00     0.148 A 
ATOM     78  C   UNL A   1      40.954  33.984  36.189  1.00  0.00     0.002 A 
ATOM     79  C   UNL A   1      39.289  32.366  36.883  1.00  0.00     0.091 A 
ATOM     80  F   UNL A   1      39.177  30.268  35.762  1.00  0.00    -0.205 F 
ATOM     81  C   UNL A   1      39.914  33.611  37.040  1.00  0.00     0.022 A 
BRANCH  79  82
ATOM     82  S   UNL A   1      37.818  32.040  37.865  1.00  0.00     0.127 S 
ATOM     83  O   UNL A   1      36.883  33.031  37.343  1.00  0.00    -0.237 OA
ATOM     84  O   UNL A   1      37.513  30.653  37.507  1.00  0.00    -0.237 OA
ATOM     85  O   UNL A   1      38.232  32.214  39.251  1.00  0.00    -0.744 OA
ENDBRANCH  79  82
ENDBRANCH  51  75
BRANCH  63  86
ATOM     86  C   UNL A   1      45.224  26.681  33.944  1.00  0.00     0.023 A 
ATOM     87  C   UNL A   1      46.552  27.153  33.977  1.00  0.00     0.012 A 
ATOM     88  C   UNL A   1      44.861  25.587  34.753  1.00  0.00     0.148 A 
ATOM     89  C   UNL A   1      47.509  26.529  34.776  1.00  0.00     0.002 A 
ATOM     90  C   UNL A   1      45.812  24.993  35.577  1.00  0.00     0.091 A 
ATOM     91  F   UNL A   1      43.600  25.136  34.689  1.00  0.00    -0.205 F 
ATOM     92  C   UNL A   1      47.138  25.456  35.582  1.00  0.00     0.022 A 
BRANCH  90  93
ATOM     93  S   UNL A   1      45.416  23.645  36.698  1.00  0.00     0.127 S 
ATOM     94  O   UNL A   1      44.689  22.730  35.819  1.00  0.00    -0.237 OA
ATOM     95  O   UNL A   1      46.743  23.178  37.101  1.00  0.00    -0.237 OA
ATOM     96  O   UNL A   1      44.630  24.234  37.772  1.00  0.00    -0.744 OA
ENDBRANCH  90  93
ENDBRANCH  63  86
ENDBRANCH  37  38
ENDBRANCH  30  32
ENDBRANCH  29  30
ENDBRANCH  28  29
ENDBRANCH   1  28
TORSDOF 18
ENDMDL
