MODEL 1
REMARK VINA RESULT:     -10.1      0.000      0.000
REMARK SMILES C#CCNC(=O)C[N@@H+](CC(=O)OCCOC(=O)c1ccc(-c2c3nc(c(-c4cccc(S(=O)(=O)[O-])c4F)c4ccc([nH]4)c(-c4cccc(S(=O)(=O)[O-])c4F)c4nc(c(-c5cccc(S(=O)(=O)[O-])c5F)c5ccc2[nH]5)C=C4)C=C3)cc1)C(C)(C)C
REMARK SMILES IDX 13 1 12 2 10 3 11 4 9 5 8 6 7 8 5 9 4 10 6 12 3 13 2 14 1 15
REMARK SMILES IDX 81 16 82 17 83 18 84 19 14 20 15 21 16 22 17 23 18 24 19 25
REMARK SMILES IDX 80 26 20 27 79 28 21 29 22 30 23 31 73 32 24 33 78 34 72 35
REMARK SMILES IDX 74 36 25 37 77 38 71 39 70 40 26 42 58 43 38 44 57 45 39 46
REMARK SMILES IDX 42 47 56 48 75 49 40 50 41 51 55 53 76 54 43 55 27 56 28 57
REMARK SMILES IDX 36 58 29 59 31 60 37 61 30 62 32 63 33 64 34 65 35 66 59 67
REMARK SMILES IDX 60 68 68 69 61 70 63 71 69 72 62 73 64 74 65 75 66 76 67 77
REMARK SMILES IDX 44 78 45 79 53 80 46 81 48 82 54 83 47 84 49 85 50 86 51 87
REMARK SMILES IDX 52 88
REMARK H PARENT 8 7 4 11 74 41 42 52
REMARK Flexibility Score: inf
ROOT
ATOM      1  C   UNL A   1      35.753  21.193  25.123  1.00  0.00     0.274 C 
ENDROOT
BRANCH   1   2
ATOM      2  O   UNL A   1      35.708  22.098  23.995  1.00  0.00    -0.458 OA
BRANCH   2   3
ATOM      3  C   UNL A   1      34.573  22.820  23.860  1.00  0.00     0.361 C 
ATOM      4  O   UNL A   1      33.582  22.419  23.251  1.00  0.00    -0.245 OA
BRANCH   3   5
ATOM      5  C   UNL A   1      34.537  24.166  24.573  1.00  0.00     0.387 C 
BRANCH   5   6
ATOM      6  N   UNL A   1      33.363  25.062  24.487  1.00  0.00    -0.314 N 
ATOM      7  H   UNL A   1      32.827  24.640  23.729  1.00  0.00     0.349 HD
BRANCH   6   8
ATOM      8  C   UNL A   1      33.679  26.403  23.980  1.00  0.00     0.364 C 
BRANCH   8   9
ATOM      9  C   UNL A   1      33.344  26.590  22.495  1.00  0.00     0.275 C 
ATOM     10  N   UNL A   1      32.514  27.593  22.081  1.00  0.00    -0.340 N 
ATOM     11  H   UNL A   1      32.438  27.707  21.107  1.00  0.00     0.164 HD
ATOM     12  O   UNL A   1      33.774  25.806  21.644  1.00  0.00    -0.268 OA
BRANCH  10  13
ATOM     13  C   UNL A   1      31.737  28.504  22.880  1.00  0.00     0.206 C 
BRANCH  13  14
ATOM     14  C   UNL A   1      30.333  27.984  23.143  1.00  0.00    -0.085 C 
ATOM     15  C   UNL A   1      29.129  27.538  23.368  1.00  0.00     0.006 C 
ENDBRANCH  13  14
ENDBRANCH  10  13
ENDBRANCH   8   9
ENDBRANCH   6   8
BRANCH   6  16
ATOM     16  C   UNL A   1      32.212  24.883  25.414  1.00  0.00     0.090 C 
ATOM     17  C   UNL A   1      32.508  23.909  26.571  1.00  0.00     0.078 C 
ATOM     18  C   UNL A   1      31.787  26.213  26.094  1.00  0.00     0.078 C 
ATOM     19  C   UNL A   1      30.937  24.446  24.645  1.00  0.00     0.078 C 
ENDBRANCH   6  16
ENDBRANCH   5   6
ENDBRANCH   3   5
ENDBRANCH   2   3
ENDBRANCH   1   2
BRANCH   1  20
ATOM     20  C   UNL A   1      37.156  20.604  25.291  1.00  0.00     0.275 C 
BRANCH  20  21
ATOM     21  O   UNL A   1      38.171  21.623  25.189  1.00  0.00    -0.458 OA
BRANCH  21  22
ATOM     22  C   UNL A   1      39.111  21.536  26.144  1.00  0.00     0.338 C 
ATOM     23  O   UNL A   1      39.647  20.489  26.544  1.00  0.00    -0.246 OA
BRANCH  22  24
ATOM     24  C   UNL A   1      39.490  22.793  26.759  1.00  0.00     0.060 A 
ATOM     25  C   UNL A   1      39.060  23.990  26.187  1.00  0.00     0.016 A 
ATOM     26  C   UNL A   1      40.531  22.765  27.687  1.00  0.00     0.016 A 
ATOM     27  C   UNL A   1      39.713  25.176  26.520  1.00  0.00     0.010 A 
ATOM     28  C   UNL A   1      41.159  23.955  28.048  1.00  0.00     0.010 A 
ATOM     29  C   UNL A   1      40.767  25.163  27.451  1.00  0.00    -0.014 A 
BRANCH  29  30
ATOM     30  C   UNL A   1      41.382  26.431  27.895  1.00  0.00     0.031 A 
ATOM     31  C   UNL A   1      40.606  27.467  28.651  1.00  0.00     0.074 A 
ATOM     32  C   UNL A   1      42.667  26.645  27.557  1.00  0.00     0.049 A 
ATOM     33  N   UNL A   1      40.993  28.654  29.040  1.00  0.00    -0.248 NA
ATOM     34  C   UNL A   1      39.221  27.134  29.019  1.00  0.00     0.031 C 
ATOM     35  C   UNL A   1      43.498  25.698  26.811  1.00  0.00     0.029 A 
ATOM     36  N   UNL A   1      43.490  27.715  27.778  1.00  0.00    -0.354 N 
ATOM     37  C   UNL A   1      39.897  29.224  29.676  1.00  0.00     0.074 A 
ATOM     38  C   UNL A   1      38.828  28.248  29.627  1.00  0.00     0.031 C 
ATOM     39  C   UNL A   1      44.718  26.225  26.646  1.00  0.00     0.029 A 
ATOM     40  C   UNL A   1      44.740  27.560  27.231  1.00  0.00     0.049 A 
ATOM     41  H   UNL A   1      43.214  28.517  28.279  1.00  0.00     0.167 HD
ATOM     42  C   UNL A   1      39.804  30.444  30.258  1.00  0.00     0.034 A 
ATOM     43  C   UNL A   1      45.785  28.406  27.187  1.00  0.00     0.034 A 
ATOM     44  C   UNL A   1      40.885  31.394  30.322  1.00  0.00     0.049 A 
ATOM     45  C   UNL A   1      45.652  29.751  27.833  1.00  0.00     0.074 A 
ATOM     46  C   UNL A   1      40.898  32.648  30.908  1.00  0.00     0.029 A 
ATOM     47  N   UNL A   1      42.148  31.194  29.783  1.00  0.00    -0.354 N 
ATOM     48  N   UNL A   1      44.632  30.244  28.495  1.00  0.00    -0.248 NA
ATOM     49  C   UNL A   1      46.807  30.650  27.740  1.00  0.00     0.031 C 
ATOM     50  C   UNL A   1      42.171  33.205  30.725  1.00  0.00     0.029 A 
ATOM     51  C   UNL A   1      42.947  32.300  30.018  1.00  0.00     0.049 A 
ATOM     52  H   UNL A   1      42.434  30.384  29.302  1.00  0.00     0.167 HD
ATOM     53  C   UNL A   1      45.023  31.512  28.901  1.00  0.00     0.074 A 
ATOM     54  C   UNL A   1      46.384  31.698  28.436  1.00  0.00     0.031 C 
ATOM     55  C   UNL A   1      44.310  32.448  29.575  1.00  0.00     0.034 A 
BRANCH  42  56
ATOM     56  C   UNL A   1      38.504  30.807  30.922  1.00  0.00     0.023 A 
ATOM     57  C   UNL A   1      38.318  30.488  32.281  1.00  0.00     0.012 A 
ATOM     58  C   UNL A   1      37.501  31.519  30.237  1.00  0.00     0.148 A 
ATOM     59  C   UNL A   1      37.150  30.864  32.946  1.00  0.00     0.002 A 
ATOM     60  C   UNL A   1      36.348  31.909  30.913  1.00  0.00     0.091 A 
ATOM     61  F   UNL A   1      37.677  31.791  28.936  1.00  0.00    -0.205 F 
ATOM     62  C   UNL A   1      36.170  31.581  32.267  1.00  0.00     0.022 A 
BRANCH  60  63
ATOM     63  S   UNL A   1      35.077  32.881  30.096  1.00  0.00     0.127 S 
ATOM     64  O   UNL A   1      35.845  34.012  29.582  1.00  0.00    -0.237 OA
ATOM     65  O   UNL A   1      34.578  31.968  29.065  1.00  0.00    -0.237 OA
ATOM     66  O   UNL A   1      34.107  33.183  31.142  1.00  0.00    -0.744 OA
ENDBRANCH  60  63
ENDBRANCH  42  56
BRANCH  43  67
ATOM     67  C   UNL A   1      47.052  27.946  26.559  1.00  0.00     0.023 A 
ATOM     68  C   UNL A   1      47.966  27.205  27.329  1.00  0.00     0.012 A 
ATOM     69  C   UNL A   1      47.286  28.111  25.180  1.00  0.00     0.148 A 
ATOM     70  C   UNL A   1      49.089  26.629  26.736  1.00  0.00     0.002 A 
ATOM     71  C   UNL A   1      48.373  27.482  24.584  1.00  0.00     0.091 A 
ATOM     72  F   UNL A   1      46.417  28.839  24.465  1.00  0.00    -0.205 F 
ATOM     73  C   UNL A   1      49.282  26.749  25.361  1.00  0.00     0.022 A 
BRANCH  71  74
ATOM     74  S   UNL A   1      48.560  27.457  22.796  1.00  0.00     0.127 S 
ATOM     75  O   UNL A   1      48.496  26.029  22.504  1.00  0.00    -0.237 OA
ATOM     76  O   UNL A   1      47.402  28.231  22.343  1.00  0.00    -0.237 OA
ATOM     77  O   UNL A   1      49.839  28.112  22.550  1.00  0.00    -0.744 OA
ENDBRANCH  71  74
ENDBRANCH  43  67
BRANCH  55  78
ATOM     78  C   UNL A   1      44.987  33.765  29.825  1.00  0.00     0.023 A 
ATOM     79  C   UNL A   1      45.744  33.928  31.003  1.00  0.00     0.012 A 
ATOM     80  C   UNL A   1      44.918  34.815  28.892  1.00  0.00     0.148 A 
ATOM     81  C   UNL A   1      46.409  35.126  31.255  1.00  0.00     0.002 A 
ATOM     82  C   UNL A   1      45.607  35.998  29.139  1.00  0.00     0.091 A 
ATOM     83  F   UNL A   1      44.169  34.653  27.793  1.00  0.00    -0.205 F 
ATOM     84  C   UNL A   1      46.349  36.156  30.321  1.00  0.00     0.022 A 
BRANCH  82  85
ATOM     85  S   UNL A   1      45.614  37.337  27.943  1.00  0.00     0.127 S 
ATOM     86  O   UNL A   1      44.217  37.767  27.963  1.00  0.00    -0.237 OA
ATOM     87  O   UNL A   1      46.554  38.293  28.529  1.00  0.00    -0.237 OA
ATOM     88  O   UNL A   1      46.079  36.732  26.700  1.00  0.00    -0.744 OA
ENDBRANCH  82  85
ENDBRANCH  55  78
ENDBRANCH  29  30
ENDBRANCH  22  24
ENDBRANCH  21  22
ENDBRANCH  20  21
ENDBRANCH   1  20
TORSDOF 20
ENDMDL
MODEL 2
REMARK VINA RESULT:      -9.9      1.819      2.311
REMARK SMILES C#CCNC(=O)C[N@@H+](CC(=O)OCCOC(=O)c1ccc(-c2c3nc(c(-c4cccc(S(=O)(=O)[O-])c4F)c4ccc([nH]4)c(-c4cccc(S(=O)(=O)[O-])c4F)c4nc(c(-c5cccc(S(=O)(=O)[O-])c5F)c5ccc2[nH]5)C=C4)C=C3)cc1)C(C)(C)C
REMARK SMILES IDX 13 1 12 2 10 3 11 4 9 5 8 6 7 8 5 9 4 10 6 12 3 13 2 14 1 15
REMARK SMILES IDX 81 16 82 17 83 18 84 19 14 20 15 21 16 22 17 23 18 24 19 25
REMARK SMILES IDX 80 26 20 27 79 28 21 29 22 30 23 31 73 32 24 33 78 34 72 35
REMARK SMILES IDX 74 36 25 37 77 38 71 39 70 40 26 42 58 43 38 44 57 45 39 46
REMARK SMILES IDX 42 47 56 48 75 49 40 50 41 51 55 53 76 54 43 55 27 56 28 57
REMARK SMILES IDX 36 58 29 59 31 60 37 61 30 62 32 63 33 64 34 65 35 66 59 67
REMARK SMILES IDX 60 68 68 69 61 70 63 71 69 72 62 73 64 74 65 75 66 76 67 77
REMARK SMILES IDX 44 78 45 79 53 80 46 81 48 82 54 83 47 84 49 85 50 86 51 87
REMARK SMILES IDX 52 88
REMARK H PARENT 8 7 4 11 74 41 42 52
REMARK Flexibility Score: inf
ROOT
ATOM      1  C   UNL A   1      35.628  19.703  24.855  1.00  0.00     0.274 C 
ENDROOT
BRANCH   1   2
ATOM      2  O   UNL A   1      34.906  20.886  25.271  1.00  0.00    -0.458 OA
BRANCH   2   3
ATOM      3  C   UNL A   1      33.573  20.874  25.049  1.00  0.00     0.361 C 
ATOM      4  O   UNL A   1      32.893  19.849  25.055  1.00  0.00    -0.245 OA
BRANCH   3   5
ATOM      5  C   UNL A   1      32.906  22.230  24.856  1.00  0.00     0.387 C 
BRANCH   5   6
ATOM      6  N   UNL A   1      33.213  23.383  25.731  1.00  0.00    -0.314 N 
ATOM      7  H   UNL A   1      34.007  23.036  26.270  1.00  0.00     0.349 HD
BRANCH   6   8
ATOM      8  C   UNL A   1      32.190  23.639  26.752  1.00  0.00     0.364 C 
BRANCH   8   9
ATOM      9  C   UNL A   1      30.770  23.278  26.298  1.00  0.00     0.275 C 
ATOM     10  N   UNL A   1      29.896  24.242  25.885  1.00  0.00    -0.340 N 
ATOM     11  H   UNL A   1      29.047  23.915  25.511  1.00  0.00     0.164 HD
ATOM     12  O   UNL A   1      30.366  22.112  26.346  1.00  0.00    -0.268 OA
BRANCH  10  13
ATOM     13  C   UNL A   1      30.051  25.673  25.923  1.00  0.00     0.206 C 
BRANCH  13  14
ATOM     14  C   UNL A   1      30.298  26.261  24.544  1.00  0.00    -0.085 C 
ATOM     15  C   UNL A   1      30.510  26.766  23.360  1.00  0.00     0.006 C 
ENDBRANCH  13  14
ENDBRANCH  10  13
ENDBRANCH   8   9
ENDBRANCH   6   8
BRANCH   6  16
ATOM     16  C   UNL A   1      34.040  24.512  25.224  1.00  0.00     0.090 C 
ATOM     17  C   UNL A   1      35.555  24.269  25.368  1.00  0.00     0.078 C 
ATOM     18  C   UNL A   1      33.809  24.781  23.711  1.00  0.00     0.078 C 
ATOM     19  C   UNL A   1      33.634  25.849  25.896  1.00  0.00     0.078 C 
ENDBRANCH   6  16
ENDBRANCH   5   6
ENDBRANCH   3   5
ENDBRANCH   2   3
ENDBRANCH   1   2
BRANCH   1  20
ATOM     20  C   UNL A   1      37.132  19.982  24.781  1.00  0.00     0.275 C 
BRANCH  20  21
ATOM     21  O   UNL A   1      37.492  21.140  25.561  1.00  0.00    -0.458 OA
BRANCH  21  22
ATOM     22  C   UNL A   1      38.768  21.126  25.977  1.00  0.00     0.338 C 
ATOM     23  O   UNL A   1      39.548  20.162  25.901  1.00  0.00    -0.246 OA
BRANCH  22  24
ATOM     24  C   UNL A   1      39.235  22.354  26.591  1.00  0.00     0.060 A 
ATOM     25  C   UNL A   1      38.744  23.576  26.132  1.00  0.00     0.016 A 
ATOM     26  C   UNL A   1      40.388  22.282  27.373  1.00  0.00     0.016 A 
ATOM     27  C   UNL A   1      39.446  24.744  26.427  1.00  0.00     0.010 A 
ATOM     28  C   UNL A   1      41.068  23.454  27.700  1.00  0.00     0.010 A 
ATOM     29  C   UNL A   1      40.612  24.688  27.211  1.00  0.00    -0.014 A 
BRANCH  29  30
ATOM     30  C   UNL A   1      41.291  25.933  27.626  1.00  0.00     0.031 A 
ATOM     31  C   UNL A   1      40.589  26.992  28.422  1.00  0.00     0.074 A 
ATOM     32  C   UNL A   1      42.563  26.106  27.221  1.00  0.00     0.049 A 
ATOM     33  N   UNL A   1      41.035  28.164  28.793  1.00  0.00    -0.248 NA
ATOM     34  C   UNL A   1      39.216  26.703  28.862  1.00  0.00     0.031 C 
ATOM     35  C   UNL A   1      43.323  25.135  26.431  1.00  0.00     0.029 A 
ATOM     36  N   UNL A   1      43.431  27.148  27.401  1.00  0.00    -0.354 N 
ATOM     37  C   UNL A   1      39.993  28.768  29.486  1.00  0.00     0.074 A 
ATOM     38  C   UNL A   1      38.892  27.827  29.491  1.00  0.00     0.031 C 
ATOM     39  C   UNL A   1      44.549  25.622  26.204  1.00  0.00     0.029 A 
ATOM     40  C   UNL A   1      44.645  26.954  26.789  1.00  0.00     0.049 A 
ATOM     41  H   UNL A   1      43.208  27.956  27.917  1.00  0.00     0.167 HD
ATOM     42  C   UNL A   1      39.971  29.987  30.074  1.00  0.00     0.034 A 
ATOM     43  C   UNL A   1      45.714  27.765  26.693  1.00  0.00     0.034 A 
ATOM     44  C   UNL A   1      41.085  30.901  30.084  1.00  0.00     0.049 A 
ATOM     45  C   UNL A   1      45.659  29.112  27.348  1.00  0.00     0.074 A 
ATOM     46  C   UNL A   1      41.169  32.152  30.671  1.00  0.00     0.029 A 
ATOM     47  N   UNL A   1      42.310  30.662  29.479  1.00  0.00    -0.354 N 
ATOM     48  N   UNL A   1      44.692  29.636  28.062  1.00  0.00    -0.248 NA
ATOM     49  C   UNL A   1      46.837  29.973  27.195  1.00  0.00     0.031 C 
ATOM     50  C   UNL A   1      42.448  32.667  30.423  1.00  0.00     0.029 A 
ATOM     51  C   UNL A   1      43.156  31.740  29.675  1.00  0.00     0.049 A 
ATOM     52  H   UNL A   1      42.544  29.844  28.982  1.00  0.00     0.167 HD
ATOM     53  C   UNL A   1      45.144  30.889  28.450  1.00  0.00     0.074 A 
ATOM     54  C   UNL A   1      46.485  31.031  27.915  1.00  0.00     0.031 C 
ATOM     55  C   UNL A   1      44.499  31.845  29.162  1.00  0.00     0.034 A 
BRANCH  42  56
ATOM     56  C   UNL A   1      38.720  30.391  30.806  1.00  0.00     0.023 A 
ATOM     57  C   UNL A   1      38.601  30.087  32.176  1.00  0.00     0.012 A 
ATOM     58  C   UNL A   1      37.700  31.125  30.171  1.00  0.00     0.148 A 
ATOM     59  C   UNL A   1      37.482  30.499  32.901  1.00  0.00     0.002 A 
ATOM     60  C   UNL A   1      36.597  31.551  30.906  1.00  0.00     0.091 A 
ATOM     61  F   UNL A   1      37.810  31.382  28.860  1.00  0.00    -0.205 F 
ATOM     62  C   UNL A   1      36.485  31.238  32.270  1.00  0.00     0.022 A 
BRANCH  60  63
ATOM     63  S   UNL A   1      35.309  32.551  30.152  1.00  0.00     0.127 S 
ATOM     64  O   UNL A   1      36.049  33.745  29.752  1.00  0.00    -0.237 OA
ATOM     65  O   UNL A   1      34.856  31.716  29.036  1.00  0.00    -0.237 OA
ATOM     66  O   UNL A   1      34.312  32.731  31.201  1.00  0.00    -0.744 OA
ENDBRANCH  60  63
ENDBRANCH  42  56
BRANCH  43  67
ATOM     67  C   UNL A   1      46.930  27.266  25.999  1.00  0.00     0.023 A 
ATOM     68  C   UNL A   1      47.151  27.633  24.659  1.00  0.00     0.012 A 
ATOM     69  C   UNL A   1      47.930  26.558  26.693  1.00  0.00     0.148 A 
ATOM     70  C   UNL A   1      48.351  27.310  24.025  1.00  0.00     0.002 A 
ATOM     71  C   UNL A   1      49.147  26.294  26.075  1.00  0.00     0.091 A 
ATOM     72  F   UNL A   1      47.694  26.195  27.963  1.00  0.00    -0.205 F 
ATOM     73  C   UNL A   1      49.357  26.660  24.738  1.00  0.00     0.022 A 
BRANCH  71  74
ATOM     74  S   UNL A   1      50.531  25.627  27.007  1.00  0.00     0.127 S 
ATOM     75  O   UNL A   1      50.787  26.689  27.975  1.00  0.00    -0.237 OA
ATOM     76  O   UNL A   1      49.972  24.398  27.575  1.00  0.00    -0.237 OA
ATOM     77  O   UNL A   1      51.569  25.395  26.010  1.00  0.00    -0.744 OA
ENDBRANCH  71  74
ENDBRANCH  43  67
BRANCH  55  78
ATOM     78  C   UNL A   1      45.231  33.138  29.379  1.00  0.00     0.023 A 
ATOM     79  C   UNL A   1      46.053  33.272  30.515  1.00  0.00     0.012 A 
ATOM     80  C   UNL A   1      45.149  34.193  28.453  1.00  0.00     0.148 A 
ATOM     81  C   UNL A   1      46.770  34.446  30.735  1.00  0.00     0.002 A 
ATOM     82  C   UNL A   1      45.888  35.351  28.665  1.00  0.00     0.091 A 
ATOM     83  F   UNL A   1      44.338  34.059  27.393  1.00  0.00    -0.205 F 
ATOM     84  C   UNL A   1      46.695  35.481  29.807  1.00  0.00     0.022 A 
BRANCH  82  85
ATOM     85  S   UNL A   1      45.877  36.694  27.473  1.00  0.00     0.127 S 
ATOM     86  O   UNL A   1      46.638  37.726  28.172  1.00  0.00    -0.237 OA
ATOM     87  O   UNL A   1      46.561  36.109  26.319  1.00  0.00    -0.237 OA
ATOM     88  O   UNL A   1      44.466  36.984  27.242  1.00  0.00    -0.744 OA
ENDBRANCH  82  85
ENDBRANCH  55  78
ENDBRANCH  29  30
ENDBRANCH  22  24
ENDBRANCH  21  22
ENDBRANCH  20  21
ENDBRANCH   1  20
TORSDOF 20
ENDMDL
MODEL 3
REMARK VINA RESULT:      -9.8      5.179     10.050
REMARK SMILES C#CCNC(=O)C[N@@H+](CC(=O)OCCOC(=O)c1ccc(-c2c3nc(c(-c4cccc(S(=O)(=O)[O-])c4F)c4ccc([nH]4)c(-c4cccc(S(=O)(=O)[O-])c4F)c4nc(c(-c5cccc(S(=O)(=O)[O-])c5F)c5ccc2[nH]5)C=C4)C=C3)cc1)C(C)(C)C
REMARK SMILES IDX 13 1 12 2 10 3 11 4 9 5 8 6 7 8 5 9 4 10 6 12 3 13 2 14 1 15
REMARK SMILES IDX 81 16 82 17 83 18 84 19 14 20 15 21 16 22 17 23 18 24 19 25
REMARK SMILES IDX 80 26 20 27 79 28 21 29 22 30 23 31 73 32 24 33 78 34 72 35
REMARK SMILES IDX 74 36 25 37 77 38 71 39 70 40 26 42 58 43 38 44 57 45 39 46
REMARK SMILES IDX 42 47 56 48 75 49 40 50 41 51 55 53 76 54 43 55 27 56 28 57
REMARK SMILES IDX 36 58 29 59 31 60 37 61 30 62 32 63 33 64 34 65 35 66 59 67
REMARK SMILES IDX 60 68 68 69 61 70 63 71 69 72 62 73 64 74 65 75 66 76 67 77
REMARK SMILES IDX 44 78 45 79 53 80 46 81 48 82 54 83 47 84 49 85 50 86 51 87
REMARK SMILES IDX 52 88
REMARK H PARENT 8 7 4 11 74 41 42 52
REMARK Flexibility Score: inf
ROOT
ATOM      1  C   UNL A   1      31.949  29.647  24.582  1.00  0.00     0.274 C 
ENDROOT
BRANCH   1   2
ATOM      2  O   UNL A   1      30.872  29.036  23.833  1.00  0.00    -0.458 OA
BRANCH   2   3
ATOM      3  C   UNL A   1      31.205  27.957  23.091  1.00  0.00     0.361 C 
ATOM      4  O   UNL A   1      30.700  27.703  21.998  1.00  0.00    -0.245 OA
BRANCH   3   5
ATOM      5  C   UNL A   1      32.315  27.071  23.642  1.00  0.00     0.387 C 
BRANCH   5   6
ATOM      6  N   UNL A   1      32.041  25.720  24.179  1.00  0.00    -0.314 N 
ATOM      7  H   UNL A   1      32.958  25.438  24.526  1.00  0.00     0.349 HD
BRANCH   6   8
ATOM      8  C   UNL A   1      31.743  24.722  23.145  1.00  0.00     0.364 C 
BRANCH   8   9
ATOM      9  C   UNL A   1      32.906  24.482  22.174  1.00  0.00     0.275 C 
ATOM     10  N   UNL A   1      33.917  23.619  22.487  1.00  0.00    -0.340 N 
ATOM     11  H   UNL A   1      34.565  23.443  21.766  1.00  0.00     0.164 HD
ATOM     12  O   UNL A   1      32.983  25.102  21.110  1.00  0.00    -0.268 OA
BRANCH  10  13
ATOM     13  C   UNL A   1      34.163  22.934  23.728  1.00  0.00     0.206 C 
BRANCH  13  14
ATOM     14  C   UNL A   1      35.634  22.605  23.922  1.00  0.00    -0.085 C 
ATOM     15  C   UNL A   1      36.896  22.323  24.088  1.00  0.00     0.006 C 
ENDBRANCH  13  14
ENDBRANCH  10  13
ENDBRANCH   8   9
ENDBRANCH   6   8
BRANCH   6  16
ATOM     16  C   UNL A   1      31.465  25.556  25.542  1.00  0.00     0.090 C 
ATOM     17  C   UNL A   1      31.913  24.257  26.239  1.00  0.00     0.078 C 
ATOM     18  C   UNL A   1      31.882  26.703  26.502  1.00  0.00     0.078 C 
ATOM     19  C   UNL A   1      29.917  25.654  25.511  1.00  0.00     0.078 C 
ENDBRANCH   6  16
ENDBRANCH   5   6
ENDBRANCH   3   5
ENDBRANCH   2   3
ENDBRANCH   1   2
BRANCH   1  20
ATOM     20  C   UNL A   1      31.399  30.485  25.739  1.00  0.00     0.275 C 
BRANCH  20  21
ATOM     21  O   UNL A   1      32.181  30.305  26.937  1.00  0.00    -0.458 OA
BRANCH  21  22
ATOM     22  C   UNL A   1      32.999  31.337  27.200  1.00  0.00     0.338 C 
ATOM     23  O   UNL A   1      32.712  32.540  27.083  1.00  0.00    -0.246 OA
BRANCH  22  24
ATOM     24  C   UNL A   1      34.336  30.977  27.629  1.00  0.00     0.060 A 
ATOM     25  C   UNL A   1      34.626  29.642  27.912  1.00  0.00     0.016 A 
ATOM     26  C   UNL A   1      35.170  32.008  28.061  1.00  0.00     0.016 A 
ATOM     27  C   UNL A   1      35.751  29.338  28.677  1.00  0.00     0.010 A 
ATOM     28  C   UNL A   1      36.316  31.701  28.793  1.00  0.00     0.010 A 
ATOM     29  C   UNL A   1      36.600  30.367  29.122  1.00  0.00    -0.014 A 
BRANCH  29  30
ATOM     30  C   UNL A   1      37.856  30.041  29.831  1.00  0.00     0.031 A 
ATOM     31  C   UNL A   1      38.889  29.134  29.235  1.00  0.00     0.074 A 
ATOM     32  C   UNL A   1      38.022  30.558  31.062  1.00  0.00     0.049 A 
ATOM     33  N   UNL A   1      40.002  28.702  29.769  1.00  0.00    -0.248 NA
ATOM     34  C   UNL A   1      38.651  28.649  27.867  1.00  0.00     0.031 C 
ATOM     35  C   UNL A   1      37.062  31.442  31.728  1.00  0.00     0.029 A 
ATOM     36  N   UNL A   1      39.033  30.413  31.971  1.00  0.00    -0.354 N 
ATOM     37  C   UNL A   1      40.587  27.873  28.820  1.00  0.00     0.074 A 
ATOM     38  C   UNL A   1      39.708  27.868  27.669  1.00  0.00     0.031 C 
ATOM     39  C   UNL A   1      37.537  31.770  32.936  1.00  0.00     0.029 A 
ATOM     40  C   UNL A   1      38.806  31.083  33.147  1.00  0.00     0.049 A 
ATOM     41  H   UNL A   1      39.843  29.879  31.799  1.00  0.00     0.167 HD
ATOM     42  C   UNL A   1      41.756  27.195  28.902  1.00  0.00     0.034 A 
ATOM     43  C   UNL A   1      39.530  31.129  34.280  1.00  0.00     0.034 A 
ATOM     44  C   UNL A   1      42.634  27.233  30.044  1.00  0.00     0.049 A 
ATOM     45  C   UNL A   1      40.817  30.365  34.345  1.00  0.00     0.074 A 
ATOM     46  C   UNL A   1      43.852  26.598  30.217  1.00  0.00     0.029 A 
ATOM     47  N   UNL A   1      42.388  27.945  31.209  1.00  0.00    -0.354 N 
ATOM     48  N   UNL A   1      41.390  29.646  33.410  1.00  0.00    -0.248 NA
ATOM     49  C   UNL A   1      41.560  30.423  35.609  1.00  0.00     0.031 C 
ATOM     50  C   UNL A   1      44.344  26.930  31.486  1.00  0.00     0.029 A 
ATOM     51  C   UNL A   1      43.427  27.766  32.106  1.00  0.00     0.049 A 
ATOM     52  H   UNL A   1      41.590  28.498  31.374  1.00  0.00     0.167 HD
ATOM     53  C   UNL A   1      42.567  29.167  33.969  1.00  0.00     0.074 A 
ATOM     54  C   UNL A   1      42.636  29.703  35.316  1.00  0.00     0.031 C 
ATOM     55  C   UNL A   1      43.491  28.337  33.427  1.00  0.00     0.034 A 
BRANCH  42  56
ATOM     56  C   UNL A   1      42.189  26.395  27.705  1.00  0.00     0.023 A 
ATOM     57  C   UNL A   1      42.998  27.007  26.728  1.00  0.00     0.012 A 
ATOM     58  C   UNL A   1      41.863  25.031  27.575  1.00  0.00     0.148 A 
ATOM     59  C   UNL A   1      43.468  26.278  25.635  1.00  0.00     0.002 A 
ATOM     60  C   UNL A   1      42.355  24.305  26.493  1.00  0.00     0.091 A 
ATOM     61  F   UNL A   1      41.068  24.466  28.495  1.00  0.00    -0.205 F 
ATOM     62  C   UNL A   1      43.155  24.926  25.522  1.00  0.00     0.022 A 
BRANCH  60  63
ATOM     63  S   UNL A   1      42.023  22.546  26.328  1.00  0.00     0.127 S 
ATOM     64  O   UNL A   1      42.649  22.007  27.532  1.00  0.00    -0.237 OA
ATOM     65  O   UNL A   1      40.559  22.488  26.327  1.00  0.00    -0.237 OA
ATOM     66  O   UNL A   1      42.633  22.168  25.059  1.00  0.00    -0.744 OA
ENDBRANCH  60  63
ENDBRANCH  42  56
BRANCH  43  67
ATOM     67  C   UNL A   1      39.057  31.991  35.396  1.00  0.00     0.023 A 
ATOM     68  C   UNL A   1      38.235  31.430  36.390  1.00  0.00     0.012 A 
ATOM     69  C   UNL A   1      39.530  33.307  35.555  1.00  0.00     0.148 A 
ATOM     70  C   UNL A   1      37.899  32.163  37.528  1.00  0.00     0.002 A 
ATOM     71  C   UNL A   1      39.242  34.010  36.719  1.00  0.00     0.091 A 
ATOM     72  F   UNL A   1      40.293  33.835  34.587  1.00  0.00    -0.205 F 
ATOM     73  C   UNL A   1      38.418  33.445  37.703  1.00  0.00     0.022 A 
BRANCH  71  74
ATOM     74  S   UNL A   1      40.036  35.585  37.068  1.00  0.00     0.127 S 
ATOM     75  O   UNL A   1      39.478  35.924  38.373  1.00  0.00    -0.237 OA
ATOM     76  O   UNL A   1      41.457  35.231  37.079  1.00  0.00    -0.237 OA
ATOM     77  O   UNL A   1      39.652  36.446  35.955  1.00  0.00    -0.744 OA
ENDBRANCH  71  74
ENDBRANCH  43  67
BRANCH  55  78
ATOM     78  C   UNL A   1      44.644  27.942  34.305  1.00  0.00     0.023 A 
ATOM     79  C   UNL A   1      45.802  28.745  34.309  1.00  0.00     0.012 A 
ATOM     80  C   UNL A   1      44.573  26.820  35.150  1.00  0.00     0.148 A 
ATOM     81  C   UNL A   1      46.881  28.426  35.131  1.00  0.00     0.002 A 
ATOM     82  C   UNL A   1      45.643  26.524  35.987  1.00  0.00     0.091 A 
ATOM     83  F   UNL A   1      43.476  26.051  35.109  1.00  0.00    -0.205 F 
ATOM     84  C   UNL A   1      46.799  27.322  35.976  1.00  0.00     0.022 A 
BRANCH  82  85
ATOM     85  S   UNL A   1      45.569  25.148  37.139  1.00  0.00     0.127 S 
ATOM     86  O   UNL A   1      44.385  25.480  37.930  1.00  0.00    -0.237 OA
ATOM     87  O   UNL A   1      45.406  23.992  36.257  1.00  0.00    -0.237 OA
ATOM     88  O   UNL A   1      46.842  25.180  37.849  1.00  0.00    -0.744 OA
ENDBRANCH  82  85
ENDBRANCH  55  78
ENDBRANCH  29  30
ENDBRANCH  22  24
ENDBRANCH  21  22
ENDBRANCH  20  21
ENDBRANCH   1  20
TORSDOF 20
ENDMDL
