MODEL 1
REMARK VINA RESULT:     -12.4      0.000      0.000
REMARK SMILES Cc1nc(S[C@@H](C(=O)OCCOC(=O)c2ccc(-c3c4nc(c(-c5cccc(S(=O)(=O)[O-])c5F)c5ccc([nH]5)c(-c5cccc(S(=O)(=O)[O-])c5F)c5nc(c(-c6cccc(S(=O)(=O)[O-])c6F)c6ccc3[nH]6)C=C5)C=C4)cc2)c2ccccc2)nc2ccccc12
REMARK SMILES IDX 11 1 10 2 9 3 7 4 8 5 6 6 5 7 4 8 1 9 2 10 3 11 90 12 85 13
REMARK SMILES IDX 89 14 84 15 86 16 88 17 87 18 78 19 79 20 83 21 80 22 82 23
REMARK SMILES IDX 81 24 12 25 13 26 14 27 15 28 16 29 77 30 17 31 76 32 18 33
REMARK SMILES IDX 19 34 20 35 70 36 21 37 75 38 69 39 71 40 22 41 74 42 68 43
REMARK SMILES IDX 67 44 23 46 55 47 35 48 54 49 36 50 39 51 53 52 72 53 37 54
REMARK SMILES IDX 38 55 52 57 73 58 40 59 24 60 25 61 33 62 26 63 28 64 34 65
REMARK SMILES IDX 27 66 29 67 30 68 31 69 32 70 56 71 57 72 65 73 58 74 60 75
REMARK SMILES IDX 66 76 59 77 61 78 62 79 63 80 64 81 41 82 42 83 50 84 43 85
REMARK SMILES IDX 45 86 51 87 44 88 46 89 47 90 48 91 49 92
REMARK H PARENT 71 45 39 56
REMARK Flexibility Score: inf
ROOT
ATOM      1  C   UNL A   1      31.940  30.316  26.527  1.00  0.00     0.275 C 
ENDROOT
BRANCH   1   2
ATOM      2  C   UNL A   1      31.740  28.936  27.148  1.00  0.00     0.274 C 
BRANCH   2   3
ATOM      3  O   UNL A   1      32.394  27.918  26.360  1.00  0.00    -0.461 OA
BRANCH   3   4
ATOM      4  C   UNL A   1      31.593  26.897  25.934  1.00  0.00     0.324 C 
ATOM      5  O   UNL A   1      31.143  26.058  26.713  1.00  0.00    -0.251 OA
BRANCH   4   6
ATOM      6  C   UNL A   1      31.459  26.786  24.403  1.00  0.00     0.194 C 
BRANCH   6   7
ATOM      7  S   UNL A   1      33.042  26.469  23.540  1.00  0.00    -0.066 SA
BRANCH   7   8
ATOM      8  C   UNL A   1      33.655  24.930  24.181  1.00  0.00     0.189 A 
ATOM      9  C   UNL A   1      36.635  23.436  25.689  1.00  0.00     0.067 C 
ATOM     10  C   UNL A   1      35.260  23.570  25.096  1.00  0.00     0.050 A 
ATOM     11  N   UNL A   1      34.833  24.834  24.808  1.00  0.00    -0.227 NA
ATOM     12  C   UNL A   1      34.502  22.417  24.835  1.00  0.00     0.022 A 
ATOM     13  C   UNL A   1      33.295  22.653  24.178  1.00  0.00     0.075 A 
ATOM     14  C   UNL A   1      34.875  21.083  25.157  1.00  0.00     0.012 A 
ATOM     15  N   UNL A   1      32.876  23.881  23.860  1.00  0.00    -0.222 NA
ATOM     16  C   UNL A   1      32.512  21.563  23.816  1.00  0.00     0.029 A 
ATOM     17  C   UNL A   1      34.068  20.008  24.794  1.00  0.00     0.001 A 
ATOM     18  C   UNL A   1      32.887  20.248  24.110  1.00  0.00     0.002 A 
ENDBRANCH   7   8
ENDBRANCH   6   7
BRANCH   6  19
ATOM     19  C   UNL A   1      30.428  27.715  23.741  1.00  0.00    -0.023 A 
ATOM     20  C   UNL A   1      30.757  28.910  23.079  1.00  0.00     0.005 A 
ATOM     21  C   UNL A   1      29.066  27.337  23.717  1.00  0.00     0.005 A 
ATOM     22  C   UNL A   1      29.775  29.715  22.489  1.00  0.00     0.000 A 
ATOM     23  C   UNL A   1      28.084  28.142  23.132  1.00  0.00     0.000 A 
ATOM     24  C   UNL A   1      28.437  29.338  22.524  1.00  0.00     0.000 A 
ENDBRANCH   6  19
ENDBRANCH   4   6
ENDBRANCH   3   4
ENDBRANCH   2   3
ENDBRANCH   1   2
BRANCH   1  25
ATOM     25  O   UNL A   1      33.345  30.606  26.474  1.00  0.00    -0.458 OA
BRANCH  25  26
ATOM     26  C   UNL A   1      33.800  31.501  27.374  1.00  0.00     0.338 C 
ATOM     27  O   UNL A   1      33.266  32.551  27.701  1.00  0.00    -0.246 OA
BRANCH  26  28
ATOM     28  C   UNL A   1      35.098  31.039  27.909  1.00  0.00     0.060 A 
ATOM     29  C   UNL A   1      36.143  31.953  28.050  1.00  0.00     0.016 A 
ATOM     30  C   UNL A   1      35.251  29.731  28.377  1.00  0.00     0.016 A 
ATOM     31  C   UNL A   1      37.344  31.550  28.642  1.00  0.00     0.010 A 
ATOM     32  C   UNL A   1      36.431  29.340  29.006  1.00  0.00     0.010 A 
ATOM     33  C   UNL A   1      37.492  30.242  29.131  1.00  0.00    -0.014 A 
BRANCH  33  34
ATOM     34  C   UNL A   1      38.748  29.804  29.775  1.00  0.00     0.031 A 
ATOM     35  C   UNL A   1      39.154  30.389  31.097  1.00  0.00     0.074 A 
ATOM     36  C   UNL A   1      39.566  28.942  29.142  1.00  0.00     0.049 A 
ATOM     37  N   UNL A   1      40.144  30.042  31.875  1.00  0.00    -0.248 NA
ATOM     38  C   UNL A   1      38.354  31.517  31.606  1.00  0.00     0.031 C 
ATOM     39  C   UNL A   1      39.359  28.412  27.793  1.00  0.00     0.029 A 
ATOM     40  N   UNL A   1      40.755  28.385  29.540  1.00  0.00    -0.354 N 
ATOM     41  C   UNL A   1      40.082  30.895  32.968  1.00  0.00     0.074 A 
ATOM     42  C   UNL A   1      38.985  31.808  32.736  1.00  0.00     0.031 C 
ATOM     43  C   UNL A   1      40.401  27.627  27.466  1.00  0.00     0.029 A 
ATOM     44  C   UNL A   1      41.329  27.571  28.593  1.00  0.00     0.049 A 
ATOM     45  H   UNL A   1      41.159  28.552  30.422  1.00  0.00     0.167 HD
ATOM     46  C   UNL A   1      40.844  30.885  34.084  1.00  0.00     0.034 A 
ATOM     47  C   UNL A   1      42.460  26.840  28.643  1.00  0.00     0.034 A 
ATOM     48  C   UNL A   1      41.918  29.961  34.320  1.00  0.00     0.049 A 
ATOM     49  C   UNL A   1      43.239  26.778  29.929  1.00  0.00     0.074 A 
ATOM     50  C   UNL A   1      42.680  29.802  35.464  1.00  0.00     0.029 A 
ATOM     51  N   UNL A   1      42.388  29.048  33.391  1.00  0.00    -0.354 N 
ATOM     52  N   UNL A   1      43.020  27.416  31.053  1.00  0.00    -0.248 NA
ATOM     53  C   UNL A   1      44.378  25.848  29.980  1.00  0.00     0.031 C 
ATOM     54  C   UNL A   1      43.611  28.787  35.227  1.00  0.00     0.029 A 
ATOM     55  C   UNL A   1      43.426  28.317  33.936  1.00  0.00     0.049 A 
ATOM     56  H   UNL A   1      42.035  28.936  32.479  1.00  0.00     0.167 HD
ATOM     57  C   UNL A   1      43.962  26.933  31.955  1.00  0.00     0.074 A 
ATOM     58  C   UNL A   1      44.753  25.947  31.249  1.00  0.00     0.031 C 
ATOM     59  C   UNL A   1      44.155  27.285  33.249  1.00  0.00     0.034 A 
BRANCH  46  60
ATOM     60  C   UNL A   1      40.478  31.826  35.194  1.00  0.00     0.023 A 
ATOM     61  C   UNL A   1      41.142  33.068  35.265  1.00  0.00     0.012 A 
ATOM     62  C   UNL A   1      39.419  31.551  36.078  1.00  0.00     0.148 A 
ATOM     63  C   UNL A   1      40.761  34.023  36.203  1.00  0.00     0.002 A 
ATOM     64  C   UNL A   1      39.028  32.519  36.995  1.00  0.00     0.091 A 
ATOM     65  F   UNL A   1      38.806  30.362  35.989  1.00  0.00    -0.205 F 
ATOM     66  C   UNL A   1      39.699  33.752  37.061  1.00  0.00     0.022 A 
BRANCH  64  67
ATOM     67  S   UNL A   1      37.645  32.298  38.120  1.00  0.00     0.127 S 
ATOM     68  O   UNL A   1      36.630  33.163  37.518  1.00  0.00    -0.237 OA
ATOM     69  O   UNL A   1      37.378  30.866  37.992  1.00  0.00    -0.237 OA
ATOM     70  O   UNL A   1      38.114  32.728  39.428  1.00  0.00    -0.744 OA
ENDBRANCH  64  67
ENDBRANCH  46  60
BRANCH  47  71
ATOM     71  C   UNL A   1      42.850  26.006  27.475  1.00  0.00     0.023 A 
ATOM     72  C   UNL A   1      43.686  26.560  26.486  1.00  0.00     0.012 A 
ATOM     73  C   UNL A   1      42.428  24.670  27.355  1.00  0.00     0.148 A 
ATOM     74  C   UNL A   1      44.076  25.803  25.382  1.00  0.00     0.002 A 
ATOM     75  C   UNL A   1      42.847  23.910  26.268  1.00  0.00     0.091 A 
ATOM     76  F   UNL A   1      41.628  24.168  28.307  1.00  0.00    -0.205 F 
ATOM     77  C   UNL A   1      43.662  24.479  25.275  1.00  0.00     0.022 A 
BRANCH  75  78
ATOM     78  S   UNL A   1      42.440  22.169  26.087  1.00  0.00     0.127 S 
ATOM     79  O   UNL A   1      40.995  22.222  25.882  1.00  0.00    -0.237 OA
ATOM     80  O   UNL A   1      43.218  21.802  24.902  1.00  0.00    -0.237 OA
ATOM     81  O   UNL A   1      42.882  21.532  27.319  1.00  0.00    -0.744 OA
ENDBRANCH  75  78
ENDBRANCH  47  71
BRANCH  59  82
ATOM     82  C   UNL A   1      45.238  26.590  34.023  1.00  0.00     0.023 A 
ATOM     83  C   UNL A   1      46.553  27.090  33.973  1.00  0.00     0.012 A 
ATOM     84  C   UNL A   1      44.927  25.534  34.901  1.00  0.00     0.148 A 
ATOM     85  C   UNL A   1      47.546  26.545  34.785  1.00  0.00     0.002 A 
ATOM     86  C   UNL A   1      45.915  25.017  35.732  1.00  0.00     0.091 A 
ATOM     87  F   UNL A   1      43.671  25.065  34.917  1.00  0.00    -0.205 F 
ATOM     88  C   UNL A   1      47.225  25.520  35.672  1.00  0.00     0.022 A 
BRANCH  86  89
ATOM     89  S   UNL A   1      45.572  23.753  36.961  1.00  0.00     0.127 S 
ATOM     90  O   UNL A   1      46.892  23.547  37.553  1.00  0.00    -0.237 OA
ATOM     91  O   UNL A   1      44.608  24.421  37.837  1.00  0.00    -0.237 OA
ATOM     92  O   UNL A   1      45.031  22.616  36.226  1.00  0.00    -0.744 OA
ENDBRANCH  86  89
ENDBRANCH  59  82
ENDBRANCH  33  34
ENDBRANCH  26  28
ENDBRANCH  25  26
ENDBRANCH   1  25
TORSDOF 17
ENDMDL
MODEL 2
REMARK VINA RESULT:     -12.2      1.130      3.775
REMARK SMILES Cc1nc(S[C@@H](C(=O)OCCOC(=O)c2ccc(-c3c4nc(c(-c5cccc(S(=O)(=O)[O-])c5F)c5ccc([nH]5)c(-c5cccc(S(=O)(=O)[O-])c5F)c5nc(c(-c6cccc(S(=O)(=O)[O-])c6F)c6ccc3[nH]6)C=C5)C=C4)cc2)c2ccccc2)nc2ccccc12
REMARK SMILES IDX 11 1 10 2 9 3 7 4 8 5 6 6 5 7 4 8 1 9 2 10 3 11 90 12 85 13
REMARK SMILES IDX 89 14 84 15 86 16 88 17 87 18 78 19 79 20 83 21 80 22 82 23
REMARK SMILES IDX 81 24 12 25 13 26 14 27 15 28 16 29 77 30 17 31 76 32 18 33
REMARK SMILES IDX 19 34 20 35 70 36 21 37 75 38 69 39 71 40 22 41 74 42 68 43
REMARK SMILES IDX 67 44 23 46 55 47 35 48 54 49 36 50 39 51 53 52 72 53 37 54
REMARK SMILES IDX 38 55 52 57 73 58 40 59 24 60 25 61 33 62 26 63 28 64 34 65
REMARK SMILES IDX 27 66 29 67 30 68 31 69 32 70 56 71 57 72 65 73 58 74 60 75
REMARK SMILES IDX 66 76 59 77 61 78 62 79 63 80 64 81 41 82 42 83 50 84 43 85
REMARK SMILES IDX 45 86 51 87 44 88 46 89 47 90 48 91 49 92
REMARK H PARENT 71 45 39 56
REMARK Flexibility Score: inf
ROOT
ATOM      1  C   UNL A   1      32.072  29.812  26.861  1.00  0.00     0.275 C 
ENDROOT
BRANCH   1   2
ATOM      2  C   UNL A   1      31.722  28.778  25.793  1.00  0.00     0.274 C 
BRANCH   2   3
ATOM      3  O   UNL A   1      32.867  27.955  25.481  1.00  0.00    -0.461 OA
BRANCH   3   4
ATOM      4  C   UNL A   1      32.594  26.643  25.213  1.00  0.00     0.324 C 
ATOM      5  O   UNL A   1      31.936  25.949  25.987  1.00  0.00    -0.251 OA
BRANCH   4   6
ATOM      6  C   UNL A   1      33.322  26.077  23.979  1.00  0.00     0.194 C 
BRANCH   6   7
ATOM      7  S   UNL A   1      32.276  25.976  22.481  1.00  0.00    -0.066 SA
BRANCH   7   8
ATOM      8  C   UNL A   1      30.821  26.934  22.827  1.00  0.00     0.189 A 
ATOM      9  C   UNL A   1      27.419  26.612  24.133  1.00  0.00     0.067 C 
ATOM     10  C   UNL A   1      28.652  27.215  23.521  1.00  0.00     0.050 A 
ATOM     11  N   UNL A   1      29.765  26.426  23.472  1.00  0.00    -0.227 NA
ATOM     12  C   UNL A   1      28.603  28.518  23.002  1.00  0.00     0.022 A 
ATOM     13  C   UNL A   1      29.767  28.929  22.354  1.00  0.00     0.075 A 
ATOM     14  C   UNL A   1      27.490  29.400  23.066  1.00  0.00     0.012 A 
ATOM     15  N   UNL A   1      30.856  28.159  22.269  1.00  0.00    -0.222 NA
ATOM     16  C   UNL A   1      29.784  30.180  21.748  1.00  0.00     0.029 A 
ATOM     17  C   UNL A   1      27.534  30.654  22.461  1.00  0.00     0.001 A 
ATOM     18  C   UNL A   1      28.682  31.041  21.789  1.00  0.00     0.002 A 
ENDBRANCH   7   8
ENDBRANCH   6   7
BRANCH   6  19
ATOM     19  C   UNL A   1      34.345  24.960  24.245  1.00  0.00    -0.023 A 
ATOM     20  C   UNL A   1      35.124  24.868  25.411  1.00  0.00     0.005 A 
ATOM     21  C   UNL A   1      34.483  23.907  23.312  1.00  0.00     0.005 A 
ATOM     22  C   UNL A   1      36.038  23.824  25.602  1.00  0.00     0.000 A 
ATOM     23  C   UNL A   1      35.398  22.866  23.499  1.00  0.00     0.000 A 
ATOM     24  C   UNL A   1      36.183  22.829  24.642  1.00  0.00     0.000 A 
ENDBRANCH   6  19
ENDBRANCH   4   6
ENDBRANCH   3   4
ENDBRANCH   2   3
ENDBRANCH   1   2
BRANCH   1  25
ATOM     25  O   UNL A   1      33.246  30.529  26.451  1.00  0.00    -0.458 OA
BRANCH  25  26
ATOM     26  C   UNL A   1      33.697  31.467  27.309  1.00  0.00     0.338 C 
ATOM     27  O   UNL A   1      33.153  32.524  27.594  1.00  0.00    -0.246 OA
BRANCH  26  28
ATOM     28  C   UNL A   1      35.004  31.043  27.853  1.00  0.00     0.060 A 
ATOM     29  C   UNL A   1      36.007  31.995  28.044  1.00  0.00     0.016 A 
ATOM     30  C   UNL A   1      35.204  29.727  28.282  1.00  0.00     0.016 A 
ATOM     31  C   UNL A   1      37.212  31.623  28.646  1.00  0.00     0.010 A 
ATOM     32  C   UNL A   1      36.388  29.365  28.921  1.00  0.00     0.010 A 
ATOM     33  C   UNL A   1      37.407  30.308  29.095  1.00  0.00    -0.014 A 
BRANCH  33  34
ATOM     34  C   UNL A   1      38.669  29.902  29.749  1.00  0.00     0.031 A 
ATOM     35  C   UNL A   1      39.030  30.466  31.092  1.00  0.00     0.074 A 
ATOM     36  C   UNL A   1      39.531  29.089  29.108  1.00  0.00     0.049 A 
ATOM     37  N   UNL A   1      40.020  30.138  31.878  1.00  0.00    -0.248 NA
ATOM     38  C   UNL A   1      38.178  31.548  31.617  1.00  0.00     0.031 C 
ATOM     39  C   UNL A   1      39.367  28.587  27.742  1.00  0.00     0.029 A 
ATOM     40  N   UNL A   1      40.734  28.568  29.512  1.00  0.00    -0.354 N 
ATOM     41  C   UNL A   1      39.907  30.958  32.991  1.00  0.00     0.074 A 
ATOM     42  C   UNL A   1      38.779  31.833  32.764  1.00  0.00     0.031 C 
ATOM     43  C   UNL A   1      40.444  27.852  27.413  1.00  0.00     0.029 A 
ATOM     44  C   UNL A   1      41.355  27.803  28.554  1.00  0.00     0.049 A 
ATOM     45  H   UNL A   1      41.117  28.728  30.404  1.00  0.00     0.167 HD
ATOM     46  C   UNL A   1      40.652  30.948  34.120  1.00  0.00     0.034 A 
ATOM     47  C   UNL A   1      42.513  27.116  28.604  1.00  0.00     0.034 A 
ATOM     48  C   UNL A   1      41.757  30.061  34.350  1.00  0.00     0.049 A 
ATOM     49  C   UNL A   1      43.273  27.050  29.901  1.00  0.00     0.074 A 
ATOM     50  C   UNL A   1      42.506  29.901  35.502  1.00  0.00     0.029 A 
ATOM     51  N   UNL A   1      42.278  29.192  33.406  1.00  0.00    -0.354 N 
ATOM     52  N   UNL A   1      43.011  27.648  31.038  1.00  0.00    -0.248 NA
ATOM     53  C   UNL A   1      44.447  26.164  29.947  1.00  0.00     0.031 C 
ATOM     54  C   UNL A   1      43.480  28.930  35.256  1.00  0.00     0.029 A 
ATOM     55  C   UNL A   1      43.334  28.487  33.950  1.00  0.00     0.049 A 
ATOM     56  H   UNL A   1      41.944  29.091  32.486  1.00  0.00     0.167 HD
ATOM     57  C   UNL A   1      43.957  27.179  31.942  1.00  0.00     0.074 A 
ATOM     58  C   UNL A   1      44.797  26.244  31.225  1.00  0.00     0.031 C 
ATOM     59  C   UNL A   1      44.115  27.504  33.248  1.00  0.00     0.034 A 
BRANCH  46  60
ATOM     60  C   UNL A   1      40.231  31.845  35.248  1.00  0.00     0.023 A 
ATOM     61  C   UNL A   1      40.742  33.158  35.285  1.00  0.00     0.012 A 
ATOM     62  C   UNL A   1      39.259  31.448  36.184  1.00  0.00     0.148 A 
ATOM     63  C   UNL A   1      40.296  34.065  36.242  1.00  0.00     0.002 A 
ATOM     64  C   UNL A   1      38.800  32.367  37.121  1.00  0.00     0.091 A 
ATOM     65  F   UNL A   1      38.791  30.194  36.126  1.00  0.00    -0.205 F 
ATOM     66  C   UNL A   1      39.320  33.673  37.153  1.00  0.00     0.022 A 
BRANCH  64  67
ATOM     67  S   UNL A   1      37.513  31.987  38.314  1.00  0.00     0.127 S 
ATOM     68  O   UNL A   1      37.208  30.593  37.989  1.00  0.00    -0.237 OA
ATOM     69  O   UNL A   1      38.211  32.179  39.583  1.00  0.00    -0.237 OA
ATOM     70  O   UNL A   1      36.430  32.923  38.053  1.00  0.00    -0.744 OA
ENDBRANCH  64  67
ENDBRANCH  46  60
BRANCH  47  71
ATOM     71  C   UNL A   1      42.954  26.329  27.422  1.00  0.00     0.023 A 
ATOM     72  C   UNL A   1      43.826  26.924  26.490  1.00  0.00     0.012 A 
ATOM     73  C   UNL A   1      42.544  24.997  27.233  1.00  0.00     0.148 A 
ATOM     74  C   UNL A   1      44.265  26.212  25.374  1.00  0.00     0.002 A 
ATOM     75  C   UNL A   1      43.011  24.281  26.136  1.00  0.00     0.091 A 
ATOM     76  F   UNL A   1      41.709  24.456  28.132  1.00  0.00    -0.205 F 
ATOM     77  C   UNL A   1      43.862  24.891  25.200  1.00  0.00     0.022 A 
BRANCH  75  78
ATOM     78  S   UNL A   1      42.621  22.547  25.871  1.00  0.00     0.127 S 
ATOM     79  O   UNL A   1      41.166  22.546  26.002  1.00  0.00    -0.237 OA
ATOM     80  O   UNL A   1      43.117  22.333  24.511  1.00  0.00    -0.237 OA
ATOM     81  O   UNL A   1      43.350  21.819  26.900  1.00  0.00    -0.744 OA
ENDBRANCH  75  78
ENDBRANCH  47  71
BRANCH  59  82
ATOM     82  C   UNL A   1      45.212  26.831  34.022  1.00  0.00     0.023 A 
ATOM     83  C   UNL A   1      46.503  27.391  34.019  1.00  0.00     0.012 A 
ATOM     84  C   UNL A   1      44.930  25.732  34.857  1.00  0.00     0.148 A 
ATOM     85  C   UNL A   1      47.503  26.863  34.835  1.00  0.00     0.002 A 
ATOM     86  C   UNL A   1      45.923  25.231  35.691  1.00  0.00     0.091 A 
ATOM     87  F   UNL A   1      43.697  25.207  34.828  1.00  0.00    -0.205 F 
ATOM     88  C   UNL A   1      47.210  25.794  35.679  1.00  0.00     0.022 A 
BRANCH  86  89
ATOM     89  S   UNL A   1      45.612  23.910  36.869  1.00  0.00     0.127 S 
ATOM     90  O   UNL A   1      46.938  23.711  37.450  1.00  0.00    -0.237 OA
ATOM     91  O   UNL A   1      44.635  24.520  37.772  1.00  0.00    -0.237 OA
ATOM     92  O   UNL A   1      45.096  22.792  36.089  1.00  0.00    -0.744 OA
ENDBRANCH  86  89
ENDBRANCH  59  82
ENDBRANCH  33  34
ENDBRANCH  26  28
ENDBRANCH  25  26
ENDBRANCH   1  25
TORSDOF 17
ENDMDL
MODEL 3
REMARK VINA RESULT:     -12.1      4.971     10.338
REMARK SMILES Cc1nc(S[C@@H](C(=O)OCCOC(=O)c2ccc(-c3c4nc(c(-c5cccc(S(=O)(=O)[O-])c5F)c5ccc([nH]5)c(-c5cccc(S(=O)(=O)[O-])c5F)c5nc(c(-c6cccc(S(=O)(=O)[O-])c6F)c6ccc3[nH]6)C=C5)C=C4)cc2)c2ccccc2)nc2ccccc12
REMARK SMILES IDX 11 1 10 2 9 3 7 4 8 5 6 6 5 7 4 8 1 9 2 10 3 11 90 12 85 13
REMARK SMILES IDX 89 14 84 15 86 16 88 17 87 18 78 19 79 20 83 21 80 22 82 23
REMARK SMILES IDX 81 24 12 25 13 26 14 27 15 28 16 29 77 30 17 31 76 32 18 33
REMARK SMILES IDX 19 34 20 35 70 36 21 37 75 38 69 39 71 40 22 41 74 42 68 43
REMARK SMILES IDX 67 44 23 46 55 47 35 48 54 49 36 50 39 51 53 52 72 53 37 54
REMARK SMILES IDX 38 55 52 57 73 58 40 59 24 60 25 61 33 62 26 63 28 64 34 65
REMARK SMILES IDX 27 66 29 67 30 68 31 69 32 70 56 71 57 72 65 73 58 74 60 75
REMARK SMILES IDX 66 76 59 77 61 78 62 79 63 80 64 81 41 82 42 83 50 84 43 85
REMARK SMILES IDX 45 86 51 87 44 88 46 89 47 90 48 91 49 92
REMARK H PARENT 71 45 39 56
REMARK Flexibility Score: inf
ROOT
ATOM      1  C   UNL A   1      37.164  21.407  24.747  1.00  0.00     0.275 C 
ENDROOT
BRANCH   1   2
ATOM      2  C   UNL A   1      36.834  22.562  23.805  1.00  0.00     0.274 C 
BRANCH   2   3
ATOM      3  O   UNL A   1      35.662  23.276  24.258  1.00  0.00    -0.461 OA
BRANCH   3   4
ATOM      4  C   UNL A   1      34.510  23.014  23.571  1.00  0.00     0.324 C 
ATOM      5  O   UNL A   1      34.359  23.369  22.403  1.00  0.00    -0.251 OA
BRANCH   4   6
ATOM      6  C   UNL A   1      33.378  22.414  24.427  1.00  0.00     0.194 C 
BRANCH   6   7
ATOM      7  S   UNL A   1      33.230  23.162  26.091  1.00  0.00    -0.066 SA
BRANCH   7   8
ATOM      8  C   UNL A   1      32.524  24.774  25.848  1.00  0.00     0.189 A 
ATOM      9  C   UNL A   1      29.734  26.463  24.191  1.00  0.00     0.067 C 
ATOM     10  C   UNL A   1      30.999  26.248  24.973  1.00  0.00     0.050 A 
ATOM     11  N   UNL A   1      31.342  24.956  25.248  1.00  0.00    -0.227 NA
ATOM     12  C   UNL A   1      31.779  27.354  25.349  1.00  0.00     0.022 A 
ATOM     13  C   UNL A   1      32.986  27.029  25.966  1.00  0.00     0.075 A 
ATOM     14  C   UNL A   1      31.448  28.720  25.133  1.00  0.00     0.012 A 
ATOM     15  N   UNL A   1      33.353  25.769  26.215  1.00  0.00    -0.222 NA
ATOM     16  C   UNL A   1      33.854  28.059  26.309  1.00  0.00     0.029 A 
ATOM     17  C   UNL A   1      32.330  29.735  25.495  1.00  0.00     0.001 A 
ATOM     18  C   UNL A   1      33.543  29.403  26.076  1.00  0.00     0.002 A 
ENDBRANCH   7   8
ENDBRANCH   6   7
BRANCH   6  19
ATOM     19  C   UNL A   1      33.132  20.905  24.269  1.00  0.00    -0.023 A 
ATOM     20  C   UNL A   1      33.508  19.942  25.221  1.00  0.00     0.005 A 
ATOM     21  C   UNL A   1      32.423  20.430  23.142  1.00  0.00     0.005 A 
ATOM     22  C   UNL A   1      33.253  18.579  25.026  1.00  0.00     0.000 A 
ATOM     23  C   UNL A   1      32.171  19.069  22.943  1.00  0.00     0.000 A 
ATOM     24  C   UNL A   1      32.595  18.141  23.883  1.00  0.00     0.000 A 
ENDBRANCH   6  19
ENDBRANCH   4   6
ENDBRANCH   3   4
ENDBRANCH   2   3
ENDBRANCH   1   2
BRANCH   1  25
ATOM     25  O   UNL A   1      37.689  21.938  25.972  1.00  0.00    -0.458 OA
BRANCH  25  26
ATOM     26  C   UNL A   1      38.995  21.701  26.210  1.00  0.00     0.338 C 
ATOM     27  O   UNL A   1      39.570  20.624  26.147  1.00  0.00    -0.246 OA
BRANCH  26  28
ATOM     28  C   UNL A   1      39.656  22.962  26.604  1.00  0.00     0.060 A 
ATOM     29  C   UNL A   1      39.235  24.163  26.030  1.00  0.00     0.016 A 
ATOM     30  C   UNL A   1      40.614  22.977  27.621  1.00  0.00     0.016 A 
ATOM     31  C   UNL A   1      39.787  25.372  26.464  1.00  0.00     0.010 A 
ATOM     32  C   UNL A   1      41.134  24.184  28.085  1.00  0.00     0.010 A 
ATOM     33  C   UNL A   1      40.735  25.389  27.499  1.00  0.00    -0.014 A 
BRANCH  33  34
ATOM     34  C   UNL A   1      41.317  26.660  27.982  1.00  0.00     0.031 A 
ATOM     35  C   UNL A   1      42.779  26.937  27.781  1.00  0.00     0.074 A 
ATOM     36  C   UNL A   1      40.556  27.533  28.669  1.00  0.00     0.049 A 
ATOM     37  N   UNL A   1      43.442  28.037  28.015  1.00  0.00    -0.248 NA
ATOM     38  C   UNL A   1      43.606  25.833  27.262  1.00  0.00     0.031 C 
ATOM     39  C   UNL A   1      39.161  27.319  29.058  1.00  0.00     0.029 A 
ATOM     40  N   UNL A   1      40.862  28.764  29.191  1.00  0.00    -0.354 N 
ATOM     41  C   UNL A   1      44.757  27.768  27.663  1.00  0.00     0.074 A 
ATOM     42  C   UNL A   1      44.811  26.386  27.241  1.00  0.00     0.031 C 
ATOM     43  C   UNL A   1      38.740  28.373  29.780  1.00  0.00     0.029 A 
ATOM     44  C   UNL A   1      39.823  29.348  29.875  1.00  0.00     0.049 A 
ATOM     45  H   UNL A   1      41.744  29.189  29.087  1.00  0.00     0.167 HD
ATOM     46  C   UNL A   1      45.813  28.612  27.651  1.00  0.00     0.034 A 
ATOM     47  C   UNL A   1      39.746  30.549  30.483  1.00  0.00     0.034 A 
ATOM     48  C   UNL A   1      45.748  29.990  28.049  1.00  0.00     0.049 A 
ATOM     49  C   UNL A   1      40.905  31.503  30.375  1.00  0.00     0.074 A 
ATOM     50  C   UNL A   1      46.737  30.955  27.973  1.00  0.00     0.029 A 
ATOM     51  N   UNL A   1      44.636  30.596  28.609  1.00  0.00    -0.354 N 
ATOM     52  N   UNL A   1      42.074  31.315  29.813  1.00  0.00    -0.248 NA
ATOM     53  C   UNL A   1      40.713  32.856  30.921  1.00  0.00     0.031 C 
ATOM     54  C   UNL A   1      46.220  32.148  28.484  1.00  0.00     0.029 A 
ATOM     55  C   UNL A   1      44.910  31.923  28.878  1.00  0.00     0.049 A 
ATOM     56  H   UNL A   1      43.778  30.148  28.788  1.00  0.00     0.167 HD
ATOM     57  C   UNL A   1      42.739  32.533  29.898  1.00  0.00     0.074 A 
ATOM     58  C   UNL A   1      41.842  33.455  30.563  1.00  0.00     0.031 C 
ATOM     59  C   UNL A   1      43.984  32.851  29.470  1.00  0.00     0.034 A 
BRANCH  46  60
ATOM     60  C   UNL A   1      47.108  28.111  27.084  1.00  0.00     0.023 A 
ATOM     61  C   UNL A   1      48.109  27.681  27.979  1.00  0.00     0.012 A 
ATOM     62  C   UNL A   1      47.296  27.949  25.699  1.00  0.00     0.148 A 
ATOM     63  C   UNL A   1      49.282  27.100  27.505  1.00  0.00     0.002 A 
ATOM     64  C   UNL A   1      48.459  27.346  25.235  1.00  0.00     0.091 A 
ATOM     65  F   UNL A   1      46.328  28.367  24.871  1.00  0.00    -0.205 F 
ATOM     66  C   UNL A   1      49.453  26.925  26.135  1.00  0.00     0.022 A 
BRANCH  64  67
ATOM     67  S   UNL A   1      48.767  27.028  23.494  1.00  0.00     0.127 S 
ATOM     68  O   UNL A   1      48.258  28.251  22.873  1.00  0.00    -0.237 OA
ATOM     69  O   UNL A   1      50.222  26.889  23.465  1.00  0.00    -0.237 OA
ATOM     70  O   UNL A   1      48.022  25.821  23.165  1.00  0.00    -0.744 OA
ENDBRANCH  64  67
ENDBRANCH  46  60
BRANCH  47  71
ATOM     71  C   UNL A   1      38.476  30.964  31.135  1.00  0.00     0.023 A 
ATOM     72  C   UNL A   1      38.305  30.731  32.513  1.00  0.00     0.012 A 
ATOM     73  C   UNL A   1      37.457  31.611  30.411  1.00  0.00     0.148 A 
ATOM     74  C   UNL A   1      37.129  31.114  33.157  1.00  0.00     0.002 A 
ATOM     75  C   UNL A   1      36.300  32.020  31.067  1.00  0.00     0.091 A 
ATOM     76  F   UNL A   1      37.641  31.816  29.099  1.00  0.00    -0.205 F 
ATOM     77  C   UNL A   1      36.130  31.762  32.437  1.00  0.00     0.022 A 
BRANCH  75  78
ATOM     78  S   UNL A   1      34.995  32.941  30.245  1.00  0.00     0.127 S 
ATOM     79  O   UNL A   1      34.085  33.221  31.353  1.00  0.00    -0.237 OA
ATOM     80  O   UNL A   1      35.723  34.105  29.737  1.00  0.00    -0.237 OA
ATOM     81  O   UNL A   1      34.480  32.056  29.211  1.00  0.00    -0.744 OA
ENDBRANCH  75  78
ENDBRANCH  47  71
BRANCH  59  82
ATOM     82  C   UNL A   1      44.466  34.260  29.662  1.00  0.00     0.023 A 
ATOM     83  C   UNL A   1      45.098  34.615  30.869  1.00  0.00     0.012 A 
ATOM     84  C   UNL A   1      44.416  35.186  28.602  1.00  0.00     0.148 A 
ATOM     85  C   UNL A   1      45.672  35.876  31.020  1.00  0.00     0.002 A 
ATOM     86  C   UNL A   1      45.020  36.430  28.748  1.00  0.00     0.091 A 
ATOM     87  F   UNL A   1      43.794  34.829  27.470  1.00  0.00    -0.205 F 
ATOM     88  C   UNL A   1      45.645  36.777  29.957  1.00  0.00     0.022 A 
BRANCH  86  89
ATOM     89  S   UNL A   1      45.103  37.621  27.405  1.00  0.00     0.127 S 
ATOM     90  O   UNL A   1      43.693  37.775  27.055  1.00  0.00    -0.237 OA
ATOM     91  O   UNL A   1      45.701  38.787  28.058  1.00  0.00    -0.237 OA
ATOM     92  O   UNL A   1      45.940  37.009  26.380  1.00  0.00    -0.744 OA
ENDBRANCH  86  89
ENDBRANCH  59  82
ENDBRANCH  33  34
ENDBRANCH  26  28
ENDBRANCH  25  26
ENDBRANCH   1  25
TORSDOF 17
ENDMDL
