MODEL 1
REMARK VINA RESULT:     -11.0      0.000      0.000
REMARK SMILES O=C(OCCOC(=O)[C@@H](CO)NS(=O)(=O)c1cc[nH]c1)c1ccc(-c2c3nc(c(-c4cccc(S(=O)(=O)[O-])c4F)c4ccc([nH]4)c(-c4cccc(S(=O)(=O)[O-])c4F)c4nc(c(-c5cccc(S(=O)(=O)[O-])c5F)c5ccc2[nH]5)C=C4)C=C3)cc1
REMARK SMILES IDX 4 1 3 2 2 3 1 4 21 5 22 6 83 7 23 8 82 9 24 10 25 11 26 12
REMARK SMILES IDX 76 13 27 14 81 15 75 16 77 17 28 18 80 19 74 20 73 21 29 23
REMARK SMILES IDX 61 24 41 25 60 26 42 27 45 28 59 29 78 30 43 31 44 32 58 34
REMARK SMILES IDX 79 35 46 36 30 37 31 38 39 39 32 40 34 41 40 42 33 43 35 44
REMARK SMILES IDX 36 45 37 46 38 47 62 48 63 49 71 50 64 51 66 52 72 53 65 54
REMARK SMILES IDX 67 55 68 56 69 57 70 58 47 59 48 60 56 61 49 62 51 63 57 64
REMARK SMILES IDX 50 65 52 66 53 67 54 68 55 69 5 70 6 71 7 72 8 73 9 74 10 75
REMARK SMILES IDX 11 76 12 78 13 80 14 81 15 82 16 83 17 84 20 85 18 86 19 87
REMARK H PARENT 77 22 45 33 11 77 12 79 19 88
REMARK Flexibility Score: inf
ROOT
ATOM      1  C   UNL A   1      36.939  32.242  29.872  1.00  0.00     0.275 C 
ENDROOT
BRANCH   1   2
ATOM      2  O   UNL A   1      36.150  31.048  29.732  1.00  0.00    -0.458 OA
BRANCH   2   3
ATOM      3  C   UNL A   1      36.285  30.275  28.629  1.00  0.00     0.338 C 
ATOM      4  O   UNL A   1      35.562  30.390  27.648  1.00  0.00    -0.246 OA
BRANCH   3   5
ATOM      5  C   UNL A   1      37.516  29.456  28.578  1.00  0.00     0.060 A 
ATOM      6  C   UNL A   1      38.495  29.603  27.588  1.00  0.00     0.016 A 
ATOM      7  C   UNL A   1      37.744  28.600  29.664  1.00  0.00     0.016 A 
ATOM      8  C   UNL A   1      39.668  28.866  27.651  1.00  0.00     0.010 A 
ATOM      9  C   UNL A   1      38.919  27.865  29.734  1.00  0.00     0.010 A 
ATOM     10  C   UNL A   1      39.880  28.006  28.732  1.00  0.00    -0.014 A 
BRANCH  10  11
ATOM     11  C   UNL A   1      41.213  27.389  28.872  1.00  0.00     0.031 A 
ATOM     12  C   UNL A   1      41.163  25.901  28.388  1.00  0.00     0.074 A 
ATOM     13  C   UNL A   1      42.165  28.201  29.443  1.00  0.00     0.049 A 
ATOM     14  N   UNL A   1      41.704  24.832  28.892  1.00  0.00    -0.248 NA
ATOM     15  C   UNL A   1      40.261  25.520  27.258  1.00  0.00     0.031 C 
ATOM     16  C   UNL A   1      41.979  29.642  29.766  1.00  0.00     0.029 A 
ATOM     17  N   UNL A   1      43.469  28.026  29.865  1.00  0.00    -0.354 N 
ATOM     18  C   UNL A   1      41.458  23.752  27.991  1.00  0.00     0.074 A 
ATOM     19  C   UNL A   1      40.413  24.197  27.125  1.00  0.00     0.031 C 
ATOM     20  C   UNL A   1      43.060  30.157  30.401  1.00  0.00     0.029 A 
ATOM     21  C   UNL A   1      44.072  29.128  30.542  1.00  0.00     0.049 A 
ATOM     22  H   UNL A   1      43.957  27.186  29.705  1.00  0.00     0.167 HD
ATOM     23  C   UNL A   1      42.289  22.663  27.887  1.00  0.00     0.034 A 
ATOM     24  C   UNL A   1      45.280  29.180  31.202  1.00  0.00     0.034 A 
ATOM     25  C   UNL A   1      43.400  22.886  28.751  1.00  0.00     0.049 A 
ATOM     26  C   UNL A   1      45.923  27.902  30.880  1.00  0.00     0.074 A 
ATOM     27  C   UNL A   1      43.541  22.864  30.111  1.00  0.00     0.029 A 
ATOM     28  N   UNL A   1      44.432  23.594  28.175  1.00  0.00    -0.354 N 
ATOM     29  N   UNL A   1      46.398  27.597  29.709  1.00  0.00    -0.248 NA
ATOM     30  C   UNL A   1      45.887  26.827  31.878  1.00  0.00     0.031 C 
ATOM     31  C   UNL A   1      44.345  23.997  30.338  1.00  0.00     0.029 A 
ATOM     32  C   UNL A   1      44.922  24.432  29.135  1.00  0.00     0.049 A 
ATOM     33  H   UNL A   1      44.754  23.511  27.249  1.00  0.00     0.167 HD
ATOM     34  C   UNL A   1      46.329  26.228  29.733  1.00  0.00     0.074 A 
ATOM     35  C   UNL A   1      46.361  25.837  31.129  1.00  0.00     0.031 C 
ATOM     36  C   UNL A   1      45.699  25.571  28.723  1.00  0.00     0.034 A 
BRANCH  23  37
ATOM     37  C   UNL A   1      42.497  21.511  26.913  1.00  0.00     0.023 A 
ATOM     38  C   UNL A   1      41.889  20.276  27.312  1.00  0.00     0.012 A 
ATOM     39  C   UNL A   1      43.460  21.442  25.896  1.00  0.00     0.148 A 
ATOM     40  C   UNL A   1      42.333  19.033  26.866  1.00  0.00     0.002 A 
ATOM     41  C   UNL A   1      43.861  20.189  25.405  1.00  0.00     0.091 A 
ATOM     42  F   UNL A   1      44.034  22.567  25.462  1.00  0.00    -0.205 F 
ATOM     43  C   UNL A   1      43.339  18.990  25.923  1.00  0.00     0.022 A 
BRANCH  41  44
ATOM     44  S   UNL A   1      45.086  19.979  24.105  1.00  0.00     0.127 S 
ATOM     45  O   UNL A   1      44.926  18.568  23.763  1.00  0.00    -0.237 OA
ATOM     46  O   UNL A   1      44.598  20.909  23.083  1.00  0.00    -0.237 OA
ATOM     47  O   UNL A   1      46.361  20.357  24.698  1.00  0.00    -0.744 OA
ENDBRANCH  41  44
ENDBRANCH  23  37
BRANCH  24  48
ATOM     48  C   UNL A   1      46.018  30.073  32.190  1.00  0.00     0.023 A 
ATOM     49  C   UNL A   1      45.507  30.500  33.422  1.00  0.00     0.012 A 
ATOM     50  C   UNL A   1      47.378  30.453  31.928  1.00  0.00     0.148 A 
ATOM     51  C   UNL A   1      46.328  31.161  34.367  1.00  0.00     0.002 A 
ATOM     52  C   UNL A   1      48.219  30.976  32.906  1.00  0.00     0.091 A 
ATOM     53  F   UNL A   1      47.871  30.350  30.690  1.00  0.00    -0.205 F 
ATOM     54  C   UNL A   1      47.692  31.348  34.135  1.00  0.00     0.022 A 
BRANCH  52  55
ATOM     55  S   UNL A   1      50.013  31.038  32.690  1.00  0.00     0.127 S 
ATOM     56  O   UNL A   1      50.336  29.661  32.323  1.00  0.00    -0.237 OA
ATOM     57  O   UNL A   1      50.141  32.009  31.603  1.00  0.00    -0.237 OA
ATOM     58  O   UNL A   1      50.565  31.483  33.963  1.00  0.00    -0.744 OA
ENDBRANCH  52  55
ENDBRANCH  24  48
BRANCH  36  59
ATOM     59  C   UNL A   1      45.661  26.295  27.370  1.00  0.00     0.023 A 
ATOM     60  C   UNL A   1      44.397  26.721  26.913  1.00  0.00     0.012 A 
ATOM     61  C   UNL A   1      46.754  26.502  26.489  1.00  0.00     0.148 A 
ATOM     62  C   UNL A   1      44.216  27.298  25.652  1.00  0.00     0.002 A 
ATOM     63  C   UNL A   1      46.572  27.058  25.213  1.00  0.00     0.091 A 
ATOM     64  F   UNL A   1      47.974  26.161  26.895  1.00  0.00    -0.205 F 
ATOM     65  C   UNL A   1      45.300  27.464  24.799  1.00  0.00     0.022 A 
BRANCH  63  66
ATOM     66  S   UNL A   1      47.890  27.239  23.986  1.00  0.00     0.127 S 
ATOM     67  O   UNL A   1      48.155  25.852  23.600  1.00  0.00    -0.237 OA
ATOM     68  O   UNL A   1      47.242  28.034  22.946  1.00  0.00    -0.237 OA
ATOM     69  O   UNL A   1      49.004  27.887  24.667  1.00  0.00    -0.744 OA
ENDBRANCH  63  66
ENDBRANCH  36  59
ENDBRANCH  10  11
ENDBRANCH   3   5
ENDBRANCH   2   3
ENDBRANCH   1   2
BRANCH   1  70
ATOM     70  C   UNL A   1      36.459  33.453  29.064  1.00  0.00     0.274 C 
BRANCH  70  71
ATOM     71  O   UNL A   1      35.439  34.202  29.749  1.00  0.00    -0.461 OA
BRANCH  71  72
ATOM     72  C   UNL A   1      34.442  34.714  28.968  1.00  0.00     0.326 C 
ATOM     73  O   UNL A   1      34.225  34.340  27.815  1.00  0.00    -0.250 OA
BRANCH  72  74
ATOM     74  C   UNL A   1      33.691  35.894  29.598  1.00  0.00     0.205 C 
BRANCH  74  75
ATOM     75  C   UNL A   1      33.190  36.993  28.659  1.00  0.00     0.188 C 
BRANCH  75  76
ATOM     76  O   UNL A   1      33.287  38.290  29.240  1.00  0.00    -0.394 OA
ATOM     77  H   UNL A   1      34.142  38.685  29.008  1.00  0.00     0.210 HD
ENDBRANCH  75  76
ENDBRANCH  74  75
BRANCH  74  78
ATOM     78  N   UNL A   1      32.593  35.285  30.416  1.00  0.00    -0.194 NA
ATOM     79  H   UNL A   1      32.729  34.274  30.403  1.00  0.00     0.142 HD
BRANCH  78  80
ATOM     80  S   UNL A   1      32.458  35.750  32.030  1.00  0.00     0.242 S 
ATOM     81  O   UNL A   1      32.777  37.152  32.085  1.00  0.00    -0.207 OA
ATOM     82  O   UNL A   1      31.187  35.241  32.514  1.00  0.00    -0.207 OA
BRANCH  80  83
ATOM     83  C   UNL A   1      33.646  34.960  33.003  1.00  0.00     0.099 A 
ATOM     84  C   UNL A   1      34.714  35.600  33.682  1.00  0.00     0.041 A 
ATOM     85  C   UNL A   1      33.773  33.600  33.225  1.00  0.00     0.104 A 
ATOM     86  C   UNL A   1      35.470  34.613  34.276  1.00  0.00     0.083 A 
ATOM     87  N   UNL A   1      34.898  33.403  33.983  1.00  0.00    -0.366 N 
ATOM     88  H   UNL A   1      35.242  32.527  34.272  1.00  0.00     0.165 HD
ENDBRANCH  80  83
ENDBRANCH  78  80
ENDBRANCH  74  78
ENDBRANCH  72  74
ENDBRANCH  71  72
ENDBRANCH  70  71
ENDBRANCH   1  70
TORSDOF 19
ENDMDL
MODEL 2
REMARK VINA RESULT:     -10.5      3.785      5.518
REMARK SMILES O=C(OCCOC(=O)[C@@H](CO)NS(=O)(=O)c1cc[nH]c1)c1ccc(-c2c3nc(c(-c4cccc(S(=O)(=O)[O-])c4F)c4ccc([nH]4)c(-c4cccc(S(=O)(=O)[O-])c4F)c4nc(c(-c5cccc(S(=O)(=O)[O-])c5F)c5ccc2[nH]5)C=C4)C=C3)cc1
REMARK SMILES IDX 4 1 3 2 2 3 1 4 21 5 22 6 83 7 23 8 82 9 24 10 25 11 26 12
REMARK SMILES IDX 76 13 27 14 81 15 75 16 77 17 28 18 80 19 74 20 73 21 29 23
REMARK SMILES IDX 61 24 41 25 60 26 42 27 45 28 59 29 78 30 43 31 44 32 58 34
REMARK SMILES IDX 79 35 46 36 30 37 31 38 39 39 32 40 34 41 40 42 33 43 35 44
REMARK SMILES IDX 36 45 37 46 38 47 62 48 63 49 71 50 64 51 66 52 72 53 65 54
REMARK SMILES IDX 67 55 68 56 69 57 70 58 47 59 48 60 56 61 49 62 51 63 57 64
REMARK SMILES IDX 50 65 52 66 53 67 54 68 55 69 5 70 6 71 7 72 8 73 9 74 10 75
REMARK SMILES IDX 11 76 12 78 13 80 14 81 15 82 16 83 17 84 20 85 18 86 19 87
REMARK H PARENT 77 22 45 33 11 77 12 79 19 88
REMARK Flexibility Score: inf
ROOT
ATOM      1  C   UNL A   1      34.227  30.566  27.393  1.00  0.00     0.275 C 
ENDROOT
BRANCH   1   2
ATOM      2  O   UNL A   1      35.664  30.498  27.365  1.00  0.00    -0.458 OA
BRANCH   2   3
ATOM      3  C   UNL A   1      36.359  30.451  28.526  1.00  0.00     0.338 C 
ATOM      4  O   UNL A   1      35.918  30.890  29.580  1.00  0.00    -0.246 OA
BRANCH   3   5
ATOM      5  C   UNL A   1      37.577  29.610  28.500  1.00  0.00     0.060 A 
ATOM      6  C   UNL A   1      38.539  29.684  27.487  1.00  0.00     0.016 A 
ATOM      7  C   UNL A   1      37.812  28.815  29.630  1.00  0.00     0.016 A 
ATOM      8  C   UNL A   1      39.702  28.933  27.573  1.00  0.00     0.010 A 
ATOM      9  C   UNL A   1      38.977  28.067  29.724  1.00  0.00     0.010 A 
ATOM     10  C   UNL A   1      39.922  28.134  28.698  1.00  0.00    -0.014 A 
BRANCH  10  11
ATOM     11  C   UNL A   1      41.248  27.505  28.850  1.00  0.00     0.031 A 
ATOM     12  C   UNL A   1      41.185  26.013  28.379  1.00  0.00     0.074 A 
ATOM     13  C   UNL A   1      42.205  28.313  29.419  1.00  0.00     0.049 A 
ATOM     14  N   UNL A   1      41.713  24.944  28.896  1.00  0.00    -0.248 NA
ATOM     15  C   UNL A   1      40.284  25.632  27.248  1.00  0.00     0.031 C 
ATOM     16  C   UNL A   1      42.032  29.759  29.728  1.00  0.00     0.029 A 
ATOM     17  N   UNL A   1      43.505  28.129  29.849  1.00  0.00    -0.354 N 
ATOM     18  C   UNL A   1      41.460  23.858  28.003  1.00  0.00     0.074 A 
ATOM     19  C   UNL A   1      40.425  24.306  27.127  1.00  0.00     0.031 C 
ATOM     20  C   UNL A   1      43.114  30.268  30.364  1.00  0.00     0.029 A 
ATOM     21  C   UNL A   1      44.115  29.230  30.520  1.00  0.00     0.049 A 
ATOM     22  H   UNL A   1      43.985  27.283  29.699  1.00  0.00     0.167 HD
ATOM     23  C   UNL A   1      42.281  22.760  27.912  1.00  0.00     0.034 A 
ATOM     24  C   UNL A   1      45.320  29.277  31.185  1.00  0.00     0.034 A 
ATOM     25  C   UNL A   1      43.390  22.980  28.780  1.00  0.00     0.049 A 
ATOM     26  C   UNL A   1      45.952  27.989  30.878  1.00  0.00     0.074 A 
ATOM     27  C   UNL A   1      43.524  22.968  30.141  1.00  0.00     0.029 A 
ATOM     28  N   UNL A   1      44.431  23.672  28.204  1.00  0.00    -0.354 N 
ATOM     29  N   UNL A   1      46.430  27.669  29.712  1.00  0.00    -0.248 NA
ATOM     30  C   UNL A   1      45.900  26.924  31.885  1.00  0.00     0.031 C 
ATOM     31  C   UNL A   1      44.338  24.095  30.362  1.00  0.00     0.029 A 
ATOM     32  C   UNL A   1      44.925  24.514  29.159  1.00  0.00     0.049 A 
ATOM     33  H   UNL A   1      44.758  23.578  27.280  1.00  0.00     0.167 HD
ATOM     34  C   UNL A   1      46.347  26.302  29.747  1.00  0.00     0.074 A 
ATOM     35  C   UNL A   1      46.368  25.923  31.147  1.00  0.00     0.031 C 
ATOM     36  C   UNL A   1      45.715  25.641  28.741  1.00  0.00     0.034 A 
BRANCH  23  37
ATOM     37  C   UNL A   1      42.482  21.597  26.951  1.00  0.00     0.023 A 
ATOM     38  C   UNL A   1      41.828  20.383  27.337  1.00  0.00     0.012 A 
ATOM     39  C   UNL A   1      43.471  21.495  25.961  1.00  0.00     0.148 A 
ATOM     40  C   UNL A   1      42.247  19.125  26.909  1.00  0.00     0.002 A 
ATOM     41  C   UNL A   1      43.849  20.229  25.487  1.00  0.00     0.091 A 
ATOM     42  F   UNL A   1      44.090  22.601  25.539  1.00  0.00    -0.205 F 
ATOM     43  C   UNL A   1      43.278  19.048  25.995  1.00  0.00     0.022 A 
BRANCH  41  44
ATOM     44  S   UNL A   1      45.104  19.976  24.223  1.00  0.00     0.127 S 
ATOM     45  O   UNL A   1      46.291  20.546  24.856  1.00  0.00    -0.237 OA
ATOM     46  O   UNL A   1      45.121  18.515  24.109  1.00  0.00    -0.237 OA
ATOM     47  O   UNL A   1      44.614  20.663  23.037  1.00  0.00    -0.744 OA
ENDBRANCH  41  44
ENDBRANCH  23  37
BRANCH  24  48
ATOM     48  C   UNL A   1      46.062  30.171  32.169  1.00  0.00     0.023 A 
ATOM     49  C   UNL A   1      47.071  31.079  31.825  1.00  0.00     0.012 A 
ATOM     50  C   UNL A   1      45.670  30.190  33.550  1.00  0.00     0.148 A 
ATOM     51  C   UNL A   1      47.570  32.013  32.764  1.00  0.00     0.002 A 
ATOM     52  C   UNL A   1      46.057  31.193  34.433  1.00  0.00     0.091 A 
ATOM     53  F   UNL A   1      44.934  29.190  34.046  1.00  0.00    -0.205 F 
ATOM     54  C   UNL A   1      47.027  32.108  34.047  1.00  0.00     0.022 A 
BRANCH  52  55
ATOM     55  S   UNL A   1      45.222  31.447  36.017  1.00  0.00     0.127 S 
ATOM     56  O   UNL A   1      45.583  30.243  36.762  1.00  0.00    -0.237 OA
ATOM     57  O   UNL A   1      45.862  32.675  36.488  1.00  0.00    -0.237 OA
ATOM     58  O   UNL A   1      43.803  31.584  35.716  1.00  0.00    -0.744 OA
ENDBRANCH  52  55
ENDBRANCH  24  48
BRANCH  36  59
ATOM     59  C   UNL A   1      45.692  26.354  27.381  1.00  0.00     0.023 A 
ATOM     60  C   UNL A   1      44.439  26.817  26.929  1.00  0.00     0.012 A 
ATOM     61  C   UNL A   1      46.785  26.516  26.491  1.00  0.00     0.148 A 
ATOM     62  C   UNL A   1      44.268  27.388  25.663  1.00  0.00     0.002 A 
ATOM     63  C   UNL A   1      46.612  27.067  25.211  1.00  0.00     0.091 A 
ATOM     64  F   UNL A   1      47.996  26.139  26.891  1.00  0.00    -0.205 F 
ATOM     65  C   UNL A   1      45.351  27.510  24.802  1.00  0.00     0.022 A 
BRANCH  63  66
ATOM     66  S   UNL A   1      47.926  27.192  23.973  1.00  0.00     0.127 S 
ATOM     67  O   UNL A   1      47.288  27.972  22.911  1.00  0.00    -0.237 OA
ATOM     68  O   UNL A   1      48.971  27.912  24.697  1.00  0.00    -0.237 OA
ATOM     69  O   UNL A   1      48.260  25.827  23.586  1.00  0.00    -0.744 OA
ENDBRANCH  63  66
ENDBRANCH  36  59
ENDBRANCH  10  11
ENDBRANCH   3   5
ENDBRANCH   2   3
ENDBRANCH   1   2
BRANCH   1  70
ATOM     70  C   UNL A   1      33.496  29.481  26.594  1.00  0.00     0.274 C 
BRANCH  70  71
ATOM     71  O   UNL A   1      33.280  28.284  27.363  1.00  0.00    -0.461 OA
BRANCH  71  72
ATOM     72  C   UNL A   1      32.049  27.704  27.239  1.00  0.00     0.326 C 
ATOM     73  O   UNL A   1      31.148  27.842  28.065  1.00  0.00    -0.250 OA
BRANCH  72  74
ATOM     74  C   UNL A   1      31.920  26.750  26.043  1.00  0.00     0.205 C 
BRANCH  74  75
ATOM     75  C   UNL A   1      32.166  25.263  26.298  1.00  0.00     0.188 C 
BRANCH  75  76
ATOM     76  O   UNL A   1      31.223  24.705  27.208  1.00  0.00    -0.394 OA
ATOM     77  H   UNL A   1      31.329  25.119  28.079  1.00  0.00     0.210 HD
ENDBRANCH  75  76
ENDBRANCH  74  75
BRANCH  74  78
ATOM     78  N   UNL A   1      30.570  27.022  25.452  1.00  0.00    -0.194 NA
ATOM     79  H   UNL A   1      30.176  27.821  25.949  1.00  0.00     0.142 HD
BRANCH  78  80
ATOM     80  S   UNL A   1      30.482  27.367  23.805  1.00  0.00     0.242 S 
ATOM     81  O   UNL A   1      29.132  27.088  23.395  1.00  0.00    -0.207 OA
ATOM     82  O   UNL A   1      31.079  28.677  23.612  1.00  0.00    -0.207 OA
BRANCH  80  83
ATOM     83  C   UNL A   1      31.481  26.292  22.894  1.00  0.00     0.099 A 
ATOM     84  C   UNL A   1      32.620  26.668  22.137  1.00  0.00     0.041 A 
ATOM     85  C   UNL A   1      31.300  24.932  22.718  1.00  0.00     0.104 A 
ATOM     86  C   UNL A   1      33.083  25.534  21.507  1.00  0.00     0.083 A 
ATOM     87  N   UNL A   1      32.270  24.488  21.856  1.00  0.00    -0.366 N 
ATOM     88  H   UNL A   1      32.366  23.562  21.537  1.00  0.00     0.165 HD
ENDBRANCH  80  83
ENDBRANCH  78  80
ENDBRANCH  74  78
ENDBRANCH  72  74
ENDBRANCH  71  72
ENDBRANCH  70  71
ENDBRANCH   1  70
TORSDOF 19
ENDMDL
MODEL 3
REMARK VINA RESULT:     -10.4      3.597      5.258
REMARK SMILES O=C(OCCOC(=O)[C@@H](CO)NS(=O)(=O)c1cc[nH]c1)c1ccc(-c2c3nc(c(-c4cccc(S(=O)(=O)[O-])c4F)c4ccc([nH]4)c(-c4cccc(S(=O)(=O)[O-])c4F)c4nc(c(-c5cccc(S(=O)(=O)[O-])c5F)c5ccc2[nH]5)C=C4)C=C3)cc1
REMARK SMILES IDX 4 1 3 2 2 3 1 4 21 5 22 6 83 7 23 8 82 9 24 10 25 11 26 12
REMARK SMILES IDX 76 13 27 14 81 15 75 16 77 17 28 18 80 19 74 20 73 21 29 23
REMARK SMILES IDX 61 24 41 25 60 26 42 27 45 28 59 29 78 30 43 31 44 32 58 34
REMARK SMILES IDX 79 35 46 36 30 37 31 38 39 39 32 40 34 41 40 42 33 43 35 44
REMARK SMILES IDX 36 45 37 46 38 47 62 48 63 49 71 50 64 51 66 52 72 53 65 54
REMARK SMILES IDX 67 55 68 56 69 57 70 58 47 59 48 60 56 61 49 62 51 63 57 64
REMARK SMILES IDX 50 65 52 66 53 67 54 68 55 69 5 70 6 71 7 72 8 73 9 74 10 75
REMARK SMILES IDX 11 76 12 78 13 80 14 81 15 82 16 83 17 84 20 85 18 86 19 87
REMARK H PARENT 77 22 45 33 11 77 12 79 19 88
REMARK Flexibility Score: inf
ROOT
ATOM      1  C   UNL A   1      34.681  29.484  27.553  1.00  0.00     0.275 C 
ENDROOT
BRANCH   1   2
ATOM      2  O   UNL A   1      35.723  30.475  27.587  1.00  0.00    -0.458 OA
BRANCH   2   3
ATOM      3  C   UNL A   1      36.534  30.564  28.667  1.00  0.00     0.338 C 
ATOM      4  O   UNL A   1      36.212  31.155  29.689  1.00  0.00    -0.246 OA
BRANCH   3   5
ATOM      5  C   UNL A   1      37.729  29.693  28.635  1.00  0.00     0.060 A 
ATOM      6  C   UNL A   1      38.635  29.671  27.568  1.00  0.00     0.016 A 
ATOM      7  C   UNL A   1      38.009  28.971  29.803  1.00  0.00     0.016 A 
ATOM      8  C   UNL A   1      39.784  28.897  27.643  1.00  0.00     0.010 A 
ATOM      9  C   UNL A   1      39.161  28.201  29.886  1.00  0.00     0.010 A 
ATOM     10  C   UNL A   1      40.048  28.173  28.809  1.00  0.00    -0.014 A 
BRANCH  10  11
ATOM     11  C   UNL A   1      41.366  27.521  28.933  1.00  0.00     0.031 A 
ATOM     12  C   UNL A   1      41.270  26.034  28.450  1.00  0.00     0.074 A 
ATOM     13  C   UNL A   1      42.345  28.308  29.492  1.00  0.00     0.049 A 
ATOM     14  N   UNL A   1      41.790  24.951  28.948  1.00  0.00    -0.248 NA
ATOM     15  C   UNL A   1      40.345  25.677  27.331  1.00  0.00     0.031 C 
ATOM     16  C   UNL A   1      42.201  29.753  29.816  1.00  0.00     0.029 A 
ATOM     17  N   UNL A   1      43.649  28.099  29.898  1.00  0.00    -0.354 N 
ATOM     18  C   UNL A   1      41.504  23.878  28.050  1.00  0.00     0.074 A 
ATOM     19  C   UNL A   1      40.462  24.351  27.196  1.00  0.00     0.031 C 
ATOM     20  C   UNL A   1      43.302  30.239  30.438  1.00  0.00     0.029 A 
ATOM     21  C   UNL A   1      44.289  29.184  30.568  1.00  0.00     0.049 A 
ATOM     22  H   UNL A   1      44.113  27.247  29.733  1.00  0.00     0.167 HD
ATOM     23  C   UNL A   1      42.305  22.768  27.937  1.00  0.00     0.034 A 
ATOM     24  C   UNL A   1      45.505  29.205  31.213  1.00  0.00     0.034 A 
ATOM     25  C   UNL A   1      43.432  22.963  28.787  1.00  0.00     0.049 A 
ATOM     26  C   UNL A   1      46.111  27.911  30.884  1.00  0.00     0.074 A 
ATOM     27  C   UNL A   1      43.589  22.936  30.146  1.00  0.00     0.029 A 
ATOM     28  N   UNL A   1      44.475  23.643  28.199  1.00  0.00    -0.354 N 
ATOM     29  N   UNL A   1      46.564  27.593  29.707  1.00  0.00    -0.248 NA
ATOM     30  C   UNL A   1      46.058  26.838  31.882  1.00  0.00     0.031 C 
ATOM     31  C   UNL A   1      44.425  24.048  30.363  1.00  0.00     0.029 A 
ATOM     32  C   UNL A   1      44.998  24.468  29.153  1.00  0.00     0.049 A 
ATOM     33  H   UNL A   1      44.784  23.552  27.270  1.00  0.00     0.167 HD
ATOM     34  C   UNL A   1      46.460  26.227  29.733  1.00  0.00     0.074 A 
ATOM     35  C   UNL A   1      46.497  25.835  31.129  1.00  0.00     0.031 C 
ATOM     36  C   UNL A   1      45.800  25.586  28.731  1.00  0.00     0.034 A 
BRANCH  23  37
ATOM     37  C   UNL A   1      42.471  21.611  26.962  1.00  0.00     0.023 A 
ATOM     38  C   UNL A   1      41.795  20.407  27.344  1.00  0.00     0.012 A 
ATOM     39  C   UNL A   1      43.448  21.497  25.961  1.00  0.00     0.148 A 
ATOM     40  C   UNL A   1      42.183  19.145  26.899  1.00  0.00     0.002 A 
ATOM     41  C   UNL A   1      43.793  20.227  25.470  1.00  0.00     0.091 A 
ATOM     42  F   UNL A   1      44.086  22.593  25.542  1.00  0.00    -0.205 F 
ATOM     43  C   UNL A   1      43.202  19.055  25.973  1.00  0.00     0.022 A 
BRANCH  41  44
ATOM     44  S   UNL A   1      45.028  19.960  24.191  1.00  0.00     0.127 S 
ATOM     45  O   UNL A   1      44.583  20.875  23.143  1.00  0.00    -0.237 OA
ATOM     46  O   UNL A   1      46.258  20.375  24.873  1.00  0.00    -0.237 OA
ATOM     47  O   UNL A   1      44.969  18.540  23.875  1.00  0.00    -0.744 OA
ENDBRANCH  41  44
ENDBRANCH  23  37
BRANCH  24  48
ATOM     48  C   UNL A   1      46.278  30.079  32.192  1.00  0.00     0.023 A 
ATOM     49  C   UNL A   1      46.106  30.072  33.581  1.00  0.00     0.012 A 
ATOM     50  C   UNL A   1      47.340  30.919  31.712  1.00  0.00     0.148 A 
ATOM     51  C   UNL A   1      46.998  30.765  34.435  1.00  0.00     0.002 A 
ATOM     52  C   UNL A   1      48.295  31.484  32.551  1.00  0.00     0.091 A 
ATOM     53  F   UNL A   1      47.412  31.222  30.412  1.00  0.00    -0.205 F 
ATOM     54  C   UNL A   1      48.121  31.422  33.927  1.00  0.00     0.022 A 
BRANCH  52  55
ATOM     55  S   UNL A   1      49.846  32.161  31.914  1.00  0.00     0.127 S 
ATOM     56  O   UNL A   1      50.617  32.388  33.135  1.00  0.00    -0.237 OA
ATOM     57  O   UNL A   1      50.325  31.057  31.082  1.00  0.00    -0.237 OA
ATOM     58  O   UNL A   1      49.495  33.365  31.173  1.00  0.00    -0.744 OA
ENDBRANCH  52  55
ENDBRANCH  24  48
BRANCH  36  59
ATOM     59  C   UNL A   1      45.765  26.311  27.379  1.00  0.00     0.023 A 
ATOM     60  C   UNL A   1      44.502  26.740  26.920  1.00  0.00     0.012 A 
ATOM     61  C   UNL A   1      46.859  26.515  26.498  1.00  0.00     0.148 A 
ATOM     62  C   UNL A   1      44.324  27.318  25.659  1.00  0.00     0.002 A 
ATOM     63  C   UNL A   1      46.680  27.073  25.222  1.00  0.00     0.091 A 
ATOM     64  F   UNL A   1      48.078  26.171  26.904  1.00  0.00    -0.205 F 
ATOM     65  C   UNL A   1      45.409  27.481  24.808  1.00  0.00     0.022 A 
BRANCH  63  66
ATOM     66  S   UNL A   1      47.998  27.250  23.996  1.00  0.00     0.127 S 
ATOM     67  O   UNL A   1      47.343  28.015  22.934  1.00  0.00    -0.237 OA
ATOM     68  O   UNL A   1      49.012  28.001  24.733  1.00  0.00    -0.237 OA
ATOM     69  O   UNL A   1      48.382  25.899  23.603  1.00  0.00    -0.744 OA
ENDBRANCH  63  66
ENDBRANCH  36  59
ENDBRANCH  10  11
ENDBRANCH   3   5
ENDBRANCH   2   3
ENDBRANCH   1   2
BRANCH   1  70
ATOM     70  C   UNL A   1      33.721  29.571  26.361  1.00  0.00     0.274 C 
BRANCH  70  71
ATOM     71  O   UNL A   1      32.831  28.442  26.287  1.00  0.00    -0.461 OA
BRANCH  71  72
ATOM     72  C   UNL A   1      33.045  27.576  25.252  1.00  0.00     0.326 C 
ATOM     73  O   UNL A   1      33.847  27.790  24.344  1.00  0.00    -0.250 OA
BRANCH  72  74
ATOM     74  C   UNL A   1      32.103  26.364  25.240  1.00  0.00     0.205 C 
BRANCH  74  75
ATOM     75  C   UNL A   1      32.229  25.362  26.388  1.00  0.00     0.188 C 
BRANCH  75  76
ATOM     76  O   UNL A   1      33.133  24.302  26.086  1.00  0.00    -0.394 OA
ATOM     77  H   UNL A   1      32.673  23.624  25.567  1.00  0.00     0.210 HD
ENDBRANCH  75  76
ENDBRANCH  74  75
BRANCH  74  78
ATOM     78  N   UNL A   1      30.720  26.928  25.112  1.00  0.00    -0.194 NA
ATOM     79  H   UNL A   1      30.771  27.918  25.354  1.00  0.00     0.142 HD
BRANCH  78  80
ATOM     80  S   UNL A   1      29.957  26.820  23.614  1.00  0.00     0.242 S 
ATOM     81  O   UNL A   1      30.734  25.907  22.819  1.00  0.00    -0.207 OA
ATOM     82  O   UNL A   1      28.546  26.591  23.871  1.00  0.00    -0.207 OA
BRANCH  80  83
ATOM     83  C   UNL A   1      30.011  28.332  22.781  1.00  0.00     0.099 A 
ATOM     84  C   UNL A   1      28.885  29.114  22.418  1.00  0.00     0.041 A 
ATOM     85  C   UNL A   1      31.135  28.979  22.299  1.00  0.00     0.104 A 
ATOM     86  C   UNL A   1      29.353  30.198  21.707  1.00  0.00     0.083 A 
ATOM     87  N   UNL A   1      30.718  30.101  21.630  1.00  0.00    -0.366 N 
ATOM     88  H   UNL A   1      31.307  30.738  21.167  1.00  0.00     0.165 HD
ENDBRANCH  80  83
ENDBRANCH  78  80
ENDBRANCH  74  78
ENDBRANCH  72  74
ENDBRANCH  71  72
ENDBRANCH  70  71
ENDBRANCH   1  70
TORSDOF 19
ENDMDL
