MODEL 1
REMARK VINA RESULT:     -11.0      0.000      0.000
REMARK SMILES CC[C@H](C)[C@@H](NC(=O)[C@@H]1CCCN1C(=O)C1CC1)C(=O)OCCOC(=O)c1ccc(-c2c3nc(c(-c4cccc(S(=O)(=O)[O-])c4F)c4ccc([nH]4)c(-c4cccc(S(=O)(=O)[O-])c4F)c4nc(c(-c5cccc(S(=O)(=O)[O-])c5F)c5ccc2[nH]5)C=C4)C=C3)cc1
REMARK SMILES IDX 22 1 21 2 19 3 20 4 5 5 3 6 4 7 2 8 1 9 6 10 7 11 8 13 9 14
REMARK SMILES IDX 10 15 13 16 11 17 12 18 14 19 15 20 16 21 17 22 18 23 23 24
REMARK SMILES IDX 24 25 25 26 26 27 27 28 28 29 89 30 29 31 88 32 30 33 31 34
REMARK SMILES IDX 32 35 82 36 33 37 87 38 81 39 83 40 34 41 86 42 80 43 79 44
REMARK SMILES IDX 35 46 67 47 47 48 66 49 48 50 51 51 65 52 84 53 49 54 50 55
REMARK SMILES IDX 64 57 85 58 52 59 36 60 37 61 45 62 38 63 40 64 46 65 39 66
REMARK SMILES IDX 41 67 42 68 43 69 44 70 68 71 69 72 77 73 70 74 72 75 78 76
REMARK SMILES IDX 71 77 73 78 74 79 75 80 76 81 53 82 54 83 62 84 55 85 57 86
REMARK SMILES IDX 63 87 56 88 58 89 59 90 60 91 61 92
REMARK H PARENT 6 12 83 45 51 56
REMARK Flexibility Score: inf
ROOT
ATOM      1  C   UNL A   1      35.132  21.510  24.692  1.00  0.00     0.274 C 
ENDROOT
BRANCH   1   2
ATOM      2  O   UNL A   1      34.326  22.603  25.194  1.00  0.00    -0.461 OA
BRANCH   2   3
ATOM      3  C   UNL A   1      34.460  23.801  24.558  1.00  0.00     0.329 C 
ATOM      4  O   UNL A   1      35.521  24.406  24.451  1.00  0.00    -0.250 OA
BRANCH   3   5
ATOM      5  C   UNL A   1      33.105  24.433  24.161  1.00  0.00     0.195 C 
BRANCH   5   6
ATOM      6  C   UNL A   1      32.617  24.226  22.697  1.00  0.00     0.019 C 
ATOM      7  C   UNL A   1      33.070  25.385  21.786  1.00  0.00     0.010 C 
BRANCH   6   8
ATOM      8  C   UNL A   1      33.071  22.886  22.067  1.00  0.00     0.002 C 
ATOM      9  C   UNL A   1      32.209  21.666  22.385  1.00  0.00     0.004 C 
ENDBRANCH   6   8
ENDBRANCH   5   6
BRANCH   5  10
ATOM     10  N   UNL A   1      32.017  24.180  25.144  1.00  0.00    -0.341 N 
ATOM     11  C   UNL A   1      31.398  25.048  26.013  1.00  0.00     0.243 C 
ATOM     12  H   UNL A   1      31.692  23.251  25.178  1.00  0.00     0.164 HD
ATOM     13  O   UNL A   1      31.325  24.732  27.202  1.00  0.00    -0.273 OA
BRANCH  11  14
ATOM     14  C   UNL A   1      30.760  26.333  25.450  1.00  0.00     0.174 C 
ATOM     15  C   UNL A   1      29.706  25.847  24.437  1.00  0.00     0.037 C 
ATOM     16  N   UNL A   1      31.500  27.330  24.641  1.00  0.00    -0.330 N 
ATOM     17  C   UNL A   1      29.310  27.114  23.713  1.00  0.00     0.024 C 
ATOM     18  C   UNL A   1      30.637  27.835  23.574  1.00  0.00     0.120 C 
BRANCH  16  19
ATOM     19  C   UNL A   1      32.646  28.089  24.868  1.00  0.00     0.226 C 
ATOM     20  O   UNL A   1      33.574  28.037  24.056  1.00  0.00    -0.275 OA
BRANCH  19  21
ATOM     21  C   UNL A   1      32.897  28.965  26.043  1.00  0.00     0.079 C 
ATOM     22  C   UNL A   1      31.938  29.471  27.071  1.00  0.00     0.014 C 
ATOM     23  C   UNL A   1      32.944  28.411  27.441  1.00  0.00     0.014 C 
ENDBRANCH  19  21
ENDBRANCH  16  19
ENDBRANCH  11  14
ENDBRANCH   5  10
ENDBRANCH   3   5
ENDBRANCH   2   3
ENDBRANCH   1   2
BRANCH   1  24
ATOM     24  C   UNL A   1      36.292  21.138  25.606  1.00  0.00     0.275 C 
BRANCH  24  25
ATOM     25  O   UNL A   1      37.496  21.733  25.122  1.00  0.00    -0.458 OA
BRANCH  25  26
ATOM     26  C   UNL A   1      38.620  21.290  25.725  1.00  0.00     0.338 C 
ATOM     27  O   UNL A   1      39.134  20.191  25.648  1.00  0.00    -0.246 OA
BRANCH  26  28
ATOM     28  C   UNL A   1      39.237  22.436  26.387  1.00  0.00     0.060 A 
ATOM     29  C   UNL A   1      38.798  23.714  26.037  1.00  0.00     0.016 A 
ATOM     30  C   UNL A   1      40.270  22.245  27.299  1.00  0.00     0.016 A 
ATOM     31  C   UNL A   1      39.421  24.832  26.564  1.00  0.00     0.010 A 
ATOM     32  C   UNL A   1      40.886  23.366  27.843  1.00  0.00     0.010 A 
ATOM     33  C   UNL A   1      40.483  24.656  27.452  1.00  0.00    -0.014 A 
BRANCH  33  34
ATOM     34  C   UNL A   1      41.269  25.819  27.898  1.00  0.00     0.031 A 
ATOM     35  C   UNL A   1      40.560  26.906  28.641  1.00  0.00     0.074 A 
ATOM     36  C   UNL A   1      42.571  25.904  27.582  1.00  0.00     0.049 A 
ATOM     37  N   UNL A   1      40.971  28.106  28.937  1.00  0.00    -0.248 NA
ATOM     38  C   UNL A   1      39.191  26.603  29.097  1.00  0.00     0.031 C 
ATOM     39  C   UNL A   1      43.344  24.867  26.895  1.00  0.00     0.029 A 
ATOM     40  N   UNL A   1      43.462  26.927  27.761  1.00  0.00    -0.354 N 
ATOM     41  C   UNL A   1      39.894  28.727  29.556  1.00  0.00     0.074 A 
ATOM     42  C   UNL A   1      38.815  27.766  29.609  1.00  0.00     0.031 C 
ATOM     43  C   UNL A   1      44.585  25.328  26.668  1.00  0.00     0.029 A 
ATOM     44  C   UNL A   1      44.672  26.702  27.151  1.00  0.00     0.049 A 
ATOM     45  H   UNL A   1      43.255  27.743  28.272  1.00  0.00     0.167 HD
ATOM     46  C   UNL A   1      39.819  29.991  30.032  1.00  0.00     0.034 A 
ATOM     47  C   UNL A   1      45.711  27.538  26.966  1.00  0.00     0.034 A 
ATOM     48  C   UNL A   1      40.920  30.912  29.990  1.00  0.00     0.049 A 
ATOM     49  C   UNL A   1      45.602  28.939  27.503  1.00  0.00     0.074 A 
ATOM     50  C   UNL A   1      40.980  32.208  30.466  1.00  0.00     0.029 A 
ATOM     51  N   UNL A   1      42.161  30.627  29.437  1.00  0.00    -0.354 N 
ATOM     52  N   UNL A   1      44.604  29.502  28.145  1.00  0.00    -0.248 NA
ATOM     53  C   UNL A   1      46.764  29.816  27.310  1.00  0.00     0.031 C 
ATOM     54  C   UNL A   1      42.257  32.710  30.191  1.00  0.00     0.029 A 
ATOM     55  C   UNL A   1      42.996  31.720  29.559  1.00  0.00     0.049 A 
ATOM     56  H   UNL A   1      42.409  29.770  29.020  1.00  0.00     0.167 HD
ATOM     57  C   UNL A   1      45.027  30.787  28.459  1.00  0.00     0.074 A 
ATOM     58  C   UNL A   1      46.381  30.912  27.954  1.00  0.00     0.031 C 
ATOM     59  C   UNL A   1      44.359  31.783  29.092  1.00  0.00     0.034 A 
BRANCH  46  60
ATOM     60  C   UNL A   1      38.516  30.430  30.639  1.00  0.00     0.023 A 
ATOM     61  C   UNL A   1      38.249  30.160  31.996  1.00  0.00     0.012 A 
ATOM     62  C   UNL A   1      37.560  31.126  29.872  1.00  0.00     0.148 A 
ATOM     63  C   UNL A   1      37.042  30.548  32.574  1.00  0.00     0.002 A 
ATOM     64  C   UNL A   1      36.375  31.544  30.464  1.00  0.00     0.091 A 
ATOM     65  F   UNL A   1      37.818  31.345  28.574  1.00  0.00    -0.205 F 
ATOM     66  C   UNL A   1      36.109  31.247  31.812  1.00  0.00     0.022 A 
BRANCH  64  67
ATOM     67  S   UNL A   1      35.139  32.504  29.582  1.00  0.00     0.127 S 
ATOM     68  O   UNL A   1      34.631  31.523  28.625  1.00  0.00    -0.237 OA
ATOM     69  O   UNL A   1      34.201  32.855  30.649  1.00  0.00    -0.237 OA
ATOM     70  O   UNL A   1      35.849  33.635  29.003  1.00  0.00    -0.744 OA
ENDBRANCH  64  67
ENDBRANCH  46  60
BRANCH  47  71
ATOM     71  C   UNL A   1      46.937  27.060  26.268  1.00  0.00     0.023 A 
ATOM     72  C   UNL A   1      47.092  27.325  24.895  1.00  0.00     0.012 A 
ATOM     73  C   UNL A   1      47.967  26.390  26.958  1.00  0.00     0.148 A 
ATOM     74  C   UNL A   1      48.241  26.914  24.216  1.00  0.00     0.002 A 
ATOM     75  C   UNL A   1      49.130  26.029  26.287  1.00  0.00     0.091 A 
ATOM     76  F   UNL A   1      47.794  26.129  28.262  1.00  0.00    -0.205 F 
ATOM     77  C   UNL A   1      49.264  26.277  24.913  1.00  0.00     0.022 A 
BRANCH  75  78
ATOM     78  S   UNL A   1      50.549  25.324  27.138  1.00  0.00     0.127 S 
ATOM     79  O   UNL A   1      51.419  24.966  26.022  1.00  0.00    -0.237 OA
ATOM     80  O   UNL A   1      51.014  26.454  27.944  1.00  0.00    -0.237 OA
ATOM     81  O   UNL A   1      50.020  24.212  27.917  1.00  0.00    -0.744 OA
ENDBRANCH  75  78
ENDBRANCH  47  71
BRANCH  59  82
ATOM     82  C   UNL A   1      45.092  33.078  29.304  1.00  0.00     0.023 A 
ATOM     83  C   UNL A   1      45.861  33.260  30.470  1.00  0.00     0.012 A 
ATOM     84  C   UNL A   1      45.089  34.073  28.308  1.00  0.00     0.148 A 
ATOM     85  C   UNL A   1      46.599  34.427  30.652  1.00  0.00     0.002 A 
ATOM     86  C   UNL A   1      45.863  35.214  28.476  1.00  0.00     0.091 A 
ATOM     87  F   UNL A   1      44.332  33.887  27.218  1.00  0.00    -0.205 F 
ATOM     88  C   UNL A   1      46.611  35.397  29.651  1.00  0.00     0.022 A 
BRANCH  86  89
ATOM     89  S   UNL A   1      46.011  36.463  27.195  1.00  0.00     0.127 S 
ATOM     90  O   UNL A   1      47.121  37.271  27.693  1.00  0.00    -0.237 OA
ATOM     91  O   UNL A   1      46.322  35.661  26.010  1.00  0.00    -0.237 OA
ATOM     92  O   UNL A   1      44.718  37.132  27.142  1.00  0.00    -0.744 OA
ENDBRANCH  86  89
ENDBRANCH  59  82
ENDBRANCH  33  34
ENDBRANCH  26  28
ENDBRANCH  25  26
ENDBRANCH  24  25
ENDBRANCH   1  24
TORSDOF 20
ENDMDL
MODEL 2
REMARK VINA RESULT:     -10.9      4.788      9.832
REMARK SMILES CC[C@H](C)[C@@H](NC(=O)[C@@H]1CCCN1C(=O)C1CC1)C(=O)OCCOC(=O)c1ccc(-c2c3nc(c(-c4cccc(S(=O)(=O)[O-])c4F)c4ccc([nH]4)c(-c4cccc(S(=O)(=O)[O-])c4F)c4nc(c(-c5cccc(S(=O)(=O)[O-])c5F)c5ccc2[nH]5)C=C4)C=C3)cc1
REMARK SMILES IDX 22 1 21 2 19 3 20 4 5 5 3 6 4 7 2 8 1 9 6 10 7 11 8 13 9 14
REMARK SMILES IDX 10 15 13 16 11 17 12 18 14 19 15 20 16 21 17 22 18 23 23 24
REMARK SMILES IDX 24 25 25 26 26 27 27 28 28 29 89 30 29 31 88 32 30 33 31 34
REMARK SMILES IDX 32 35 82 36 33 37 87 38 81 39 83 40 34 41 86 42 80 43 79 44
REMARK SMILES IDX 35 46 67 47 47 48 66 49 48 50 51 51 65 52 84 53 49 54 50 55
REMARK SMILES IDX 64 57 85 58 52 59 36 60 37 61 45 62 38 63 40 64 46 65 39 66
REMARK SMILES IDX 41 67 42 68 43 69 44 70 68 71 69 72 77 73 70 74 72 75 78 76
REMARK SMILES IDX 71 77 73 78 74 79 75 80 76 81 53 82 54 83 62 84 55 85 57 86
REMARK SMILES IDX 63 87 56 88 58 89 59 90 60 91 61 92
REMARK H PARENT 6 12 83 45 51 56
REMARK Flexibility Score: inf
ROOT
ATOM      1  C   UNL A   1      31.395  29.530  24.935  1.00  0.00     0.274 C 
ENDROOT
BRANCH   1   2
ATOM      2  O   UNL A   1      31.003  28.261  25.510  1.00  0.00    -0.461 OA
BRANCH   2   3
ATOM      3  C   UNL A   1      30.695  27.263  24.634  1.00  0.00     0.329 C 
ATOM      4  O   UNL A   1      29.616  27.162  24.060  1.00  0.00    -0.250 OA
BRANCH   3   5
ATOM      5  C   UNL A   1      31.763  26.145  24.586  1.00  0.00     0.195 C 
BRANCH   5   6
ATOM      6  C   UNL A   1      33.120  26.476  23.897  1.00  0.00     0.019 C 
ATOM      7  C   UNL A   1      34.258  26.594  24.930  1.00  0.00     0.010 C 
BRANCH   6   8
ATOM      8  C   UNL A   1      33.536  25.458  22.807  1.00  0.00     0.002 C 
ATOM      9  C   UNL A   1      32.821  25.580  21.463  1.00  0.00     0.004 C 
ENDBRANCH   6   8
ENDBRANCH   5   6
BRANCH   5  10
ATOM     10  N   UNL A   1      31.962  25.454  25.889  1.00  0.00    -0.341 N 
ATOM     11  C   UNL A   1      31.704  24.149  26.240  1.00  0.00     0.243 C 
ATOM     12  H   UNL A   1      32.334  26.014  26.608  1.00  0.00     0.164 HD
ATOM     13  O   UNL A   1      31.032  23.938  27.250  1.00  0.00    -0.273 OA
BRANCH  11  14
ATOM     14  C   UNL A   1      32.330  23.017  25.401  1.00  0.00     0.174 C 
ATOM     15  C   UNL A   1      31.374  21.820  25.566  1.00  0.00     0.037 C 
ATOM     16  N   UNL A   1      33.635  22.390  25.715  1.00  0.00    -0.330 N 
ATOM     17  C   UNL A   1      32.155  20.669  24.974  1.00  0.00     0.024 C 
ATOM     18  C   UNL A   1      33.565  20.952  25.454  1.00  0.00     0.120 C 
BRANCH  16  19
ATOM     19  C   UNL A   1      34.927  22.888  25.867  1.00  0.00     0.226 C 
ATOM     20  O   UNL A   1      35.428  22.930  26.995  1.00  0.00    -0.275 OA
BRANCH  19  21
ATOM     21  C   UNL A   1      35.792  23.426  24.784  1.00  0.00     0.079 C 
ATOM     22  C   UNL A   1      37.176  23.026  24.388  1.00  0.00     0.014 C 
ATOM     23  C   UNL A   1      36.009  22.668  23.503  1.00  0.00     0.014 C 
ENDBRANCH  19  21
ENDBRANCH  16  19
ENDBRANCH  11  14
ENDBRANCH   5  10
ENDBRANCH   3   5
ENDBRANCH   2   3
ENDBRANCH   1   2
BRANCH   1  24
ATOM     24  C   UNL A   1      32.737  30.040  25.441  1.00  0.00     0.275 C 
BRANCH  24  25
ATOM     25  O   UNL A   1      32.651  30.321  26.838  1.00  0.00    -0.458 OA
BRANCH  25  26
ATOM     26  C   UNL A   1      33.205  31.495  27.207  1.00  0.00     0.338 C 
ATOM     27  O   UNL A   1      32.685  32.593  27.252  1.00  0.00    -0.246 OA
BRANCH  26  28
ATOM     28  C   UNL A   1      34.540  31.202  27.721  1.00  0.00     0.060 A 
ATOM     29  C   UNL A   1      34.827  29.889  28.100  1.00  0.00     0.016 A 
ATOM     30  C   UNL A   1      35.472  32.224  27.876  1.00  0.00     0.016 A 
ATOM     31  C   UNL A   1      36.044  29.584  28.684  1.00  0.00     0.010 A 
ATOM     32  C   UNL A   1      36.701  31.917  28.447  1.00  0.00     0.010 A 
ATOM     33  C   UNL A   1      36.974  30.606  28.878  1.00  0.00    -0.014 A 
BRANCH  33  34
ATOM     34  C   UNL A   1      38.204  30.346  29.645  1.00  0.00     0.031 A 
ATOM     35  C   UNL A   1      39.209  29.400  29.065  1.00  0.00     0.074 A 
ATOM     36  C   UNL A   1      38.368  30.907  30.853  1.00  0.00     0.049 A 
ATOM     37  N   UNL A   1      40.242  28.846  29.632  1.00  0.00    -0.248 NA
ATOM     38  C   UNL A   1      39.009  29.014  27.656  1.00  0.00     0.031 C 
ATOM     39  C   UNL A   1      37.453  31.869  31.470  1.00  0.00     0.029 A 
ATOM     40  N   UNL A   1      39.341  30.713  31.796  1.00  0.00    -0.354 N 
ATOM     41  C   UNL A   1      40.781  27.996  28.675  1.00  0.00     0.074 A 
ATOM     42  C   UNL A   1      39.971  28.119  27.484  1.00  0.00     0.031 C 
ATOM     43  C   UNL A   1      37.886  32.148  32.710  1.00  0.00     0.029 A 
ATOM     44  C   UNL A   1      39.074  31.348  32.985  1.00  0.00     0.049 A 
ATOM     45  H   UNL A   1      40.149  30.172  31.638  1.00  0.00     0.167 HD
ATOM     46  C   UNL A   1      41.856  27.184  28.791  1.00  0.00     0.034 A 
ATOM     47  C   UNL A   1      39.701  31.248  34.173  1.00  0.00     0.034 A 
ATOM     48  C   UNL A   1      42.659  27.108  29.979  1.00  0.00     0.049 A 
ATOM     49  C   UNL A   1      40.893  30.336  34.275  1.00  0.00     0.074 A 
ATOM     50  C   UNL A   1      43.789  26.347  30.210  1.00  0.00     0.029 A 
ATOM     51  N   UNL A   1      42.410  27.824  31.141  1.00  0.00    -0.354 N 
ATOM     52  N   UNL A   1      41.437  29.582  33.348  1.00  0.00    -0.248 NA
ATOM     53  C   UNL A   1      41.570  30.273  35.576  1.00  0.00     0.031 C 
ATOM     54  C   UNL A   1      44.218  26.599  31.517  1.00  0.00     0.029 A 
ATOM     55  C   UNL A   1      43.364  27.528  32.094  1.00  0.00     0.049 A 
ATOM     56  H   UNL A   1      41.662  28.453  31.267  1.00  0.00     0.167 HD
ATOM     57  C   UNL A   1      42.537  28.978  33.943  1.00  0.00     0.074 A 
ATOM     58  C   UNL A   1      42.593  29.471  35.306  1.00  0.00     0.031 C 
ATOM     59  C   UNL A   1      43.415  28.084  33.423  1.00  0.00     0.034 A 
BRANCH  46  60
ATOM     60  C   UNL A   1      42.219  26.337  27.603  1.00  0.00     0.023 A 
ATOM     61  C   UNL A   1      42.925  26.907  26.525  1.00  0.00     0.012 A 
ATOM     62  C   UNL A   1      41.876  24.971  27.559  1.00  0.00     0.148 A 
ATOM     63  C   UNL A   1      43.259  26.141  25.410  1.00  0.00     0.002 A 
ATOM     64  C   UNL A   1      42.246  24.203  26.462  1.00  0.00     0.091 A 
ATOM     65  F   UNL A   1      41.176  24.454  28.580  1.00  0.00    -0.205 F 
ATOM     66  C   UNL A   1      42.929  24.788  25.381  1.00  0.00     0.022 A 
BRANCH  64  67
ATOM     67  S   UNL A   1      41.920  22.439  26.360  1.00  0.00     0.127 S 
ATOM     68  O   UNL A   1      40.459  22.411  26.322  1.00  0.00    -0.237 OA
ATOM     69  O   UNL A   1      42.569  22.078  25.099  1.00  0.00    -0.237 OA
ATOM     70  O   UNL A   1      42.528  21.852  27.545  1.00  0.00    -0.744 OA
ENDBRANCH  64  67
ENDBRANCH  46  60
BRANCH  47  71
ATOM     71  C   UNL A   1      39.224  32.048  35.335  1.00  0.00     0.023 A 
ATOM     72  C   UNL A   1      38.297  31.478  36.227  1.00  0.00     0.012 A 
ATOM     73  C   UNL A   1      39.714  33.345  35.591  1.00  0.00     0.148 A 
ATOM     74  C   UNL A   1      37.850  32.191  37.341  1.00  0.00     0.002 A 
ATOM     75  C   UNL A   1      39.304  34.029  36.730  1.00  0.00     0.091 A 
ATOM     76  F   UNL A   1      40.583  33.880  34.721  1.00  0.00    -0.205 F 
ATOM     77  C   UNL A   1      38.362  33.460  37.599  1.00  0.00     0.022 A 
BRANCH  75  78
ATOM     78  S   UNL A   1      40.013  35.611  37.206  1.00  0.00     0.127 S 
ATOM     79  O   UNL A   1      39.652  36.453  36.069  1.00  0.00    -0.237 OA
ATOM     80  O   UNL A   1      39.293  35.908  38.445  1.00  0.00    -0.237 OA
ATOM     81  O   UNL A   1      41.436  35.360  37.388  1.00  0.00    -0.744 OA
ENDBRANCH  75  78
ENDBRANCH  47  71
BRANCH  59  82
ATOM     82  C   UNL A   1      44.527  27.613  34.317  1.00  0.00     0.023 A 
ATOM     83  C   UNL A   1      45.745  28.321  34.347  1.00  0.00     0.012 A 
ATOM     84  C   UNL A   1      44.332  26.524  35.189  1.00  0.00     0.148 A 
ATOM     85  C   UNL A   1      46.762  27.936  35.218  1.00  0.00     0.002 A 
ATOM     86  C   UNL A   1      45.334  26.174  36.085  1.00  0.00     0.091 A 
ATOM     87  F   UNL A   1      43.174  25.852  35.125  1.00  0.00    -0.205 F 
ATOM     88  C   UNL A   1      46.553  26.873  36.094  1.00  0.00     0.022 A 
BRANCH  86  89
ATOM     89  S   UNL A   1      45.106  24.884  37.311  1.00  0.00     0.127 S 
ATOM     90  O   UNL A   1      43.834  25.270  37.918  1.00  0.00    -0.237 OA
ATOM     91  O   UNL A   1      45.047  23.675  36.488  1.00  0.00    -0.237 OA
ATOM     92  O   UNL A   1      46.269  24.957  38.185  1.00  0.00    -0.744 OA
ENDBRANCH  86  89
ENDBRANCH  59  82
ENDBRANCH  33  34
ENDBRANCH  26  28
ENDBRANCH  25  26
ENDBRANCH  24  25
ENDBRANCH   1  24
TORSDOF 20
ENDMDL
MODEL 3
REMARK VINA RESULT:     -10.8      1.754      2.429
REMARK SMILES CC[C@H](C)[C@@H](NC(=O)[C@@H]1CCCN1C(=O)C1CC1)C(=O)OCCOC(=O)c1ccc(-c2c3nc(c(-c4cccc(S(=O)(=O)[O-])c4F)c4ccc([nH]4)c(-c4cccc(S(=O)(=O)[O-])c4F)c4nc(c(-c5cccc(S(=O)(=O)[O-])c5F)c5ccc2[nH]5)C=C4)C=C3)cc1
REMARK SMILES IDX 22 1 21 2 19 3 20 4 5 5 3 6 4 7 2 8 1 9 6 10 7 11 8 13 9 14
REMARK SMILES IDX 10 15 13 16 11 17 12 18 14 19 15 20 16 21 17 22 18 23 23 24
REMARK SMILES IDX 24 25 25 26 26 27 27 28 28 29 89 30 29 31 88 32 30 33 31 34
REMARK SMILES IDX 32 35 82 36 33 37 87 38 81 39 83 40 34 41 86 42 80 43 79 44
REMARK SMILES IDX 35 46 67 47 47 48 66 49 48 50 51 51 65 52 84 53 49 54 50 55
REMARK SMILES IDX 64 57 85 58 52 59 36 60 37 61 45 62 38 63 40 64 46 65 39 66
REMARK SMILES IDX 41 67 42 68 43 69 44 70 68 71 69 72 77 73 70 74 72 75 78 76
REMARK SMILES IDX 71 77 73 78 74 79 75 80 76 81 53 82 54 83 62 84 55 85 57 86
REMARK SMILES IDX 63 87 56 88 58 89 59 90 60 91 61 92
REMARK H PARENT 6 12 83 45 51 56
REMARK Flexibility Score: inf
ROOT
ATOM      1  C   UNL A   1      35.082  22.228  25.411  1.00  0.00     0.274 C 
ENDROOT
BRANCH   1   2
ATOM      2  O   UNL A   1      35.308  23.554  24.877  1.00  0.00    -0.461 OA
BRANCH   2   3
ATOM      3  C   UNL A   1      34.547  23.919  23.807  1.00  0.00     0.329 C 
ATOM      4  O   UNL A   1      34.779  23.580  22.652  1.00  0.00    -0.250 OA
BRANCH   3   5
ATOM      5  C   UNL A   1      33.475  24.978  24.156  1.00  0.00     0.195 C 
BRANCH   5   6
ATOM      6  C   UNL A   1      33.619  25.726  25.515  1.00  0.00     0.019 C 
ATOM      7  C   UNL A   1      33.856  27.235  25.301  1.00  0.00     0.010 C 
BRANCH   6   8
ATOM      8  C   UNL A   1      32.411  25.538  26.466  1.00  0.00     0.002 C 
ATOM      9  C   UNL A   1      31.886  24.111  26.615  1.00  0.00     0.004 C 
ENDBRANCH   6   8
ENDBRANCH   5   6
BRANCH   5  10
ATOM     10  N   UNL A   1      33.179  25.917  23.041  1.00  0.00    -0.341 N 
ATOM     11  C   UNL A   1      31.972  26.251  22.470  1.00  0.00     0.243 C 
ATOM     12  H   UNL A   1      33.963  26.367  22.652  1.00  0.00     0.164 HD
ATOM     13  O   UNL A   1      31.865  26.176  21.245  1.00  0.00    -0.273 OA
BRANCH  11  14
ATOM     14  C   UNL A   1      30.841  26.775  23.377  1.00  0.00     0.174 C 
ATOM     15  C   UNL A   1      29.982  25.538  23.701  1.00  0.00     0.037 C 
ATOM     16  N   UNL A   1      29.807  27.736  22.927  1.00  0.00    -0.330 N 
ATOM     17  C   UNL A   1      28.749  26.131  24.345  1.00  0.00     0.024 C 
ATOM     18  C   UNL A   1      28.515  27.376  23.510  1.00  0.00     0.120 C 
BRANCH  16  19
ATOM     19  C   UNL A   1      29.860  29.017  22.382  1.00  0.00     0.226 C 
ATOM     20  O   UNL A   1      30.944  29.464  21.998  1.00  0.00    -0.275 OA
BRANCH  19  21
ATOM     21  C   UNL A   1      28.715  29.954  22.238  1.00  0.00     0.079 C 
ATOM     22  C   UNL A   1      27.728  30.411  23.263  1.00  0.00     0.014 C 
ATOM     23  C   UNL A   1      28.782  31.364  22.760  1.00  0.00     0.014 C 
ENDBRANCH  19  21
ENDBRANCH  16  19
ENDBRANCH  11  14
ENDBRANCH   5  10
ENDBRANCH   3   5
ENDBRANCH   2   3
ENDBRANCH   1   2
BRANCH   1  24
ATOM     24  C   UNL A   1      36.268  21.288  25.234  1.00  0.00     0.275 C 
BRANCH  24  25
ATOM     25  O   UNL A   1      37.466  22.048  25.077  1.00  0.00    -0.458 OA
BRANCH  25  26
ATOM     26  C   UNL A   1      38.529  21.562  25.752  1.00  0.00     0.338 C 
ATOM     27  O   UNL A   1      38.986  20.435  25.728  1.00  0.00    -0.246 OA
BRANCH  26  28
ATOM     28  C   UNL A   1      39.169  22.690  26.424  1.00  0.00     0.060 A 
ATOM     29  C   UNL A   1      38.722  23.977  26.119  1.00  0.00     0.016 A 
ATOM     30  C   UNL A   1      40.230  22.475  27.297  1.00  0.00     0.016 A 
ATOM     31  C   UNL A   1      39.364  25.080  26.654  1.00  0.00     0.010 A 
ATOM     32  C   UNL A   1      40.865  23.581  27.849  1.00  0.00     0.010 A 
ATOM     33  C   UNL A   1      40.453  24.881  27.504  1.00  0.00    -0.014 A 
BRANCH  33  34
ATOM     34  C   UNL A   1      41.256  26.030  27.954  1.00  0.00     0.031 A 
ATOM     35  C   UNL A   1      40.568  27.108  28.732  1.00  0.00     0.074 A 
ATOM     36  C   UNL A   1      42.551  26.114  27.612  1.00  0.00     0.049 A 
ATOM     37  N   UNL A   1      40.993  28.300  29.041  1.00  0.00    -0.248 NA
ATOM     38  C   UNL A   1      39.208  26.804  29.212  1.00  0.00     0.031 C 
ATOM     39  C   UNL A   1      43.303  25.086  26.889  1.00  0.00     0.029 A 
ATOM     40  N   UNL A   1      43.451  27.129  27.790  1.00  0.00    -0.354 N 
ATOM     41  C   UNL A   1      39.933  28.916  29.694  1.00  0.00     0.074 A 
ATOM     42  C   UNL A   1      38.850  27.960  29.753  1.00  0.00     0.031 C 
ATOM     43  C   UNL A   1      44.541  25.544  26.644  1.00  0.00     0.029 A 
ATOM     44  C   UNL A   1      44.647  26.908  27.150  1.00  0.00     0.049 A 
ATOM     45  H   UNL A   1      43.260  27.936  28.321  1.00  0.00     0.167 HD
ATOM     46  C   UNL A   1      39.876  30.171  30.194  1.00  0.00     0.034 A 
ATOM     47  C   UNL A   1      45.687  27.742  26.958  1.00  0.00     0.034 A 
ATOM     48  C   UNL A   1      40.982  31.086  30.146  1.00  0.00     0.049 A 
ATOM     49  C   UNL A   1      45.597  29.134  27.522  1.00  0.00     0.074 A 
ATOM     50  C   UNL A   1      41.059  32.373  30.644  1.00  0.00     0.029 A 
ATOM     51  N   UNL A   1      42.209  30.804  29.561  1.00  0.00    -0.354 N 
ATOM     52  N   UNL A   1      44.617  29.690  28.196  1.00  0.00    -0.248 NA
ATOM     53  C   UNL A   1      46.760  30.008  27.321  1.00  0.00     0.031 C 
ATOM     54  C   UNL A   1      42.333  32.872  30.351  1.00  0.00     0.029 A 
ATOM     55  C   UNL A   1      43.053  31.890  29.685  1.00  0.00     0.049 A 
ATOM     56  H   UNL A   1      42.442  29.954  29.123  1.00  0.00     0.167 HD
ATOM     57  C   UNL A   1      45.054  30.967  28.525  1.00  0.00     0.074 A 
ATOM     58  C   UNL A   1      46.398  31.093  27.992  1.00  0.00     0.031 C 
ATOM     59  C   UNL A   1      44.405  31.955  29.189  1.00  0.00     0.034 A 
BRANCH  46  60
ATOM     60  C   UNL A   1      38.589  30.606  30.837  1.00  0.00     0.023 A 
ATOM     61  C   UNL A   1      38.361  30.334  32.201  1.00  0.00     0.012 A 
ATOM     62  C   UNL A   1      37.611  31.299  30.097  1.00  0.00     0.148 A 
ATOM     63  C   UNL A   1      37.168  30.719  32.812  1.00  0.00     0.002 A 
ATOM     64  C   UNL A   1      36.440  31.713  30.722  1.00  0.00     0.091 A 
ATOM     65  F   UNL A   1      37.832  31.519  28.793  1.00  0.00    -0.205 F 
ATOM     66  C   UNL A   1      36.213  31.416  32.076  1.00  0.00     0.022 A 
BRANCH  64  67
ATOM     67  S   UNL A   1      35.178  32.670  29.875  1.00  0.00     0.127 S 
ATOM     68  O   UNL A   1      35.973  33.735  29.266  1.00  0.00    -0.237 OA
ATOM     69  O   UNL A   1      34.637  31.696  28.927  1.00  0.00    -0.237 OA
ATOM     70  O   UNL A   1      34.242  33.098  30.905  1.00  0.00    -0.744 OA
ENDBRANCH  64  67
ENDBRANCH  46  60
BRANCH  47  71
ATOM     71  C   UNL A   1      46.894  27.270  26.225  1.00  0.00     0.023 A 
ATOM     72  C   UNL A   1      47.781  26.383  26.862  1.00  0.00     0.012 A 
ATOM     73  C   UNL A   1      47.145  27.652  24.892  1.00  0.00     0.148 A 
ATOM     74  C   UNL A   1      48.908  25.900  26.194  1.00  0.00     0.002 A 
ATOM     75  C   UNL A   1      48.241  27.127  24.215  1.00  0.00     0.091 A 
ATOM     76  F   UNL A   1      46.300  28.512  24.306  1.00  0.00    -0.205 F 
ATOM     77  C   UNL A   1      49.131  26.262  24.868  1.00  0.00     0.022 A 
BRANCH  75  78
ATOM     78  S   UNL A   1      48.528  27.438  22.467  1.00  0.00     0.127 S 
ATOM     79  O   UNL A   1      47.368  28.251  22.115  1.00  0.00    -0.237 OA
ATOM     80  O   UNL A   1      49.802  28.159  22.491  1.00  0.00    -0.237 OA
ATOM     81  O   UNL A   1      48.597  26.123  21.846  1.00  0.00    -0.744 OA
ENDBRANCH  75  78
ENDBRANCH  47  71
BRANCH  59  82
ATOM     82  C   UNL A   1      45.150  33.241  29.409  1.00  0.00     0.023 A 
ATOM     83  C   UNL A   1      45.923  33.408  30.575  1.00  0.00     0.012 A 
ATOM     84  C   UNL A   1      45.155  34.243  28.420  1.00  0.00     0.148 A 
ATOM     85  C   UNL A   1      46.672  34.567  30.764  1.00  0.00     0.002 A 
ATOM     86  C   UNL A   1      45.940  35.376  28.595  1.00  0.00     0.091 A 
ATOM     87  F   UNL A   1      44.395  34.071  27.330  1.00  0.00    -0.205 F 
ATOM     88  C   UNL A   1      46.691  35.544  29.770  1.00  0.00     0.022 A 
BRANCH  86  89
ATOM     89  S   UNL A   1      46.096  36.632  27.322  1.00  0.00     0.127 S 
ATOM     90  O   UNL A   1      47.206  37.435  27.831  1.00  0.00    -0.237 OA
ATOM     91  O   UNL A   1      46.413  35.837  26.135  1.00  0.00    -0.237 OA
ATOM     92  O   UNL A   1      44.806  37.305  27.267  1.00  0.00    -0.744 OA
ENDBRANCH  86  89
ENDBRANCH  59  82
ENDBRANCH  33  34
ENDBRANCH  26  28
ENDBRANCH  25  26
ENDBRANCH  24  25
ENDBRANCH   1  24
TORSDOF 20
ENDMDL
