MODEL 1
REMARK VINA RESULT:     -11.9      0.000      0.000
REMARK SMILES Cc1n[nH]c(C)c1CC(=O)N1CC[C@H](C(=O)OCCOC(=O)c2ccc(-c3c4nc(c(-c5cccc(S(=O)(=O)[O-])c5F)c5ccc([nH]5)c(-c5cccc(S(=O)(=O)[O-])c5F)c5nc(c(-c6cccc(S(=O)(=O)[O-])c6F)c6ccc3[nH]6)C=C5)C=C4)cc2)[C@H]1C
REMARK SMILES IDX 18 1 17 2 15 3 16 4 14 5 11 6 12 7 86 8 13 9 87 10 9 11
REMARK SMILES IDX 10 12 8 13 7 14 1 15 2 16 3 17 4 18 5 19 6 21 19 22 20 23
REMARK SMILES IDX 21 24 22 25 23 26 24 27 85 28 25 29 84 30 26 31 27 32 28 33
REMARK SMILES IDX 78 34 29 35 83 36 77 37 79 38 30 39 82 40 76 41 75 42 31 44
REMARK SMILES IDX 63 45 43 46 62 47 44 48 47 49 61 50 80 51 45 52 46 53 60 55
REMARK SMILES IDX 81 56 48 57 32 58 33 59 41 60 34 61 36 62 42 63 35 64 37 65
REMARK SMILES IDX 38 66 39 67 40 68 64 69 65 70 73 71 66 72 68 73 74 74 67 75
REMARK SMILES IDX 69 76 70 77 71 78 72 79 49 80 50 81 58 82 51 83 53 84 59 85
REMARK SMILES IDX 52 86 54 87 55 88 56 89 57 90
REMARK H PARENT 4 20 79 43 47 54
REMARK Flexibility Score: inf
ROOT
ATOM      1  C   UNL A   1      31.577  29.401  24.660  1.00  0.00     0.274 C 
ENDROOT
BRANCH   1   2
ATOM      2  O   UNL A   1      31.611  27.974  24.896  1.00  0.00    -0.462 OA
BRANCH   2   3
ATOM      3  C   UNL A   1      32.652  27.315  24.331  1.00  0.00     0.311 C 
ATOM      4  O   UNL A   1      33.050  27.503  23.185  1.00  0.00    -0.252 OA
BRANCH   3   5
ATOM      5  C   UNL A   1      33.308  26.275  25.220  1.00  0.00     0.123 C 
ATOM      6  N   UNL A   1      32.806  24.026  24.616  1.00  0.00    -0.339 N 
ATOM      7  C   UNL A   1      31.698  24.531  25.413  1.00  0.00     0.121 C 
ATOM      8  C   UNL A   1      33.898  25.010  24.568  1.00  0.00     0.096 C 
ATOM      9  C   UNL A   1      32.289  25.690  26.198  1.00  0.00     0.039 C 
ATOM     10  C   UNL A   1      35.102  24.561  25.400  1.00  0.00     0.032 C 
BRANCH   6  11
ATOM     11  C   UNL A   1      32.618  22.875  23.877  1.00  0.00     0.227 C 
ATOM     12  O   UNL A   1      31.552  22.704  23.271  1.00  0.00    -0.275 OA
BRANCH  11  13
ATOM     13  C   UNL A   1      33.588  21.703  23.944  1.00  0.00     0.139 C 
BRANCH  13  14
ATOM     14  C   UNL A   1      33.295  20.554  24.845  1.00  0.00     0.005 A 
ATOM     15  C   UNL A   1      32.318  18.797  23.171  1.00  0.00     0.069 C 
ATOM     16  C   UNL A   1      32.748  19.284  24.506  1.00  0.00     0.063 A 
ATOM     17  N   UNL A   1      32.620  18.497  25.581  1.00  0.00    -0.181 NA
ATOM     18  N   UNL A   1      33.009  19.269  26.603  1.00  0.00    -0.282 N 
ATOM     19  C   UNL A   1      33.380  20.528  26.229  1.00  0.00     0.036 A 
ATOM     20  H   UNL A   1      33.026  18.958  27.536  1.00  0.00     0.190 HD
ATOM     21  C   UNL A   1      33.756  21.557  27.233  1.00  0.00     0.066 C 
ENDBRANCH  13  14
ENDBRANCH  11  13
ENDBRANCH   6  11
ENDBRANCH   3   5
ENDBRANCH   2   3
ENDBRANCH   1   2
BRANCH   1  22
ATOM     22  C   UNL A   1      31.798  30.182  25.954  1.00  0.00     0.275 C 
BRANCH  22  23
ATOM     23  O   UNL A   1      33.206  30.377  26.149  1.00  0.00    -0.458 OA
BRANCH  23  24
ATOM     24  C   UNL A   1      33.557  31.270  27.101  1.00  0.00     0.338 C 
ATOM     25  O   UNL A   1      32.872  32.209  27.496  1.00  0.00    -0.246 OA
BRANCH  24  26
ATOM     26  C   UNL A   1      34.893  30.935  27.648  1.00  0.00     0.060 A 
ATOM     27  C   UNL A   1      35.233  29.620  27.969  1.00  0.00     0.016 A 
ATOM     28  C   UNL A   1      35.801  31.958  27.927  1.00  0.00     0.016 A 
ATOM     29  C   UNL A   1      36.412  29.339  28.662  1.00  0.00     0.010 A 
ATOM     30  C   UNL A   1      37.037  31.656  28.512  1.00  0.00     0.010 A 
ATOM     31  C   UNL A   1      37.349  30.348  28.922  1.00  0.00    -0.014 A 
BRANCH  31  32
ATOM     32  C   UNL A   1      38.638  30.053  29.620  1.00  0.00     0.031 A 
ATOM     33  C   UNL A   1      39.633  29.094  29.008  1.00  0.00     0.074 A 
ATOM     34  C   UNL A   1      38.921  30.606  30.820  1.00  0.00     0.049 A 
ATOM     35  N   UNL A   1      40.664  28.507  29.561  1.00  0.00    -0.248 NA
ATOM     36  C   UNL A   1      39.428  28.731  27.595  1.00  0.00     0.031 C 
ATOM     37  C   UNL A   1      38.076  31.564  31.539  1.00  0.00     0.029 A 
ATOM     38  N   UNL A   1      39.996  30.427  31.661  1.00  0.00    -0.354 N 
ATOM     39  C   UNL A   1      41.173  27.641  28.598  1.00  0.00     0.074 A 
ATOM     40  C   UNL A   1      40.351  27.794  27.417  1.00  0.00     0.031 C 
ATOM     41  C   UNL A   1      38.672  31.907  32.689  1.00  0.00     0.029 A 
ATOM     42  C   UNL A   1      39.892  31.126  32.844  1.00  0.00     0.049 A 
ATOM     43  H   UNL A   1      40.766  29.856  31.438  1.00  0.00     0.167 HD
ATOM     44  C   UNL A   1      42.233  26.801  28.686  1.00  0.00     0.034 A 
ATOM     45  C   UNL A   1      40.656  31.106  33.954  1.00  0.00     0.034 A 
ATOM     46  C   UNL A   1      43.110  26.718  29.824  1.00  0.00     0.049 A 
ATOM     47  C   UNL A   1      41.846  30.190  34.013  1.00  0.00     0.074 A 
ATOM     48  C   UNL A   1      44.218  25.906  29.999  1.00  0.00     0.029 A 
ATOM     49  N   UNL A   1      43.003  27.496  30.965  1.00  0.00    -0.354 N 
ATOM     50  N   UNL A   1      42.308  29.380  33.092  1.00  0.00    -0.248 NA
ATOM     51  C   UNL A   1      42.621  30.186  35.262  1.00  0.00     0.031 C 
ATOM     52  C   UNL A   1      44.787  26.202  31.242  1.00  0.00     0.029 A 
ATOM     53  C   UNL A   1      44.035  27.200  31.838  1.00  0.00     0.049 A 
ATOM     54  H   UNL A   1      42.297  28.162  31.130  1.00  0.00     0.167 HD
ATOM     55  C   UNL A   1      43.434  28.782  33.645  1.00  0.00     0.074 A 
ATOM     56  C   UNL A   1      43.606  29.350  34.965  1.00  0.00     0.031 C 
ATOM     57  C   UNL A   1      44.234  27.823  33.119  1.00  0.00     0.034 A 
BRANCH  44  58
ATOM     58  C   UNL A   1      42.543  25.923  27.502  1.00  0.00     0.023 A 
ATOM     59  C   UNL A   1      43.383  26.405  26.481  1.00  0.00     0.012 A 
ATOM     60  C   UNL A   1      42.081  24.591  27.449  1.00  0.00     0.148 A 
ATOM     61  C   UNL A   1      43.748  25.583  25.415  1.00  0.00     0.002 A 
ATOM     62  C   UNL A   1      42.479  23.766  26.403  1.00  0.00     0.091 A 
ATOM     63  F   UNL A   1      41.267  24.158  28.422  1.00  0.00    -0.205 F 
ATOM     64  C   UNL A   1      43.306  24.262  25.382  1.00  0.00     0.022 A 
BRANCH  62  65
ATOM     65  S   UNL A   1      42.029  22.029  26.312  1.00  0.00     0.127 S 
ATOM     66  O   UNL A   1      40.585  22.108  26.096  1.00  0.00    -0.237 OA
ATOM     67  O   UNL A   1      42.795  21.572  25.152  1.00  0.00    -0.237 OA
ATOM     68  O   UNL A   1      42.440  21.440  27.579  1.00  0.00    -0.744 OA
ENDBRANCH  62  65
ENDBRANCH  44  58
BRANCH  45  69
ATOM     69  C   UNL A   1      40.318  31.991  35.108  1.00  0.00     0.023 A 
ATOM     70  C   UNL A   1      40.999  33.213  35.264  1.00  0.00     0.012 A 
ATOM     71  C   UNL A   1      39.307  31.650  36.027  1.00  0.00     0.148 A 
ATOM     72  C   UNL A   1      40.695  34.067  36.325  1.00  0.00     0.002 A 
ATOM     73  C   UNL A   1      38.964  32.537  37.041  1.00  0.00     0.091 A 
ATOM     74  F   UNL A   1      38.687  30.469  35.890  1.00  0.00    -0.205 F 
ATOM     75  C   UNL A   1      39.667  33.738  37.204  1.00  0.00     0.022 A 
BRANCH  73  76
ATOM     76  S   UNL A   1      37.538  32.234  38.093  1.00  0.00     0.127 S 
ATOM     77  O   UNL A   1      36.490  32.984  37.409  1.00  0.00    -0.237 OA
ATOM     78  O   UNL A   1      37.398  30.779  38.026  1.00  0.00    -0.237 OA
ATOM     79  O   UNL A   1      37.938  32.727  39.405  1.00  0.00    -0.744 OA
ENDBRANCH  73  76
ENDBRANCH  45  69
BRANCH  57  80
ATOM     80  C   UNL A   1      45.387  27.346  33.958  1.00  0.00     0.023 A 
ATOM     81  C   UNL A   1      46.622  28.021  33.886  1.00  0.00     0.012 A 
ATOM     82  C   UNL A   1      45.234  26.274  34.859  1.00  0.00     0.148 A 
ATOM     83  C   UNL A   1      47.696  27.620  34.679  1.00  0.00     0.002 A 
ATOM     84  C   UNL A   1      46.298  25.903  35.673  1.00  0.00     0.091 A 
ATOM     85  F   UNL A   1      44.058  25.630  34.895  1.00  0.00    -0.205 F 
ATOM     86  C   UNL A   1      47.531  26.569  35.578  1.00  0.00     0.022 A 
BRANCH  84  87
ATOM     87  S   UNL A   1      46.146  24.611  36.911  1.00  0.00     0.127 S 
ATOM     88  O   UNL A   1      45.043  25.111  37.729  1.00  0.00    -0.237 OA
ATOM     89  O   UNL A   1      45.820  23.435  36.103  1.00  0.00    -0.237 OA
ATOM     90  O   UNL A   1      47.442  24.543  37.573  1.00  0.00    -0.744 OA
ENDBRANCH  84  87
ENDBRANCH  57  80
ENDBRANCH  31  32
ENDBRANCH  24  26
ENDBRANCH  23  24
ENDBRANCH  22  23
ENDBRANCH   1  22
TORSDOF 17
ENDMDL
MODEL 2
REMARK VINA RESULT:     -11.8      1.793      2.336
REMARK SMILES Cc1n[nH]c(C)c1CC(=O)N1CC[C@H](C(=O)OCCOC(=O)c2ccc(-c3c4nc(c(-c5cccc(S(=O)(=O)[O-])c5F)c5ccc([nH]5)c(-c5cccc(S(=O)(=O)[O-])c5F)c5nc(c(-c6cccc(S(=O)(=O)[O-])c6F)c6ccc3[nH]6)C=C5)C=C4)cc2)[C@H]1C
REMARK SMILES IDX 18 1 17 2 15 3 16 4 14 5 11 6 12 7 86 8 13 9 87 10 9 11
REMARK SMILES IDX 10 12 8 13 7 14 1 15 2 16 3 17 4 18 5 19 6 21 19 22 20 23
REMARK SMILES IDX 21 24 22 25 23 26 24 27 85 28 25 29 84 30 26 31 27 32 28 33
REMARK SMILES IDX 78 34 29 35 83 36 77 37 79 38 30 39 82 40 76 41 75 42 31 44
REMARK SMILES IDX 63 45 43 46 62 47 44 48 47 49 61 50 80 51 45 52 46 53 60 55
REMARK SMILES IDX 81 56 48 57 32 58 33 59 41 60 34 61 36 62 42 63 35 64 37 65
REMARK SMILES IDX 38 66 39 67 40 68 64 69 65 70 73 71 66 72 68 73 74 74 67 75
REMARK SMILES IDX 69 76 70 77 71 78 72 79 49 80 50 81 58 82 51 83 53 84 59 85
REMARK SMILES IDX 52 86 54 87 55 88 56 89 57 90
REMARK H PARENT 4 20 79 43 47 54
REMARK Flexibility Score: inf
ROOT
ATOM      1  C   UNL A   1      32.351  28.348  24.797  1.00  0.00     0.274 C 
ENDROOT
BRANCH   1   2
ATOM      2  O   UNL A   1      31.243  27.452  24.542  1.00  0.00    -0.462 OA
BRANCH   2   3
ATOM      3  C   UNL A   1      30.878  27.334  23.241  1.00  0.00     0.311 C 
ATOM      4  O   UNL A   1      30.470  28.262  22.549  1.00  0.00    -0.252 OA
BRANCH   3   5
ATOM      5  C   UNL A   1      30.984  25.930  22.675  1.00  0.00     0.123 C 
ATOM      6  N   UNL A   1      33.122  24.922  22.973  1.00  0.00    -0.339 N 
ATOM      7  C   UNL A   1      33.196  25.785  21.804  1.00  0.00     0.121 C 
ATOM      8  C   UNL A   1      31.744  24.862  23.483  1.00  0.00     0.096 C 
ATOM      9  C   UNL A   1      31.753  25.943  21.354  1.00  0.00     0.039 C 
ATOM     10  C   UNL A   1      31.096  23.502  23.206  1.00  0.00     0.032 C 
BRANCH   6  11
ATOM     11  C   UNL A   1      34.298  24.483  23.547  1.00  0.00     0.227 C 
ATOM     12  O   UNL A   1      35.097  23.817  22.873  1.00  0.00    -0.275 OA
BRANCH  11  13
ATOM     13  C   UNL A   1      34.564  24.602  25.041  1.00  0.00     0.139 C 
BRANCH  13  14
ATOM     14  C   UNL A   1      34.560  23.379  25.891  1.00  0.00     0.005 A 
ATOM     15  C   UNL A   1      32.190  23.498  26.991  1.00  0.00     0.069 C 
ATOM     16  C   UNL A   1      33.522  22.894  26.735  1.00  0.00     0.063 A 
ATOM     17  N   UNL A   1      33.875  21.759  27.352  1.00  0.00    -0.181 NA
ATOM     18  N   UNL A   1      35.140  21.555  26.969  1.00  0.00    -0.282 N 
ATOM     19  C   UNL A   1      35.622  22.519  26.131  1.00  0.00     0.036 A 
ATOM     20  H   UNL A   1      35.675  20.784  27.264  1.00  0.00     0.190 HD
ATOM     21  C   UNL A   1      37.035  22.513  25.672  1.00  0.00     0.066 C 
ENDBRANCH  13  14
ENDBRANCH  11  13
ENDBRANCH   6  11
ENDBRANCH   3   5
ENDBRANCH   2   3
ENDBRANCH   1   2
BRANCH   1  22
ATOM     22  C   UNL A   1      31.982  29.401  25.840  1.00  0.00     0.275 C 
BRANCH  22  23
ATOM     23  O   UNL A   1      32.881  30.513  25.723  1.00  0.00    -0.458 OA
BRANCH  23  24
ATOM     24  C   UNL A   1      33.044  31.266  26.833  1.00  0.00     0.338 C 
ATOM     25  O   UNL A   1      32.222  32.048  27.300  1.00  0.00    -0.246 OA
BRANCH  24  26
ATOM     26  C   UNL A   1      34.364  30.989  27.449  1.00  0.00     0.060 A 
ATOM     27  C   UNL A   1      34.728  29.694  27.821  1.00  0.00     0.016 A 
ATOM     28  C   UNL A   1      35.225  32.048  27.741  1.00  0.00     0.016 A 
ATOM     29  C   UNL A   1      35.882  29.470  28.576  1.00  0.00     0.010 A 
ATOM     30  C   UNL A   1      36.441  31.802  28.391  1.00  0.00     0.010 A 
ATOM     31  C   UNL A   1      36.774  30.515  28.851  1.00  0.00    -0.014 A 
BRANCH  31  32
ATOM     32  C   UNL A   1      38.038  30.280  29.615  1.00  0.00     0.031 A 
ATOM     33  C   UNL A   1      39.125  29.405  29.037  1.00  0.00     0.074 A 
ATOM     34  C   UNL A   1      38.215  30.813  30.844  1.00  0.00     0.049 A 
ATOM     35  N   UNL A   1      40.159  28.867  29.633  1.00  0.00    -0.248 NA
ATOM     36  C   UNL A   1      39.026  29.074  27.605  1.00  0.00     0.031 C 
ATOM     37  C   UNL A   1      37.271  31.692  31.538  1.00  0.00     0.029 A 
ATOM     38  N   UNL A   1      39.250  30.676  31.742  1.00  0.00    -0.354 N 
ATOM     39  C   UNL A   1      40.777  28.066  28.679  1.00  0.00     0.074 A 
ATOM     40  C   UNL A   1      40.016  28.203  27.456  1.00  0.00     0.031 C 
ATOM     41  C   UNL A   1      37.777  32.037  32.730  1.00  0.00     0.029 A 
ATOM     42  C   UNL A   1      39.034  31.329  32.935  1.00  0.00     0.049 A 
ATOM     43  H   UNL A   1      40.066  30.161  31.549  1.00  0.00     0.167 HD
ATOM     44  C   UNL A   1      41.882  27.292  28.806  1.00  0.00     0.034 A 
ATOM     45  C   UNL A   1      39.733  31.323  34.088  1.00  0.00     0.034 A 
ATOM     46  C   UNL A   1      42.697  27.229  29.990  1.00  0.00     0.049 A 
ATOM     47  C   UNL A   1      40.974  30.482  34.191  1.00  0.00     0.074 A 
ATOM     48  C   UNL A   1      43.843  26.483  30.208  1.00  0.00     0.029 A 
ATOM     49  N   UNL A   1      42.475  27.962  31.144  1.00  0.00    -0.354 N 
ATOM     50  N   UNL A   1      41.540  29.732  33.277  1.00  0.00    -0.248 NA
ATOM     51  C   UNL A   1      41.675  30.488  35.483  1.00  0.00     0.031 C 
ATOM     52  C   UNL A   1      44.320  26.776  31.490  1.00  0.00     0.029 A 
ATOM     53  C   UNL A   1      43.473  27.705  32.068  1.00  0.00     0.049 A 
ATOM     54  H   UNL A   1      41.719  28.578  31.286  1.00  0.00     0.167 HD
ATOM     55  C   UNL A   1      42.668  29.189  33.879  1.00  0.00     0.074 A 
ATOM     56  C   UNL A   1      42.728  29.725  35.222  1.00  0.00     0.031 C 
ATOM     57  C   UNL A   1      43.558  28.300  33.375  1.00  0.00     0.034 A 
BRANCH  44  58
ATOM     58  C   UNL A   1      42.315  26.472  27.619  1.00  0.00     0.023 A 
ATOM     59  C   UNL A   1      43.157  27.047  26.647  1.00  0.00     0.012 A 
ATOM     60  C   UNL A   1      41.968  25.109  27.515  1.00  0.00     0.148 A 
ATOM     61  C   UNL A   1      43.635  26.284  25.582  1.00  0.00     0.002 A 
ATOM     62  C   UNL A   1      42.478  24.345  26.471  1.00  0.00     0.091 A 
ATOM     63  F   UNL A   1      41.151  24.586  28.440  1.00  0.00    -0.205 F 
ATOM     64  C   UNL A   1      43.305  24.933  25.500  1.00  0.00     0.022 A 
BRANCH  62  65
ATOM     65  S   UNL A   1      42.178  22.580  26.322  1.00  0.00     0.127 S 
ATOM     66  O   UNL A   1      42.711  22.081  27.589  1.00  0.00    -0.237 OA
ATOM     67  O   UNL A   1      40.720  22.523  26.210  1.00  0.00    -0.237 OA
ATOM     68  O   UNL A   1      42.895  22.150  25.129  1.00  0.00    -0.744 OA
ENDBRANCH  62  65
ENDBRANCH  44  58
BRANCH  45  69
ATOM     69  C   UNL A   1      39.273  32.149  35.243  1.00  0.00     0.023 A 
ATOM     70  C   UNL A   1      38.407  31.581  36.197  1.00  0.00     0.012 A 
ATOM     71  C   UNL A   1      39.712  33.474  35.423  1.00  0.00     0.148 A 
ATOM     72  C   UNL A   1      37.972  32.324  37.295  1.00  0.00     0.002 A 
ATOM     73  C   UNL A   1      39.328  34.185  36.554  1.00  0.00     0.091 A 
ATOM     74  F   UNL A   1      40.509  34.019  34.492  1.00  0.00    -0.205 F 
ATOM     75  C   UNL A   1      38.444  33.620  37.483  1.00  0.00     0.022 A 
BRANCH  73  76
ATOM     76  S   UNL A   1      40.041  35.793  36.925  1.00  0.00     0.127 S 
ATOM     77  O   UNL A   1      39.392  36.131  38.187  1.00  0.00    -0.237 OA
ATOM     78  O   UNL A   1      41.469  35.489  37.028  1.00  0.00    -0.237 OA
ATOM     79  O   UNL A   1      39.698  36.621  35.775  1.00  0.00    -0.744 OA
ENDBRANCH  73  76
ENDBRANCH  45  69
BRANCH  57  80
ATOM     80  C   UNL A   1      44.689  27.870  34.268  1.00  0.00     0.023 A 
ATOM     81  C   UNL A   1      45.936  28.517  34.163  1.00  0.00     0.012 A 
ATOM     82  C   UNL A   1      44.504  26.874  35.245  1.00  0.00     0.148 A 
ATOM     83  C   UNL A   1      46.991  28.162  35.003  1.00  0.00     0.002 A 
ATOM     84  C   UNL A   1      45.549  26.549  36.102  1.00  0.00     0.091 A 
ATOM     85  F   UNL A   1      43.316  26.253  35.311  1.00  0.00    -0.205 F 
ATOM     86  C   UNL A   1      46.794  27.186  35.977  1.00  0.00     0.022 A 
BRANCH  84  87
ATOM     87  S   UNL A   1      45.355  25.360  37.434  1.00  0.00     0.127 S 
ATOM     88  O   UNL A   1      46.668  25.412  38.075  1.00  0.00    -0.237 OA
ATOM     89  O   UNL A   1      44.269  25.942  38.223  1.00  0.00    -0.237 OA
ATOM     90  O   UNL A   1      45.018  24.096  36.790  1.00  0.00    -0.744 OA
ENDBRANCH  84  87
ENDBRANCH  57  80
ENDBRANCH  31  32
ENDBRANCH  24  26
ENDBRANCH  23  24
ENDBRANCH  22  23
ENDBRANCH   1  22
TORSDOF 17
ENDMDL
MODEL 3
REMARK VINA RESULT:     -11.7      1.981      3.150
REMARK SMILES Cc1n[nH]c(C)c1CC(=O)N1CC[C@H](C(=O)OCCOC(=O)c2ccc(-c3c4nc(c(-c5cccc(S(=O)(=O)[O-])c5F)c5ccc([nH]5)c(-c5cccc(S(=O)(=O)[O-])c5F)c5nc(c(-c6cccc(S(=O)(=O)[O-])c6F)c6ccc3[nH]6)C=C5)C=C4)cc2)[C@H]1C
REMARK SMILES IDX 18 1 17 2 15 3 16 4 14 5 11 6 12 7 86 8 13 9 87 10 9 11
REMARK SMILES IDX 10 12 8 13 7 14 1 15 2 16 3 17 4 18 5 19 6 21 19 22 20 23
REMARK SMILES IDX 21 24 22 25 23 26 24 27 85 28 25 29 84 30 26 31 27 32 28 33
REMARK SMILES IDX 78 34 29 35 83 36 77 37 79 38 30 39 82 40 76 41 75 42 31 44
REMARK SMILES IDX 63 45 43 46 62 47 44 48 47 49 61 50 80 51 45 52 46 53 60 55
REMARK SMILES IDX 81 56 48 57 32 58 33 59 41 60 34 61 36 62 42 63 35 64 37 65
REMARK SMILES IDX 38 66 39 67 40 68 64 69 65 70 73 71 66 72 68 73 74 74 67 75
REMARK SMILES IDX 69 76 70 77 71 78 72 79 49 80 50 81 58 82 51 83 53 84 59 85
REMARK SMILES IDX 52 86 54 87 55 88 56 89 57 90
REMARK H PARENT 4 20 79 43 47 54
REMARK Flexibility Score: inf
ROOT
ATOM      1  C   UNL A   1      31.929  28.475  27.306  1.00  0.00     0.274 C 
ENDROOT
BRANCH   1   2
ATOM      2  O   UNL A   1      32.223  27.515  26.264  1.00  0.00    -0.462 OA
BRANCH   2   3
ATOM      3  C   UNL A   1      31.734  26.267  26.467  1.00  0.00     0.311 C 
ATOM      4  O   UNL A   1      30.612  26.026  26.904  1.00  0.00    -0.252 OA
BRANCH   3   5
ATOM      5  C   UNL A   1      32.696  25.143  26.134  1.00  0.00     0.123 C 
ATOM      6  N   UNL A   1      32.681  24.499  23.840  1.00  0.00    -0.339 N 
ATOM      7  C   UNL A   1      31.567  23.833  24.497  1.00  0.00     0.121 C 
ATOM      8  C   UNL A   1      33.502  25.223  24.824  1.00  0.00     0.096 C 
ATOM      9  C   UNL A   1      31.941  23.824  25.970  1.00  0.00     0.039 C 
ATOM     10  C   UNL A   1      34.852  24.536  25.049  1.00  0.00     0.032 C 
BRANCH   6  11
ATOM     11  C   UNL A   1      32.700  24.554  22.461  1.00  0.00     0.227 C 
ATOM     12  O   UNL A   1      33.422  23.772  21.827  1.00  0.00    -0.275 OA
BRANCH  11  13
ATOM     13  C   UNL A   1      32.027  25.679  21.686  1.00  0.00     0.139 C 
BRANCH  13  14
ATOM     14  C   UNL A   1      31.765  26.982  22.358  1.00  0.00     0.005 A 
ATOM     15  C   UNL A   1      34.034  28.234  22.002  1.00  0.00     0.069 C 
ATOM     16  C   UNL A   1      32.638  28.099  22.489  1.00  0.00     0.063 A 
ATOM     17  N   UNL A   1      32.061  29.102  23.162  1.00  0.00    -0.181 NA
ATOM     18  N   UNL A   1      30.867  28.616  23.519  1.00  0.00    -0.282 N 
ATOM     19  C   UNL A   1      30.651  27.333  23.107  1.00  0.00     0.036 A 
ATOM     20  H   UNL A   1      30.206  29.135  24.031  1.00  0.00     0.190 HD
ATOM     21  C   UNL A   1      29.421  26.592  23.487  1.00  0.00     0.066 C 
ENDBRANCH  13  14
ENDBRANCH  11  13
ENDBRANCH   6  11
ENDBRANCH   3   5
ENDBRANCH   2   3
ENDBRANCH   1   2
BRANCH   1  22
ATOM     22  C   UNL A   1      31.497  29.817  26.717  1.00  0.00     0.275 C 
BRANCH  22  23
ATOM     23  O   UNL A   1      32.657  30.517  26.245  1.00  0.00    -0.458 OA
BRANCH  23  24
ATOM     24  C   UNL A   1      33.089  31.541  27.014  1.00  0.00     0.338 C 
ATOM     25  O   UNL A   1      32.486  32.590  27.220  1.00  0.00    -0.246 OA
BRANCH  24  26
ATOM     26  C   UNL A   1      34.399  31.207  27.622  1.00  0.00     0.060 A 
ATOM     27  C   UNL A   1      34.727  29.891  27.950  1.00  0.00     0.016 A 
ATOM     28  C   UNL A   1      35.288  32.231  27.951  1.00  0.00     0.016 A 
ATOM     29  C   UNL A   1      35.873  29.610  28.697  1.00  0.00     0.010 A 
ATOM     30  C   UNL A   1      36.496  31.930  28.593  1.00  0.00     0.010 A 
ATOM     31  C   UNL A   1      36.793  30.620  29.009  1.00  0.00    -0.014 A 
BRANCH  31  32
ATOM     32  C   UNL A   1      38.048  30.325  29.766  1.00  0.00     0.031 A 
ATOM     33  C   UNL A   1      39.108  29.432  29.163  1.00  0.00     0.074 A 
ATOM     34  C   UNL A   1      38.242  30.818  31.009  1.00  0.00     0.049 A 
ATOM     35  N   UNL A   1      40.124  28.846  29.743  1.00  0.00    -0.248 NA
ATOM     36  C   UNL A   1      38.998  29.143  27.723  1.00  0.00     0.031 C 
ATOM     37  C   UNL A   1      37.325  31.707  31.726  1.00  0.00     0.029 A 
ATOM     38  N   UNL A   1      39.271  30.624  31.901  1.00  0.00    -0.354 N 
ATOM     39  C   UNL A   1      40.717  28.052  28.768  1.00  0.00     0.074 A 
ATOM     40  C   UNL A   1      39.960  28.246  27.549  1.00  0.00     0.031 C 
ATOM     41  C   UNL A   1      37.842  32.003  32.927  1.00  0.00     0.029 A 
ATOM     42  C   UNL A   1      39.076  31.251  33.112  1.00  0.00     0.049 A 
ATOM     43  H   UNL A   1      40.071  30.089  31.694  1.00  0.00     0.167 HD
ATOM     44  C   UNL A   1      41.797  27.240  28.873  1.00  0.00     0.034 A 
ATOM     45  C   UNL A   1      39.774  31.192  34.264  1.00  0.00     0.034 A 
ATOM     46  C   UNL A   1      42.609  27.119  30.055  1.00  0.00     0.049 A 
ATOM     47  C   UNL A   1      40.988  30.310  34.344  1.00  0.00     0.074 A 
ATOM     48  C   UNL A   1      43.731  26.332  30.252  1.00  0.00     0.029 A 
ATOM     49  N   UNL A   1      42.409  27.828  31.228  1.00  0.00    -0.354 N 
ATOM     50  N   UNL A   1      41.530  29.567  33.410  1.00  0.00    -0.248 NA
ATOM     51  C   UNL A   1      41.689  30.258  35.635  1.00  0.00     0.031 C 
ATOM     52  C   UNL A   1      44.217  26.575  31.541  1.00  0.00     0.029 A 
ATOM     53  C   UNL A   1      43.399  27.514  32.145  1.00  0.00     0.049 A 
ATOM     54  H   UNL A   1      41.673  28.462  31.387  1.00  0.00     0.167 HD
ATOM     55  C   UNL A   1      42.641  28.973  33.995  1.00  0.00     0.074 A 
ATOM     56  C   UNL A   1      42.717  29.470  35.353  1.00  0.00     0.031 C 
ATOM     57  C   UNL A   1      43.502  28.070  33.467  1.00  0.00     0.034 A 
BRANCH  44  58
ATOM     58  C   UNL A   1      42.204  26.439  27.664  1.00  0.00     0.023 A 
ATOM     59  C   UNL A   1      43.039  27.025  26.692  1.00  0.00     0.012 A 
ATOM     60  C   UNL A   1      41.841  25.083  27.538  1.00  0.00     0.148 A 
ATOM     61  C   UNL A   1      43.493  26.279  25.605  1.00  0.00     0.002 A 
ATOM     62  C   UNL A   1      42.328  24.335  26.472  1.00  0.00     0.091 A 
ATOM     63  F   UNL A   1      41.031  24.550  28.464  1.00  0.00    -0.205 F 
ATOM     64  C   UNL A   1      43.148  24.933  25.501  1.00  0.00     0.022 A 
BRANCH  62  65
ATOM     65  S   UNL A   1      42.006  22.576  26.292  1.00  0.00     0.127 S 
ATOM     66  O   UNL A   1      42.646  22.288  25.009  1.00  0.00    -0.237 OA
ATOM     67  O   UNL A   1      42.694  22.016  27.455  1.00  0.00    -0.237 OA
ATOM     68  O   UNL A   1      40.557  22.428  26.316  1.00  0.00    -0.744 OA
ENDBRANCH  62  65
ENDBRANCH  44  58
BRANCH  45  69
ATOM     69  C   UNL A   1      39.340  32.000  35.441  1.00  0.00     0.023 A 
ATOM     70  C   UNL A   1      38.470  31.427  36.389  1.00  0.00     0.012 A 
ATOM     71  C   UNL A   1      39.807  33.312  35.648  1.00  0.00     0.148 A 
ATOM     72  C   UNL A   1      38.058  32.154  37.507  1.00  0.00     0.002 A 
ATOM     73  C   UNL A   1      39.446  34.004  36.798  1.00  0.00     0.091 A 
ATOM     74  F   UNL A   1      40.608  33.861  34.724  1.00  0.00    -0.205 F 
ATOM     75  C   UNL A   1      38.558  33.435  37.721  1.00  0.00     0.022 A 
BRANCH  73  76
ATOM     76  S   UNL A   1      40.196  35.587  37.200  1.00  0.00     0.127 S 
ATOM     77  O   UNL A   1      39.655  36.454  36.158  1.00  0.00    -0.237 OA
ATOM     78  O   UNL A   1      39.683  35.848  38.546  1.00  0.00    -0.237 OA
ATOM     79  O   UNL A   1      41.631  35.336  37.155  1.00  0.00    -0.744 OA
ENDBRANCH  73  76
ENDBRANCH  45  69
BRANCH  57  80
ATOM     80  C   UNL A   1      44.619  27.581  34.347  1.00  0.00     0.023 A 
ATOM     81  C   UNL A   1      45.831  28.298  34.388  1.00  0.00     0.012 A 
ATOM     82  C   UNL A   1      44.451  26.454  35.174  1.00  0.00     0.148 A 
ATOM     83  C   UNL A   1      46.870  27.885  35.222  1.00  0.00     0.002 A 
ATOM     84  C   UNL A   1      45.477  26.069  36.029  1.00  0.00     0.091 A 
ATOM     85  F   UNL A   1      43.298  25.772  35.101  1.00  0.00    -0.205 F 
ATOM     86  C   UNL A   1      46.689  26.778  36.048  1.00  0.00     0.022 A 
BRANCH  84  87
ATOM     87  S   UNL A   1      45.297  24.702  37.180  1.00  0.00     0.127 S 
ATOM     88  O   UNL A   1      46.627  24.643  37.784  1.00  0.00    -0.237 OA
ATOM     89  O   UNL A   1      44.242  25.180  38.076  1.00  0.00    -0.237 OA
ATOM     90  O   UNL A   1      44.920  23.550  36.371  1.00  0.00    -0.744 OA
ENDBRANCH  84  87
ENDBRANCH  57  80
ENDBRANCH  31  32
ENDBRANCH  24  26
ENDBRANCH  23  24
ENDBRANCH  22  23
ENDBRANCH   1  22
TORSDOF 17
ENDMDL
