MODEL 1
REMARK VINA RESULT:     -11.6      0.000      0.000
REMARK SMILES O=C(CCSc1nc2ccc(Cl)cc2c(=O)n1Cc1ccncc1)OCCOC(=O)c1ccc(-c2c3nc(c(-c4cccc(S(=O)(=O)[O-])c4F)c4ccc([nH]4)c(-c4cccc(S(=O)(=O)[O-])c4F)c4nc(c(-c5cccc(S(=O)(=O)[O-])c5F)c5ccc2[nH]5)C=C4)C=C3)cc1
REMARK SMILES IDX 26 1 25 2 2 3 1 4 3 5 4 6 5 7 6 8 7 9 17 10 8 11 15 12 9 13
REMARK SMILES IDX 14 14 16 15 10 16 13 17 11 18 12 19 18 20 19 21 20 22 24 23
REMARK SMILES IDX 21 24 23 25 22 26 27 27 28 28 29 29 30 30 31 31 32 32 93 33
REMARK SMILES IDX 33 34 92 35 34 36 35 37 36 38 86 39 37 40 91 41 85 42 87 43
REMARK SMILES IDX 38 44 90 45 84 46 83 47 39 49 71 50 51 51 70 52 52 53 55 54
REMARK SMILES IDX 69 55 88 56 53 57 54 58 68 60 89 61 56 62 40 63 41 64 49 65
REMARK SMILES IDX 42 66 44 67 50 68 43 69 45 70 46 71 47 72 48 73 72 74 73 75
REMARK SMILES IDX 81 76 74 77 76 78 82 79 75 80 77 81 78 82 79 83 80 84 57 85
REMARK SMILES IDX 58 86 66 87 59 88 61 89 67 90 60 91 62 92 63 93 64 94 65 95
REMARK H PARENT 87 48 55 59
REMARK Flexibility Score: inf
ROOT
ATOM      1  C   UNL A   1      35.720  21.358  24.829  1.00  0.00     0.274 C 
ENDROOT
BRANCH   1   2
ATOM      2  O   UNL A   1      35.114  22.648  24.578  1.00  0.00    -0.462 OA
BRANCH   2   3
ATOM      3  C   UNL A   1      34.944  23.630  25.492  1.00  0.00     0.306 C 
ATOM      4  O   UNL A   1      35.487  24.721  25.345  1.00  0.00    -0.252 OA
BRANCH   3   5
ATOM      5  C   UNL A   1      33.962  23.385  26.598  1.00  0.00     0.134 C 
BRANCH   5   6
ATOM      6  C   UNL A   1      32.694  24.230  26.491  1.00  0.00     0.090 C 
BRANCH   6   7
ATOM      7  S   UNL A   1      31.108  23.343  26.194  1.00  0.00    -0.087 SA
BRANCH   7   8
ATOM      8  C   UNL A   1      31.666  22.022  25.167  1.00  0.00     0.171 A 
ATOM      9  N   UNL A   1      32.061  20.965  25.798  1.00  0.00    -0.224 NA
ATOM     10  N   UNL A   1      31.656  22.158  23.781  1.00  0.00    -0.283 N 
ATOM     11  C   UNL A   1      32.499  19.866  25.063  1.00  0.00     0.079 A 
ATOM     12  C   UNL A   1      31.969  21.049  22.996  1.00  0.00     0.262 A 
ATOM     13  C   UNL A   1      32.945  18.728  25.737  1.00  0.00     0.031 A 
ATOM     14  C   UNL A   1      32.513  19.869  23.676  1.00  0.00     0.067 A 
ATOM     15  O   UNL A   1      31.791  20.976  21.781  1.00  0.00    -0.269 OA
ATOM     16  C   UNL A   1      33.440  17.631  25.024  1.00  0.00     0.023 A 
ATOM     17  C   UNL A   1      33.010  18.784  22.947  1.00  0.00     0.036 A 
ATOM     18  C   UNL A   1      33.485  17.672  23.632  1.00  0.00     0.042 A 
ATOM     19  Cl  UNL A   1      34.138  16.345  22.754  1.00  0.00    -0.084 Cl
BRANCH  10  20
ATOM     20  C   UNL A   1      31.075  23.291  23.055  1.00  0.00     0.163 C 
BRANCH  20  21
ATOM     21  C   UNL A   1      31.849  24.593  22.985  1.00  0.00    -0.025 A 
ATOM     22  C   UNL A   1      33.142  24.666  22.457  1.00  0.00     0.025 A 
ATOM     23  C   UNL A   1      31.204  25.804  23.275  1.00  0.00     0.025 A 
ATOM     24  C   UNL A   1      33.720  25.909  22.246  1.00  0.00     0.111 A 
ATOM     25  C   UNL A   1      31.862  27.000  23.021  1.00  0.00     0.111 A 
ATOM     26  N   UNL A   1      33.108  27.080  22.514  1.00  0.00    -0.265 NA
ENDBRANCH  20  21
ENDBRANCH  10  20
ENDBRANCH   7   8
ENDBRANCH   6   7
ENDBRANCH   5   6
ENDBRANCH   3   5
ENDBRANCH   2   3
ENDBRANCH   1   2
BRANCH   1  27
ATOM     27  C   UNL A   1      37.240  21.565  24.789  1.00  0.00     0.275 C 
BRANCH  27  28
ATOM     28  O   UNL A   1      37.754  21.802  26.107  1.00  0.00    -0.458 OA
BRANCH  28  29
ATOM     29  C   UNL A   1      39.109  21.708  26.190  1.00  0.00     0.338 C 
ATOM     30  O   UNL A   1      39.787  20.845  25.676  1.00  0.00    -0.246 OA
BRANCH  29  31
ATOM     31  C   UNL A   1      39.617  22.984  26.769  1.00  0.00     0.060 A 
ATOM     32  C   UNL A   1      40.721  22.990  27.634  1.00  0.00     0.016 A 
ATOM     33  C   UNL A   1      38.900  24.165  26.539  1.00  0.00     0.016 A 
ATOM     34  C   UNL A   1      41.126  24.173  28.239  1.00  0.00     0.010 A 
ATOM     35  C   UNL A   1      39.337  25.363  27.110  1.00  0.00     0.010 A 
ATOM     36  C   UNL A   1      40.472  25.376  27.935  1.00  0.00    -0.014 A 
BRANCH  36  37
ATOM     37  C   UNL A   1      41.146  26.645  28.280  1.00  0.00     0.031 A 
ATOM     38  C   UNL A   1      42.578  26.914  27.936  1.00  0.00     0.074 A 
ATOM     39  C   UNL A   1      40.395  27.576  28.902  1.00  0.00     0.049 A 
ATOM     40  N   UNL A   1      43.266  28.007  28.135  1.00  0.00    -0.248 NA
ATOM     41  C   UNL A   1      43.334  25.836  27.279  1.00  0.00     0.031 C 
ATOM     42  C   UNL A   1      38.986  27.403  29.277  1.00  0.00     0.029 A 
ATOM     43  N   UNL A   1      40.692  28.845  29.318  1.00  0.00    -0.354 N 
ATOM     44  C   UNL A   1      44.538  27.754  27.643  1.00  0.00     0.074 A 
ATOM     45  C   UNL A   1      44.529  26.398  27.132  1.00  0.00     0.031 C 
ATOM     46  C   UNL A   1      38.535  28.532  29.837  1.00  0.00     0.029 A 
ATOM     47  C   UNL A   1      39.629  29.492  29.903  1.00  0.00     0.049 A 
ATOM     48  H   UNL A   1      41.580  29.256  29.209  1.00  0.00     0.167 HD
ATOM     49  C   UNL A   1      45.602  28.588  27.615  1.00  0.00     0.034 A 
ATOM     50  C   UNL A   1      39.542  30.723  30.439  1.00  0.00     0.034 A 
ATOM     51  C   UNL A   1      45.590  29.933  28.127  1.00  0.00     0.049 A 
ATOM     52  C   UNL A   1      40.754  31.603  30.419  1.00  0.00     0.074 A 
ATOM     53  C   UNL A   1      46.625  30.855  28.134  1.00  0.00     0.029 A 
ATOM     54  N   UNL A   1      44.503  30.549  28.725  1.00  0.00    -0.354 N 
ATOM     55  N   UNL A   1      41.931  31.363  29.896  1.00  0.00    -0.248 NA
ATOM     56  C   UNL A   1      40.623  32.927  31.041  1.00  0.00     0.031 C 
ATOM     57  C   UNL A   1      46.165  32.023  28.747  1.00  0.00     0.029 A 
ATOM     58  C   UNL A   1      44.839  31.839  29.098  1.00  0.00     0.049 A 
ATOM     59  H   UNL A   1      43.622  30.132  28.863  1.00  0.00     0.167 HD
ATOM     60  C   UNL A   1      42.671  32.521  30.090  1.00  0.00     0.074 A 
ATOM     61  C   UNL A   1      41.807  33.461  30.776  1.00  0.00     0.031 C 
ATOM     62  C   UNL A   1      43.952  32.778  29.734  1.00  0.00     0.034 A 
BRANCH  49  63
ATOM     63  C   UNL A   1      46.878  28.115  26.974  1.00  0.00     0.023 A 
ATOM     64  C   UNL A   1      47.836  27.458  27.768  1.00  0.00     0.012 A 
ATOM     65  C   UNL A   1      47.043  28.159  25.575  1.00  0.00     0.148 A 
ATOM     66  C   UNL A   1      48.940  26.841  27.179  1.00  0.00     0.002 A 
ATOM     67  C   UNL A   1      48.131  27.518  24.993  1.00  0.00     0.091 A 
ATOM     68  F   UNL A   1      46.115  28.791  24.845  1.00  0.00    -0.205 F 
ATOM     69  C   UNL A   1      49.079  26.859  25.794  1.00  0.00     0.022 A 
BRANCH  67  70
ATOM     70  S   UNL A   1      48.377  27.434  23.216  1.00  0.00     0.127 S 
ATOM     71  O   UNL A   1      49.714  28.011  23.077  1.00  0.00    -0.237 OA
ATOM     72  O   UNL A   1      48.304  25.996  22.966  1.00  0.00    -0.237 OA
ATOM     73  O   UNL A   1      47.305  28.221  22.621  1.00  0.00    -0.744 OA
ENDBRANCH  67  70
ENDBRANCH  49  63
BRANCH  50  74
ATOM     74  C   UNL A   1      38.243  31.205  30.973  1.00  0.00     0.023 A 
ATOM     75  C   UNL A   1      37.975  31.071  32.349  1.00  0.00     0.012 A 
ATOM     76  C   UNL A   1      37.299  31.837  30.143  1.00  0.00     0.148 A 
ATOM     77  C   UNL A   1      36.780  31.545  32.886  1.00  0.00     0.002 A 
ATOM     78  C   UNL A   1      36.127  32.342  30.691  1.00  0.00     0.091 A 
ATOM     79  F   UNL A   1      37.581  31.952  28.837  1.00  0.00    -0.205 F 
ATOM     80  C   UNL A   1      35.861  32.187  32.060  1.00  0.00     0.022 A 
BRANCH  78  81
ATOM     81  S   UNL A   1      34.925  33.263  29.727  1.00  0.00     0.127 S 
ATOM     82  O   UNL A   1      35.771  34.254  29.066  1.00  0.00    -0.237 OA
ATOM     83  O   UNL A   1      34.387  32.225  28.848  1.00  0.00    -0.237 OA
ATOM     84  O   UNL A   1      33.969  33.795  30.689  1.00  0.00    -0.744 OA
ENDBRANCH  78  81
ENDBRANCH  50  74
BRANCH  62  85
ATOM     85  C   UNL A   1      44.495  34.146  30.028  1.00  0.00     0.023 A 
ATOM     86  C   UNL A   1      45.208  34.376  31.220  1.00  0.00     0.012 A 
ATOM     87  C   UNL A   1      44.380  35.173  29.072  1.00  0.00     0.148 A 
ATOM     88  C   UNL A   1      45.786  35.620  31.463  1.00  0.00     0.002 A 
ATOM     89  C   UNL A   1      44.991  36.397  29.305  1.00  0.00     0.091 A 
ATOM     90  F   UNL A   1      43.684  34.928  27.953  1.00  0.00    -0.205 F 
ATOM     91  C   UNL A   1      45.688  36.626  30.503  1.00  0.00     0.022 A 
BRANCH  89  92
ATOM     92  S   UNL A   1      44.981  37.725  28.096  1.00  0.00     0.127 S 
ATOM     93  O   UNL A   1      45.502  37.049  26.909  1.00  0.00    -0.237 OA
ATOM     94  O   UNL A   1      43.561  38.069  28.029  1.00  0.00    -0.237 OA
ATOM     95  O   UNL A   1      45.834  38.773  28.639  1.00  0.00    -0.744 OA
ENDBRANCH  89  92
ENDBRANCH  62  85
ENDBRANCH  36  37
ENDBRANCH  29  31
ENDBRANCH  28  29
ENDBRANCH  27  28
ENDBRANCH   1  27
TORSDOF 19
ENDMDL
MODEL 2
REMARK VINA RESULT:     -11.4      2.170      8.238
REMARK SMILES O=C(CCSc1nc2ccc(Cl)cc2c(=O)n1Cc1ccncc1)OCCOC(=O)c1ccc(-c2c3nc(c(-c4cccc(S(=O)(=O)[O-])c4F)c4ccc([nH]4)c(-c4cccc(S(=O)(=O)[O-])c4F)c4nc(c(-c5cccc(S(=O)(=O)[O-])c5F)c5ccc2[nH]5)C=C4)C=C3)cc1
REMARK SMILES IDX 26 1 25 2 2 3 1 4 3 5 4 6 5 7 6 8 7 9 17 10 8 11 15 12 9 13
REMARK SMILES IDX 14 14 16 15 10 16 13 17 11 18 12 19 18 20 19 21 20 22 24 23
REMARK SMILES IDX 21 24 23 25 22 26 27 27 28 28 29 29 30 30 31 31 32 32 93 33
REMARK SMILES IDX 33 34 92 35 34 36 35 37 36 38 86 39 37 40 91 41 85 42 87 43
REMARK SMILES IDX 38 44 90 45 84 46 83 47 39 49 71 50 51 51 70 52 52 53 55 54
REMARK SMILES IDX 69 55 88 56 53 57 54 58 68 60 89 61 56 62 40 63 41 64 49 65
REMARK SMILES IDX 42 66 44 67 50 68 43 69 45 70 46 71 47 72 48 73 72 74 73 75
REMARK SMILES IDX 81 76 74 77 76 78 82 79 75 80 77 81 78 82 79 83 80 84 57 85
REMARK SMILES IDX 58 86 66 87 59 88 61 89 67 90 60 91 62 92 63 93 64 94 65 95
REMARK H PARENT 87 48 55 59
REMARK Flexibility Score: inf
ROOT
ATOM      1  C   UNL A   1      37.478  20.435  25.206  1.00  0.00     0.274 C 
ENDROOT
BRANCH   1   2
ATOM      2  O   UNL A   1      37.779  21.687  24.545  1.00  0.00    -0.462 OA
BRANCH   2   3
ATOM      3  C   UNL A   1      36.972  22.770  24.503  1.00  0.00     0.306 C 
ATOM      4  O   UNL A   1      37.020  23.619  25.388  1.00  0.00    -0.252 OA
BRANCH   3   5
ATOM      5  C   UNL A   1      36.135  22.964  23.274  1.00  0.00     0.134 C 
BRANCH   5   6
ATOM      6  C   UNL A   1      34.645  22.720  23.502  1.00  0.00     0.090 C 
BRANCH   6   7
ATOM      7  S   UNL A   1      33.464  23.614  22.407  1.00  0.00    -0.087 SA
BRANCH   7   8
ATOM      8  C   UNL A   1      32.891  24.868  23.508  1.00  0.00     0.171 A 
ATOM      9  N   UNL A   1      33.401  26.041  23.317  1.00  0.00    -0.224 NA
ATOM     10  N   UNL A   1      31.952  24.564  24.491  1.00  0.00    -0.283 N 
ATOM     11  C   UNL A   1      32.988  27.095  24.129  1.00  0.00     0.079 A 
ATOM     12  C   UNL A   1      31.416  25.603  25.251  1.00  0.00     0.262 A 
ATOM     13  C   UNL A   1      33.547  28.360  23.942  1.00  0.00     0.031 A 
ATOM     14  C   UNL A   1      32.040  26.924  25.127  1.00  0.00     0.067 A 
ATOM     15  O   UNL A   1      30.439  25.500  25.990  1.00  0.00    -0.269 OA
ATOM     16  C   UNL A   1      33.190  29.422  24.778  1.00  0.00     0.023 A 
ATOM     17  C   UNL A   1      31.675  27.974  25.976  1.00  0.00     0.036 A 
ATOM     18  C   UNL A   1      32.267  29.219  25.802  1.00  0.00     0.042 A 
ATOM     19  Cl  UNL A   1      31.863  30.511  26.863  1.00  0.00    -0.084 Cl
BRANCH  10  20
ATOM     20  C   UNL A   1      31.262  23.277  24.620  1.00  0.00     0.163 C 
BRANCH  20  21
ATOM     21  C   UNL A   1      31.954  22.143  25.353  1.00  0.00    -0.025 A 
ATOM     22  C   UNL A   1      32.068  20.861  24.808  1.00  0.00     0.025 A 
ATOM     23  C   UNL A   1      32.672  22.410  26.527  1.00  0.00     0.025 A 
ATOM     24  C   UNL A   1      32.873  19.924  25.440  1.00  0.00     0.111 A 
ATOM     25  C   UNL A   1      33.459  21.409  27.082  1.00  0.00     0.111 A 
ATOM     26  N   UNL A   1      33.573  20.169  26.565  1.00  0.00    -0.265 NA
ENDBRANCH  20  21
ENDBRANCH  10  20
ENDBRANCH   7   8
ENDBRANCH   6   7
ENDBRANCH   5   6
ENDBRANCH   3   5
ENDBRANCH   2   3
ENDBRANCH   1   2
BRANCH   1  27
ATOM     27  C   UNL A   1      38.809  19.689  25.376  1.00  0.00     0.275 C 
BRANCH  27  28
ATOM     28  O   UNL A   1      39.438  20.052  26.613  1.00  0.00    -0.458 OA
BRANCH  28  29
ATOM     29  C   UNL A   1      40.768  20.315  26.494  1.00  0.00     0.338 C 
ATOM     30  O   UNL A   1      41.580  19.598  25.950  1.00  0.00    -0.246 OA
BRANCH  29  31
ATOM     31  C   UNL A   1      40.985  21.736  26.885  1.00  0.00     0.060 A 
ATOM     32  C   UNL A   1      41.734  22.058  28.026  1.00  0.00     0.016 A 
ATOM     33  C   UNL A   1      40.326  22.744  26.172  1.00  0.00     0.016 A 
ATOM     34  C   UNL A   1      41.852  23.382  28.433  1.00  0.00     0.010 A 
ATOM     35  C   UNL A   1      40.483  24.079  26.554  1.00  0.00     0.010 A 
ATOM     36  C   UNL A   1      41.275  24.404  27.665  1.00  0.00    -0.014 A 
BRANCH  36  37
ATOM     37  C   UNL A   1      41.727  25.793  27.896  1.00  0.00     0.031 A 
ATOM     38  C   UNL A   1      40.872  26.812  28.580  1.00  0.00     0.074 A 
ATOM     39  C   UNL A   1      42.974  26.097  27.481  1.00  0.00     0.049 A 
ATOM     40  N   UNL A   1      41.176  28.045  28.890  1.00  0.00    -0.248 NA
ATOM     41  C   UNL A   1      39.516  26.406  28.979  1.00  0.00     0.031 C 
ATOM     42  C   UNL A   1      43.883  25.163  26.804  1.00  0.00     0.029 A 
ATOM     43  N   UNL A   1      43.699  27.253  27.573  1.00  0.00    -0.354 N 
ATOM     44  C   UNL A   1      40.052  28.572  29.509  1.00  0.00     0.074 A 
ATOM     45  C   UNL A   1      39.054  27.523  29.533  1.00  0.00     0.031 C 
ATOM     46  C   UNL A   1      45.051  25.775  26.571  1.00  0.00     0.029 A 
ATOM     47  C   UNL A   1      44.961  27.151  27.039  1.00  0.00     0.049 A 
ATOM     48  H   UNL A   1      43.350  28.079  27.981  1.00  0.00     0.167 HD
ATOM     49  C   UNL A   1      39.885  29.815  30.017  1.00  0.00     0.034 A 
ATOM     50  C   UNL A   1      45.942  28.066  26.932  1.00  0.00     0.034 A 
ATOM     51  C   UNL A   1      40.891  30.845  29.984  1.00  0.00     0.049 A 
ATOM     52  C   UNL A   1      45.704  29.441  27.476  1.00  0.00     0.074 A 
ATOM     53  C   UNL A   1      40.810  32.135  30.482  1.00  0.00     0.029 A 
ATOM     54  N   UNL A   1      42.150  30.712  29.423  1.00  0.00    -0.354 N 
ATOM     55  N   UNL A   1      44.654  29.901  28.109  1.00  0.00    -0.248 NA
ATOM     56  C   UNL A   1      46.790  30.417  27.312  1.00  0.00     0.031 C 
ATOM     57  C   UNL A   1      42.017  32.784  30.211  1.00  0.00     0.029 A 
ATOM     58  C   UNL A   1      42.858  31.892  29.568  1.00  0.00     0.049 A 
ATOM     59  H   UNL A   1      42.492  29.898  28.987  1.00  0.00     0.167 HD
ATOM     60  C   UNL A   1      44.965  31.208  28.455  1.00  0.00     0.074 A 
ATOM     61  C   UNL A   1      46.304  31.465  27.963  1.00  0.00     0.031 C 
ATOM     62  C   UNL A   1      44.207  32.113  29.118  1.00  0.00     0.034 A 
BRANCH  49  63
ATOM     63  C   UNL A   1      38.589  30.151  30.701  1.00  0.00     0.023 A 
ATOM     64  C   UNL A   1      38.446  29.859  32.071  1.00  0.00     0.012 A 
ATOM     65  C   UNL A   1      37.599  30.907  30.043  1.00  0.00     0.148 A 
ATOM     66  C   UNL A   1      37.340  30.324  32.782  1.00  0.00     0.002 A 
ATOM     67  C   UNL A   1      36.513  31.389  30.764  1.00  0.00     0.091 A 
ATOM     68  F   UNL A   1      37.761  31.169  28.739  1.00  0.00    -0.205 F 
ATOM     69  C   UNL A   1      36.382  31.098  32.132  1.00  0.00     0.022 A 
BRANCH  67  70
ATOM     70  S   UNL A   1      35.250  32.442  30.039  1.00  0.00     0.127 S 
ATOM     71  O   UNL A   1      34.734  31.587  28.970  1.00  0.00    -0.237 OA
ATOM     72  O   UNL A   1      34.334  32.636  31.161  1.00  0.00    -0.237 OA
ATOM     73  O   UNL A   1      35.937  33.643  29.586  1.00  0.00    -0.744 OA
ENDBRANCH  67  70
ENDBRANCH  49  63
BRANCH  50  74
ATOM     74  C   UNL A   1      47.250  27.680  26.345  1.00  0.00     0.023 A 
ATOM     75  C   UNL A   1      48.263  27.188  27.190  1.00  0.00     0.012 A 
ATOM     76  C   UNL A   1      47.479  27.748  24.958  1.00  0.00     0.148 A 
ATOM     77  C   UNL A   1      49.489  26.784  26.665  1.00  0.00     0.002 A 
ATOM     78  C   UNL A   1      48.689  27.309  24.436  1.00  0.00     0.091 A 
ATOM     79  F   UNL A   1      46.497  28.221  24.177  1.00  0.00    -0.205 F 
ATOM     80  C   UNL A   1      49.699  26.837  25.289  1.00  0.00     0.022 A 
BRANCH  78  81
ATOM     81  S   UNL A   1      49.020  27.253  22.673  1.00  0.00     0.127 S 
ATOM     82  O   UNL A   1      50.480  27.264  22.644  1.00  0.00    -0.237 OA
ATOM     83  O   UNL A   1      48.404  25.982  22.293  1.00  0.00    -0.237 OA
ATOM     84  O   UNL A   1      48.372  28.431  22.111  1.00  0.00    -0.744 OA
ENDBRANCH  78  81
ENDBRANCH  50  74
BRANCH  62  85
ATOM     85  C   UNL A   1      44.815  33.456  29.402  1.00  0.00     0.023 A 
ATOM     86  C   UNL A   1      45.487  33.677  30.619  1.00  0.00     0.012 A 
ATOM     87  C   UNL A   1      44.799  34.462  28.418  1.00  0.00     0.148 A 
ATOM     88  C   UNL A   1      46.125  34.893  30.857  1.00  0.00     0.002 A 
ATOM     89  C   UNL A   1      45.469  35.656  28.648  1.00  0.00     0.091 A 
ATOM     90  F   UNL A   1      44.140  34.227  27.275  1.00  0.00    -0.205 F 
ATOM     91  C   UNL A   1      46.126  35.877  29.869  1.00  0.00     0.022 A 
BRANCH  89  92
ATOM     92  S   UNL A   1      45.587  36.949  27.408  1.00  0.00     0.127 S 
ATOM     93  O   UNL A   1      46.650  37.791  27.957  1.00  0.00    -0.237 OA
ATOM     94  O   UNL A   1      45.962  36.196  26.212  1.00  0.00    -0.237 OA
ATOM     95  O   UNL A   1      44.272  37.572  27.346  1.00  0.00    -0.744 OA
ENDBRANCH  89  92
ENDBRANCH  62  85
ENDBRANCH  36  37
ENDBRANCH  29  31
ENDBRANCH  28  29
ENDBRANCH  27  28
ENDBRANCH   1  27
TORSDOF 19
ENDMDL
MODEL 3
REMARK VINA RESULT:     -11.3      2.317      3.914
REMARK SMILES O=C(CCSc1nc2ccc(Cl)cc2c(=O)n1Cc1ccncc1)OCCOC(=O)c1ccc(-c2c3nc(c(-c4cccc(S(=O)(=O)[O-])c4F)c4ccc([nH]4)c(-c4cccc(S(=O)(=O)[O-])c4F)c4nc(c(-c5cccc(S(=O)(=O)[O-])c5F)c5ccc2[nH]5)C=C4)C=C3)cc1
REMARK SMILES IDX 26 1 25 2 2 3 1 4 3 5 4 6 5 7 6 8 7 9 17 10 8 11 15 12 9 13
REMARK SMILES IDX 14 14 16 15 10 16 13 17 11 18 12 19 18 20 19 21 20 22 24 23
REMARK SMILES IDX 21 24 23 25 22 26 27 27 28 28 29 29 30 30 31 31 32 32 93 33
REMARK SMILES IDX 33 34 92 35 34 36 35 37 36 38 86 39 37 40 91 41 85 42 87 43
REMARK SMILES IDX 38 44 90 45 84 46 83 47 39 49 71 50 51 51 70 52 52 53 55 54
REMARK SMILES IDX 69 55 88 56 53 57 54 58 68 60 89 61 56 62 40 63 41 64 49 65
REMARK SMILES IDX 42 66 44 67 50 68 43 69 45 70 46 71 47 72 48 73 72 74 73 75
REMARK SMILES IDX 81 76 74 77 76 78 82 79 75 80 77 81 78 82 79 83 80 84 57 85
REMARK SMILES IDX 58 86 66 87 59 88 61 89 67 90 60 91 62 92 63 93 64 94 65 95
REMARK H PARENT 87 48 55 59
REMARK Flexibility Score: inf
ROOT
ATOM      1  C   UNL A   1      38.658  20.842  25.795  1.00  0.00     0.274 C 
ENDROOT
BRANCH   1   2
ATOM      2  O   UNL A   1      37.818  20.900  24.618  1.00  0.00    -0.462 OA
BRANCH   2   3
ATOM      3  C   UNL A   1      36.475  21.048  24.615  1.00  0.00     0.306 C 
ATOM      4  O   UNL A   1      35.761  20.285  25.257  1.00  0.00    -0.252 OA
BRANCH   3   5
ATOM      5  C   UNL A   1      35.912  22.255  23.925  1.00  0.00     0.134 C 
BRANCH   5   6
ATOM      6  C   UNL A   1      35.981  23.529  24.764  1.00  0.00     0.090 C 
BRANCH   6   7
ATOM      7  S   UNL A   1      34.990  23.574  26.317  1.00  0.00    -0.087 SA
BRANCH   7   8
ATOM      8  C   UNL A   1      33.730  24.722  25.860  1.00  0.00     0.171 A 
ATOM      9  N   UNL A   1      34.148  25.913  25.581  1.00  0.00    -0.224 NA
ATOM     10  N   UNL A   1      32.397  24.320  25.814  1.00  0.00    -0.283 N 
ATOM     11  C   UNL A   1      33.222  26.877  25.189  1.00  0.00     0.079 A 
ATOM     12  C   UNL A   1      31.446  25.208  25.314  1.00  0.00     0.262 A 
ATOM     13  C   UNL A   1      33.663  28.171  24.904  1.00  0.00     0.031 A 
ATOM     14  C   UNL A   1      31.869  26.593  25.081  1.00  0.00     0.067 A 
ATOM     15  O   UNL A   1      30.290  24.908  25.023  1.00  0.00    -0.269 OA
ATOM     16  C   UNL A   1      32.747  29.171  24.562  1.00  0.00     0.023 A 
ATOM     17  C   UNL A   1      30.939  27.582  24.745  1.00  0.00     0.036 A 
ATOM     18  C   UNL A   1      31.387  28.875  24.499  1.00  0.00     0.042 A 
ATOM     19  Cl  UNL A   1      30.254  30.113  24.126  1.00  0.00    -0.084 Cl
BRANCH  10  20
ATOM     20  C   UNL A   1      31.933  22.940  25.985  1.00  0.00     0.163 C 
BRANCH  20  21
ATOM     21  C   UNL A   1      32.171  21.942  24.868  1.00  0.00    -0.025 A 
ATOM     22  C   UNL A   1      32.308  20.572  25.106  1.00  0.00     0.025 A 
ATOM     23  C   UNL A   1      32.064  22.355  23.531  1.00  0.00     0.025 A 
ATOM     24  C   UNL A   1      32.333  19.694  24.033  1.00  0.00     0.111 A 
ATOM     25  C   UNL A   1      32.090  21.399  22.523  1.00  0.00     0.111 A 
ATOM     26  N   UNL A   1      32.225  20.077  22.744  1.00  0.00    -0.265 NA
ENDBRANCH  20  21
ENDBRANCH  10  20
ENDBRANCH   7   8
ENDBRANCH   6   7
ENDBRANCH   5   6
ENDBRANCH   3   5
ENDBRANCH   2   3
ENDBRANCH   1   2
BRANCH   1  27
ATOM     27  C   UNL A   1      39.438  19.522  25.722  1.00  0.00     0.275 C 
BRANCH  27  28
ATOM     28  O   UNL A   1      40.807  19.761  25.370  1.00  0.00    -0.458 OA
BRANCH  28  29
ATOM     29  C   UNL A   1      41.642  19.835  26.443  1.00  0.00     0.338 C 
ATOM     30  O   UNL A   1      42.280  18.913  26.903  1.00  0.00    -0.246 OA
BRANCH  29  31
ATOM     31  C   UNL A   1      41.845  21.277  26.760  1.00  0.00     0.060 A 
ATOM     32  C   UNL A   1      41.877  21.721  28.090  1.00  0.00     0.016 A 
ATOM     33  C   UNL A   1      41.878  22.203  25.711  1.00  0.00     0.016 A 
ATOM     34  C   UNL A   1      41.974  23.078  28.370  1.00  0.00     0.010 A 
ATOM     35  C   UNL A   1      42.024  23.564  25.992  1.00  0.00     0.010 A 
ATOM     36  C   UNL A   1      42.107  24.002  27.323  1.00  0.00    -0.014 A 
BRANCH  36  37
ATOM     37  C   UNL A   1      42.585  25.363  27.646  1.00  0.00     0.031 A 
ATOM     38  C   UNL A   1      43.971  25.824  27.322  1.00  0.00     0.074 A 
ATOM     39  C   UNL A   1      41.696  26.191  28.230  1.00  0.00     0.049 A 
ATOM     40  N   UNL A   1      44.492  27.009  27.505  1.00  0.00    -0.248 NA
ATOM     41  C   UNL A   1      44.887  24.850  26.709  1.00  0.00     0.031 C 
ATOM     42  C   UNL A   1      40.318  25.827  28.582  1.00  0.00     0.029 A 
ATOM     43  N   UNL A   1      41.800  27.499  28.617  1.00  0.00    -0.354 N 
ATOM     44  C   UNL A   1      45.798  26.928  27.043  1.00  0.00     0.074 A 
ATOM     45  C   UNL A   1      45.994  25.574  26.568  1.00  0.00     0.031 C 
ATOM     46  C   UNL A   1      39.699  26.894  29.104  1.00  0.00     0.029 A 
ATOM     47  C   UNL A   1      40.643  28.001  29.165  1.00  0.00     0.049 A 
ATOM     48  H   UNL A   1      42.623  28.030  28.514  1.00  0.00     0.167 HD
ATOM     49  C   UNL A   1      46.734  27.905  27.013  1.00  0.00     0.034 A 
ATOM     50  C   UNL A   1      40.370  29.219  29.666  1.00  0.00     0.034 A 
ATOM     51  C   UNL A   1      46.519  29.247  27.489  1.00  0.00     0.049 A 
ATOM     52  C   UNL A   1      41.445  30.263  29.645  1.00  0.00     0.074 A 
ATOM     53  C   UNL A   1      47.411  30.307  27.491  1.00  0.00     0.029 A 
ATOM     54  N   UNL A   1      45.342  29.715  28.050  1.00  0.00    -0.354 N 
ATOM     55  N   UNL A   1      42.655  30.181  29.151  1.00  0.00    -0.248 NA
ATOM     56  C   UNL A   1      41.113  31.568  30.229  1.00  0.00     0.031 C 
ATOM     57  C   UNL A   1      46.777  31.411  28.064  1.00  0.00     0.029 A 
ATOM     58  C   UNL A   1      45.482  31.048  28.395  1.00  0.00     0.049 A 
ATOM     59  H   UNL A   1      44.527  29.180  28.182  1.00  0.00     0.167 HD
ATOM     60  C   UNL A   1      43.218  31.437  29.328  1.00  0.00     0.074 A 
ATOM     61  C   UNL A   1      42.214  32.261  29.972  1.00  0.00     0.031 C 
ATOM     62  C   UNL A   1      44.457  31.866  28.989  1.00  0.00     0.034 A 
BRANCH  49  63
ATOM     63  C   UNL A   1      48.077  27.604  26.409  1.00  0.00     0.023 A 
ATOM     64  C   UNL A   1      49.088  27.067  27.228  1.00  0.00     0.012 A 
ATOM     65  C   UNL A   1      48.276  27.681  25.016  1.00  0.00     0.148 A 
ATOM     66  C   UNL A   1      50.278  26.601  26.670  1.00  0.00     0.002 A 
ATOM     67  C   UNL A   1      49.454  27.189  24.464  1.00  0.00     0.091 A 
ATOM     68  F   UNL A   1      47.297  28.196  24.261  1.00  0.00    -0.205 F 
ATOM     69  C   UNL A   1      50.454  26.649  25.290  1.00  0.00     0.022 A 
BRANCH  67  70
ATOM     70  S   UNL A   1      49.761  27.153  22.695  1.00  0.00     0.127 S 
ATOM     71  O   UNL A   1      48.720  26.234  22.235  1.00  0.00    -0.237 OA
ATOM     72  O   UNL A   1      49.551  28.550  22.320  1.00  0.00    -0.237 OA
ATOM     73  O   UNL A   1      51.124  26.666  22.531  1.00  0.00    -0.744 OA
ENDBRANCH  67  70
ENDBRANCH  49  63
BRANCH  50  74
ATOM     74  C   UNL A   1      39.004  29.523  30.163  1.00  0.00     0.023 A 
ATOM     75  C   UNL A   1      38.659  29.170  31.481  1.00  0.00     0.012 A 
ATOM     76  C   UNL A   1      38.067  30.201  29.361  1.00  0.00     0.148 A 
ATOM     77  C   UNL A   1      37.397  29.474  31.989  1.00  0.00     0.002 A 
ATOM     78  C   UNL A   1      36.824  30.535  29.884  1.00  0.00     0.091 A 
ATOM     79  F   UNL A   1      38.423  30.526  28.109  1.00  0.00    -0.205 F 
ATOM     80  C   UNL A   1      36.484  30.163  31.194  1.00  0.00     0.022 A 
BRANCH  78  81
ATOM     81  S   UNL A   1      35.616  31.499  28.971  1.00  0.00     0.127 S 
ATOM     82  O   UNL A   1      34.735  31.960  30.041  1.00  0.00    -0.237 OA
ATOM     83  O   UNL A   1      36.453  32.535  28.369  1.00  0.00    -0.237 OA
ATOM     84  O   UNL A   1      35.015  30.577  28.016  1.00  0.00    -0.744 OA
ENDBRANCH  78  81
ENDBRANCH  50  74
BRANCH  62  85
ATOM     85  C   UNL A   1      44.794  33.303  29.256  1.00  0.00     0.023 A 
ATOM     86  C   UNL A   1      45.313  33.681  30.509  1.00  0.00     0.012 A 
ATOM     87  C   UNL A   1      44.684  34.259  28.228  1.00  0.00     0.148 A 
ATOM     88  C   UNL A   1      45.705  34.998  30.739  1.00  0.00     0.002 A 
ATOM     89  C   UNL A   1      45.113  35.560  28.453  1.00  0.00     0.091 A 
ATOM     90  F   UNL A   1      44.174  33.873  27.050  1.00  0.00    -0.205 F 
ATOM     91  C   UNL A   1      45.616  35.934  29.709  1.00  0.00     0.022 A 
BRANCH  89  92
ATOM     92  S   UNL A   1      45.105  36.813  27.166  1.00  0.00     0.127 S 
ATOM     93  O   UNL A   1      45.795  37.921  27.827  1.00  0.00    -0.237 OA
ATOM     94  O   UNL A   1      45.870  36.165  26.101  1.00  0.00    -0.237 OA
ATOM     95  O   UNL A   1      43.705  37.057  26.847  1.00  0.00    -0.744 OA
ENDBRANCH  89  92
ENDBRANCH  62  85
ENDBRANCH  36  37
ENDBRANCH  29  31
ENDBRANCH  28  29
ENDBRANCH  27  28
ENDBRANCH   1  27
TORSDOF 19
ENDMDL
