MODEL 1
REMARK VINA RESULT:     -13.3      0.000      0.000
REMARK SMILES C[C@H](C(=O)Nc1ccc(C(F)(F)F)cc1)n1nc(C(=O)OCCOC(=O)c2ccc(-c3c4nc(c(-c5cccc(S(=O)(=O)[O-])c5F)c5ccc([nH]5)c(-c5cccc(S(=O)(=O)[O-])c5F)c5nc(c(-c6cccc(S(=O)(=O)[O-])c6F)c6ccc3[nH]6)C=C5)C=C4)cc2)c2ccccc2c1=O
REMARK SMILES IDX 22 1 21 2 19 3 20 4 18 5 16 6 17 7 96 8 95 9 97 10 90 11
REMARK SMILES IDX 94 12 91 13 93 14 92 15 2 16 1 17 3 18 4 19 5 20 6 22 7 23
REMARK SMILES IDX 15 24 8 25 14 26 9 27 10 28 11 29 12 30 13 31 23 32 24 33
REMARK SMILES IDX 25 34 26 35 27 36 28 37 89 38 29 39 88 40 30 41 31 42 32 43
REMARK SMILES IDX 82 44 33 45 87 46 81 47 83 48 34 49 86 50 80 51 79 52 35 54
REMARK SMILES IDX 67 55 47 56 66 57 48 58 51 59 65 60 84 61 49 62 50 63 64 65
REMARK SMILES IDX 85 66 52 67 36 68 37 69 45 70 38 71 40 72 46 73 39 74 41 75
REMARK SMILES IDX 42 76 43 77 44 78 68 79 69 80 77 81 70 82 72 83 78 84 71 85
REMARK SMILES IDX 73 86 74 87 75 88 76 89 53 90 54 91 62 92 55 93 57 94 63 95
REMARK SMILES IDX 56 96 58 97 59 98 60 99 61 100
REMARK H PARENT 5 21 83 53 51 64
REMARK Flexibility Score: inf
ROOT
ATOM      1  C   UNL A   1      38.188  20.040  24.758  1.00  0.00     0.275 C 
ENDROOT
BRANCH   1   2
ATOM      2  O   UNL A   1      36.830  19.953  25.212  1.00  0.00    -0.457 OA
BRANCH   2   3
ATOM      3  C   UNL A   1      36.045  20.947  24.768  1.00  0.00     0.359 C 
ATOM      4  O   UNL A   1      36.406  21.969  24.204  1.00  0.00    -0.244 OA
BRANCH   3   5
ATOM      5  C   UNL A   1      34.615  20.828  25.260  1.00  0.00     0.176 A 
ATOM      6  N   UNL A   1      33.082  22.474  25.104  1.00  0.00    -0.216 N 
ATOM      7  N   UNL A   1      34.155  21.917  25.791  1.00  0.00    -0.161 NA
ATOM      8  C   UNL A   1      32.787  22.007  23.794  1.00  0.00     0.275 A 
ATOM      9  C   UNL A   1      32.912  20.535  23.645  1.00  0.00     0.051 A 
ATOM     10  O   UNL A   1      32.355  22.690  22.873  1.00  0.00    -0.267 OA
ATOM     11  C   UNL A   1      33.736  19.898  24.557  1.00  0.00     0.022 A 
ATOM     12  C   UNL A   1      32.157  19.785  22.747  1.00  0.00     0.014 A 
ATOM     13  C   UNL A   1      33.703  18.517  24.727  1.00  0.00     0.011 A 
ATOM     14  C   UNL A   1      32.153  18.390  22.863  1.00  0.00     0.001 A 
ATOM     15  C   UNL A   1      32.889  17.763  23.877  1.00  0.00     0.001 A 
BRANCH   6  16
ATOM     16  C   UNL A   1      32.808  23.864  25.486  1.00  0.00     0.197 C 
ATOM     17  C   UNL A   1      34.094  24.631  25.847  1.00  0.00     0.044 C 
BRANCH  16  18
ATOM     18  C   UNL A   1      31.739  24.091  26.572  1.00  0.00     0.249 C 
ATOM     19  O   UNL A   1      31.538  23.206  27.416  1.00  0.00    -0.272 OA
ATOM     20  N   UNL A   1      30.967  25.217  26.648  1.00  0.00    -0.324 N 
ATOM     21  H   UNL A   1      30.503  25.339  27.509  1.00  0.00     0.170 HD
BRANCH  20  22
ATOM     22  C   UNL A   1      30.727  26.223  25.708  1.00  0.00     0.041 A 
ATOM     23  C   UNL A   1      29.811  25.963  24.687  1.00  0.00     0.027 A 
ATOM     24  C   UNL A   1      31.370  27.458  25.753  1.00  0.00     0.027 A 
ATOM     25  C   UNL A   1      29.466  26.970  23.781  1.00  0.00     0.015 A 
ATOM     26  C   UNL A   1      31.039  28.461  24.840  1.00  0.00     0.015 A 
ATOM     27  C   UNL A   1      30.061  28.237  23.862  1.00  0.00     0.056 A 
BRANCH  27  28
ATOM     28  C   UNL A   1      29.677  29.327  22.892  1.00  0.00     0.416 C 
ATOM     29  F   UNL A   1      28.370  29.241  22.520  1.00  0.00    -0.166 F 
ATOM     30  F   UNL A   1      29.842  30.575  23.405  1.00  0.00    -0.166 F 
ATOM     31  F   UNL A   1      30.397  29.298  21.736  1.00  0.00    -0.166 F 
ENDBRANCH  27  28
ENDBRANCH  20  22
ENDBRANCH  16  18
ENDBRANCH   6  16
ENDBRANCH   3   5
ENDBRANCH   2   3
ENDBRANCH   1   2
BRANCH   1  32
ATOM     32  C   UNL A   1      39.107  19.333  25.752  1.00  0.00     0.275 C 
BRANCH  32  33
ATOM     33  O   UNL A   1      40.378  20.006  25.871  1.00  0.00    -0.458 OA
BRANCH  33  34
ATOM     34  C   UNL A   1      40.777  20.266  27.138  1.00  0.00     0.338 C 
ATOM     35  O   UNL A   1      41.106  19.462  27.991  1.00  0.00    -0.246 OA
BRANCH  34  36
ATOM     36  C   UNL A   1      40.864  21.712  27.375  1.00  0.00     0.060 A 
ATOM     37  C   UNL A   1      40.243  22.597  26.496  1.00  0.00     0.016 A 
ATOM     38  C   UNL A   1      41.752  22.184  28.336  1.00  0.00     0.016 A 
ATOM     39  C   UNL A   1      40.591  23.943  26.502  1.00  0.00     0.010 A 
ATOM     40  C   UNL A   1      42.009  23.554  28.411  1.00  0.00     0.010 A 
ATOM     41  C   UNL A   1      41.466  24.447  27.469  1.00  0.00    -0.014 A 
BRANCH  41  42
ATOM     42  C   UNL A   1      41.829  25.890  27.503  1.00  0.00     0.031 A 
ATOM     43  C   UNL A   1      43.180  26.336  27.006  1.00  0.00     0.074 A 
ATOM     44  C   UNL A   1      40.981  26.792  28.038  1.00  0.00     0.049 A 
ATOM     45  N   UNL A   1      43.809  27.460  27.222  1.00  0.00    -0.248 NA
ATOM     46  C   UNL A   1      43.935  25.380  26.175  1.00  0.00     0.031 C 
ATOM     47  C   UNL A   1      39.627  26.511  28.523  1.00  0.00     0.029 A 
ATOM     48  N   UNL A   1      41.150  28.132  28.302  1.00  0.00    -0.354 N 
ATOM     49  C   UNL A   1      45.067  27.310  26.650  1.00  0.00     0.074 A 
ATOM     50  C   UNL A   1      45.102  25.997  26.041  1.00  0.00     0.031 C 
ATOM     51  C   UNL A   1      39.093  27.632  29.027  1.00  0.00     0.029 A 
ATOM     52  C   UNL A   1      40.100  28.682  29.004  1.00  0.00     0.049 A 
ATOM     53  H   UNL A   1      41.941  28.644  28.019  1.00  0.00     0.167 HD
ATOM     54  C   UNL A   1      46.099  28.187  26.645  1.00  0.00     0.034 A 
ATOM     55  C   UNL A   1      39.983  29.869  29.630  1.00  0.00     0.034 A 
ATOM     56  C   UNL A   1      46.020  29.521  27.177  1.00  0.00     0.049 A 
ATOM     57  C   UNL A   1      41.144  30.820  29.602  1.00  0.00     0.074 A 
ATOM     58  C   UNL A   1      46.986  30.511  27.156  1.00  0.00     0.029 A 
ATOM     59  N   UNL A   1      44.913  30.055  27.817  1.00  0.00    -0.354 N 
ATOM     60  N   UNL A   1      42.311  30.682  29.023  1.00  0.00    -0.248 NA
ATOM     61  C   UNL A   1      40.970  32.099  30.307  1.00  0.00     0.031 C 
ATOM     62  C   UNL A   1      46.473  31.635  27.807  1.00  0.00     0.029 A 
ATOM     63  C   UNL A   1      45.175  31.358  28.201  1.00  0.00     0.049 A 
ATOM     64  H   UNL A   1      44.066  29.578  27.976  1.00  0.00     0.167 HD
ATOM     65  C   UNL A   1      42.994  31.869  29.259  1.00  0.00     0.074 A 
ATOM     66  C   UNL A   1      42.104  32.721  30.018  1.00  0.00     0.031 C 
ATOM     67  C   UNL A   1      44.251  32.216  28.894  1.00  0.00     0.034 A 
BRANCH  54  68
ATOM     68  C   UNL A   1      47.413  27.754  26.049  1.00  0.00     0.023 A 
ATOM     69  C   UNL A   1      48.385  27.127  26.851  1.00  0.00     0.012 A 
ATOM     70  C   UNL A   1      47.626  27.862  24.659  1.00  0.00     0.148 A 
ATOM     71  C   UNL A   1      49.556  26.625  26.280  1.00  0.00     0.002 A 
ATOM     72  C   UNL A   1      48.773  27.321  24.092  1.00  0.00     0.091 A 
ATOM     73  F   UNL A   1      46.695  28.480  23.917  1.00  0.00    -0.205 F 
ATOM     74  C   UNL A   1      49.743  26.709  24.902  1.00  0.00     0.022 A 
BRANCH  72  75
ATOM     75  S   UNL A   1      49.063  27.297  22.318  1.00  0.00     0.127 S 
ATOM     76  O   UNL A   1      50.512  27.107  22.260  1.00  0.00    -0.237 OA
ATOM     77  O   UNL A   1      48.277  26.139  21.895  1.00  0.00    -0.237 OA
ATOM     78  O   UNL A   1      48.585  28.577  21.813  1.00  0.00    -0.744 OA
ENDBRANCH  72  75
ENDBRANCH  54  68
BRANCH  55  79
ATOM     79  C   UNL A   1      38.729  30.211  30.360  1.00  0.00     0.023 A 
ATOM     80  C   UNL A   1      38.559  29.774  31.687  1.00  0.00     0.012 A 
ATOM     81  C   UNL A   1      37.712  30.975  29.755  1.00  0.00     0.148 A 
ATOM     82  C   UNL A   1      37.386  30.062  32.385  1.00  0.00     0.002 A 
ATOM     83  C   UNL A   1      36.576  31.317  30.478  1.00  0.00     0.091 A 
ATOM     84  F   UNL A   1      37.878  31.365  28.482  1.00  0.00    -0.205 F 
ATOM     85  C   UNL A   1      36.401  30.842  31.787  1.00  0.00     0.022 A 
BRANCH  83  86
ATOM     86  S   UNL A   1      35.339  32.444  29.829  1.00  0.00     0.127 S 
ATOM     87  O   UNL A   1      34.798  31.684  28.707  1.00  0.00    -0.237 OA
ATOM     88  O   UNL A   1      34.431  32.593  30.968  1.00  0.00    -0.237 OA
ATOM     89  O   UNL A   1      36.066  33.660  29.487  1.00  0.00    -0.744 OA
ENDBRANCH  83  86
ENDBRANCH  55  79
BRANCH  67  90
ATOM     90  C   UNL A   1      44.721  33.601  29.243  1.00  0.00     0.023 A 
ATOM     91  C   UNL A   1      45.450  33.823  30.427  1.00  0.00     0.012 A 
ATOM     92  C   UNL A   1      44.503  34.669  28.349  1.00  0.00     0.148 A 
ATOM     93  C   UNL A   1      45.930  35.096  30.732  1.00  0.00     0.002 A 
ATOM     94  C   UNL A   1      45.028  35.921  28.635  1.00  0.00     0.091 A 
ATOM     95  F   UNL A   1      43.790  34.436  27.238  1.00  0.00    -0.205 F 
ATOM     96  C   UNL A   1      45.730  36.141  29.831  1.00  0.00     0.022 A 
BRANCH  94  97
ATOM     97  S   UNL A   1      44.906  37.298  27.489  1.00  0.00     0.127 S 
ATOM     98  O   UNL A   1      45.120  38.442  28.374  1.00  0.00    -0.237 OA
ATOM     99  O   UNL A   1      46.006  37.028  26.563  1.00  0.00    -0.237 OA
ATOM    100  O   UNL A   1      43.579  37.211  26.893  1.00  0.00    -0.744 OA
ENDBRANCH  94  97
ENDBRANCH  67  90
ENDBRANCH  41  42
ENDBRANCH  34  36
ENDBRANCH  33  34
ENDBRANCH  32  33
ENDBRANCH   1  32
TORSDOF 18
ENDMDL
MODEL 2
REMARK VINA RESULT:     -13.1      5.183      8.103
REMARK SMILES C[C@H](C(=O)Nc1ccc(C(F)(F)F)cc1)n1nc(C(=O)OCCOC(=O)c2ccc(-c3c4nc(c(-c5cccc(S(=O)(=O)[O-])c5F)c5ccc([nH]5)c(-c5cccc(S(=O)(=O)[O-])c5F)c5nc(c(-c6cccc(S(=O)(=O)[O-])c6F)c6ccc3[nH]6)C=C5)C=C4)cc2)c2ccccc2c1=O
REMARK SMILES IDX 22 1 21 2 19 3 20 4 18 5 16 6 17 7 96 8 95 9 97 10 90 11
REMARK SMILES IDX 94 12 91 13 93 14 92 15 2 16 1 17 3 18 4 19 5 20 6 22 7 23
REMARK SMILES IDX 15 24 8 25 14 26 9 27 10 28 11 29 12 30 13 31 23 32 24 33
REMARK SMILES IDX 25 34 26 35 27 36 28 37 89 38 29 39 88 40 30 41 31 42 32 43
REMARK SMILES IDX 82 44 33 45 87 46 81 47 83 48 34 49 86 50 80 51 79 52 35 54
REMARK SMILES IDX 67 55 47 56 66 57 48 58 51 59 65 60 84 61 49 62 50 63 64 65
REMARK SMILES IDX 85 66 52 67 36 68 37 69 45 70 38 71 40 72 46 73 39 74 41 75
REMARK SMILES IDX 42 76 43 77 44 78 68 79 69 80 77 81 70 82 72 83 78 84 71 85
REMARK SMILES IDX 73 86 74 87 75 88 76 89 53 90 54 91 62 92 55 93 57 94 63 95
REMARK SMILES IDX 56 96 58 97 59 98 60 99 61 100
REMARK H PARENT 5 21 83 53 51 64
REMARK Flexibility Score: inf
ROOT
ATOM      1  C   UNL A   1      31.386  27.849  26.100  1.00  0.00     0.275 C 
ENDROOT
BRANCH   1   2
ATOM      2  O   UNL A   1      30.304  27.196  25.421  1.00  0.00    -0.457 OA
BRANCH   2   3
ATOM      3  C   UNL A   1      30.072  25.944  25.849  1.00  0.00     0.359 C 
ATOM      4  O   UNL A   1      29.456  25.616  26.852  1.00  0.00    -0.244 OA
BRANCH   3   5
ATOM      5  C   UNL A   1      30.885  24.908  25.096  1.00  0.00     0.176 A 
ATOM      6  N   UNL A   1      32.424  25.406  23.525  1.00  0.00    -0.216 N 
ATOM      7  N   UNL A   1      31.087  25.210  23.852  1.00  0.00    -0.161 NA
ATOM      8  C   UNL A   1      33.374  25.551  24.573  1.00  0.00     0.275 A 
ATOM      9  C   UNL A   1      33.151  24.621  25.710  1.00  0.00     0.051 A 
ATOM     10  O   UNL A   1      34.366  26.269  24.544  1.00  0.00    -0.267 OA
ATOM     11  C   UNL A   1      31.863  24.135  25.856  1.00  0.00     0.022 A 
ATOM     12  C   UNL A   1      34.174  24.134  26.518  1.00  0.00     0.014 A 
ATOM     13  C   UNL A   1      31.586  23.041  26.671  1.00  0.00     0.011 A 
ATOM     14  C   UNL A   1      33.905  23.070  27.387  1.00  0.00     0.001 A 
ATOM     15  C   UNL A   1      32.627  22.498  27.429  1.00  0.00     0.001 A 
BRANCH   6  16
ATOM     16  C   UNL A   1      32.613  26.090  22.240  1.00  0.00     0.197 C 
ATOM     17  C   UNL A   1      31.615  27.246  22.046  1.00  0.00     0.044 C 
BRANCH  16  18
ATOM     18  C   UNL A   1      32.644  25.206  20.978  1.00  0.00     0.249 C 
ATOM     19  O   UNL A   1      32.236  25.671  19.905  1.00  0.00    -0.272 OA
ATOM     20  N   UNL A   1      33.078  23.909  20.975  1.00  0.00    -0.324 N 
ATOM     21  H   UNL A   1      33.269  23.543  20.081  1.00  0.00     0.170 HD
BRANCH  20  22
ATOM     22  C   UNL A   1      33.296  23.018  22.030  1.00  0.00     0.041 A 
ATOM     23  C   UNL A   1      32.251  22.169  22.399  1.00  0.00     0.027 A 
ATOM     24  C   UNL A   1      34.505  22.956  22.720  1.00  0.00     0.027 A 
ATOM     25  C   UNL A   1      32.451  21.196  23.381  1.00  0.00     0.015 A 
ATOM     26  C   UNL A   1      34.703  21.995  23.713  1.00  0.00     0.015 A 
ATOM     27  C   UNL A   1      33.688  21.085  24.034  1.00  0.00     0.056 A 
BRANCH  27  28
ATOM     28  C   UNL A   1      33.906  20.024  25.085  1.00  0.00     0.416 C 
ATOM     29  F   UNL A   1      34.797  20.423  26.034  1.00  0.00    -0.166 F 
ATOM     30  F   UNL A   1      32.767  19.696  25.751  1.00  0.00    -0.166 F 
ATOM     31  F   UNL A   1      34.395  18.858  24.579  1.00  0.00    -0.166 F 
ENDBRANCH  27  28
ENDBRANCH  20  22
ENDBRANCH  16  18
ENDBRANCH   6  16
ENDBRANCH   3   5
ENDBRANCH   2   3
ENDBRANCH   1   2
BRANCH   1  32
ATOM     32  C   UNL A   1      31.770  29.121  25.347  1.00  0.00     0.275 C 
BRANCH  32  33
ATOM     33  O   UNL A   1      33.063  29.612  25.758  1.00  0.00    -0.458 OA
BRANCH  33  34
ATOM     34  C   UNL A   1      33.038  30.678  26.592  1.00  0.00     0.338 C 
ATOM     35  O   UNL A   1      32.177  31.534  26.672  1.00  0.00    -0.246 OA
BRANCH  34  36
ATOM     36  C   UNL A   1      34.181  30.653  27.511  1.00  0.00     0.060 A 
ATOM     37  C   UNL A   1      34.957  31.797  27.683  1.00  0.00     0.016 A 
ATOM     38  C   UNL A   1      34.610  29.430  28.019  1.00  0.00     0.016 A 
ATOM     39  C   UNL A   1      36.216  31.703  28.266  1.00  0.00     0.010 A 
ATOM     40  C   UNL A   1      35.824  29.366  28.705  1.00  0.00     0.010 A 
ATOM     41  C   UNL A   1      36.663  30.492  28.802  1.00  0.00    -0.014 A 
BRANCH  41  42
ATOM     42  C   UNL A   1      37.998  30.382  29.451  1.00  0.00     0.031 A 
ATOM     43  C   UNL A   1      39.075  29.541  28.813  1.00  0.00     0.074 A 
ATOM     44  C   UNL A   1      38.228  30.976  30.639  1.00  0.00     0.049 A 
ATOM     45  N   UNL A   1      40.171  29.065  29.341  1.00  0.00    -0.248 NA
ATOM     46  C   UNL A   1      38.881  29.165  27.401  1.00  0.00     0.031 C 
ATOM     47  C   UNL A   1      37.293  31.850  31.354  1.00  0.00     0.029 A 
ATOM     48  N   UNL A   1      39.313  30.902  31.482  1.00  0.00    -0.354 N 
ATOM     49  C   UNL A   1      40.741  28.253  28.369  1.00  0.00     0.074 A 
ATOM     50  C   UNL A   1      39.891  28.328  27.201  1.00  0.00     0.031 C 
ATOM     51  C   UNL A   1      37.835  32.224  32.520  1.00  0.00     0.029 A 
ATOM     52  C   UNL A   1      39.105  31.533  32.689  1.00  0.00     0.049 A 
ATOM     53  H   UNL A   1      40.151  30.443  31.246  1.00  0.00     0.167 HD
ATOM     54  C   UNL A   1      41.867  27.504  28.453  1.00  0.00     0.034 A 
ATOM     55  C   UNL A   1      39.812  31.500  33.835  1.00  0.00     0.034 A 
ATOM     56  C   UNL A   1      42.750  27.508  29.589  1.00  0.00     0.049 A 
ATOM     57  C   UNL A   1      41.059  30.664  33.893  1.00  0.00     0.074 A 
ATOM     58  C   UNL A   1      43.953  26.842  29.742  1.00  0.00     0.029 A 
ATOM     59  N   UNL A   1      42.532  28.216  30.760  1.00  0.00    -0.354 N 
ATOM     60  N   UNL A   1      41.608  29.935  32.953  1.00  0.00    -0.248 NA
ATOM     61  C   UNL A   1      41.791  30.656  35.168  1.00  0.00     0.031 C 
ATOM     62  C   UNL A   1      44.449  27.126  31.017  1.00  0.00     0.029 A 
ATOM     63  C   UNL A   1      43.574  27.997  31.643  1.00  0.00     0.049 A 
ATOM     64  H   UNL A   1      41.751  28.789  30.937  1.00  0.00     0.167 HD
ATOM     65  C   UNL A   1      42.769  29.412  33.510  1.00  0.00     0.074 A 
ATOM     66  C   UNL A   1      42.853  29.923  34.862  1.00  0.00     0.031 C 
ATOM     67  C   UNL A   1      43.676  28.571  32.958  1.00  0.00     0.034 A 
BRANCH  54  68
ATOM     68  C   UNL A   1      42.232  26.613  27.295  1.00  0.00     0.023 A 
ATOM     69  C   UNL A   1      43.057  27.095  26.261  1.00  0.00     0.012 A 
ATOM     70  C   UNL A   1      41.852  25.255  27.303  1.00  0.00     0.148 A 
ATOM     71  C   UNL A   1      43.488  26.240  25.244  1.00  0.00     0.002 A 
ATOM     72  C   UNL A   1      42.321  24.401  26.313  1.00  0.00     0.091 A 
ATOM     73  F   UNL A   1      41.051  24.823  28.287  1.00  0.00    -0.205 F 
ATOM     74  C   UNL A   1      43.133  24.893  25.278  1.00  0.00     0.022 A 
BRANCH  72  75
ATOM     75  S   UNL A   1      41.994  22.633  26.319  1.00  0.00     0.127 S 
ATOM     76  O   UNL A   1      42.722  22.196  25.127  1.00  0.00    -0.237 OA
ATOM     77  O   UNL A   1      42.592  22.216  27.586  1.00  0.00    -0.237 OA
ATOM     78  O   UNL A   1      40.548  22.489  26.248  1.00  0.00    -0.744 OA
ENDBRANCH  72  75
ENDBRANCH  54  68
BRANCH  55  79
ATOM     79  C   UNL A   1      39.343  32.260  35.027  1.00  0.00     0.023 A 
ATOM     80  C   UNL A   1      38.438  31.656  35.922  1.00  0.00     0.012 A 
ATOM     81  C   UNL A   1      39.795  33.568  35.290  1.00  0.00     0.148 A 
ATOM     82  C   UNL A   1      37.967  32.354  37.034  1.00  0.00     0.002 A 
ATOM     83  C   UNL A   1      39.375  34.232  36.436  1.00  0.00     0.091 A 
ATOM     84  F   UNL A   1      40.639  34.139  34.418  1.00  0.00    -0.205 F 
ATOM     85  C   UNL A   1      38.442  33.635  37.298  1.00  0.00     0.022 A 
BRANCH  83  86
ATOM     86  S   UNL A   1      40.061  35.818  36.923  1.00  0.00     0.127 S 
ATOM     87  O   UNL A   1      41.484  35.509  37.029  1.00  0.00    -0.237 OA
ATOM     88  O   UNL A   1      39.698  36.671  35.790  1.00  0.00    -0.237 OA
ATOM     89  O   UNL A   1      39.388  36.164  38.168  1.00  0.00    -0.744 OA
ENDBRANCH  83  86
ENDBRANCH  55  79
BRANCH  67  90
ATOM     90  C   UNL A   1      44.879  28.205  33.782  1.00  0.00     0.023 A 
ATOM     91  C   UNL A   1      46.016  29.036  33.783  1.00  0.00     0.012 A 
ATOM     92  C   UNL A   1      44.847  27.070  34.616  1.00  0.00     0.148 A 
ATOM     93  C   UNL A   1      47.116  28.727  34.582  1.00  0.00     0.002 A 
ATOM     94  C   UNL A   1      45.925  26.797  35.447  1.00  0.00     0.091 A 
ATOM     95  F   UNL A   1      43.762  26.284  34.583  1.00  0.00    -0.205 F 
ATOM     96  C   UNL A   1      47.065  27.617  35.422  1.00  0.00     0.022 A 
BRANCH  94  97
ATOM     97  S   UNL A   1      45.908  25.449  36.632  1.00  0.00     0.127 S 
ATOM     98  O   UNL A   1      44.875  25.889  37.570  1.00  0.00    -0.237 OA
ATOM     99  O   UNL A   1      45.528  24.309  35.798  1.00  0.00    -0.237 OA
ATOM    100  O   UNL A   1      47.256  25.376  37.180  1.00  0.00    -0.744 OA
ENDBRANCH  94  97
ENDBRANCH  67  90
ENDBRANCH  41  42
ENDBRANCH  34  36
ENDBRANCH  33  34
ENDBRANCH  32  33
ENDBRANCH   1  32
TORSDOF 18
ENDMDL
MODEL 3
REMARK VINA RESULT:     -13.0      5.364     11.077
REMARK SMILES C[C@H](C(=O)Nc1ccc(C(F)(F)F)cc1)n1nc(C(=O)OCCOC(=O)c2ccc(-c3c4nc(c(-c5cccc(S(=O)(=O)[O-])c5F)c5ccc([nH]5)c(-c5cccc(S(=O)(=O)[O-])c5F)c5nc(c(-c6cccc(S(=O)(=O)[O-])c6F)c6ccc3[nH]6)C=C5)C=C4)cc2)c2ccccc2c1=O
REMARK SMILES IDX 22 1 21 2 19 3 20 4 18 5 16 6 17 7 96 8 95 9 97 10 90 11
REMARK SMILES IDX 94 12 91 13 93 14 92 15 2 16 1 17 3 18 4 19 5 20 6 22 7 23
REMARK SMILES IDX 15 24 8 25 14 26 9 27 10 28 11 29 12 30 13 31 23 32 24 33
REMARK SMILES IDX 25 34 26 35 27 36 28 37 89 38 29 39 88 40 30 41 31 42 32 43
REMARK SMILES IDX 82 44 33 45 87 46 81 47 83 48 34 49 86 50 80 51 79 52 35 54
REMARK SMILES IDX 67 55 47 56 66 57 48 58 51 59 65 60 84 61 49 62 50 63 64 65
REMARK SMILES IDX 85 66 52 67 36 68 37 69 45 70 38 71 40 72 46 73 39 74 41 75
REMARK SMILES IDX 42 76 43 77 44 78 68 79 69 80 77 81 70 82 72 83 78 84 71 85
REMARK SMILES IDX 73 86 74 87 75 88 76 89 53 90 54 91 62 92 55 93 57 94 63 95
REMARK SMILES IDX 56 96 58 97 59 98 60 99 61 100
REMARK H PARENT 5 21 83 53 51 64
REMARK Flexibility Score: inf
ROOT
ATOM      1  C   UNL A   1      31.734  31.504  26.877  1.00  0.00     0.275 C 
ENDROOT
BRANCH   1   2
ATOM      2  O   UNL A   1      31.207  31.088  25.609  1.00  0.00    -0.457 OA
BRANCH   2   3
ATOM      3  C   UNL A   1      31.504  29.819  25.287  1.00  0.00     0.359 C 
ATOM      4  O   UNL A   1      32.166  29.032  25.948  1.00  0.00    -0.244 OA
BRANCH   3   5
ATOM      5  C   UNL A   1      31.152  29.481  23.851  1.00  0.00     0.176 A 
ATOM      6  N   UNL A   1      31.533  27.476  22.893  1.00  0.00    -0.216 N 
ATOM      7  N   UNL A   1      32.024  28.723  23.266  1.00  0.00    -0.161 NA
ATOM      8  C   UNL A   1      30.285  27.043  23.418  1.00  0.00     0.275 A 
ATOM      9  C   UNL A   1      29.258  28.116  23.471  1.00  0.00     0.051 A 
ATOM     10  O   UNL A   1      29.991  25.889  23.704  1.00  0.00    -0.267 OA
ATOM     11  C   UNL A   1      29.735  29.415  23.503  1.00  0.00     0.022 A 
ATOM     12  C   UNL A   1      27.891  27.879  23.356  1.00  0.00     0.014 A 
ATOM     13  C   UNL A   1      28.904  30.502  23.246  1.00  0.00     0.011 A 
ATOM     14  C   UNL A   1      27.029  28.963  23.153  1.00  0.00     0.001 A 
ATOM     15  C   UNL A   1      27.540  30.264  23.054  1.00  0.00     0.001 A 
BRANCH   6  16
ATOM     16  C   UNL A   1      32.589  26.509  22.573  1.00  0.00     0.197 C 
ATOM     17  C   UNL A   1      33.971  27.178  22.446  1.00  0.00     0.044 C 
BRANCH  16  18
ATOM     18  C   UNL A   1      32.343  25.581  21.368  1.00  0.00     0.249 C 
ATOM     19  O   UNL A   1      31.712  26.013  20.392  1.00  0.00    -0.272 OA
ATOM     20  N   UNL A   1      32.763  24.281  21.317  1.00  0.00    -0.324 N 
ATOM     21  H   UNL A   1      32.754  23.881  20.417  1.00  0.00     0.170 HD
BRANCH  20  22
ATOM     22  C   UNL A   1      33.203  23.425  22.331  1.00  0.00     0.041 A 
ATOM     23  C   UNL A   1      32.314  22.458  22.806  1.00  0.00     0.027 A 
ATOM     24  C   UNL A   1      34.480  23.509  22.881  1.00  0.00     0.027 A 
ATOM     25  C   UNL A   1      32.738  21.518  23.749  1.00  0.00     0.015 A 
ATOM     26  C   UNL A   1      34.902  22.581  23.834  1.00  0.00     0.015 A 
ATOM     27  C   UNL A   1      34.044  21.558  24.258  1.00  0.00     0.056 A 
BRANCH  27  28
ATOM     28  C   UNL A   1      34.504  20.533  25.266  1.00  0.00     0.416 C 
ATOM     29  F   UNL A   1      35.506  19.751  24.777  1.00  0.00    -0.166 F 
ATOM     30  F   UNL A   1      34.986  21.093  26.408  1.00  0.00    -0.166 F 
ATOM     31  F   UNL A   1      33.517  19.678  25.653  1.00  0.00    -0.166 F 
ENDBRANCH  27  28
ENDBRANCH  20  22
ENDBRANCH  16  18
ENDBRANCH   6  16
ENDBRANCH   3   5
ENDBRANCH   2   3
ENDBRANCH   1   2
BRANCH   1  32
ATOM     32  C   UNL A   1      32.047  32.998  26.836  1.00  0.00     0.275 C 
BRANCH  32  33
ATOM     33  O   UNL A   1      32.852  33.402  27.964  1.00  0.00    -0.458 OA
BRANCH  33  34
ATOM     34  C   UNL A   1      34.072  33.900  27.654  1.00  0.00     0.338 C 
ATOM     35  O   UNL A   1      34.326  34.983  27.159  1.00  0.00    -0.246 OA
BRANCH  34  36
ATOM     36  C   UNL A   1      35.137  32.985  28.079  1.00  0.00     0.060 A 
ATOM     37  C   UNL A   1      34.831  31.661  28.387  1.00  0.00     0.016 A 
ATOM     38  C   UNL A   1      36.389  33.507  28.390  1.00  0.00     0.016 A 
ATOM     39  C   UNL A   1      35.735  30.886  29.105  1.00  0.00     0.010 A 
ATOM     40  C   UNL A   1      37.334  32.686  29.009  1.00  0.00     0.010 A 
ATOM     41  C   UNL A   1      37.006  31.379  29.413  1.00  0.00    -0.014 A 
BRANCH  41  42
ATOM     42  C   UNL A   1      37.993  30.553  30.159  1.00  0.00     0.031 A 
ATOM     43  C   UNL A   1      38.233  30.812  31.625  1.00  0.00     0.074 A 
ATOM     44  C   UNL A   1      38.722  29.617  29.517  1.00  0.00     0.049 A 
ATOM     45  N   UNL A   1      39.234  30.439  32.376  1.00  0.00    -0.248 NA
ATOM     46  C   UNL A   1      37.224  31.620  32.334  1.00  0.00     0.031 C 
ATOM     47  C   UNL A   1      38.571  29.231  28.111  1.00  0.00     0.029 A 
ATOM     48  N   UNL A   1      39.771  28.843  29.956  1.00  0.00    -0.354 N 
ATOM     49  C   UNL A   1      39.035  31.049  33.609  1.00  0.00     0.074 A 
ATOM     50  C   UNL A   1      37.795  31.788  33.520  1.00  0.00     0.031 C 
ATOM     51  C   UNL A   1      39.489  28.306  27.802  1.00  0.00     0.029 A 
ATOM     52  C   UNL A   1      40.362  28.111  28.950  1.00  0.00     0.049 A 
ATOM     53  H   UNL A   1      40.068  28.816  30.894  1.00  0.00     0.167 HD
ATOM     54  C   UNL A   1      39.826  31.001  34.708  1.00  0.00     0.034 A 
ATOM     55  C   UNL A   1      41.520  27.422  28.923  1.00  0.00     0.034 A 
ATOM     56  C   UNL A   1      41.010  30.191  34.810  1.00  0.00     0.049 A 
ATOM     57  C   UNL A   1      42.370  27.385  30.160  1.00  0.00     0.074 A 
ATOM     58  C   UNL A   1      41.838  30.017  35.905  1.00  0.00     0.029 A 
ATOM     59  N   UNL A   1      41.530  29.415  33.787  1.00  0.00    -0.354 N 
ATOM     60  N   UNL A   1      42.148  27.932  31.330  1.00  0.00    -0.248 NA
ATOM     61  C   UNL A   1      43.627  26.627  30.077  1.00  0.00     0.031 C 
ATOM     62  C   UNL A   1      42.875  29.156  35.535  1.00  0.00     0.029 A 
ATOM     63  C   UNL A   1      42.672  28.766  34.222  1.00  0.00     0.049 A 
ATOM     64  H   UNL A   1      41.145  29.337  32.884  1.00  0.00     0.167 HD
ATOM     65  C   UNL A   1      43.217  27.552  32.134  1.00  0.00     0.074 A 
ATOM     66  C   UNL A   1      44.074  26.715  31.322  1.00  0.00     0.031 C 
ATOM     67  C   UNL A   1      43.473  27.880  33.422  1.00  0.00     0.034 A 
BRANCH  54  68
ATOM     68  C   UNL A   1      39.453  31.838  35.903  1.00  0.00     0.023 A 
ATOM     69  C   UNL A   1      39.901  33.169  36.006  1.00  0.00     0.012 A 
ATOM     70  C   UNL A   1      38.550  31.335  36.863  1.00  0.00     0.148 A 
ATOM     71  C   UNL A   1      39.467  33.982  37.054  1.00  0.00     0.002 A 
ATOM     72  C   UNL A   1      38.088  32.164  37.878  1.00  0.00     0.091 A 
ATOM     73  F   UNL A   1      38.151  30.060  36.756  1.00  0.00    -0.205 F 
ATOM     74  C   UNL A   1      38.552  33.486  37.980  1.00  0.00     0.022 A 
BRANCH  72  75
ATOM     75  S   UNL A   1      36.841  31.646  39.064  1.00  0.00     0.127 S 
ATOM     76  O   UNL A   1      36.516  30.303  38.581  1.00  0.00    -0.237 OA
ATOM     77  O   UNL A   1      37.584  31.679  40.323  1.00  0.00    -0.237 OA
ATOM     78  O   UNL A   1      35.761  32.618  38.966  1.00  0.00    -0.744 OA
ENDBRANCH  72  75
ENDBRANCH  54  68
BRANCH  55  79
ATOM     79  C   UNL A   1      41.954  26.735  27.674  1.00  0.00     0.023 A 
ATOM     80  C   UNL A   1      42.572  27.481  26.652  1.00  0.00     0.012 A 
ATOM     81  C   UNL A   1      41.773  25.350  27.496  1.00  0.00     0.148 A 
ATOM     82  C   UNL A   1      42.968  26.867  25.464  1.00  0.00     0.002 A 
ATOM     83  C   UNL A   1      42.232  24.732  26.339  1.00  0.00     0.091 A 
ATOM     84  F   UNL A   1      41.163  24.656  28.468  1.00  0.00    -0.205 F 
ATOM     85  C   UNL A   1      42.810  25.493  25.311  1.00  0.00     0.022 A 
BRANCH  83  86
ATOM     86  S   UNL A   1      42.204  22.948  26.138  1.00  0.00     0.127 S 
ATOM     87  O   UNL A   1      42.847  22.782  24.838  1.00  0.00    -0.237 OA
ATOM     88  O   UNL A   1      42.998  22.497  27.281  1.00  0.00    -0.237 OA
ATOM     89  O   UNL A   1      40.797  22.575  26.207  1.00  0.00    -0.744 OA
ENDBRANCH  83  86
ENDBRANCH  55  79
BRANCH  67  90
ATOM     90  C   UNL A   1      44.691  27.277  34.066  1.00  0.00     0.023 A 
ATOM     91  C   UNL A   1      45.927  27.948  34.008  1.00  0.00     0.012 A 
ATOM     92  C   UNL A   1      44.585  26.076  34.796  1.00  0.00     0.148 A 
ATOM     93  C   UNL A   1      47.049  27.418  34.644  1.00  0.00     0.002 A 
ATOM     94  C   UNL A   1      45.694  25.582  35.470  1.00  0.00     0.091 A 
ATOM     95  F   UNL A   1      43.402  25.446  34.820  1.00  0.00    -0.205 F 
ATOM     96  C   UNL A   1      46.929  26.243  35.384  1.00  0.00     0.022 A 
BRANCH  94  97
ATOM     97  S   UNL A   1      45.608  24.133  36.526  1.00  0.00     0.127 S 
ATOM     98  O   UNL A   1      44.624  24.549  37.524  1.00  0.00    -0.237 OA
ATOM     99  O   UNL A   1      45.140  23.102  35.600  1.00  0.00    -0.237 OA
ATOM    100  O   UNL A   1      46.958  23.922  37.033  1.00  0.00    -0.744 OA
ENDBRANCH  94  97
ENDBRANCH  67  90
ENDBRANCH  41  42
ENDBRANCH  34  36
ENDBRANCH  33  34
ENDBRANCH  32  33
ENDBRANCH   1  32
TORSDOF 18
ENDMDL
