MODEL 1
REMARK VINA RESULT:     -10.4      0.000      0.000
REMARK SMILES CC(C)[C@H](NC(=O)[C@H](C)NC(=O)C[NH3+])C(=O)OCCOC(=O)c1ccc(-c2c3nc(c(-c4cccc(S(=O)(=O)[O-])c4F)c4ccc([nH]4)c(-c4cccc(S(=O)(=O)[O-])c4F)c4nc(c(-c5cccc(S(=O)(=O)[O-])c5F)c5ccc2[nH]5)C=C4)C=C3)cc1
REMARK SMILES IDX 18 1 17 2 15 3 16 4 4 5 2 6 1 7 3 8 5 9 6 10 7 12 8 13 9 14
REMARK SMILES IDX 10 15 11 16 12 18 13 19 14 20 19 24 20 25 21 26 22 27 23 28
REMARK SMILES IDX 24 29 85 30 25 31 84 32 26 33 27 34 28 35 78 36 29 37 83 38
REMARK SMILES IDX 77 39 79 40 30 41 82 42 76 43 75 44 31 46 63 47 43 48 62 49
REMARK SMILES IDX 44 50 47 51 61 52 80 53 45 54 46 55 60 57 81 58 48 59 32 60
REMARK SMILES IDX 33 61 41 62 34 63 36 64 42 65 35 66 37 67 38 68 39 69 40 70
REMARK SMILES IDX 64 71 65 72 73 73 66 74 68 75 74 76 67 77 69 78 70 79 71 80
REMARK SMILES IDX 72 81 49 82 50 83 58 84 51 85 53 86 59 87 52 88 54 89 55 90
REMARK SMILES IDX 56 91 57 92
REMARK H PARENT 5 11 10 17 14 21 14 22 14 23 79 45 47 56
REMARK Flexibility Score: inf
ROOT
ATOM      1  C   UNL A   1      31.810  29.900  25.270  1.00  0.00     0.274 C 
ENDROOT
BRANCH   1   2
ATOM      2  O   UNL A   1      32.231  28.612  25.767  1.00  0.00    -0.461 OA
BRANCH   2   3
ATOM      3  C   UNL A   1      33.192  27.815  25.185  1.00  0.00     0.329 C 
ATOM      4  O   UNL A   1      34.385  28.072  25.155  1.00  0.00    -0.250 OA
BRANCH   3   5
ATOM      5  C   UNL A   1      32.517  26.497  24.672  1.00  0.00     0.194 C 
BRANCH   5   6
ATOM      6  C   UNL A   1      33.060  25.050  24.845  1.00  0.00     0.017 C 
ATOM      7  C   UNL A   1      34.540  24.809  24.574  1.00  0.00     0.010 C 
ATOM      8  C   UNL A   1      32.743  24.538  26.266  1.00  0.00     0.010 C 
ENDBRANCH   5   6
BRANCH   5   9
ATOM      9  N   UNL A   1      32.180  26.707  23.260  1.00  0.00    -0.341 N 
ATOM     10  C   UNL A   1      31.007  27.152  22.728  1.00  0.00     0.243 C 
ATOM     11  H   UNL A   1      32.893  26.500  22.614  1.00  0.00     0.164 HD
ATOM     12  O   UNL A   1      30.920  27.084  21.495  1.00  0.00    -0.273 OA
BRANCH  10  13
ATOM     13  C   UNL A   1      29.760  27.598  23.590  1.00  0.00     0.168 C 
ATOM     14  C   UNL A   1      29.224  26.274  24.154  1.00  0.00     0.041 C 
BRANCH  13  15
ATOM     15  N   UNL A   1      28.594  28.274  22.992  1.00  0.00    -0.340 N 
ATOM     16  C   UNL A   1      28.104  29.546  23.062  1.00  0.00     0.275 C 
ATOM     17  H   UNL A   1      28.053  27.682  22.421  1.00  0.00     0.164 HD
ATOM     18  O   UNL A   1      26.887  29.671  22.876  1.00  0.00    -0.268 OA
BRANCH  16  19
ATOM     19  C   UNL A   1      28.957  30.794  23.273  1.00  0.00     0.360 C 
BRANCH  19  20
ATOM     20  N   UNL A   1      29.776  31.135  22.105  1.00  0.00    -0.350 N 
ATOM     21  H   UNL A   1      29.949  32.140  22.093  1.00  0.00     0.344 HD
ATOM     22  H   UNL A   1      29.282  30.864  21.254  1.00  0.00     0.344 HD
ATOM     23  H   UNL A   1      30.664  30.637  22.155  1.00  0.00     0.344 HD
ENDBRANCH  19  20
ENDBRANCH  16  19
ENDBRANCH  13  15
ENDBRANCH  10  13
ENDBRANCH   5   9
ENDBRANCH   3   5
ENDBRANCH   2   3
ENDBRANCH   1   2
BRANCH   1  24
ATOM     24  C   UNL A   1      31.662  30.912  26.405  1.00  0.00     0.275 C 
BRANCH  24  25
ATOM     25  O   UNL A   1      32.774  30.766  27.291  1.00  0.00    -0.458 OA
BRANCH  25  26
ATOM     26  C   UNL A   1      33.454  31.920  27.500  1.00  0.00     0.338 C 
ATOM     27  O   UNL A   1      33.010  33.048  27.519  1.00  0.00    -0.246 OA
BRANCH  26  28
ATOM     28  C   UNL A   1      34.802  31.565  27.971  1.00  0.00     0.060 A 
ATOM     29  C   UNL A   1      35.001  30.244  28.389  1.00  0.00     0.016 A 
ATOM     30  C   UNL A   1      35.843  32.494  27.991  1.00  0.00     0.016 A 
ATOM     31  C   UNL A   1      36.237  29.847  28.866  1.00  0.00     0.010 A 
ATOM     32  C   UNL A   1      37.078  32.106  28.493  1.00  0.00     0.010 A 
ATOM     33  C   UNL A   1      37.258  30.794  28.965  1.00  0.00    -0.014 A 
BRANCH  33  34
ATOM     34  C   UNL A   1      38.444  30.481  29.774  1.00  0.00     0.031 A 
ATOM     35  C   UNL A   1      39.424  29.499  29.207  1.00  0.00     0.074 A 
ATOM     36  C   UNL A   1      38.609  31.050  30.977  1.00  0.00     0.049 A 
ATOM     37  N   UNL A   1      40.464  28.954  29.770  1.00  0.00    -0.248 NA
ATOM     38  C   UNL A   1      39.190  29.064  27.817  1.00  0.00     0.031 C 
ATOM     39  C   UNL A   1      37.717  32.044  31.572  1.00  0.00     0.029 A 
ATOM     40  N   UNL A   1      39.569  30.839  31.928  1.00  0.00    -0.354 N 
ATOM     41  C   UNL A   1      40.980  28.076  28.824  1.00  0.00     0.074 A 
ATOM     42  C   UNL A   1      40.144  28.163  27.650  1.00  0.00     0.031 C 
ATOM     43  C   UNL A   1      38.147  32.324  32.814  1.00  0.00     0.029 A 
ATOM     44  C   UNL A   1      39.314  31.497  33.106  1.00  0.00     0.049 A 
ATOM     45  H   UNL A   1      40.361  30.272  31.783  1.00  0.00     0.167 HD
ATOM     46  C   UNL A   1      42.059  27.270  28.937  1.00  0.00     0.034 A 
ATOM     47  C   UNL A   1      39.936  31.395  34.295  1.00  0.00     0.034 A 
ATOM     48  C   UNL A   1      42.872  27.212  30.118  1.00  0.00     0.049 A 
ATOM     49  C   UNL A   1      41.115  30.464  34.404  1.00  0.00     0.074 A 
ATOM     50  C   UNL A   1      44.006  26.459  30.348  1.00  0.00     0.029 A 
ATOM     51  N   UNL A   1      42.619  27.930  31.279  1.00  0.00    -0.354 N 
ATOM     52  N   UNL A   1      41.648  29.695  33.483  1.00  0.00    -0.248 NA
ATOM     53  C   UNL A   1      41.794  30.404  35.704  1.00  0.00     0.031 C 
ATOM     54  C   UNL A   1      44.420  26.695  31.663  1.00  0.00     0.029 A 
ATOM     55  C   UNL A   1      43.569  27.630  32.236  1.00  0.00     0.049 A 
ATOM     56  H   UNL A   1      41.873  28.560  31.403  1.00  0.00     0.167 HD
ATOM     57  C   UNL A   1      42.749  29.091  34.079  1.00  0.00     0.074 A 
ATOM     58  C   UNL A   1      42.811  29.596  35.437  1.00  0.00     0.031 C 
ATOM     59  C   UNL A   1      43.624  28.193  33.562  1.00  0.00     0.034 A 
BRANCH  46  60
ATOM     60  C   UNL A   1      42.402  26.392  27.765  1.00  0.00     0.023 A 
ATOM     61  C   UNL A   1      43.241  26.875  26.740  1.00  0.00     0.012 A 
ATOM     62  C   UNL A   1      41.909  25.075  27.689  1.00  0.00     0.148 A 
ATOM     63  C   UNL A   1      43.558  26.074  25.644  1.00  0.00     0.002 A 
ATOM     64  C   UNL A   1      42.267  24.265  26.618  1.00  0.00     0.091 A 
ATOM     65  F   UNL A   1      41.087  24.645  28.657  1.00  0.00    -0.205 F 
ATOM     66  C   UNL A   1      43.080  24.767  25.589  1.00  0.00     0.022 A 
BRANCH  64  67
ATOM     67  S   UNL A   1      41.764  22.546  26.492  1.00  0.00     0.127 S 
ATOM     68  O   UNL A   1      42.301  22.177  25.183  1.00  0.00    -0.237 OA
ATOM     69  O   UNL A   1      42.460  21.942  27.629  1.00  0.00    -0.237 OA
ATOM     70  O   UNL A   1      40.312  22.541  26.593  1.00  0.00    -0.744 OA
ENDBRANCH  64  67
ENDBRANCH  46  60
BRANCH  47  71
ATOM     71  C   UNL A   1      39.463  32.197  35.457  1.00  0.00     0.023 A 
ATOM     72  C   UNL A   1      38.608  31.606  36.406  1.00  0.00     0.012 A 
ATOM     73  C   UNL A   1      39.876  33.531  35.641  1.00  0.00     0.148 A 
ATOM     74  C   UNL A   1      38.146  32.339  37.501  1.00  0.00     0.002 A 
ATOM     75  C   UNL A   1      39.456  34.238  36.762  1.00  0.00     0.091 A 
ATOM     76  F   UNL A   1      40.681  34.080  34.721  1.00  0.00    -0.205 F 
ATOM     77  C   UNL A   1      38.577  33.650  37.684  1.00  0.00     0.022 A 
BRANCH  75  78
ATOM     78  S   UNL A   1      40.055  35.889  37.142  1.00  0.00     0.127 S 
ATOM     79  O   UNL A   1      41.481  35.650  37.346  1.00  0.00    -0.237 OA
ATOM     80  O   UNL A   1      39.723  36.619  35.916  1.00  0.00    -0.237 OA
ATOM     81  O   UNL A   1      39.310  36.319  38.318  1.00  0.00    -0.744 OA
ENDBRANCH  75  78
ENDBRANCH  47  71
BRANCH  59  82
ATOM     82  C   UNL A   1      44.754  27.741  34.446  1.00  0.00     0.023 A 
ATOM     83  C   UNL A   1      45.938  28.498  34.520  1.00  0.00     0.012 A 
ATOM     84  C   UNL A   1      44.597  26.612  35.273  1.00  0.00     0.148 A 
ATOM     85  C   UNL A   1      46.966  28.117  35.382  1.00  0.00     0.002 A 
ATOM     86  C   UNL A   1      45.600  26.272  36.170  1.00  0.00     0.091 A 
ATOM     87  F   UNL A   1      43.465  25.900  35.174  1.00  0.00    -0.205 F 
ATOM     88  C   UNL A   1      46.790  27.015  36.216  1.00  0.00     0.022 A 
BRANCH  86  89
ATOM     89  S   UNL A   1      45.417  24.936  37.355  1.00  0.00     0.127 S 
ATOM     90  O   UNL A   1      44.229  25.356  38.096  1.00  0.00    -0.237 OA
ATOM     91  O   UNL A   1      45.217  23.777  36.485  1.00  0.00    -0.237 OA
ATOM     92  O   UNL A   1      46.654  24.907  38.126  1.00  0.00    -0.744 OA
ENDBRANCH  86  89
ENDBRANCH  59  82
ENDBRANCH  33  34
ENDBRANCH  26  28
ENDBRANCH  25  26
ENDBRANCH  24  25
ENDBRANCH   1  24
TORSDOF 20
ENDMDL
MODEL 2
REMARK VINA RESULT:     -10.3      1.871      3.035
REMARK SMILES CC(C)[C@H](NC(=O)[C@H](C)NC(=O)C[NH3+])C(=O)OCCOC(=O)c1ccc(-c2c3nc(c(-c4cccc(S(=O)(=O)[O-])c4F)c4ccc([nH]4)c(-c4cccc(S(=O)(=O)[O-])c4F)c4nc(c(-c5cccc(S(=O)(=O)[O-])c5F)c5ccc2[nH]5)C=C4)C=C3)cc1
REMARK SMILES IDX 18 1 17 2 15 3 16 4 4 5 2 6 1 7 3 8 5 9 6 10 7 12 8 13 9 14
REMARK SMILES IDX 10 15 11 16 12 18 13 19 14 20 19 24 20 25 21 26 22 27 23 28
REMARK SMILES IDX 24 29 85 30 25 31 84 32 26 33 27 34 28 35 78 36 29 37 83 38
REMARK SMILES IDX 77 39 79 40 30 41 82 42 76 43 75 44 31 46 63 47 43 48 62 49
REMARK SMILES IDX 44 50 47 51 61 52 80 53 45 54 46 55 60 57 81 58 48 59 32 60
REMARK SMILES IDX 33 61 41 62 34 63 36 64 42 65 35 66 37 67 38 68 39 69 40 70
REMARK SMILES IDX 64 71 65 72 73 73 66 74 68 75 74 76 67 77 69 78 70 79 71 80
REMARK SMILES IDX 72 81 49 82 50 83 58 84 51 85 53 86 59 87 52 88 54 89 55 90
REMARK SMILES IDX 56 91 57 92
REMARK H PARENT 5 11 10 17 14 21 14 22 14 23 79 45 47 56
REMARK Flexibility Score: inf
ROOT
ATOM      1  C   UNL A   1      32.155  29.680  24.989  1.00  0.00     0.274 C 
ENDROOT
BRANCH   1   2
ATOM      2  O   UNL A   1      32.994  28.509  25.085  1.00  0.00    -0.461 OA
BRANCH   2   3
ATOM      3  C   UNL A   1      32.941  27.427  24.233  1.00  0.00     0.329 C 
ATOM      4  O   UNL A   1      33.889  26.996  23.596  1.00  0.00    -0.250 OA
BRANCH   3   5
ATOM      5  C   UNL A   1      31.510  26.792  24.304  1.00  0.00     0.194 C 
BRANCH   5   6
ATOM      6  C   UNL A   1      30.171  27.479  23.914  1.00  0.00     0.017 C 
ATOM      7  C   UNL A   1      30.090  28.152  22.549  1.00  0.00     0.010 C 
ATOM      8  C   UNL A   1      29.012  26.464  24.018  1.00  0.00     0.010 C 
ENDBRANCH   5   6
BRANCH   5   9
ATOM      9  N   UNL A   1      31.366  26.205  25.641  1.00  0.00    -0.341 N 
ATOM     10  C   UNL A   1      31.633  24.930  26.038  1.00  0.00     0.243 C 
ATOM     11  H   UNL A   1      31.033  26.812  26.341  1.00  0.00     0.164 HD
ATOM     12  O   UNL A   1      31.270  24.639  27.185  1.00  0.00    -0.273 OA
BRANCH  10  13
ATOM     13  C   UNL A   1      32.234  23.817  25.089  1.00  0.00     0.168 C 
ATOM     14  C   UNL A   1      32.403  22.608  26.021  1.00  0.00     0.041 C 
BRANCH  13  15
ATOM     15  N   UNL A   1      33.534  23.980  24.413  1.00  0.00    -0.340 N 
ATOM     16  C   UNL A   1      34.020  23.587  23.200  1.00  0.00     0.275 C 
ATOM     17  H   UNL A   1      34.191  24.478  24.951  1.00  0.00     0.164 HD
ATOM     18  O   UNL A   1      35.247  23.431  23.131  1.00  0.00    -0.268 OA
BRANCH  16  19
ATOM     19  C   UNL A   1      33.175  23.410  21.942  1.00  0.00     0.360 C 
BRANCH  19  20
ATOM     20  N   UNL A   1      32.379  22.178  21.953  1.00  0.00    -0.350 N 
ATOM     21  H   UNL A   1      32.725  21.543  21.233  1.00  0.00     0.344 HD
ATOM     22  H   UNL A   1      31.402  22.403  21.767  1.00  0.00     0.344 HD
ATOM     23  H   UNL A   1      32.458  21.731  22.866  1.00  0.00     0.344 HD
ENDBRANCH  19  20
ENDBRANCH  16  19
ENDBRANCH  13  15
ENDBRANCH  10  13
ENDBRANCH   5   9
ENDBRANCH   3   5
ENDBRANCH   2   3
ENDBRANCH   1   2
BRANCH   1  24
ATOM     24  C   UNL A   1      31.687  30.141  26.368  1.00  0.00     0.275 C 
BRANCH  24  25
ATOM     25  O   UNL A   1      32.807  30.130  27.256  1.00  0.00    -0.458 OA
BRANCH  25  26
ATOM     26  C   UNL A   1      33.413  31.337  27.378  1.00  0.00     0.338 C 
ATOM     27  O   UNL A   1      32.892  32.432  27.354  1.00  0.00    -0.246 OA
BRANCH  26  28
ATOM     28  C   UNL A   1      34.798  31.100  27.814  1.00  0.00     0.060 A 
ATOM     29  C   UNL A   1      35.160  29.775  28.086  1.00  0.00     0.016 A 
ATOM     30  C   UNL A   1      35.717  32.141  27.943  1.00  0.00     0.016 A 
ATOM     31  C   UNL A   1      36.439  29.482  28.524  1.00  0.00     0.010 A 
ATOM     32  C   UNL A   1      36.994  31.854  28.406  1.00  0.00     0.010 A 
ATOM     33  C   UNL A   1      37.337  30.531  28.732  1.00  0.00    -0.014 A 
BRANCH  33  34
ATOM     34  C   UNL A   1      38.558  30.278  29.508  1.00  0.00     0.031 A 
ATOM     35  C   UNL A   1      39.551  29.313  28.935  1.00  0.00     0.074 A 
ATOM     36  C   UNL A   1      38.744  30.884  30.690  1.00  0.00     0.049 A 
ATOM     37  N   UNL A   1      40.626  28.816  29.477  1.00  0.00    -0.248 NA
ATOM     38  C   UNL A   1      39.285  28.833  27.566  1.00  0.00     0.031 C 
ATOM     39  C   UNL A   1      37.840  31.866  31.288  1.00  0.00     0.029 A 
ATOM     40  N   UNL A   1      39.741  30.730  31.613  1.00  0.00    -0.354 N 
ATOM     41  C   UNL A   1      41.139  27.930  28.538  1.00  0.00     0.074 A 
ATOM     42  C   UNL A   1      40.263  27.958  27.390  1.00  0.00     0.031 C 
ATOM     43  C   UNL A   1      38.300  32.193  32.507  1.00  0.00     0.029 A 
ATOM     44  C   UNL A   1      39.503  31.412  32.782  1.00  0.00     0.049 A 
ATOM     45  H   UNL A   1      40.546  30.185  31.457  1.00  0.00     0.167 HD
ATOM     46  C   UNL A   1      42.248  27.162  28.635  1.00  0.00     0.034 A 
ATOM     47  C   UNL A   1      40.166  31.363  33.951  1.00  0.00     0.034 A 
ATOM     48  C   UNL A   1      43.100  27.162  29.790  1.00  0.00     0.049 A 
ATOM     49  C   UNL A   1      41.378  30.474  34.045  1.00  0.00     0.074 A 
ATOM     50  C   UNL A   1      44.265  26.453  30.002  1.00  0.00     0.029 A 
ATOM     51  N   UNL A   1      42.862  27.904  30.939  1.00  0.00    -0.354 N 
ATOM     52  N   UNL A   1      41.906  29.697  33.127  1.00  0.00    -0.248 NA
ATOM     53  C   UNL A   1      42.102  30.471  35.323  1.00  0.00     0.031 C 
ATOM     54  C   UNL A   1      44.714  26.738  31.295  1.00  0.00     0.029 A 
ATOM     55  C   UNL A   1      43.852  27.660  31.871  1.00  0.00     0.049 A 
ATOM     56  H   UNL A   1      42.100  28.512  31.071  1.00  0.00     0.167 HD
ATOM     57  C   UNL A   1      43.045  29.144  33.702  1.00  0.00     0.074 A 
ATOM     58  C   UNL A   1      43.135  29.689  35.043  1.00  0.00     0.031 C 
ATOM     59  C   UNL A   1      43.932  28.261  33.179  1.00  0.00     0.034 A 
BRANCH  46  60
ATOM     60  C   UNL A   1      42.580  26.264  27.476  1.00  0.00     0.023 A 
ATOM     61  C   UNL A   1      43.372  26.744  26.413  1.00  0.00     0.012 A 
ATOM     62  C   UNL A   1      42.125  24.931  27.450  1.00  0.00     0.148 A 
ATOM     63  C   UNL A   1      43.679  25.923  25.328  1.00  0.00     0.002 A 
ATOM     64  C   UNL A   1      42.474  24.104  26.390  1.00  0.00     0.091 A 
ATOM     65  F   UNL A   1      41.347  24.503  28.455  1.00  0.00    -0.205 F 
ATOM     66  C   UNL A   1      43.239  24.602  25.322  1.00  0.00     0.022 A 
BRANCH  64  67
ATOM     67  S   UNL A   1      42.021  22.368  26.324  1.00  0.00     0.127 S 
ATOM     68  O   UNL A   1      42.695  21.933  25.102  1.00  0.00    -0.237 OA
ATOM     69  O   UNL A   1      42.608  21.853  27.561  1.00  0.00    -0.237 OA
ATOM     70  O   UNL A   1      40.566  22.332  26.278  1.00  0.00    -0.744 OA
ENDBRANCH  64  67
ENDBRANCH  46  60
BRANCH  47  71
ATOM     71  C   UNL A   1      39.706  32.181  35.107  1.00  0.00     0.023 A 
ATOM     72  C   UNL A   1      40.021  33.552  35.156  1.00  0.00     0.012 A 
ATOM     73  C   UNL A   1      38.936  31.616  36.142  1.00  0.00     0.148 A 
ATOM     74  C   UNL A   1      39.606  34.339  36.232  1.00  0.00     0.002 A 
ATOM     75  C   UNL A   1      38.480  32.416  37.183  1.00  0.00     0.091 A 
ATOM     76  F   UNL A   1      38.656  30.306  36.084  1.00  0.00    -0.205 F 
ATOM     77  C   UNL A   1      38.828  33.774  37.239  1.00  0.00     0.022 A 
BRANCH  75  78
ATOM     78  S   UNL A   1      37.375  31.802  38.460  1.00  0.00     0.127 S 
ATOM     79  O   UNL A   1      38.190  31.959  39.662  1.00  0.00    -0.237 OA
ATOM     80  O   UNL A   1      36.248  32.731  38.355  1.00  0.00    -0.237 OA
ATOM     81  O   UNL A   1      37.060  30.430  38.085  1.00  0.00    -0.744 OA
ENDBRANCH  75  78
ENDBRANCH  47  71
BRANCH  59  82
ATOM     82  C   UNL A   1      45.105  27.870  34.037  1.00  0.00     0.023 A 
ATOM     83  C   UNL A   1      46.278  28.648  34.025  1.00  0.00     0.012 A 
ATOM     84  C   UNL A   1      45.001  26.780  34.922  1.00  0.00     0.148 A 
ATOM     85  C   UNL A   1      47.346  28.325  34.861  1.00  0.00     0.002 A 
ATOM     86  C   UNL A   1      46.045  26.499  35.792  1.00  0.00     0.091 A 
ATOM     87  F   UNL A   1      43.878  26.046  34.904  1.00  0.00    -0.205 F 
ATOM     88  C   UNL A   1      47.223  27.262  35.753  1.00  0.00     0.022 A 
BRANCH  86  89
ATOM     89  S   UNL A   1      45.934  25.220  37.046  1.00  0.00     0.127 S 
ATOM     90  O   UNL A   1      45.977  24.005  36.236  1.00  0.00    -0.237 OA
ATOM     91  O   UNL A   1      47.135  25.465  37.844  1.00  0.00    -0.237 OA
ATOM     92  O   UNL A   1      44.681  25.453  37.752  1.00  0.00    -0.744 OA
ENDBRANCH  86  89
ENDBRANCH  59  82
ENDBRANCH  33  34
ENDBRANCH  26  28
ENDBRANCH  25  26
ENDBRANCH  24  25
ENDBRANCH   1  24
TORSDOF 20
ENDMDL
MODEL 3
REMARK VINA RESULT:      -9.8      3.756      9.960
REMARK SMILES CC(C)[C@H](NC(=O)[C@H](C)NC(=O)C[NH3+])C(=O)OCCOC(=O)c1ccc(-c2c3nc(c(-c4cccc(S(=O)(=O)[O-])c4F)c4ccc([nH]4)c(-c4cccc(S(=O)(=O)[O-])c4F)c4nc(c(-c5cccc(S(=O)(=O)[O-])c5F)c5ccc2[nH]5)C=C4)C=C3)cc1
REMARK SMILES IDX 18 1 17 2 15 3 16 4 4 5 2 6 1 7 3 8 5 9 6 10 7 12 8 13 9 14
REMARK SMILES IDX 10 15 11 16 12 18 13 19 14 20 19 24 20 25 21 26 22 27 23 28
REMARK SMILES IDX 24 29 85 30 25 31 84 32 26 33 27 34 28 35 78 36 29 37 83 38
REMARK SMILES IDX 77 39 79 40 30 41 82 42 76 43 75 44 31 46 63 47 43 48 62 49
REMARK SMILES IDX 44 50 47 51 61 52 80 53 45 54 46 55 60 57 81 58 48 59 32 60
REMARK SMILES IDX 33 61 41 62 34 63 36 64 42 65 35 66 37 67 38 68 39 69 40 70
REMARK SMILES IDX 64 71 65 72 73 73 66 74 68 75 74 76 67 77 69 78 70 79 71 80
REMARK SMILES IDX 72 81 49 82 50 83 58 84 51 85 53 86 59 87 52 88 54 89 55 90
REMARK SMILES IDX 56 91 57 92
REMARK H PARENT 5 11 10 17 14 21 14 22 14 23 79 45 47 56
REMARK Flexibility Score: inf
ROOT
ATOM      1  C   UNL A   1      33.911  33.425  28.254  1.00  0.00     0.274 C 
ENDROOT
BRANCH   1   2
ATOM      2  O   UNL A   1      33.563  33.969  29.545  1.00  0.00    -0.461 OA
BRANCH   2   3
ATOM      3  C   UNL A   1      33.724  35.286  29.917  1.00  0.00     0.329 C 
ATOM      4  O   UNL A   1      33.945  36.206  29.146  1.00  0.00    -0.250 OA
BRANCH   3   5
ATOM      5  C   UNL A   1      33.471  35.413  31.458  1.00  0.00     0.194 C 
BRANCH   5   6
ATOM      6  C   UNL A   1      32.443  36.347  32.156  1.00  0.00     0.017 C 
ATOM      7  C   UNL A   1      31.206  35.706  32.773  1.00  0.00     0.010 C 
ATOM      8  C   UNL A   1      33.148  37.180  33.248  1.00  0.00     0.010 C 
ENDBRANCH   5   6
BRANCH   5   9
ATOM      9  N   UNL A   1      34.780  35.596  32.095  1.00  0.00    -0.341 N 
ATOM     10  C   UNL A   1      35.729  34.656  32.363  1.00  0.00     0.243 C 
ATOM     11  H   UNL A   1      35.001  36.517  32.363  1.00  0.00     0.164 HD
ATOM     12  O   UNL A   1      36.680  35.039  33.058  1.00  0.00    -0.273 OA
BRANCH  10  13
ATOM     13  C   UNL A   1      35.602  33.133  31.959  1.00  0.00     0.168 C 
ATOM     14  C   UNL A   1      36.320  32.400  33.102  1.00  0.00     0.041 C 
BRANCH  13  15
ATOM     15  N   UNL A   1      36.189  32.599  30.717  1.00  0.00    -0.340 N 
ATOM     16  C   UNL A   1      37.276  32.940  29.965  1.00  0.00     0.275 C 
ATOM     17  H   UNL A   1      35.691  31.832  30.352  1.00  0.00     0.164 HD
ATOM     18  O   UNL A   1      37.219  32.649  28.763  1.00  0.00    -0.268 OA
BRANCH  16  19
ATOM     19  C   UNL A   1      38.551  33.570  30.519  1.00  0.00     0.360 C 
BRANCH  19  20
ATOM     20  N   UNL A   1      38.558  35.034  30.420  1.00  0.00    -0.350 N 
ATOM     21  H   UNL A   1      38.346  35.438  31.332  1.00  0.00     0.344 HD
ATOM     22  H   UNL A   1      37.854  35.331  29.744  1.00  0.00     0.344 HD
ATOM     23  H   UNL A   1      39.479  35.349  30.114  1.00  0.00     0.344 HD
ENDBRANCH  19  20
ENDBRANCH  16  19
ENDBRANCH  13  15
ENDBRANCH  10  13
ENDBRANCH   5   9
ENDBRANCH   3   5
ENDBRANCH   2   3
ENDBRANCH   1   2
BRANCH   1  24
ATOM     24  C   UNL A   1      33.639  31.923  28.193  1.00  0.00     0.275 C 
BRANCH  24  25
ATOM     25  O   UNL A   1      34.499  31.345  27.209  1.00  0.00    -0.458 OA
BRANCH  25  26
ATOM     26  C   UNL A   1      34.610  29.997  27.312  1.00  0.00     0.338 C 
ATOM     27  O   UNL A   1      33.943  29.154  26.752  1.00  0.00    -0.246 OA
BRANCH  26  28
ATOM     28  C   UNL A   1      35.864  29.706  28.025  1.00  0.00     0.060 A 
ATOM     29  C   UNL A   1      37.050  29.801  27.288  1.00  0.00     0.016 A 
ATOM     30  C   UNL A   1      35.879  29.362  29.377  1.00  0.00     0.016 A 
ATOM     31  C   UNL A   1      38.264  29.518  27.887  1.00  0.00     0.010 A 
ATOM     32  C   UNL A   1      37.094  29.052  29.976  1.00  0.00     0.010 A 
ATOM     33  C   UNL A   1      38.276  29.094  29.218  1.00  0.00    -0.014 A 
BRANCH  33  34
ATOM     34  C   UNL A   1      39.493  28.470  29.755  1.00  0.00     0.031 A 
ATOM     35  C   UNL A   1      40.115  29.103  30.963  1.00  0.00     0.074 A 
ATOM     36  C   UNL A   1      40.018  27.390  29.158  1.00  0.00     0.049 A 
ATOM     37  N   UNL A   1      41.251  28.837  31.541  1.00  0.00    -0.248 NA
ATOM     38  C   UNL A   1      39.353  30.195  31.598  1.00  0.00     0.031 C 
ATOM     39  C   UNL A   1      39.443  26.699  28.005  1.00  0.00     0.029 A 
ATOM     40  N   UNL A   1      41.176  26.713  29.421  1.00  0.00    -0.354 N 
ATOM     41  C   UNL A   1      41.366  29.757  32.575  1.00  0.00     0.074 A 
ATOM     42  C   UNL A   1      40.184  30.587  32.551  1.00  0.00     0.031 C 
ATOM     43  C   UNL A   1      40.279  25.717  27.627  1.00  0.00     0.029 A 
ATOM     44  C   UNL A   1      41.459  25.747  28.486  1.00  0.00     0.049 A 
ATOM     45  H   UNL A   1      41.749  26.899  30.200  1.00  0.00     0.167 HD
ATOM     46  C   UNL A   1      42.376  29.891  33.463  1.00  0.00     0.034 A 
ATOM     47  C   UNL A   1      42.574  25.010  28.328  1.00  0.00     0.034 A 
ATOM     48  C   UNL A   1      43.536  29.046  33.461  1.00  0.00     0.049 A 
ATOM     49  C   UNL A   1      43.699  25.202  29.311  1.00  0.00     0.074 A 
ATOM     50  C   UNL A   1      44.614  29.060  34.323  1.00  0.00     0.029 A 
ATOM     51  N   UNL A   1      43.771  28.040  32.534  1.00  0.00    -0.354 N 
ATOM     52  N   UNL A   1      43.770  26.019  30.336  1.00  0.00    -0.248 NA
ATOM     53  C   UNL A   1      44.886  24.356  29.133  1.00  0.00     0.031 C 
ATOM     54  C   UNL A   1      45.520  28.085  33.894  1.00  0.00     0.029 A 
ATOM     55  C   UNL A   1      44.984  27.433  32.793  1.00  0.00     0.049 A 
ATOM     56  H   UNL A   1      43.163  27.796  31.799  1.00  0.00     0.167 HD
ATOM     57  C   UNL A   1      44.990  25.758  30.950  1.00  0.00     0.074 A 
ATOM     58  C   UNL A   1      45.617  24.697  30.185  1.00  0.00     0.031 C 
ATOM     59  C   UNL A   1      45.551  26.345  32.037  1.00  0.00     0.034 A 
BRANCH  46  60
ATOM     60  C   UNL A   1      42.269  30.990  34.485  1.00  0.00     0.023 A 
ATOM     61  C   UNL A   1      41.838  30.699  35.795  1.00  0.00     0.012 A 
ATOM     62  C   UNL A   1      42.618  32.313  34.152  1.00  0.00     0.148 A 
ATOM     63  C   UNL A   1      41.725  31.711  36.747  1.00  0.00     0.002 A 
ATOM     64  C   UNL A   1      42.549  33.308  35.119  1.00  0.00     0.091 A 
ATOM     65  F   UNL A   1      42.995  32.576  32.892  1.00  0.00    -0.205 F 
ATOM     66  C   UNL A   1      42.090  33.012  36.412  1.00  0.00     0.022 A 
BRANCH  64  67
ATOM     67  S   UNL A   1      43.068  34.999  34.808  1.00  0.00     0.127 S 
ATOM     68  O   UNL A   1      44.492  34.825  34.527  1.00  0.00    -0.237 OA
ATOM     69  O   UNL A   1      42.256  35.358  33.645  1.00  0.00    -0.237 OA
ATOM     70  O   UNL A   1      42.760  35.745  36.020  1.00  0.00    -0.744 OA
ENDBRANCH  64  67
ENDBRANCH  46  60
BRANCH  47  71
ATOM     71  C   UNL A   1      42.669  24.028  27.212  1.00  0.00     0.023 A 
ATOM     72  C   UNL A   1      43.325  24.393  26.022  1.00  0.00     0.012 A 
ATOM     73  C   UNL A   1      42.138  22.729  27.334  1.00  0.00     0.148 A 
ATOM     74  C   UNL A   1      43.422  23.493  24.959  1.00  0.00     0.002 A 
ATOM     75  C   UNL A   1      42.286  21.820  26.293  1.00  0.00     0.091 A 
ATOM     76  F   UNL A   1      41.507  22.405  28.471  1.00  0.00    -0.205 F 
ATOM     77  C   UNL A   1      42.912  22.205  25.098  1.00  0.00     0.022 A 
BRANCH  75  78
ATOM     78  S   UNL A   1      41.766  20.105  26.428  1.00  0.00     0.127 S 
ATOM     79  O   UNL A   1      40.313  20.238  26.498  1.00  0.00    -0.237 OA
ATOM     80  O   UNL A   1      42.273  19.538  25.178  1.00  0.00    -0.237 OA
ATOM     81  O   UNL A   1      42.412  19.590  27.628  1.00  0.00    -0.744 OA
ENDBRANCH  75  78
ENDBRANCH  47  71
BRANCH  59  82
ATOM     82  C   UNL A   1      46.882  25.817  32.498  1.00  0.00     0.023 A 
ATOM     83  C   UNL A   1      48.074  26.375  31.999  1.00  0.00     0.012 A 
ATOM     84  C   UNL A   1      46.942  24.827  33.498  1.00  0.00     0.148 A 
ATOM     85  C   UNL A   1      49.310  25.931  32.466  1.00  0.00     0.002 A 
ATOM     86  C   UNL A   1      48.174  24.431  34.000  1.00  0.00     0.091 A 
ATOM     87  F   UNL A   1      45.793  24.301  33.947  1.00  0.00    -0.205 F 
ATOM     88  C   UNL A   1      49.359  24.972  33.475  1.00  0.00     0.022 A 
BRANCH  86  89
ATOM     89  S   UNL A   1      48.330  23.283  35.371  1.00  0.00     0.127 S 
ATOM     90  O   UNL A   1      49.779  23.215  35.539  1.00  0.00    -0.237 OA
ATOM     91  O   UNL A   1      47.623  23.985  36.442  1.00  0.00    -0.237 OA
ATOM     92  O   UNL A   1      47.694  22.046  34.936  1.00  0.00    -0.744 OA
ENDBRANCH  86  89
ENDBRANCH  59  82
ENDBRANCH  33  34
ENDBRANCH  26  28
ENDBRANCH  25  26
ENDBRANCH  24  25
ENDBRANCH   1  24
TORSDOF 20
ENDMDL
