MODEL 1
REMARK VINA RESULT:     -12.1      0.000      0.000
REMARK SMILES Cc1[nH]c2ccccc2c1[C@@H](C(=O)OCCOC(=O)c1ccc(-c2c3nc(c(-c4cccc(S(=O)(=O)[O-])c4F)c4ccc([nH]4)c(-c4cccc(S(=O)(=O)[O-])c4F)c4nc(c(-c5cccc(S(=O)(=O)[O-])c5F)c5ccc2[nH]5)C=C4)C=C3)cc1)[NH+]1CCCC1
REMARK SMILES IDX 16 1 15 2 14 3 12 4 13 5 11 6 10 7 1 8 2 9 3 10 4 11 9 13
REMARK SMILES IDX 5 14 8 15 6 16 7 17 83 18 84 19 87 20 85 22 86 23 17 24
REMARK SMILES IDX 18 25 19 26 20 27 21 28 82 29 22 30 81 31 23 32 24 33 25 34
REMARK SMILES IDX 75 35 26 36 80 37 74 38 76 39 27 40 79 41 73 42 72 43 28 45
REMARK SMILES IDX 60 46 40 47 59 48 41 49 44 50 58 51 77 52 42 53 43 54 57 56
REMARK SMILES IDX 78 57 45 58 29 59 30 60 38 61 31 62 33 63 39 64 32 65 34 66
REMARK SMILES IDX 35 67 36 68 37 69 61 70 62 71 70 72 63 73 65 74 71 75 64 76
REMARK SMILES IDX 66 77 67 78 68 79 69 80 46 81 47 82 55 83 48 84 50 85 56 86
REMARK SMILES IDX 49 87 51 88 52 89 53 90 54 91
REMARK H PARENT 3 12 83 21 76 44 44 55
REMARK Flexibility Score: inf
ROOT
ATOM      1  C   UNL A   1      31.433  29.570  26.505  1.00  0.00     0.275 C 
ENDROOT
BRANCH   1   2
ATOM      2  C   UNL A   1      31.663  28.339  27.378  1.00  0.00     0.274 C 
BRANCH   2   3
ATOM      3  O   UNL A   1      32.123  27.211  26.606  1.00  0.00    -0.457 OA
BRANCH   3   4
ATOM      4  C   UNL A   1      31.224  26.714  25.706  1.00  0.00     0.370 C 
ATOM      5  O   UNL A   1      30.200  26.122  26.048  1.00  0.00    -0.245 OA
BRANCH   4   6
ATOM      6  C   UNL A   1      31.700  26.771  24.245  1.00  0.00     0.328 C 
BRANCH   6   7
ATOM      7  C   UNL A   1      31.353  28.000  23.428  1.00  0.00     0.049 A 
ATOM      8  C   UNL A   1      33.786  28.797  22.818  1.00  0.00     0.065 C 
ATOM      9  C   UNL A   1      32.299  28.816  22.802  1.00  0.00     0.022 A 
ATOM     10  N   UNL A   1      31.630  29.724  22.028  1.00  0.00    -0.358 N 
ATOM     11  C   UNL A   1      30.275  29.567  22.156  1.00  0.00     0.046 A 
ATOM     12  H   UNL A   1      32.062  30.399  21.457  1.00  0.00     0.166 HD
ATOM     13  C   UNL A   1      30.062  28.560  23.098  1.00  0.00     0.009 A 
ATOM     14  C   UNL A   1      29.237  30.242  21.501  1.00  0.00     0.027 A 
ATOM     15  C   UNL A   1      28.723  28.283  23.457  1.00  0.00     0.011 A 
ATOM     16  C   UNL A   1      27.926  29.893  21.826  1.00  0.00     0.002 A 
ATOM     17  C   UNL A   1      27.670  28.939  22.805  1.00  0.00     0.001 A 
ENDBRANCH   6   7
BRANCH   6  18
ATOM     18  N   UNL A   1      31.530  25.473  23.540  1.00  0.00    -0.319 N 
ATOM     19  C   UNL A   1      32.415  24.400  23.987  1.00  0.00     0.263 C 
ATOM     20  C   UNL A   1      31.600  25.446  22.086  1.00  0.00     0.263 C 
ATOM     21  H   UNL A   1      30.561  25.322  23.817  1.00  0.00     0.349 HD
ATOM     22  C   UNL A   1      33.553  24.344  22.982  1.00  0.00     0.067 C 
ATOM     23  C   UNL A   1      32.980  24.931  21.703  1.00  0.00     0.067 C 
ENDBRANCH   6  18
ENDBRANCH   4   6
ENDBRANCH   3   4
ENDBRANCH   2   3
ENDBRANCH   1   2
BRANCH   1  24
ATOM     24  O   UNL A   1      32.695  30.146  26.138  1.00  0.00    -0.458 OA
BRANCH  24  25
ATOM     25  C   UNL A   1      33.133  31.166  26.912  1.00  0.00     0.338 C 
ATOM     26  O   UNL A   1      32.504  32.168  27.209  1.00  0.00    -0.246 OA
BRANCH  25  27
ATOM     27  C   UNL A   1      34.496  30.883  27.433  1.00  0.00     0.060 A 
ATOM     28  C   UNL A   1      34.961  29.580  27.587  1.00  0.00     0.016 A 
ATOM     29  C   UNL A   1      35.281  31.943  27.892  1.00  0.00     0.016 A 
ATOM     30  C   UNL A   1      36.139  29.335  28.296  1.00  0.00     0.010 A 
ATOM     31  C   UNL A   1      36.512  31.693  28.517  1.00  0.00     0.010 A 
ATOM     32  C   UNL A   1      36.937  30.381  28.780  1.00  0.00    -0.014 A 
BRANCH  32  33
ATOM     33  C   UNL A   1      38.171  30.105  29.585  1.00  0.00     0.031 A 
ATOM     34  C   UNL A   1      39.294  29.265  29.017  1.00  0.00     0.074 A 
ATOM     35  C   UNL A   1      38.310  30.600  30.835  1.00  0.00     0.049 A 
ATOM     36  N   UNL A   1      40.325  28.739  29.632  1.00  0.00    -0.248 NA
ATOM     37  C   UNL A   1      39.245  28.957  27.579  1.00  0.00     0.031 C 
ATOM     38  C   UNL A   1      37.332  31.435  31.531  1.00  0.00     0.029 A 
ATOM     39  N   UNL A   1      39.337  30.473  31.742  1.00  0.00    -0.354 N 
ATOM     40  C   UNL A   1      40.978  27.953  28.688  1.00  0.00     0.074 A 
ATOM     41  C   UNL A   1      40.246  28.096  27.448  1.00  0.00     0.031 C 
ATOM     42  C   UNL A   1      37.825  31.795  32.724  1.00  0.00     0.029 A 
ATOM     43  C   UNL A   1      39.105  31.129  32.930  1.00  0.00     0.049 A 
ATOM     44  H   UNL A   1      40.158  29.962  31.560  1.00  0.00     0.167 HD
ATOM     45  C   UNL A   1      42.088  27.189  28.836  1.00  0.00     0.034 A 
ATOM     46  C   UNL A   1      39.809  31.163  34.079  1.00  0.00     0.034 A 
ATOM     47  C   UNL A   1      42.893  27.142  30.029  1.00  0.00     0.049 A 
ATOM     48  C   UNL A   1      41.074  30.366  34.196  1.00  0.00     0.074 A 
ATOM     49  C   UNL A   1      44.058  26.426  30.253  1.00  0.00     0.029 A 
ATOM     50  N   UNL A   1      42.646  27.865  31.185  1.00  0.00    -0.354 N 
ATOM     51  N   UNL A   1      41.663  29.619  33.295  1.00  0.00    -0.248 NA
ATOM     52  C   UNL A   1      41.770  30.411  35.490  1.00  0.00     0.031 C 
ATOM     53  C   UNL A   1      44.518  26.723  31.541  1.00  0.00     0.029 A 
ATOM     54  C   UNL A   1      43.643  27.626  32.118  1.00  0.00     0.049 A 
ATOM     55  H   UNL A   1      41.875  28.461  31.324  1.00  0.00     0.167 HD
ATOM     56  C   UNL A   1      42.796  29.104  33.912  1.00  0.00     0.074 A 
ATOM     57  C   UNL A   1      42.837  29.661  35.248  1.00  0.00     0.031 C 
ATOM     58  C   UNL A   1      43.701  28.218  33.428  1.00  0.00     0.034 A 
BRANCH  45  59
ATOM     59  C   UNL A   1      42.536  26.352  27.665  1.00  0.00     0.023 A 
ATOM     60  C   UNL A   1      43.477  26.868  26.753  1.00  0.00     0.012 A 
ATOM     61  C   UNL A   1      42.102  25.017  27.529  1.00  0.00     0.148 A 
ATOM     62  C   UNL A   1      43.964  26.076  25.713  1.00  0.00     0.002 A 
ATOM     63  C   UNL A   1      42.624  24.221  26.515  1.00  0.00     0.091 A 
ATOM     64  F   UNL A   1      41.189  24.550  28.392  1.00  0.00    -0.205 F 
ATOM     65  C   UNL A   1      43.549  24.751  25.602  1.00  0.00     0.022 A 
BRANCH  63  66
ATOM     66  S   UNL A   1      42.213  22.478  26.356  1.00  0.00     0.127 S 
ATOM     67  O   UNL A   1      42.727  21.936  27.613  1.00  0.00    -0.237 OA
ATOM     68  O   UNL A   1      40.753  22.507  26.258  1.00  0.00    -0.237 OA
ATOM     69  O   UNL A   1      42.888  22.022  25.149  1.00  0.00    -0.744 OA
ENDBRANCH  63  66
ENDBRANCH  45  59
BRANCH  46  70
ATOM     70  C   UNL A   1      39.319  32.003  35.210  1.00  0.00     0.023 A 
ATOM     71  C   UNL A   1      38.515  31.418  36.207  1.00  0.00     0.012 A 
ATOM     72  C   UNL A   1      39.715  33.346  35.351  1.00  0.00     0.148 A 
ATOM     73  C   UNL A   1      38.115  32.158  37.321  1.00  0.00     0.002 A 
ATOM     74  C   UNL A   1      39.378  34.052  36.498  1.00  0.00     0.091 A 
ATOM     75  F   UNL A   1      40.448  33.902  34.374  1.00  0.00    -0.205 F 
ATOM     76  C   UNL A   1      38.565  33.466  37.478  1.00  0.00     0.022 A 
BRANCH  74  77
ATOM     77  S   UNL A   1      40.092  35.665  36.843  1.00  0.00     0.127 S 
ATOM     78  O   UNL A   1      39.595  36.462  35.727  1.00  0.00    -0.237 OA
ATOM     79  O   UNL A   1      39.509  35.995  38.145  1.00  0.00    -0.237 OA
ATOM     80  O   UNL A   1      41.532  35.438  36.884  1.00  0.00    -0.744 OA
ENDBRANCH  74  77
ENDBRANCH  46  70
BRANCH  58  81
ATOM     81  C   UNL A   1      44.812  27.797  34.350  1.00  0.00     0.023 A 
ATOM     82  C   UNL A   1      46.018  28.525  34.352  1.00  0.00     0.012 A 
ATOM     83  C   UNL A   1      44.658  26.711  35.233  1.00  0.00     0.148 A 
ATOM     84  C   UNL A   1      47.068  28.158  35.193  1.00  0.00     0.002 A 
ATOM     85  C   UNL A   1      45.697  26.372  36.094  1.00  0.00     0.091 A 
ATOM     86  F   UNL A   1      43.513  26.014  35.202  1.00  0.00    -0.205 F 
ATOM     87  C   UNL A   1      46.904  27.087  36.069  1.00  0.00     0.022 A 
BRANCH  85  88
ATOM     88  S   UNL A   1      45.532  25.048  37.297  1.00  0.00     0.127 S 
ATOM     89  O   UNL A   1      46.833  25.080  37.961  1.00  0.00    -0.237 OA
ATOM     90  O   UNL A   1      44.414  25.505  38.126  1.00  0.00    -0.237 OA
ATOM     91  O   UNL A   1      45.245  23.850  36.519  1.00  0.00    -0.744 OA
ENDBRANCH  85  88
ENDBRANCH  58  81
ENDBRANCH  32  33
ENDBRANCH  25  27
ENDBRANCH  24  25
ENDBRANCH   1  24
TORSDOF 16
ENDMDL
MODEL 2
REMARK VINA RESULT:     -12.1      5.535     10.229
REMARK SMILES Cc1[nH]c2ccccc2c1[C@@H](C(=O)OCCOC(=O)c1ccc(-c2c3nc(c(-c4cccc(S(=O)(=O)[O-])c4F)c4ccc([nH]4)c(-c4cccc(S(=O)(=O)[O-])c4F)c4nc(c(-c5cccc(S(=O)(=O)[O-])c5F)c5ccc2[nH]5)C=C4)C=C3)cc1)[NH+]1CCCC1
REMARK SMILES IDX 16 1 15 2 14 3 12 4 13 5 11 6 10 7 1 8 2 9 3 10 4 11 9 13
REMARK SMILES IDX 5 14 8 15 6 16 7 17 83 18 84 19 87 20 85 22 86 23 17 24
REMARK SMILES IDX 18 25 19 26 20 27 21 28 82 29 22 30 81 31 23 32 24 33 25 34
REMARK SMILES IDX 75 35 26 36 80 37 74 38 76 39 27 40 79 41 73 42 72 43 28 45
REMARK SMILES IDX 60 46 40 47 59 48 41 49 44 50 58 51 77 52 42 53 43 54 57 56
REMARK SMILES IDX 78 57 45 58 29 59 30 60 38 61 31 62 33 63 39 64 32 65 34 66
REMARK SMILES IDX 35 67 36 68 37 69 61 70 62 71 70 72 63 73 65 74 71 75 64 76
REMARK SMILES IDX 66 77 67 78 68 79 69 80 46 81 47 82 55 83 48 84 50 85 56 86
REMARK SMILES IDX 49 87 51 88 52 89 53 90 54 91
REMARK H PARENT 3 12 83 21 76 44 44 55
REMARK Flexibility Score: inf
ROOT
ATOM      1  C   UNL A   1      36.983  21.281  24.429  1.00  0.00     0.275 C 
ENDROOT
BRANCH   1   2
ATOM      2  C   UNL A   1      36.742  22.496  23.537  1.00  0.00     0.274 C 
BRANCH   2   3
ATOM      3  O   UNL A   1      35.914  23.483  24.186  1.00  0.00    -0.457 OA
BRANCH   3   4
ATOM      4  C   UNL A   1      34.627  23.553  23.735  1.00  0.00     0.370 C 
ATOM      5  O   UNL A   1      34.337  23.975  22.616  1.00  0.00    -0.245 OA
BRANCH   4   6
ATOM      6  C   UNL A   1      33.567  23.260  24.811  1.00  0.00     0.328 C 
BRANCH   6   7
ATOM      7  C   UNL A   1      33.490  21.855  25.375  1.00  0.00     0.049 A 
ATOM      8  C   UNL A   1      34.124  22.373  27.876  1.00  0.00     0.065 C 
ATOM      9  C   UNL A   1      33.704  21.539  26.719  1.00  0.00     0.022 A 
ATOM     10  N   UNL A   1      33.396  20.217  26.897  1.00  0.00    -0.358 N 
ATOM     11  C   UNL A   1      33.031  19.638  25.710  1.00  0.00     0.046 A 
ATOM     12  H   UNL A   1      33.432  19.746  27.760  1.00  0.00     0.166 HD
ATOM     13  C   UNL A   1      33.171  20.609  24.716  1.00  0.00     0.009 A 
ATOM     14  C   UNL A   1      32.588  18.334  25.458  1.00  0.00     0.027 A 
ATOM     15  C   UNL A   1      32.929  20.208  23.383  1.00  0.00     0.011 A 
ATOM     16  C   UNL A   1      32.288  17.992  24.138  1.00  0.00     0.002 A 
ATOM     17  C   UNL A   1      32.473  18.910  23.111  1.00  0.00     0.001 A 
ENDBRANCH   6   7
BRANCH   6  18
ATOM     18  N   UNL A   1      32.257  23.894  24.506  1.00  0.00    -0.319 N 
ATOM     19  C   UNL A   1      32.143  25.301  24.879  1.00  0.00     0.263 C 
ATOM     20  C   UNL A   1      31.039  23.266  25.000  1.00  0.00     0.263 C 
ATOM     21  H   UNL A   1      32.301  23.758  23.496  1.00  0.00     0.349 HD
ATOM     22  C   UNL A   1      31.398  25.328  26.203  1.00  0.00     0.067 C 
ATOM     23  C   UNL A   1      30.590  24.042  26.229  1.00  0.00     0.067 C 
ENDBRANCH   6  18
ENDBRANCH   4   6
ENDBRANCH   3   4
ENDBRANCH   2   3
ENDBRANCH   1   2
BRANCH   1  24
ATOM     24  O   UNL A   1      37.395  21.713  25.734  1.00  0.00    -0.458 OA
BRANCH  24  25
ATOM     25  C   UNL A   1      38.713  21.587  26.016  1.00  0.00     0.338 C 
ATOM     26  O   UNL A   1      39.426  20.640  25.727  1.00  0.00    -0.246 OA
BRANCH  25  27
ATOM     27  C   UNL A   1      39.227  22.812  26.682  1.00  0.00     0.060 A 
ATOM     28  C   UNL A   1      38.659  24.061  26.449  1.00  0.00     0.016 A 
ATOM     29  C   UNL A   1      40.380  22.726  27.466  1.00  0.00     0.016 A 
ATOM     30  C   UNL A   1      39.302  25.219  26.893  1.00  0.00     0.010 A 
ATOM     31  C   UNL A   1      40.966  23.887  27.991  1.00  0.00     0.010 A 
ATOM     32  C   UNL A   1      40.469  25.160  27.667  1.00  0.00    -0.014 A 
BRANCH  32  33
ATOM     33  C   UNL A   1      41.180  26.409  28.093  1.00  0.00     0.031 A 
ATOM     34  C   UNL A   1      40.469  27.463  28.915  1.00  0.00     0.074 A 
ATOM     35  C   UNL A   1      42.470  26.623  27.757  1.00  0.00     0.049 A 
ATOM     36  N   UNL A   1      40.840  28.690  29.184  1.00  0.00    -0.248 NA
ATOM     37  C   UNL A   1      39.164  27.102  29.490  1.00  0.00     0.031 C 
ATOM     38  C   UNL A   1      43.308  25.710  26.980  1.00  0.00     0.029 A 
ATOM     39  N   UNL A   1      43.307  27.681  28.030  1.00  0.00    -0.354 N 
ATOM     40  C   UNL A   1      39.774  29.277  29.859  1.00  0.00     0.074 A 
ATOM     41  C   UNL A   1      38.751  28.261  29.987  1.00  0.00     0.031 C 
ATOM     42  C   UNL A   1      44.547  26.211  26.890  1.00  0.00     0.029 A 
ATOM     43  C   UNL A   1      44.571  27.534  27.503  1.00  0.00     0.049 A 
ATOM     44  H   UNL A   1      43.029  28.468  28.552  1.00  0.00     0.167 HD
ATOM     45  C   UNL A   1      39.659  30.541  30.333  1.00  0.00     0.034 A 
ATOM     46  C   UNL A   1      45.624  28.374  27.469  1.00  0.00     0.034 A 
ATOM     47  C   UNL A   1      40.718  31.517  30.323  1.00  0.00     0.049 A 
ATOM     48  C   UNL A   1      45.496  29.744  28.066  1.00  0.00     0.074 A 
ATOM     49  C   UNL A   1      40.701  32.810  30.820  1.00  0.00     0.029 A 
ATOM     50  N   UNL A   1      41.994  31.301  29.827  1.00  0.00    -0.354 N 
ATOM     51  N   UNL A   1      44.474  30.282  28.684  1.00  0.00    -0.248 NA
ATOM     52  C   UNL A   1      46.666  30.627  27.957  1.00  0.00     0.031 C 
ATOM     53  C   UNL A   1      41.969  33.372  30.632  1.00  0.00     0.029 A 
ATOM     54  C   UNL A   1      42.776  32.429  30.021  1.00  0.00     0.049 A 
ATOM     55  H   UNL A   1      42.300  30.469  29.399  1.00  0.00     0.167 HD
ATOM     56  C   UNL A   1      44.875  31.565  29.036  1.00  0.00     0.074 A 
ATOM     57  C   UNL A   1      46.249  31.708  28.603  1.00  0.00     0.031 C 
ATOM     58  C   UNL A   1      44.156  32.548  29.628  1.00  0.00     0.034 A 
BRANCH  45  59
ATOM     59  C   UNL A   1      38.344  30.953  30.947  1.00  0.00     0.023 A 
ATOM     60  C   UNL A   1      38.133  30.788  32.328  1.00  0.00     0.012 A 
ATOM     61  C   UNL A   1      37.361  31.599  30.168  1.00  0.00     0.148 A 
ATOM     62  C   UNL A   1      36.954  31.240  32.924  1.00  0.00     0.002 A 
ATOM     63  C   UNL A   1      36.208  32.084  30.776  1.00  0.00     0.091 A 
ATOM     64  F   UNL A   1      37.569  31.726  28.850  1.00  0.00    -0.205 F 
ATOM     65  C   UNL A   1      36.000  31.900  32.153  1.00  0.00     0.022 A 
BRANCH  63  66
ATOM     66  S   UNL A   1      34.971  33.026  29.874  1.00  0.00     0.127 S 
ATOM     67  O   UNL A   1      34.430  32.013  28.969  1.00  0.00    -0.237 OA
ATOM     68  O   UNL A   1      34.056  33.442  30.938  1.00  0.00    -0.237 OA
ATOM     69  O   UNL A   1      35.692  34.120  29.240  1.00  0.00    -0.744 OA
ENDBRANCH  63  66
ENDBRANCH  45  59
BRANCH  46  70
ATOM     70  C   UNL A   1      46.900  27.920  26.846  1.00  0.00     0.023 A 
ATOM     71  C   UNL A   1      47.848  27.237  27.632  1.00  0.00     0.012 A 
ATOM     72  C   UNL A   1      47.142  28.082  25.469  1.00  0.00     0.148 A 
ATOM     73  C   UNL A   1      49.011  26.725  27.056  1.00  0.00     0.002 A 
ATOM     74  C   UNL A   1      48.263  27.504  24.889  1.00  0.00     0.091 A 
ATOM     75  F   UNL A   1      46.250  28.771  24.740  1.00  0.00    -0.205 F 
ATOM     76  C   UNL A   1      49.208  26.838  25.682  1.00  0.00     0.022 A 
BRANCH  74  77
ATOM     77  S   UNL A   1      48.465  27.447  23.104  1.00  0.00     0.127 S 
ATOM     78  O   UNL A   1      49.790  28.033  22.930  1.00  0.00    -0.237 OA
ATOM     79  O   UNL A   1      48.383  26.013  22.824  1.00  0.00    -0.237 OA
ATOM     80  O   UNL A   1      47.345  28.215  22.575  1.00  0.00    -0.744 OA
ENDBRANCH  74  77
ENDBRANCH  46  70
BRANCH  58  81
ATOM     81  C   UNL A   1      44.844  33.868  29.844  1.00  0.00     0.023 A 
ATOM     82  C   UNL A   1      45.552  34.088  31.042  1.00  0.00     0.012 A 
ATOM     83  C   UNL A   1      44.821  34.874  28.859  1.00  0.00     0.148 A 
ATOM     84  C   UNL A   1      46.198  35.303  31.273  1.00  0.00     0.002 A 
ATOM     85  C   UNL A   1      45.497  36.070  29.082  1.00  0.00     0.091 A 
ATOM     86  F   UNL A   1      44.124  34.659  27.735  1.00  0.00    -0.205 F 
ATOM     87  C   UNL A   1      46.178  36.289  30.290  1.00  0.00     0.022 A 
BRANCH  85  88
ATOM     88  S   UNL A   1      45.571  37.359  27.833  1.00  0.00     0.127 S 
ATOM     89  O   UNL A   1      44.162  37.713  27.681  1.00  0.00    -0.237 OA
ATOM     90  O   UNL A   1      46.390  38.387  28.482  1.00  0.00    -0.237 OA
ATOM     91  O   UNL A   1      46.201  36.741  26.673  1.00  0.00    -0.744 OA
ENDBRANCH  85  88
ENDBRANCH  58  81
ENDBRANCH  32  33
ENDBRANCH  25  27
ENDBRANCH  24  25
ENDBRANCH   1  24
TORSDOF 16
ENDMDL
MODEL 3
REMARK VINA RESULT:     -11.9      5.100     10.187
REMARK SMILES Cc1[nH]c2ccccc2c1[C@@H](C(=O)OCCOC(=O)c1ccc(-c2c3nc(c(-c4cccc(S(=O)(=O)[O-])c4F)c4ccc([nH]4)c(-c4cccc(S(=O)(=O)[O-])c4F)c4nc(c(-c5cccc(S(=O)(=O)[O-])c5F)c5ccc2[nH]5)C=C4)C=C3)cc1)[NH+]1CCCC1
REMARK SMILES IDX 16 1 15 2 14 3 12 4 13 5 11 6 10 7 1 8 2 9 3 10 4 11 9 13
REMARK SMILES IDX 5 14 8 15 6 16 7 17 83 18 84 19 87 20 85 22 86 23 17 24
REMARK SMILES IDX 18 25 19 26 20 27 21 28 82 29 22 30 81 31 23 32 24 33 25 34
REMARK SMILES IDX 75 35 26 36 80 37 74 38 76 39 27 40 79 41 73 42 72 43 28 45
REMARK SMILES IDX 60 46 40 47 59 48 41 49 44 50 58 51 77 52 42 53 43 54 57 56
REMARK SMILES IDX 78 57 45 58 29 59 30 60 38 61 31 62 33 63 39 64 32 65 34 66
REMARK SMILES IDX 35 67 36 68 37 69 61 70 62 71 70 72 63 73 65 74 71 75 64 76
REMARK SMILES IDX 66 77 67 78 68 79 69 80 46 81 47 82 55 83 48 84 50 85 56 86
REMARK SMILES IDX 49 87 51 88 52 89 53 90 54 91
REMARK H PARENT 3 12 83 21 76 44 44 55
REMARK Flexibility Score: inf
ROOT
ATOM      1  C   UNL A   1      36.847  21.385  23.962  1.00  0.00     0.275 C 
ENDROOT
BRANCH   1   2
ATOM      2  C   UNL A   1      36.613  22.741  23.300  1.00  0.00     0.274 C 
BRANCH   2   3
ATOM      3  O   UNL A   1      35.755  23.585  24.095  1.00  0.00    -0.457 OA
BRANCH   3   4
ATOM      4  C   UNL A   1      34.457  23.659  23.675  1.00  0.00     0.370 C 
ATOM      5  O   UNL A   1      34.137  24.134  22.585  1.00  0.00    -0.245 OA
BRANCH   4   6
ATOM      6  C   UNL A   1      33.426  23.294  24.756  1.00  0.00     0.328 C 
BRANCH   6   7
ATOM      7  C   UNL A   1      33.431  21.879  25.301  1.00  0.00     0.049 A 
ATOM      8  C   UNL A   1      34.197  22.384  27.767  1.00  0.00     0.065 C 
ATOM      9  C   UNL A   1      33.736  21.552  26.624  1.00  0.00     0.022 A 
ATOM     10  N   UNL A   1      33.484  20.218  26.799  1.00  0.00    -0.358 N 
ATOM     11  C   UNL A   1      33.068  19.644  25.627  1.00  0.00     0.046 A 
ATOM     12  H   UNL A   1      33.588  19.737  27.650  1.00  0.00     0.166 HD
ATOM     13  C   UNL A   1      33.114  20.632  24.642  1.00  0.00     0.009 A 
ATOM     14  C   UNL A   1      32.654  18.329  25.381  1.00  0.00     0.027 A 
ATOM     15  C   UNL A   1      32.805  20.242  23.319  1.00  0.00     0.011 A 
ATOM     16  C   UNL A   1      32.287  17.995  24.077  1.00  0.00     0.002 A 
ATOM     17  C   UNL A   1      32.377  18.933  23.055  1.00  0.00     0.001 A 
ENDBRANCH   6   7
BRANCH   6  18
ATOM     18  N   UNL A   1      32.080  23.860  24.471  1.00  0.00    -0.319 N 
ATOM     19  C   UNL A   1      31.946  25.296  24.697  1.00  0.00     0.263 C 
ATOM     20  C   UNL A   1      30.915  23.261  25.109  1.00  0.00     0.263 C 
ATOM     21  H   UNL A   1      32.064  23.616  23.482  1.00  0.00     0.349 HD
ATOM     22  C   UNL A   1      31.286  25.451  26.058  1.00  0.00     0.067 C 
ATOM     23  C   UNL A   1      30.521  24.156  26.275  1.00  0.00     0.067 C 
ENDBRANCH   6  18
ENDBRANCH   4   6
ENDBRANCH   3   4
ENDBRANCH   2   3
ENDBRANCH   1   2
BRANCH   1  24
ATOM     24  O   UNL A   1      37.090  21.567  25.364  1.00  0.00    -0.458 OA
BRANCH  24  25
ATOM     25  C   UNL A   1      38.344  21.291  25.794  1.00  0.00     0.338 C 
ATOM     26  O   UNL A   1      38.947  20.243  25.634  1.00  0.00    -0.246 OA
BRANCH  25  27
ATOM     27  C   UNL A   1      38.949  22.481  26.448  1.00  0.00     0.060 A 
ATOM     28  C   UNL A   1      38.391  23.749  26.313  1.00  0.00     0.016 A 
ATOM     29  C   UNL A   1      40.170  22.343  27.111  1.00  0.00     0.016 A 
ATOM     30  C   UNL A   1      39.102  24.876  26.730  1.00  0.00     0.010 A 
ATOM     31  C   UNL A   1      40.832  23.473  27.615  1.00  0.00     0.010 A 
ATOM     32  C   UNL A   1      40.337  24.766  27.385  1.00  0.00    -0.014 A 
BRANCH  32  33
ATOM     33  C   UNL A   1      41.115  25.984  27.780  1.00  0.00     0.031 A 
ATOM     34  C   UNL A   1      40.496  27.046  28.664  1.00  0.00     0.074 A 
ATOM     35  C   UNL A   1      42.387  26.163  27.361  1.00  0.00     0.049 A 
ATOM     36  N   UNL A   1      40.925  28.256  28.926  1.00  0.00    -0.248 NA
ATOM     37  C   UNL A   1      39.221  26.716  29.321  1.00  0.00     0.031 C 
ATOM     38  C   UNL A   1      43.139  25.237  26.515  1.00  0.00     0.029 A 
ATOM     39  N   UNL A   1      43.275  27.188  27.593  1.00  0.00    -0.354 N 
ATOM     40  C   UNL A   1      39.926  28.864  29.680  1.00  0.00     0.074 A 
ATOM     41  C   UNL A   1      38.881  27.880  29.861  1.00  0.00     0.031 C 
ATOM     42  C   UNL A   1      44.386  25.701  26.350  1.00  0.00     0.029 A 
ATOM     43  C   UNL A   1      44.494  27.010  26.980  1.00  0.00     0.049 A 
ATOM     44  H   UNL A   1      43.058  27.975  28.144  1.00  0.00     0.167 HD
ATOM     45  C   UNL A   1      39.885  30.124  30.180  1.00  0.00     0.034 A 
ATOM     46  C   UNL A   1      45.570  27.817  26.888  1.00  0.00     0.034 A 
ATOM     47  C   UNL A   1      40.973  31.065  30.113  1.00  0.00     0.049 A 
ATOM     48  C   UNL A   1      45.527  29.180  27.513  1.00  0.00     0.074 A 
ATOM     49  C   UNL A   1      41.032  32.349  30.631  1.00  0.00     0.029 A 
ATOM     50  N   UNL A   1      42.204  30.817  29.529  1.00  0.00    -0.354 N 
ATOM     51  N   UNL A   1      44.567  29.739  28.207  1.00  0.00    -0.248 NA
ATOM     52  C   UNL A   1      46.716  30.027  27.338  1.00  0.00     0.031 C 
ATOM     53  C   UNL A   1      42.302  32.874  30.366  1.00  0.00     0.029 A 
ATOM     54  C   UNL A   1      43.035  31.916  29.687  1.00  0.00     0.049 A 
ATOM     55  H   UNL A   1      42.453  29.983  29.069  1.00  0.00     0.167 HD
ATOM     56  C   UNL A   1      45.033  31.002  28.550  1.00  0.00     0.074 A 
ATOM     57  C   UNL A   1      46.379  31.109  28.028  1.00  0.00     0.031 C 
ATOM     58  C   UNL A   1      44.388  31.998  29.204  1.00  0.00     0.034 A 
BRANCH  45  59
ATOM     59  C   UNL A   1      38.628  30.566  30.887  1.00  0.00     0.023 A 
ATOM     60  C   UNL A   1      38.523  30.426  32.284  1.00  0.00     0.012 A 
ATOM     61  C   UNL A   1      37.597  31.216  30.177  1.00  0.00     0.148 A 
ATOM     62  C   UNL A   1      37.402  30.907  32.962  1.00  0.00     0.002 A 
ATOM     63  C   UNL A   1      36.503  31.730  30.865  1.00  0.00     0.091 A 
ATOM     64  F   UNL A   1      37.703  31.319  28.845  1.00  0.00    -0.205 F 
ATOM     65  C   UNL A   1      36.400  31.570  32.256  1.00  0.00     0.022 A 
BRANCH  63  66
ATOM     66  S   UNL A   1      35.213  32.677  30.046  1.00  0.00     0.127 S 
ATOM     67  O   UNL A   1      34.292  32.939  31.151  1.00  0.00    -0.237 OA
ATOM     68  O   UNL A   1      35.941  33.853  29.569  1.00  0.00    -0.237 OA
ATOM     69  O   UNL A   1      34.703  31.816  28.989  1.00  0.00    -0.744 OA
ENDBRANCH  63  66
ENDBRANCH  45  59
BRANCH  46  70
ATOM     70  C   UNL A   1      46.786  27.334  26.173  1.00  0.00     0.023 A 
ATOM     71  C   UNL A   1      46.987  27.697  24.828  1.00  0.00     0.012 A 
ATOM     72  C   UNL A   1      47.782  26.595  26.839  1.00  0.00     0.148 A 
ATOM     73  C   UNL A   1      48.157  27.332  24.161  1.00  0.00     0.002 A 
ATOM     74  C   UNL A   1      48.976  26.301  26.193  1.00  0.00     0.091 A 
ATOM     75  F   UNL A   1      47.559  26.221  28.108  1.00  0.00    -0.205 F 
ATOM     76  C   UNL A   1      49.160  26.654  24.849  1.00  0.00     0.022 A 
BRANCH  74  77
ATOM     77  S   UNL A   1      50.373  25.611  27.087  1.00  0.00     0.127 S 
ATOM     78  O   UNL A   1      51.378  25.491  26.035  1.00  0.00    -0.237 OA
ATOM     79  O   UNL A   1      50.649  26.644  28.087  1.00  0.00    -0.237 OA
ATOM     80  O   UNL A   1      49.878  24.362  27.652  1.00  0.00    -0.744 OA
ENDBRANCH  74  77
ENDBRANCH  46  70
BRANCH  58  81
ATOM     81  C   UNL A   1      45.132  33.292  29.393  1.00  0.00     0.023 A 
ATOM     82  C   UNL A   1      46.010  33.428  30.486  1.00  0.00     0.012 A 
ATOM     83  C   UNL A   1      44.993  34.355  28.481  1.00  0.00     0.148 A 
ATOM     84  C   UNL A   1      46.713  34.615  30.690  1.00  0.00     0.002 A 
ATOM     85  C   UNL A   1      45.723  35.524  28.671  1.00  0.00     0.091 A 
ATOM     86  F   UNL A   1      44.136  34.219  27.459  1.00  0.00    -0.205 F 
ATOM     87  C   UNL A   1      46.575  35.660  29.778  1.00  0.00     0.022 A 
BRANCH  85  88
ATOM     88  S   UNL A   1      45.648  36.885  27.501  1.00  0.00     0.127 S 
ATOM     89  O   UNL A   1      46.122  38.005  28.310  1.00  0.00    -0.237 OA
ATOM     90  O   UNL A   1      46.577  36.457  26.452  1.00  0.00    -0.237 OA
ATOM     91  O   UNL A   1      44.257  36.954  27.073  1.00  0.00    -0.744 OA
ENDBRANCH  85  88
ENDBRANCH  58  81
ENDBRANCH  32  33
ENDBRANCH  25  27
ENDBRANCH  24  25
ENDBRANCH   1  24
TORSDOF 16
ENDMDL
