MODEL 1
REMARK VINA RESULT:     -11.4      0.000      0.000
REMARK SMILES Cc1ccccc1OCCC(=O)N[C@@](C)(C(=O)OCCOC(=O)c1ccc(-c2c3nc(c(-c4cccc(S(=O)(=O)[O-])c4F)c4ccc([nH]4)c(-c4cccc(S(=O)(=O)[O-])c4F)c4nc(c(-c5cccc(S(=O)(=O)[O-])c5F)c5ccc2[nH]5)C=C4)C=C3)cc1)C1CC1
REMARK SMILES IDX 19 1 18 2 16 3 17 4 14 5 15 6 13 7 11 8 12 9 10 11 9 12 8 13
REMARK SMILES IDX 7 14 1 15 2 16 3 17 4 18 6 19 5 20 87 21 88 22 89 23 20 24
REMARK SMILES IDX 21 25 22 26 23 27 24 28 25 29 86 30 26 31 85 32 27 33 28 34
REMARK SMILES IDX 29 35 79 36 30 37 84 38 78 39 80 40 31 41 83 42 77 43 76 44
REMARK SMILES IDX 32 46 64 47 44 48 63 49 45 50 48 51 62 52 81 53 46 54 47 55
REMARK SMILES IDX 61 57 82 58 49 59 33 60 34 61 42 62 35 63 37 64 43 65 36 66
REMARK SMILES IDX 38 67 39 68 40 69 41 70 65 71 66 72 74 73 67 74 69 75 75 76
REMARK SMILES IDX 68 77 70 78 71 79 72 80 73 81 50 82 51 83 59 84 52 85 54 86
REMARK SMILES IDX 60 87 53 88 55 89 56 90 57 91 58 92
REMARK H PARENT 13 10 80 45 48 56
REMARK Flexibility Score: inf
ROOT
ATOM      1  C   UNL A   1      33.119  30.758  27.110  1.00  0.00     0.274 C 
ENDROOT
BRANCH   1   2
ATOM      2  O   UNL A   1      32.133  29.728  26.864  1.00  0.00    -0.460 OA
BRANCH   2   3
ATOM      3  C   UNL A   1      31.641  29.811  25.583  1.00  0.00     0.331 C 
ATOM      4  O   UNL A   1      31.038  30.823  25.211  1.00  0.00    -0.249 OA
BRANCH   3   5
ATOM      5  C   UNL A   1      31.631  28.485  24.743  1.00  0.00     0.138 C 
ATOM      6  C   UNL A   1      30.415  28.696  23.842  1.00  0.00     0.048 C 
BRANCH   5   7
ATOM      7  N   UNL A   1      31.347  27.447  25.791  1.00  0.00    -0.340 N 
ATOM      8  C   UNL A   1      30.909  26.165  25.801  1.00  0.00     0.224 C 
ATOM      9  O   UNL A   1      30.925  25.594  26.901  1.00  0.00    -0.275 OA
ATOM     10  H   UNL A   1      31.521  27.784  26.700  1.00  0.00     0.164 HD
BRANCH   8  11
ATOM     11  C   UNL A   1      30.514  25.374  24.576  1.00  0.00     0.141 C 
BRANCH  11  12
ATOM     12  C   UNL A   1      31.046  23.953  24.402  1.00  0.00     0.239 C 
BRANCH  12  13
ATOM     13  O   UNL A   1      32.367  23.675  24.821  1.00  0.00    -0.493 OA
BRANCH  13  14
ATOM     14  C   UNL A   1      33.029  22.497  24.631  1.00  0.00     0.122 A 
ATOM     15  C   UNL A   1      35.541  23.163  24.439  1.00  0.00     0.048 C 
ATOM     16  C   UNL A   1      34.398  22.209  24.602  1.00  0.00    -0.009 A 
ATOM     17  C   UNL A   1      34.795  20.851  24.693  1.00  0.00     0.007 A 
ATOM     18  C   UNL A   1      33.875  19.806  24.757  1.00  0.00     0.001 A 
ATOM     19  C   UNL A   1      32.111  21.420  24.594  1.00  0.00     0.047 A 
ATOM     20  C   UNL A   1      32.524  20.090  24.674  1.00  0.00     0.004 A 
ENDBRANCH  13  14
ENDBRANCH  12  13
ENDBRANCH  11  12
ENDBRANCH   8  11
ENDBRANCH   5   7
BRANCH   5  21
ATOM     21  C   UNL A   1      32.873  28.030  23.975  1.00  0.00     0.026 C 
ATOM     22  C   UNL A   1      34.179  27.842  24.800  1.00  0.00     0.007 C 
ATOM     23  C   UNL A   1      33.700  26.759  23.932  1.00  0.00     0.007 C 
ENDBRANCH   5  21
ENDBRANCH   3   5
ENDBRANCH   2   3
ENDBRANCH   1   2
BRANCH   1  24
ATOM     24  C   UNL A   1      34.522  30.269  27.483  1.00  0.00     0.275 C 
BRANCH  24  25
ATOM     25  O   UNL A   1      35.548  31.253  27.701  1.00  0.00    -0.458 OA
BRANCH  25  26
ATOM     26  C   UNL A   1      36.545  31.204  28.619  1.00  0.00     0.338 C 
ATOM     27  O   UNL A   1      36.630  32.012  29.519  1.00  0.00    -0.246 OA
BRANCH  26  28
ATOM     28  C   UNL A   1      37.490  30.074  28.544  1.00  0.00     0.060 A 
ATOM     29  C   UNL A   1      37.524  29.224  29.648  1.00  0.00     0.016 A 
ATOM     30  C   UNL A   1      38.301  29.835  27.443  1.00  0.00     0.016 A 
ATOM     31  C   UNL A   1      38.323  28.088  29.657  1.00  0.00     0.010 A 
ATOM     32  C   UNL A   1      39.093  28.697  27.434  1.00  0.00     0.010 A 
ATOM     33  C   UNL A   1      39.131  27.848  28.556  1.00  0.00    -0.014 A 
BRANCH  33  34
ATOM     34  C   UNL A   1      40.340  27.050  28.695  1.00  0.00     0.031 A 
ATOM     35  C   UNL A   1      40.439  25.607  28.414  1.00  0.00     0.074 A 
ATOM     36  C   UNL A   1      41.412  27.808  29.018  1.00  0.00     0.049 A 
ATOM     37  N   UNL A   1      41.417  24.887  28.847  1.00  0.00    -0.248 NA
ATOM     38  C   UNL A   1      39.443  24.836  27.675  1.00  0.00     0.031 C 
ATOM     39  C   UNL A   1      42.819  27.544  28.813  1.00  0.00     0.029 A 
ATOM     40  N   UNL A   1      41.384  29.013  29.738  1.00  0.00    -0.354 N 
ATOM     41  C   UNL A   1      41.333  23.650  28.246  1.00  0.00     0.074 A 
ATOM     42  C   UNL A   1      40.044  23.639  27.592  1.00  0.00     0.031 C 
ATOM     43  C   UNL A   1      43.532  28.439  29.522  1.00  0.00     0.029 A 
ATOM     44  C   UNL A   1      42.614  29.187  30.377  1.00  0.00     0.049 A 
ATOM     45  H   UNL A   1      40.621  29.633  29.784  1.00  0.00     0.167 HD
ATOM     46  C   UNL A   1      42.436  22.847  28.237  1.00  0.00     0.034 A 
ATOM     47  C   UNL A   1      42.728  29.388  31.726  1.00  0.00     0.034 A 
ATOM     48  C   UNL A   1      43.544  23.484  28.963  1.00  0.00     0.049 A 
ATOM     49  C   UNL A   1      43.389  28.136  32.368  1.00  0.00     0.074 A 
ATOM     50  C   UNL A   1      44.581  24.307  28.549  1.00  0.00     0.029 A 
ATOM     51  N   UNL A   1      43.489  23.599  30.342  1.00  0.00    -0.354 N 
ATOM     52  N   UNL A   1      43.826  27.091  31.710  1.00  0.00    -0.248 NA
ATOM     53  C   UNL A   1      43.436  27.909  33.811  1.00  0.00     0.031 C 
ATOM     54  C   UNL A   1      45.114  24.961  29.691  1.00  0.00     0.029 A 
ATOM     55  C   UNL A   1      44.431  24.510  30.804  1.00  0.00     0.049 A 
ATOM     56  H   UNL A   1      42.865  23.101  30.919  1.00  0.00     0.167 HD
ATOM     57  C   UNL A   1      44.048  26.055  32.587  1.00  0.00     0.074 A 
ATOM     58  C   UNL A   1      43.697  26.602  33.873  1.00  0.00     0.031 C 
ATOM     59  C   UNL A   1      44.474  24.807  32.227  1.00  0.00     0.034 A 
BRANCH  46  60
ATOM     60  C   UNL A   1      42.646  21.685  27.278  1.00  0.00     0.023 A 
ATOM     61  C   UNL A   1      41.902  20.508  27.534  1.00  0.00     0.012 A 
ATOM     62  C   UNL A   1      43.556  21.627  26.199  1.00  0.00     0.148 A 
ATOM     63  C   UNL A   1      42.123  19.309  26.853  1.00  0.00     0.002 A 
ATOM     64  C   UNL A   1      43.812  20.412  25.544  1.00  0.00     0.091 A 
ATOM     65  F   UNL A   1      44.145  22.752  25.775  1.00  0.00    -0.205 F 
ATOM     66  C   UNL A   1      43.104  19.251  25.879  1.00  0.00     0.022 A 
BRANCH  64  67
ATOM     67  S   UNL A   1      45.109  20.205  24.308  1.00  0.00     0.127 S 
ATOM     68  O   UNL A   1      46.305  20.604  25.053  1.00  0.00    -0.237 OA
ATOM     69  O   UNL A   1      45.034  18.777  24.006  1.00  0.00    -0.237 OA
ATOM     70  O   UNL A   1      44.764  21.096  23.207  1.00  0.00    -0.744 OA
ENDBRANCH  64  67
ENDBRANCH  46  60
BRANCH  47  71
ATOM     71  C   UNL A   1      41.591  30.149  32.402  1.00  0.00     0.023 A 
ATOM     72  C   UNL A   1      40.280  29.628  32.457  1.00  0.00     0.012 A 
ATOM     73  C   UNL A   1      41.901  31.106  33.356  1.00  0.00     0.148 A 
ATOM     74  C   UNL A   1      39.497  29.801  33.612  1.00  0.00     0.002 A 
ATOM     75  C   UNL A   1      41.273  31.078  34.578  1.00  0.00     0.091 A 
ATOM     76  F   UNL A   1      42.292  32.315  32.915  1.00  0.00    -0.205 F 
ATOM     77  C   UNL A   1      40.050  30.437  34.724  1.00  0.00     0.022 A 
BRANCH  75  78
ATOM     78  S   UNL A   1      42.313  31.470  35.983  1.00  0.00     0.127 S 
ATOM     79  O   UNL A   1      42.104  32.906  36.143  1.00  0.00    -0.237 OA
ATOM     80  O   UNL A   1      41.702  30.629  37.009  1.00  0.00    -0.237 OA
ATOM     81  O   UNL A   1      43.652  31.080  35.559  1.00  0.00    -0.744 OA
ENDBRANCH  75  78
ENDBRANCH  47  71
BRANCH  59  82
ATOM     82  C   UNL A   1      44.947  23.752  33.224  1.00  0.00     0.023 A 
ATOM     83  C   UNL A   1      44.078  22.772  33.752  1.00  0.00     0.012 A 
ATOM     84  C   UNL A   1      46.253  23.768  33.774  1.00  0.00     0.148 A 
ATOM     85  C   UNL A   1      44.507  21.762  34.616  1.00  0.00     0.002 A 
ATOM     86  C   UNL A   1      46.670  22.793  34.678  1.00  0.00     0.091 A 
ATOM     87  F   UNL A   1      47.086  24.774  33.485  1.00  0.00    -0.205 F 
ATOM     88  C   UNL A   1      45.813  21.762  35.067  1.00  0.00     0.022 A 
BRANCH  86  89
ATOM     89  S   UNL A   1      48.295  22.833  35.443  1.00  0.00     0.127 S 
ATOM     90  O   UNL A   1      48.239  24.099  36.175  1.00  0.00    -0.237 OA
ATOM     91  O   UNL A   1      48.266  21.640  36.289  1.00  0.00    -0.237 OA
ATOM     92  O   UNL A   1      49.257  22.779  34.354  1.00  0.00    -0.744 OA
ENDBRANCH  86  89
ENDBRANCH  59  82
ENDBRANCH  33  34
ENDBRANCH  26  28
ENDBRANCH  25  26
ENDBRANCH  24  25
ENDBRANCH   1  24
TORSDOF 20
ENDMDL
MODEL 2
REMARK VINA RESULT:     -11.4      2.018      2.727
REMARK SMILES Cc1ccccc1OCCC(=O)N[C@@](C)(C(=O)OCCOC(=O)c1ccc(-c2c3nc(c(-c4cccc(S(=O)(=O)[O-])c4F)c4ccc([nH]4)c(-c4cccc(S(=O)(=O)[O-])c4F)c4nc(c(-c5cccc(S(=O)(=O)[O-])c5F)c5ccc2[nH]5)C=C4)C=C3)cc1)C1CC1
REMARK SMILES IDX 19 1 18 2 16 3 17 4 14 5 15 6 13 7 11 8 12 9 10 11 9 12 8 13
REMARK SMILES IDX 7 14 1 15 2 16 3 17 4 18 6 19 5 20 87 21 88 22 89 23 20 24
REMARK SMILES IDX 21 25 22 26 23 27 24 28 25 29 86 30 26 31 85 32 27 33 28 34
REMARK SMILES IDX 29 35 79 36 30 37 84 38 78 39 80 40 31 41 83 42 77 43 76 44
REMARK SMILES IDX 32 46 64 47 44 48 63 49 45 50 48 51 62 52 81 53 46 54 47 55
REMARK SMILES IDX 61 57 82 58 49 59 33 60 34 61 42 62 35 63 37 64 43 65 36 66
REMARK SMILES IDX 38 67 39 68 40 69 41 70 65 71 66 72 74 73 67 74 69 75 75 76
REMARK SMILES IDX 68 77 70 78 71 79 72 80 73 81 50 82 51 83 59 84 52 85 54 86
REMARK SMILES IDX 60 87 53 88 55 89 56 90 57 91 58 92
REMARK H PARENT 13 10 80 45 48 56
REMARK Flexibility Score: inf
ROOT
ATOM      1  C   UNL A   1      33.824  29.819  26.512  1.00  0.00     0.274 C 
ENDROOT
BRANCH   1   2
ATOM      2  O   UNL A   1      32.687  29.081  26.005  1.00  0.00    -0.460 OA
BRANCH   2   3
ATOM      3  C   UNL A   1      32.948  28.568  24.756  1.00  0.00     0.331 C 
ATOM      4  O   UNL A   1      33.346  29.305  23.849  1.00  0.00    -0.249 OA
BRANCH   3   5
ATOM      5  C   UNL A   1      32.455  27.104  24.478  1.00  0.00     0.138 C 
ATOM      6  C   UNL A   1      33.341  26.291  25.421  1.00  0.00     0.048 C 
BRANCH   5   7
ATOM      7  N   UNL A   1      32.866  26.898  23.047  1.00  0.00    -0.340 N 
ATOM      8  C   UNL A   1      33.335  25.865  22.307  1.00  0.00     0.224 C 
ATOM      9  O   UNL A   1      33.440  26.073  21.090  1.00  0.00    -0.275 OA
ATOM     10  H   UNL A   1      32.773  27.720  22.515  1.00  0.00     0.164 HD
BRANCH   8  11
ATOM     11  C   UNL A   1      33.629  24.481  22.836  1.00  0.00     0.141 C 
BRANCH  11  12
ATOM     12  C   UNL A   1      32.516  23.434  22.848  1.00  0.00     0.239 C 
BRANCH  12  13
ATOM     13  O   UNL A   1      32.587  22.389  23.796  1.00  0.00    -0.493 OA
BRANCH  13  14
ATOM     14  C   UNL A   1      32.933  22.528  25.108  1.00  0.00     0.122 A 
ATOM     15  C   UNL A   1      30.779  23.407  26.281  1.00  0.00     0.048 C 
ATOM     16  C   UNL A   1      32.159  22.825  26.234  1.00  0.00    -0.009 A 
ATOM     17  C   UNL A   1      32.729  22.604  27.513  1.00  0.00     0.007 A 
ATOM     18  C   UNL A   1      34.038  22.155  27.679  1.00  0.00     0.001 A 
ATOM     19  C   UNL A   1      34.290  22.171  25.296  1.00  0.00     0.047 A 
ATOM     20  C   UNL A   1      34.835  21.968  26.565  1.00  0.00     0.004 A 
ENDBRANCH  13  14
ENDBRANCH  12  13
ENDBRANCH  11  12
ENDBRANCH   8  11
ENDBRANCH   5   7
BRANCH   5  21
ATOM     21  C   UNL A   1      30.974  26.738  24.584  1.00  0.00     0.026 C 
ATOM     22  C   UNL A   1      30.006  27.425  23.578  1.00  0.00     0.007 C 
ATOM     23  C   UNL A   1      29.996  25.964  23.720  1.00  0.00     0.007 C 
ENDBRANCH   5  21
ENDBRANCH   3   5
ENDBRANCH   2   3
ENDBRANCH   1   2
BRANCH   1  24
ATOM     24  C   UNL A   1      33.508  30.924  27.525  1.00  0.00     0.275 C 
BRANCH  24  25
ATOM     25  O   UNL A   1      34.579  31.788  27.942  1.00  0.00    -0.458 OA
BRANCH  25  26
ATOM     26  C   UNL A   1      35.444  31.581  28.966  1.00  0.00     0.338 C 
ATOM     27  O   UNL A   1      35.306  32.121  30.042  1.00  0.00    -0.246 OA
BRANCH  26  28
ATOM     28  C   UNL A   1      36.526  30.599  28.761  1.00  0.00     0.060 A 
ATOM     29  C   UNL A   1      36.783  29.734  29.822  1.00  0.00     0.016 A 
ATOM     30  C   UNL A   1      37.254  30.509  27.582  1.00  0.00     0.016 A 
ATOM     31  C   UNL A   1      37.730  28.723  29.714  1.00  0.00     0.010 A 
ATOM     32  C   UNL A   1      38.192  29.495  27.456  1.00  0.00     0.010 A 
ATOM     33  C   UNL A   1      38.455  28.630  28.535  1.00  0.00    -0.014 A 
BRANCH  33  34
ATOM     34  C   UNL A   1      39.771  28.010  28.532  1.00  0.00     0.031 A 
ATOM     35  C   UNL A   1      40.025  26.565  28.398  1.00  0.00     0.074 A 
ATOM     36  C   UNL A   1      40.764  28.928  28.564  1.00  0.00     0.049 A 
ATOM     37  N   UNL A   1      41.155  26.032  28.717  1.00  0.00    -0.248 NA
ATOM     38  C   UNL A   1      39.038  25.587  27.947  1.00  0.00     0.031 C 
ATOM     39  C   UNL A   1      42.137  28.809  28.129  1.00  0.00     0.029 A 
ATOM     40  N   UNL A   1      40.687  30.205  29.139  1.00  0.00    -0.354 N 
ATOM     41  C   UNL A   1      41.147  24.724  28.282  1.00  0.00     0.074 A 
ATOM     42  C   UNL A   1      39.780  24.471  27.885  1.00  0.00     0.031 C 
ATOM     43  C   UNL A   1      42.826  29.870  28.589  1.00  0.00     0.029 A 
ATOM     44  C   UNL A   1      41.971  30.610  29.514  1.00  0.00     0.049 A 
ATOM     45  H   UNL A   1      39.863  30.730  29.259  1.00  0.00     0.167 HD
ATOM     46  C   UNL A   1      42.335  24.066  28.154  1.00  0.00     0.034 A 
ATOM     47  C   UNL A   1      42.284  31.001  30.787  1.00  0.00     0.034 A 
ATOM     48  C   UNL A   1      43.448  24.923  28.585  1.00  0.00     0.049 A 
ATOM     49  C   UNL A   1      43.217  29.936  31.428  1.00  0.00     0.074 A 
ATOM     50  C   UNL A   1      44.271  25.801  27.897  1.00  0.00     0.029 A 
ATOM     51  N   UNL A   1      43.614  25.213  29.930  1.00  0.00    -0.354 N 
ATOM     52  N   UNL A   1      43.679  28.872  30.818  1.00  0.00    -0.248 NA
ATOM     53  C   UNL A   1      43.541  29.911  32.853  1.00  0.00     0.031 C 
ATOM     54  C   UNL A   1      44.893  26.662  28.840  1.00  0.00     0.029 A 
ATOM     55  C   UNL A   1      44.482  26.285  30.104  1.00  0.00     0.049 A 
ATOM     56  H   UNL A   1      43.175  24.726  30.664  1.00  0.00     0.167 HD
ATOM     57  C   UNL A   1      44.193  27.997  31.746  1.00  0.00     0.074 A 
ATOM     58  C   UNL A   1      43.992  28.665  33.007  1.00  0.00     0.031 C 
ATOM     59  C   UNL A   1      44.724  26.772  31.453  1.00  0.00     0.034 A 
BRANCH  46  60
ATOM     60  C   UNL A   1      42.542  22.820  27.307  1.00  0.00     0.023 A 
ATOM     61  C   UNL A   1      41.882  21.642  27.736  1.00  0.00     0.012 A 
ATOM     62  C   UNL A   1      43.376  22.690  26.174  1.00  0.00     0.148 A 
ATOM     63  C   UNL A   1      42.121  20.390  27.167  1.00  0.00     0.002 A 
ATOM     64  C   UNL A   1      43.653  21.426  25.630  1.00  0.00     0.091 A 
ATOM     65  F   UNL A   1      43.873  23.791  25.595  1.00  0.00    -0.205 F 
ATOM     66  C   UNL A   1      43.034  20.275  26.134  1.00  0.00     0.022 A 
BRANCH  64  67
ATOM     67  S   UNL A   1      44.870  21.150  24.329  1.00  0.00     0.127 S 
ATOM     68  O   UNL A   1      44.479  19.834  23.821  1.00  0.00    -0.237 OA
ATOM     69  O   UNL A   1      44.608  22.256  23.409  1.00  0.00    -0.237 OA
ATOM     70  O   UNL A   1      46.174  21.177  24.982  1.00  0.00    -0.744 OA
ENDBRANCH  64  67
ENDBRANCH  46  60
BRANCH  47  71
ATOM     71  C   UNL A   1      41.183  31.704  31.576  1.00  0.00     0.023 A 
ATOM     72  C   UNL A   1      40.259  32.570  30.950  1.00  0.00     0.012 A 
ATOM     73  C   UNL A   1      40.778  31.164  32.787  1.00  0.00     0.148 A 
ATOM     74  C   UNL A   1      38.910  32.574  31.348  1.00  0.00     0.002 A 
ATOM     75  C   UNL A   1      39.441  30.957  33.028  1.00  0.00     0.091 A 
ATOM     76  F   UNL A   1      41.545  31.412  33.862  1.00  0.00    -0.205 F 
ATOM     77  C   UNL A   1      38.482  31.672  32.322  1.00  0.00     0.022 A 
BRANCH  75  78
ATOM     78  S   UNL A   1      39.044  29.446  33.904  1.00  0.00     0.127 S 
ATOM     79  O   UNL A   1      37.812  29.014  33.252  1.00  0.00    -0.237 OA
ATOM     80  O   UNL A   1      40.228  28.645  33.603  1.00  0.00    -0.237 OA
ATOM     81  O   UNL A   1      38.899  29.865  35.294  1.00  0.00    -0.744 OA
ENDBRANCH  75  78
ENDBRANCH  47  71
BRANCH  59  82
ATOM     82  C   UNL A   1      45.506  25.925  32.454  1.00  0.00     0.023 A 
ATOM     83  C   UNL A   1      46.916  25.880  32.461  1.00  0.00     0.012 A 
ATOM     84  C   UNL A   1      44.863  25.039  33.354  1.00  0.00     0.148 A 
ATOM     85  C   UNL A   1      47.649  25.160  33.408  1.00  0.00     0.002 A 
ATOM     86  C   UNL A   1      45.592  24.277  34.265  1.00  0.00     0.091 A 
ATOM     87  F   UNL A   1      43.538  24.865  33.287  1.00  0.00    -0.205 F 
ATOM     88  C   UNL A   1      46.983  24.369  34.324  1.00  0.00     0.022 A 
BRANCH  86  89
ATOM     89  S   UNL A   1      44.806  23.094  35.364  1.00  0.00     0.127 S 
ATOM     90  O   UNL A   1      44.586  21.962  34.464  1.00  0.00    -0.237 OA
ATOM     91  O   UNL A   1      45.844  22.875  36.373  1.00  0.00    -0.237 OA
ATOM     92  O   UNL A   1      43.603  23.742  35.864  1.00  0.00    -0.744 OA
ENDBRANCH  86  89
ENDBRANCH  59  82
ENDBRANCH  33  34
ENDBRANCH  26  28
ENDBRANCH  25  26
ENDBRANCH  24  25
ENDBRANCH   1  24
TORSDOF 20
ENDMDL
MODEL 3
REMARK VINA RESULT:     -11.3      1.319      2.064
REMARK SMILES Cc1ccccc1OCCC(=O)N[C@@](C)(C(=O)OCCOC(=O)c1ccc(-c2c3nc(c(-c4cccc(S(=O)(=O)[O-])c4F)c4ccc([nH]4)c(-c4cccc(S(=O)(=O)[O-])c4F)c4nc(c(-c5cccc(S(=O)(=O)[O-])c5F)c5ccc2[nH]5)C=C4)C=C3)cc1)C1CC1
REMARK SMILES IDX 19 1 18 2 16 3 17 4 14 5 15 6 13 7 11 8 12 9 10 11 9 12 8 13
REMARK SMILES IDX 7 14 1 15 2 16 3 17 4 18 6 19 5 20 87 21 88 22 89 23 20 24
REMARK SMILES IDX 21 25 22 26 23 27 24 28 25 29 86 30 26 31 85 32 27 33 28 34
REMARK SMILES IDX 29 35 79 36 30 37 84 38 78 39 80 40 31 41 83 42 77 43 76 44
REMARK SMILES IDX 32 46 64 47 44 48 63 49 45 50 48 51 62 52 81 53 46 54 47 55
REMARK SMILES IDX 61 57 82 58 49 59 33 60 34 61 42 62 35 63 37 64 43 65 36 66
REMARK SMILES IDX 38 67 39 68 40 69 41 70 65 71 66 72 74 73 67 74 69 75 75 76
REMARK SMILES IDX 68 77 70 78 71 79 72 80 73 81 50 82 51 83 59 84 52 85 54 86
REMARK SMILES IDX 60 87 53 88 55 89 56 90 57 91 58 92
REMARK H PARENT 13 10 80 45 48 56
REMARK Flexibility Score: inf
ROOT
ATOM      1  C   UNL A   1      33.040  28.128  26.237  1.00  0.00     0.274 C 
ENDROOT
BRANCH   1   2
ATOM      2  O   UNL A   1      32.802  26.702  26.157  1.00  0.00    -0.460 OA
BRANCH   2   3
ATOM      3  C   UNL A   1      31.460  26.431  26.034  1.00  0.00     0.331 C 
ATOM      4  O   UNL A   1      30.663  26.821  26.893  1.00  0.00    -0.249 OA
BRANCH   3   5
ATOM      5  C   UNL A   1      31.048  25.389  24.934  1.00  0.00     0.138 C 
ATOM      6  C   UNL A   1      29.933  26.134  24.201  1.00  0.00     0.048 C 
BRANCH   5   7
ATOM      7  N   UNL A   1      30.488  24.264  25.757  1.00  0.00    -0.340 N 
ATOM      8  C   UNL A   1      30.957  23.431  26.717  1.00  0.00     0.224 C 
ATOM      9  O   UNL A   1      30.117  22.694  27.254  1.00  0.00    -0.275 OA
ATOM     10  H   UNL A   1      29.543  24.087  25.545  1.00  0.00     0.164 HD
BRANCH   8  11
ATOM     11  C   UNL A   1      32.375  23.416  27.236  1.00  0.00     0.141 C 
BRANCH  11  12
ATOM     12  C   UNL A   1      33.098  22.079  27.395  1.00  0.00     0.239 C 
BRANCH  12  13
ATOM     13  O   UNL A   1      34.486  22.031  27.134  1.00  0.00    -0.493 OA
BRANCH  13  14
ATOM     14  C   UNL A   1      35.074  22.237  25.921  1.00  0.00     0.122 A 
ATOM     15  C   UNL A   1      33.457  21.143  24.195  1.00  0.00     0.048 C 
ATOM     16  C   UNL A   1      34.608  22.001  24.623  1.00  0.00    -0.009 A 
ATOM     17  C   UNL A   1      35.310  22.595  23.544  1.00  0.00     0.007 A 
ATOM     18  C   UNL A   1      36.464  23.353  23.731  1.00  0.00     0.001 A 
ATOM     19  C   UNL A   1      36.303  22.923  26.083  1.00  0.00     0.047 A 
ATOM     20  C   UNL A   1      36.983  23.491  25.005  1.00  0.00     0.004 A 
ENDBRANCH  13  14
ENDBRANCH  12  13
ENDBRANCH  11  12
ENDBRANCH   8  11
ENDBRANCH   5   7
BRANCH   5  21
ATOM     21  C   UNL A   1      32.089  24.789  23.989  1.00  0.00     0.026 C 
ATOM     22  C   UNL A   1      31.846  24.979  22.464  1.00  0.00     0.007 C 
ATOM     23  C   UNL A   1      33.139  25.356  23.051  1.00  0.00     0.007 C 
ENDBRANCH   5  21
ENDBRANCH   3   5
ENDBRANCH   2   3
ENDBRANCH   1   2
BRANCH   1  24
ATOM     24  C   UNL A   1      34.498  28.554  26.438  1.00  0.00     0.275 C 
BRANCH  24  25
ATOM     25  O   UNL A   1      34.816  29.363  27.583  1.00  0.00    -0.458 OA
BRANCH  25  26
ATOM     26  C   UNL A   1      35.862  30.216  27.716  1.00  0.00     0.338 C 
ATOM     27  O   UNL A   1      35.727  31.417  27.627  1.00  0.00    -0.246 OA
BRANCH  26  28
ATOM     28  C   UNL A   1      37.175  29.640  28.061  1.00  0.00     0.060 A 
ATOM     29  C   UNL A   1      38.149  29.681  27.065  1.00  0.00     0.016 A 
ATOM     30  C   UNL A   1      37.459  29.092  29.305  1.00  0.00     0.016 A 
ATOM     31  C   UNL A   1      39.442  29.232  27.303  1.00  0.00     0.010 A 
ATOM     32  C   UNL A   1      38.750  28.653  29.560  1.00  0.00     0.010 A 
ATOM     33  C   UNL A   1      39.726  28.689  28.547  1.00  0.00    -0.014 A 
BRANCH  33  34
ATOM     34  C   UNL A   1      40.818  27.738  28.698  1.00  0.00     0.031 A 
ATOM     35  C   UNL A   1      40.723  26.291  28.434  1.00  0.00     0.074 A 
ATOM     36  C   UNL A   1      41.982  28.349  29.014  1.00  0.00     0.049 A 
ATOM     37  N   UNL A   1      41.595  25.452  28.877  1.00  0.00    -0.248 NA
ATOM     38  C   UNL A   1      39.632  25.652  27.702  1.00  0.00     0.031 C 
ATOM     39  C   UNL A   1      43.340  27.897  28.813  1.00  0.00     0.029 A 
ATOM     40  N   UNL A   1      42.116  29.555  29.719  1.00  0.00    -0.354 N 
ATOM     41  C   UNL A   1      41.346  24.230  28.291  1.00  0.00     0.074 A 
ATOM     42  C   UNL A   1      40.067  24.384  27.634  1.00  0.00     0.031 C 
ATOM     43  C   UNL A   1      44.167  28.696  29.513  1.00  0.00     0.029 A 
ATOM     44  C   UNL A   1      43.358  29.570  30.358  1.00  0.00     0.049 A 
ATOM     45  H   UNL A   1      41.442  30.273  29.757  1.00  0.00     0.167 HD
ATOM     46  C   UNL A   1      42.331  23.287  28.293  1.00  0.00     0.034 A 
ATOM     47  C   UNL A   1      43.498  29.770  31.705  1.00  0.00     0.034 A 
ATOM     48  C   UNL A   1      43.515  23.778  29.013  1.00  0.00     0.049 A 
ATOM     49  C   UNL A   1      43.985  28.450  32.363  1.00  0.00     0.074 A 
ATOM     50  C   UNL A   1      44.652  24.449  28.591  1.00  0.00     0.029 A 
ATOM     51  N   UNL A   1      43.475  23.916  30.391  1.00  0.00    -0.354 N 
ATOM     52  N   UNL A   1      44.277  27.348  31.717  1.00  0.00    -0.248 NA
ATOM     53  C   UNL A   1      44.000  28.235  33.809  1.00  0.00     0.031 C 
ATOM     54  C   UNL A   1      45.269  25.040  29.726  1.00  0.00     0.029 A 
ATOM     55  C   UNL A   1      44.531  24.698  30.844  1.00  0.00     0.049 A 
ATOM     56  H   UNL A   1      42.790  23.513  30.973  1.00  0.00     0.167 HD
ATOM     57  C   UNL A   1      44.359  26.301  32.607  1.00  0.00     0.074 A 
ATOM     58  C   UNL A   1      44.084  26.906  33.886  1.00  0.00     0.031 C 
ATOM     59  C   UNL A   1      44.613  25.003  32.263  1.00  0.00     0.034 A 
BRANCH  46  60
ATOM     60  C   UNL A   1      42.384  22.095  27.349  1.00  0.00     0.023 A 
ATOM     61  C   UNL A   1      41.403  21.091  27.537  1.00  0.00     0.012 A 
ATOM     62  C   UNL A   1      43.348  21.847  26.346  1.00  0.00     0.148 A 
ATOM     63  C   UNL A   1      41.437  19.865  26.870  1.00  0.00     0.002 A 
ATOM     64  C   UNL A   1      43.410  20.598  25.708  1.00  0.00     0.091 A 
ATOM     65  F   UNL A   1      44.180  22.829  25.977  1.00  0.00    -0.205 F 
ATOM     66  C   UNL A   1      42.462  19.603  25.978  1.00  0.00     0.022 A 
BRANCH  64  67
ATOM     67  S   UNL A   1      44.735  20.126  24.580  1.00  0.00     0.127 S 
ATOM     68  O   UNL A   1      44.515  21.036  23.454  1.00  0.00    -0.237 OA
ATOM     69  O   UNL A   1      45.936  20.413  25.363  1.00  0.00    -0.237 OA
ATOM     70  O   UNL A   1      44.516  18.719  24.264  1.00  0.00    -0.744 OA
ENDBRANCH  64  67
ENDBRANCH  46  60
BRANCH  47  71
ATOM     71  C   UNL A   1      42.473  30.685  32.369  1.00  0.00     0.023 A 
ATOM     72  C   UNL A   1      41.272  30.181  32.915  1.00  0.00     0.012 A 
ATOM     73  C   UNL A   1      42.891  31.912  32.862  1.00  0.00     0.148 A 
ATOM     74  C   UNL A   1      40.762  30.709  34.114  1.00  0.00     0.002 A 
ATOM     75  C   UNL A   1      42.569  32.275  34.148  1.00  0.00     0.091 A 
ATOM     76  F   UNL A   1      43.042  32.915  31.980  1.00  0.00    -0.205 F 
ATOM     77  C   UNL A   1      41.486  31.690  34.791  1.00  0.00     0.022 A 
BRANCH  75  78
ATOM     78  S   UNL A   1      43.857  33.136  35.048  1.00  0.00     0.127 S 
ATOM     79  O   UNL A   1      43.220  34.408  35.375  1.00  0.00    -0.237 OA
ATOM     80  O   UNL A   1      44.051  32.224  36.172  1.00  0.00    -0.237 OA
ATOM     81  O   UNL A   1      44.962  33.218  34.101  1.00  0.00    -0.744 OA
ENDBRANCH  75  78
ENDBRANCH  47  71
BRANCH  59  82
ATOM     82  C   UNL A   1      44.940  23.906  33.274  1.00  0.00     0.023 A 
ATOM     83  C   UNL A   1      43.946  23.068  33.822  1.00  0.00     0.012 A 
ATOM     84  C   UNL A   1      46.241  23.744  33.813  1.00  0.00     0.148 A 
ATOM     85  C   UNL A   1      44.234  22.020  34.699  1.00  0.00     0.002 A 
ATOM     86  C   UNL A   1      46.523  22.733  34.730  1.00  0.00     0.091 A 
ATOM     87  F   UNL A   1      47.206  24.617  33.503  1.00  0.00    -0.205 F 
ATOM     88  C   UNL A   1      45.531  21.841  35.141  1.00  0.00     0.022 A 
BRANCH  86  89
ATOM     89  S   UNL A   1      48.144  22.553  35.483  1.00  0.00     0.127 S 
ATOM     90  O   UNL A   1      48.212  23.755  36.315  1.00  0.00    -0.237 OA
ATOM     91  O   UNL A   1      47.998  21.303  36.231  1.00  0.00    -0.237 OA
ATOM     92  O   UNL A   1      49.096  22.493  34.385  1.00  0.00    -0.744 OA
ENDBRANCH  86  89
ENDBRANCH  59  82
ENDBRANCH  33  34
ENDBRANCH  26  28
ENDBRANCH  25  26
ENDBRANCH  24  25
ENDBRANCH   1  24
TORSDOF 20
ENDMDL
