MODEL 1
REMARK VINA RESULT:     -12.1      0.000      0.000
REMARK SMILES Cc1cscc1-c1nc(C)c(C(=O)OCCOC(=O)c2ccc(-c3c4nc(c(-c5cccc(S(=O)(=O)[O-])c5F)c5ccc([nH]5)c(-c5cccc(S(=O)(=O)[O-])c5F)c5nc(c(-c6cccc(S(=O)(=O)[O-])c6F)c6ccc3[nH]6)C=C5)C=C4)cc2)c(C)n1
REMARK SMILES IDX 16 1 15 2 14 3 12 4 13 5 11 6 7 7 8 8 85 9 9 10 83 11 10 12
REMARK SMILES IDX 84 13 6 14 1 15 2 16 3 17 4 18 5 19 17 20 18 21 19 22 20 23
REMARK SMILES IDX 21 24 82 25 22 26 81 27 23 28 24 29 25 30 75 31 26 32 80 33
REMARK SMILES IDX 74 34 76 35 27 36 79 37 73 38 72 39 28 41 60 42 40 43 59 44
REMARK SMILES IDX 41 45 44 46 58 47 77 48 42 49 43 50 57 52 78 53 45 54 29 55
REMARK SMILES IDX 30 56 38 57 31 58 33 59 39 60 32 61 34 62 35 63 36 64 37 65
REMARK SMILES IDX 61 66 62 67 70 68 63 69 65 70 71 71 64 72 66 73 67 74 68 75
REMARK SMILES IDX 69 76 46 77 47 78 55 79 48 80 50 81 56 82 49 83 51 84 52 85
REMARK SMILES IDX 53 86 54 87
REMARK H PARENT 76 40 44 51
REMARK Flexibility Score: inf
ROOT
ATOM      1  C   UNL A   1      31.557  30.435  25.553  1.00  0.00     0.275 C 
ENDROOT
BRANCH   1   2
ATOM      2  C   UNL A   1      31.262  29.049  24.983  1.00  0.00     0.275 C 
BRANCH   2   3
ATOM      3  O   UNL A   1      31.690  28.959  23.605  1.00  0.00    -0.458 OA
BRANCH   3   4
ATOM      4  C   UNL A   1      30.962  28.154  22.791  1.00  0.00     0.341 C 
ATOM      5  O   UNL A   1      30.143  28.523  21.971  1.00  0.00    -0.246 OA
BRANCH   4   6
ATOM      6  C   UNL A   1      31.268  26.726  23.028  1.00  0.00     0.102 A 
ATOM      7  C   UNL A   1      31.878  24.165  23.676  1.00  0.00     0.160 A 
ATOM      8  N   UNL A   1      32.823  24.873  23.042  1.00  0.00    -0.232 NA
ATOM      9  N   UNL A   1      30.676  24.623  24.018  1.00  0.00    -0.232 NA
ATOM     10  C   UNL A   1      32.496  26.152  22.701  1.00  0.00     0.056 A 
ATOM     11  C   UNL A   1      30.392  25.905  23.727  1.00  0.00     0.056 A 
ATOM     12  C   UNL A   1      33.576  26.911  21.985  1.00  0.00     0.068 C 
ATOM     13  C   UNL A   1      29.026  26.280  24.181  1.00  0.00     0.068 C 
BRANCH   7  14
ATOM     14  C   UNL A   1      32.208  22.897  24.293  1.00  0.00     0.033 A 
ATOM     15  C   UNL A   1      31.975  21.422  22.179  1.00  0.00     0.046 C 
ATOM     16  C   UNL A   1      32.323  21.631  23.615  1.00  0.00    -0.029 A 
ATOM     17  C   UNL A   1      32.867  20.673  24.449  1.00  0.00     0.069 A 
ATOM     18  S   UNL A   1      33.263  21.283  25.995  1.00  0.00    -0.151 S 
ATOM     19  C   UNL A   1      32.745  22.853  25.566  1.00  0.00     0.077 A 
ENDBRANCH   7  14
ENDBRANCH   4   6
ENDBRANCH   3   4
ENDBRANCH   2   3
ENDBRANCH   1   2
BRANCH   1  20
ATOM     20  O   UNL A   1      32.336  30.306  26.755  1.00  0.00    -0.458 OA
BRANCH  20  21
ATOM     21  C   UNL A   1      32.919  31.445  27.187  1.00  0.00     0.338 C 
ATOM     22  O   UNL A   1      32.374  32.511  27.433  1.00  0.00    -0.246 OA
BRANCH  21  23
ATOM     23  C   UNL A   1      34.341  31.198  27.471  1.00  0.00     0.060 A 
ATOM     24  C   UNL A   1      34.727  29.887  27.696  1.00  0.00     0.016 A 
ATOM     25  C   UNL A   1      35.219  32.240  27.756  1.00  0.00     0.016 A 
ATOM     26  C   UNL A   1      35.906  29.634  28.395  1.00  0.00     0.010 A 
ATOM     27  C   UNL A   1      36.481  31.954  28.304  1.00  0.00     0.010 A 
ATOM     28  C   UNL A   1      36.820  30.650  28.710  1.00  0.00    -0.014 A 
BRANCH  28  29
ATOM     29  C   UNL A   1      38.066  30.346  29.497  1.00  0.00     0.031 A 
ATOM     30  C   UNL A   1      39.161  29.473  28.912  1.00  0.00     0.074 A 
ATOM     31  C   UNL A   1      38.260  30.863  30.733  1.00  0.00     0.049 A 
ATOM     32  N   UNL A   1      40.170  28.895  29.516  1.00  0.00    -0.248 NA
ATOM     33  C   UNL A   1      39.107  29.198  27.467  1.00  0.00     0.031 C 
ATOM     34  C   UNL A   1      37.345  31.764  31.439  1.00  0.00     0.029 A 
ATOM     35  N   UNL A   1      39.300  30.707  31.623  1.00  0.00    -0.354 N 
ATOM     36  C   UNL A   1      40.797  28.105  28.555  1.00  0.00     0.074 A 
ATOM     37  C   UNL A   1      40.071  28.299  27.319  1.00  0.00     0.031 C 
ATOM     38  C   UNL A   1      37.887  32.133  32.605  1.00  0.00     0.029 A 
ATOM     39  C   UNL A   1      39.103  31.367  32.817  1.00  0.00     0.049 A 
ATOM     40  H   UNL A   1      40.107  30.177  31.425  1.00  0.00     0.167 HD
ATOM     41  C   UNL A   1      41.876  27.294  28.688  1.00  0.00     0.034 A 
ATOM     42  C   UNL A   1      39.758  31.305  33.993  1.00  0.00     0.034 A 
ATOM     43  C   UNL A   1      42.662  27.182  29.892  1.00  0.00     0.049 A 
ATOM     44  C   UNL A   1      40.930  30.381  34.127  1.00  0.00     0.074 A 
ATOM     45  C   UNL A   1      43.791  26.412  30.113  1.00  0.00     0.029 A 
ATOM     46  N   UNL A   1      42.416  27.872  31.068  1.00  0.00    -0.354 N 
ATOM     47  N   UNL A   1      41.486  29.618  33.219  1.00  0.00    -0.248 NA
ATOM     48  C   UNL A   1      41.564  30.305  35.450  1.00  0.00     0.031 C 
ATOM     49  C   UNL A   1      44.207  26.612  31.433  1.00  0.00     0.029 A 
ATOM     50  C   UNL A   1      43.364  27.540  32.020  1.00  0.00     0.049 A 
ATOM     51  H   UNL A   1      41.674  28.506  31.206  1.00  0.00     0.167 HD
ATOM     52  C   UNL A   1      42.551  28.990  33.854  1.00  0.00     0.074 A 
ATOM     53  C   UNL A   1      42.578  29.483  35.215  1.00  0.00     0.031 C 
ATOM     54  C   UNL A   1      43.416  28.074  33.356  1.00  0.00     0.034 A 
BRANCH  41  55
ATOM     55  C   UNL A   1      42.282  26.442  27.508  1.00  0.00     0.023 A 
ATOM     56  C   UNL A   1      43.106  26.968  26.493  1.00  0.00     0.012 A 
ATOM     57  C   UNL A   1      41.902  25.084  27.449  1.00  0.00     0.148 A 
ATOM     58  C   UNL A   1      43.515  26.169  25.424  1.00  0.00     0.002 A 
ATOM     59  C   UNL A   1      42.353  24.281  26.409  1.00  0.00     0.091 A 
ATOM     60  F   UNL A   1      41.108  24.602  28.417  1.00  0.00    -0.205 F 
ATOM     61  C   UNL A   1      43.148  24.825  25.387  1.00  0.00     0.022 A 
BRANCH  59  62
ATOM     62  S   UNL A   1      42.008  22.520  26.319  1.00  0.00     0.127 S 
ATOM     63  O   UNL A   1      42.614  22.036  27.559  1.00  0.00    -0.237 OA
ATOM     64  O   UNL A   1      40.545  22.493  26.307  1.00  0.00    -0.237 OA
ATOM     65  O   UNL A   1      42.635  22.047  25.094  1.00  0.00    -0.744 OA
ENDBRANCH  59  62
ENDBRANCH  41  55
BRANCH  42  66
ATOM     66  C   UNL A   1      39.275  32.105  35.159  1.00  0.00     0.023 A 
ATOM     67  C   UNL A   1      38.372  31.532  36.073  1.00  0.00     0.012 A 
ATOM     68  C   UNL A   1      39.731  33.421  35.380  1.00  0.00     0.148 A 
ATOM     69  C   UNL A   1      37.916  32.262  37.173  1.00  0.00     0.002 A 
ATOM     70  C   UNL A   1      39.334  34.113  36.515  1.00  0.00     0.091 A 
ATOM     71  F   UNL A   1      40.569  33.962  34.485  1.00  0.00    -0.205 F 
ATOM     72  C   UNL A   1      38.408  33.544  37.403  1.00  0.00     0.022 A 
BRANCH  70  73
ATOM     73  S   UNL A   1      40.045  35.698  36.969  1.00  0.00     0.127 S 
ATOM     74  O   UNL A   1      39.651  36.538  35.841  1.00  0.00    -0.237 OA
ATOM     75  O   UNL A   1      39.355  35.991  38.227  1.00  0.00    -0.237 OA
ATOM     76  O   UNL A   1      41.475  35.459  37.115  1.00  0.00    -0.744 OA
ENDBRANCH  70  73
ENDBRANCH  42  66
BRANCH  54  77
ATOM     77  C   UNL A   1      44.507  27.586  34.271  1.00  0.00     0.023 A 
ATOM     78  C   UNL A   1      45.703  28.319  34.401  1.00  0.00     0.012 A 
ATOM     79  C   UNL A   1      44.321  26.421  35.040  1.00  0.00     0.148 A 
ATOM     80  C   UNL A   1      46.713  27.878  35.254  1.00  0.00     0.002 A 
ATOM     81  C   UNL A   1      45.311  26.016  35.928  1.00  0.00     0.091 A 
ATOM     82  F   UNL A   1      43.184  25.726  34.887  1.00  0.00    -0.205 F 
ATOM     83  C   UNL A   1      46.513  26.735  36.026  1.00  0.00     0.022 A 
BRANCH  81  84
ATOM     84  S   UNL A   1      45.102  24.614  37.029  1.00  0.00     0.127 S 
ATOM     85  O   UNL A   1      44.055  25.095  37.929  1.00  0.00    -0.237 OA
ATOM     86  O   UNL A   1      44.678  23.559  36.108  1.00  0.00    -0.237 OA
ATOM     87  O   UNL A   1      46.402  24.390  37.648  1.00  0.00    -0.744 OA
ENDBRANCH  81  84
ENDBRANCH  54  77
ENDBRANCH  28  29
ENDBRANCH  21  23
ENDBRANCH  20  21
ENDBRANCH   1  20
TORSDOF 15
ENDMDL
MODEL 2
REMARK VINA RESULT:     -12.1      5.023     10.069
REMARK SMILES Cc1cscc1-c1nc(C)c(C(=O)OCCOC(=O)c2ccc(-c3c4nc(c(-c5cccc(S(=O)(=O)[O-])c5F)c5ccc([nH]5)c(-c5cccc(S(=O)(=O)[O-])c5F)c5nc(c(-c6cccc(S(=O)(=O)[O-])c6F)c6ccc3[nH]6)C=C5)C=C4)cc2)c(C)n1
REMARK SMILES IDX 16 1 15 2 14 3 12 4 13 5 11 6 7 7 8 8 85 9 9 10 83 11 10 12
REMARK SMILES IDX 84 13 6 14 1 15 2 16 3 17 4 18 5 19 17 20 18 21 19 22 20 23
REMARK SMILES IDX 21 24 82 25 22 26 81 27 23 28 24 29 25 30 75 31 26 32 80 33
REMARK SMILES IDX 74 34 76 35 27 36 79 37 73 38 72 39 28 41 60 42 40 43 59 44
REMARK SMILES IDX 41 45 44 46 58 47 77 48 42 49 43 50 57 52 78 53 45 54 29 55
REMARK SMILES IDX 30 56 38 57 31 58 33 59 39 60 32 61 34 62 35 63 36 64 37 65
REMARK SMILES IDX 61 66 62 67 70 68 63 69 65 70 71 71 64 72 66 73 67 74 68 75
REMARK SMILES IDX 69 76 46 77 47 78 55 79 48 80 50 81 56 82 49 83 51 84 52 85
REMARK SMILES IDX 53 86 54 87
REMARK H PARENT 76 40 44 51
REMARK Flexibility Score: inf
ROOT
ATOM      1  C   UNL A   1      36.111  21.185  24.834  1.00  0.00     0.275 C 
ENDROOT
BRANCH   1   2
ATOM      2  C   UNL A   1      35.123  22.339  24.679  1.00  0.00     0.275 C 
BRANCH   2   3
ATOM      3  O   UNL A   1      33.860  22.022  25.307  1.00  0.00    -0.458 OA
BRANCH   3   4
ATOM      4  C   UNL A   1      32.784  21.901  24.489  1.00  0.00     0.341 C 
ATOM      5  O   UNL A   1      32.436  20.886  23.916  1.00  0.00    -0.246 OA
BRANCH   4   6
ATOM      6  C   UNL A   1      32.066  23.186  24.346  1.00  0.00     0.102 A 
ATOM      7  C   UNL A   1      30.937  25.644  24.155  1.00  0.00     0.160 A 
ATOM      8  N   UNL A   1      30.654  24.929  25.254  1.00  0.00    -0.232 NA
ATOM      9  N   UNL A   1      31.731  25.246  23.164  1.00  0.00    -0.232 NA
ATOM     10  C   UNL A   1      31.210  23.686  25.327  1.00  0.00     0.056 A 
ATOM     11  C   UNL A   1      32.318  24.042  23.280  1.00  0.00     0.056 A 
ATOM     12  C   UNL A   1      30.864  22.912  26.566  1.00  0.00     0.068 C 
ATOM     13  C   UNL A   1      33.185  23.739  22.111  1.00  0.00     0.068 C 
BRANCH   7  14
ATOM     14  C   UNL A   1      30.603  27.052  24.096  1.00  0.00     0.033 A 
ATOM     15  C   UNL A   1      32.484  27.911  25.653  1.00  0.00     0.046 C 
ATOM     16  C   UNL A   1      31.337  28.122  24.723  1.00  0.00    -0.029 A 
ATOM     17  C   UNL A   1      30.884  29.352  24.285  1.00  0.00     0.069 A 
ATOM     18  S   UNL A   1      29.634  29.228  23.126  1.00  0.00    -0.151 S 
ATOM     19  C   UNL A   1      29.700  27.522  23.162  1.00  0.00     0.077 A 
ENDBRANCH   7  14
ENDBRANCH   4   6
ENDBRANCH   3   4
ENDBRANCH   2   3
ENDBRANCH   1   2
BRANCH   1  20
ATOM     20  O   UNL A   1      37.447  21.659  24.596  1.00  0.00    -0.458 OA
BRANCH  20  21
ATOM     21  C   UNL A   1      38.391  21.157  25.421  1.00  0.00     0.338 C 
ATOM     22  O   UNL A   1      38.859  20.029  25.414  1.00  0.00    -0.246 OA
BRANCH  21  23
ATOM     23  C   UNL A   1      38.912  22.225  26.287  1.00  0.00     0.060 A 
ATOM     24  C   UNL A   1      38.400  23.499  26.106  1.00  0.00     0.016 A 
ATOM     25  C   UNL A   1      40.044  22.037  27.076  1.00  0.00     0.016 A 
ATOM     26  C   UNL A   1      39.136  24.599  26.543  1.00  0.00     0.010 A 
ATOM     27  C   UNL A   1      40.679  23.149  27.655  1.00  0.00     0.010 A 
ATOM     28  C   UNL A   1      40.285  24.461  27.335  1.00  0.00    -0.014 A 
BRANCH  28  29
ATOM     29  C   UNL A   1      41.076  25.670  27.759  1.00  0.00     0.031 A 
ATOM     30  C   UNL A   1      40.446  26.745  28.626  1.00  0.00     0.074 A 
ATOM     31  C   UNL A   1      42.374  25.819  27.407  1.00  0.00     0.049 A 
ATOM     32  N   UNL A   1      40.870  27.960  28.875  1.00  0.00    -0.248 NA
ATOM     33  C   UNL A   1      39.168  26.424  29.281  1.00  0.00     0.031 C 
ATOM     34  C   UNL A   1      43.164  24.867  26.622  1.00  0.00     0.029 A 
ATOM     35  N   UNL A   1      43.269  26.834  27.666  1.00  0.00    -0.354 N 
ATOM     36  C   UNL A   1      39.865  28.577  29.616  1.00  0.00     0.074 A 
ATOM     37  C   UNL A   1      38.820  27.594  29.798  1.00  0.00     0.031 C 
ATOM     38  C   UNL A   1      44.426  25.301  26.524  1.00  0.00     0.029 A 
ATOM     39  C   UNL A   1      44.503  26.639  27.084  1.00  0.00     0.049 A 
ATOM     40  H   UNL A   1      43.048  27.622  28.215  1.00  0.00     0.167 HD
ATOM     41  C   UNL A   1      39.816  29.844  30.099  1.00  0.00     0.034 A 
ATOM     42  C   UNL A   1      45.557  27.462  26.924  1.00  0.00     0.034 A 
ATOM     43  C   UNL A   1      40.900  30.789  30.006  1.00  0.00     0.049 A 
ATOM     44  C   UNL A   1      45.470  28.867  27.440  1.00  0.00     0.074 A 
ATOM     45  C   UNL A   1      40.957  32.084  30.493  1.00  0.00     0.029 A 
ATOM     46  N   UNL A   1      42.124  30.537  29.407  1.00  0.00    -0.354 N 
ATOM     47  N   UNL A   1      44.501  29.442  28.106  1.00  0.00    -0.248 NA
ATOM     48  C   UNL A   1      46.623  29.740  27.178  1.00  0.00     0.031 C 
ATOM     49  C   UNL A   1      42.202  32.625  30.159  1.00  0.00     0.029 A 
ATOM     50  C   UNL A   1      42.938  31.653  29.503  1.00  0.00     0.049 A 
ATOM     51  H   UNL A   1      42.378  29.689  28.975  1.00  0.00     0.167 HD
ATOM     52  C   UNL A   1      44.935  30.736  28.365  1.00  0.00     0.074 A 
ATOM     53  C   UNL A   1      46.267  30.851  27.808  1.00  0.00     0.031 C 
ATOM     54  C   UNL A   1      44.281  31.743  28.992  1.00  0.00     0.034 A 
BRANCH  41  55
ATOM     55  C   UNL A   1      38.542  30.306  30.768  1.00  0.00     0.023 A 
ATOM     56  C   UNL A   1      38.342  30.101  32.148  1.00  0.00     0.012 A 
ATOM     57  C   UNL A   1      37.572  31.019  30.031  1.00  0.00     0.148 A 
ATOM     58  C   UNL A   1      37.184  30.565  32.774  1.00  0.00     0.002 A 
ATOM     59  C   UNL A   1      36.445  31.520  30.671  1.00  0.00     0.091 A 
ATOM     60  F   UNL A   1      37.771  31.195  28.717  1.00  0.00    -0.205 F 
ATOM     61  C   UNL A   1      36.242  31.283  32.040  1.00  0.00     0.022 A 
BRANCH  59  62
ATOM     62  S   UNL A   1      35.219  32.531  29.831  1.00  0.00     0.127 S 
ATOM     63  O   UNL A   1      34.723  31.607  28.812  1.00  0.00    -0.237 OA
ATOM     64  O   UNL A   1      34.268  32.818  30.906  1.00  0.00    -0.237 OA
ATOM     65  O   UNL A   1      35.933  33.694  29.324  1.00  0.00    -0.744 OA
ENDBRANCH  59  62
ENDBRANCH  41  55
BRANCH  42  66
ATOM     66  C   UNL A   1      46.767  26.990  26.186  1.00  0.00     0.023 A 
ATOM     67  C   UNL A   1      46.853  27.177  24.793  1.00  0.00     0.012 A 
ATOM     68  C   UNL A   1      47.845  26.384  26.863  1.00  0.00     0.148 A 
ATOM     69  C   UNL A   1      47.979  26.749  24.088  1.00  0.00     0.002 A 
ATOM     70  C   UNL A   1      48.993  26.031  26.168  1.00  0.00     0.091 A 
ATOM     71  F   UNL A   1      47.735  26.189  28.185  1.00  0.00    -0.205 F 
ATOM     72  C   UNL A   1      49.055  26.192  24.776  1.00  0.00     0.022 A 
BRANCH  70  73
ATOM     73  S   UNL A   1      50.479  25.461  26.999  1.00  0.00     0.127 S 
ATOM     74  O   UNL A   1      50.799  26.598  27.857  1.00  0.00    -0.237 OA
ATOM     75  O   UNL A   1      49.995  24.272  27.704  1.00  0.00    -0.237 OA
ATOM     76  O   UNL A   1      51.437  25.176  25.938  1.00  0.00    -0.744 OA
ENDBRANCH  70  73
ENDBRANCH  42  66
BRANCH  54  77
ATOM     77  C   UNL A   1      45.018  33.043  29.165  1.00  0.00     0.023 A 
ATOM     78  C   UNL A   1      45.845  33.245  30.289  1.00  0.00     0.012 A 
ATOM     79  C   UNL A   1      44.927  34.049  28.184  1.00  0.00     0.148 A 
ATOM     80  C   UNL A   1      46.538  34.443  30.451  1.00  0.00     0.002 A 
ATOM     81  C   UNL A   1      45.662  35.219  28.325  1.00  0.00     0.091 A 
ATOM     82  F   UNL A   1      44.119  33.845  27.132  1.00  0.00    -0.205 F 
ATOM     83  C   UNL A   1      46.457  35.424  29.465  1.00  0.00     0.022 A 
BRANCH  81  84
ATOM     84  S   UNL A   1      45.694  36.495  27.062  1.00  0.00     0.127 S 
ATOM     85  O   UNL A   1      46.643  37.452  27.630  1.00  0.00    -0.237 OA
ATOM     86  O   UNL A   1      46.189  35.762  25.897  1.00  0.00    -0.237 OA
ATOM     87  O   UNL A   1      44.324  36.975  26.939  1.00  0.00    -0.744 OA
ENDBRANCH  81  84
ENDBRANCH  54  77
ENDBRANCH  28  29
ENDBRANCH  21  23
ENDBRANCH  20  21
ENDBRANCH   1  20
TORSDOF 15
ENDMDL
MODEL 3
REMARK VINA RESULT:     -12.0      5.326     10.174
REMARK SMILES Cc1cscc1-c1nc(C)c(C(=O)OCCOC(=O)c2ccc(-c3c4nc(c(-c5cccc(S(=O)(=O)[O-])c5F)c5ccc([nH]5)c(-c5cccc(S(=O)(=O)[O-])c5F)c5nc(c(-c6cccc(S(=O)(=O)[O-])c6F)c6ccc3[nH]6)C=C5)C=C4)cc2)c(C)n1
REMARK SMILES IDX 16 1 15 2 14 3 12 4 13 5 11 6 7 7 8 8 85 9 9 10 83 11 10 12
REMARK SMILES IDX 84 13 6 14 1 15 2 16 3 17 4 18 5 19 17 20 18 21 19 22 20 23
REMARK SMILES IDX 21 24 82 25 22 26 81 27 23 28 24 29 25 30 75 31 26 32 80 33
REMARK SMILES IDX 74 34 76 35 27 36 79 37 73 38 72 39 28 41 60 42 40 43 59 44
REMARK SMILES IDX 41 45 44 46 58 47 77 48 42 49 43 50 57 52 78 53 45 54 29 55
REMARK SMILES IDX 30 56 38 57 31 58 33 59 39 60 32 61 34 62 35 63 36 64 37 65
REMARK SMILES IDX 61 66 62 67 70 68 63 69 65 70 71 71 64 72 66 73 67 74 68 75
REMARK SMILES IDX 69 76 46 77 47 78 55 79 48 80 50 81 56 82 49 83 51 84 52 85
REMARK SMILES IDX 53 86 54 87
REMARK H PARENT 76 40 44 51
REMARK Flexibility Score: inf
ROOT
ATOM      1  C   UNL A   1      36.964  20.720  24.988  1.00  0.00     0.275 C 
ENDROOT
BRANCH   1   2
ATOM      2  C   UNL A   1      35.604  21.067  25.590  1.00  0.00     0.275 C 
BRANCH   2   3
ATOM      3  O   UNL A   1      34.534  20.697  24.690  1.00  0.00    -0.458 OA
BRANCH   3   4
ATOM      4  C   UNL A   1      33.283  20.656  25.214  1.00  0.00     0.341 C 
ATOM      5  O   UNL A   1      32.761  19.689  25.734  1.00  0.00    -0.246 OA
BRANCH   4   6
ATOM      6  C   UNL A   1      32.591  21.954  25.063  1.00  0.00     0.102 A 
ATOM      7  C   UNL A   1      31.512  24.414  24.698  1.00  0.00     0.160 A 
ATOM      8  N   UNL A   1      31.953  24.121  25.930  1.00  0.00    -0.232 NA
ATOM      9  N   UNL A   1      31.573  23.600  23.647  1.00  0.00    -0.232 NA
ATOM     10  C   UNL A   1      32.472  22.873  26.106  1.00  0.00     0.056 A 
ATOM     11  C   UNL A   1      32.142  22.395  23.824  1.00  0.00     0.056 A 
ATOM     12  C   UNL A   1      32.947  22.577  27.499  1.00  0.00     0.068 C 
ATOM     13  C   UNL A   1      32.153  21.604  22.565  1.00  0.00     0.068 C 
BRANCH   7  14
ATOM     14  C   UNL A   1      31.176  25.780  24.351  1.00  0.00     0.033 A 
ATOM     15  C   UNL A   1      33.588  26.716  24.288  1.00  0.00     0.046 C 
ATOM     16  C   UNL A   1      32.114  26.842  24.092  1.00  0.00    -0.029 A 
ATOM     17  C   UNL A   1      31.473  27.950  23.572  1.00  0.00     0.069 A 
ATOM     18  S   UNL A   1      29.793  27.712  23.366  1.00  0.00    -0.151 S 
ATOM     19  C   UNL A   1      29.898  26.106  23.937  1.00  0.00     0.077 A 
ENDBRANCH   7  14
ENDBRANCH   4   6
ENDBRANCH   3   4
ENDBRANCH   2   3
ENDBRANCH   1   2
BRANCH   1  20
ATOM     20  O   UNL A   1      37.881  21.804  25.210  1.00  0.00    -0.458 OA
BRANCH  20  21
ATOM     21  C   UNL A   1      38.993  21.484  25.908  1.00  0.00     0.338 C 
ATOM     22  O   UNL A   1      39.665  20.469  25.807  1.00  0.00    -0.246 OA
BRANCH  21  23
ATOM     23  C   UNL A   1      39.396  22.621  26.748  1.00  0.00     0.060 A 
ATOM     24  C   UNL A   1      38.838  23.856  26.461  1.00  0.00     0.016 A 
ATOM     25  C   UNL A   1      40.473  22.533  27.626  1.00  0.00     0.016 A 
ATOM     26  C   UNL A   1      39.486  25.013  26.888  1.00  0.00     0.010 A 
ATOM     27  C   UNL A   1      41.008  23.704  28.188  1.00  0.00     0.010 A 
ATOM     28  C   UNL A   1      40.577  24.976  27.768  1.00  0.00    -0.014 A 
BRANCH  28  29
ATOM     29  C   UNL A   1      41.275  26.244  28.180  1.00  0.00     0.031 A 
ATOM     30  C   UNL A   1      40.542  27.313  28.971  1.00  0.00     0.074 A 
ATOM     31  C   UNL A   1      42.579  26.456  27.885  1.00  0.00     0.049 A 
ATOM     32  N   UNL A   1      40.883  28.559  29.192  1.00  0.00    -0.248 NA
ATOM     33  C   UNL A   1      39.253  26.941  29.576  1.00  0.00     0.031 C 
ATOM     34  C   UNL A   1      43.461  25.524  27.179  1.00  0.00     0.029 A 
ATOM     35  N   UNL A   1      43.400  27.532  28.147  1.00  0.00    -0.354 N 
ATOM     36  C   UNL A   1      39.808  29.143  29.857  1.00  0.00     0.074 A 
ATOM     37  C   UNL A   1      38.813  28.107  30.029  1.00  0.00     0.031 C 
ATOM     38  C   UNL A   1      44.700  26.028  27.125  1.00  0.00     0.029 A 
ATOM     39  C   UNL A   1      44.671  27.389  27.634  1.00  0.00     0.049 A 
ATOM     40  H   UNL A   1      43.107  28.326  28.652  1.00  0.00     0.167 HD
ATOM     41  C   UNL A   1      39.662  30.422  30.286  1.00  0.00     0.034 A 
ATOM     42  C   UNL A   1      45.684  28.266  27.491  1.00  0.00     0.034 A 
ATOM     43  C   UNL A   1      40.694  31.425  30.208  1.00  0.00     0.049 A 
ATOM     44  C   UNL A   1      45.491  29.682  27.945  1.00  0.00     0.074 A 
ATOM     45  C   UNL A   1      40.652  32.738  30.644  1.00  0.00     0.029 A 
ATOM     46  N   UNL A   1      41.959  31.223  29.679  1.00  0.00    -0.354 N 
ATOM     47  N   UNL A   1      44.457  30.223  28.540  1.00  0.00    -0.248 NA
ATOM     48  C   UNL A   1      46.604  30.610  27.704  1.00  0.00     0.031 C 
ATOM     49  C   UNL A   1      41.879  33.339  30.349  1.00  0.00     0.029 A 
ATOM     50  C   UNL A   1      42.702  32.388  29.769  1.00  0.00     0.049 A 
ATOM     51  H   UNL A   1      42.282  30.376  29.295  1.00  0.00     0.167 HD
ATOM     52  C   UNL A   1      44.804  31.549  28.767  1.00  0.00     0.074 A 
ATOM     53  C   UNL A   1      46.153  31.721  28.271  1.00  0.00     0.031 C 
ATOM     54  C   UNL A   1      44.061  32.538  29.321  1.00  0.00     0.034 A 
BRANCH  41  55
ATOM     55  C   UNL A   1      38.332  30.833  30.874  1.00  0.00     0.023 A 
ATOM     56  C   UNL A   1      38.055  30.621  32.239  1.00  0.00     0.012 A 
ATOM     57  C   UNL A   1      37.381  31.505  30.076  1.00  0.00     0.148 A 
ATOM     58  C   UNL A   1      36.843  31.038  32.791  1.00  0.00     0.002 A 
ATOM     59  C   UNL A   1      36.198  31.961  30.643  1.00  0.00     0.091 A 
ATOM     60  F   UNL A   1      37.654  31.688  28.776  1.00  0.00    -0.205 F 
ATOM     61  C   UNL A   1      35.920  31.717  31.997  1.00  0.00     0.022 A 
BRANCH  59  62
ATOM     62  S   UNL A   1      34.986  32.921  29.725  1.00  0.00     0.127 S 
ATOM     63  O   UNL A   1      35.826  33.947  29.110  1.00  0.00    -0.237 OA
ATOM     64  O   UNL A   1      34.453  31.930  28.790  1.00  0.00    -0.237 OA
ATOM     65  O   UNL A   1      34.028  33.407  30.708  1.00  0.00    -0.744 OA
ENDBRANCH  59  62
ENDBRANCH  41  55
BRANCH  42  66
ATOM     66  C   UNL A   1      46.954  27.839  26.832  1.00  0.00     0.023 A 
ATOM     67  C   UNL A   1      47.995  27.295  27.608  1.00  0.00     0.012 A 
ATOM     68  C   UNL A   1      47.123  27.942  25.436  1.00  0.00     0.148 A 
ATOM     69  C   UNL A   1      49.187  26.883  27.008  1.00  0.00     0.002 A 
ATOM     70  C   UNL A   1      48.279  27.461  24.838  1.00  0.00     0.091 A 
ATOM     71  F   UNL A   1      46.133  28.489  24.716  1.00  0.00    -0.205 F 
ATOM     72  C   UNL A   1      49.323  26.951  25.624  1.00  0.00     0.022 A 
BRANCH  70  73
ATOM     73  S   UNL A   1      48.464  27.362  23.054  1.00  0.00     0.127 S 
ATOM     74  O   UNL A   1      49.829  27.846  22.867  1.00  0.00    -0.237 OA
ATOM     75  O   UNL A   1      48.278  25.930  22.810  1.00  0.00    -0.237 OA
ATOM     76  O   UNL A   1      47.410  28.203  22.503  1.00  0.00    -0.744 OA
ENDBRANCH  70  73
ENDBRANCH  42  66
BRANCH  54  77
ATOM     77  C   UNL A   1      44.713  33.886  29.477  1.00  0.00     0.023 A 
ATOM     78  C   UNL A   1      45.394  34.210  30.667  1.00  0.00     0.012 A 
ATOM     79  C   UNL A   1      44.691  34.813  28.418  1.00  0.00     0.148 A 
ATOM     80  C   UNL A   1      46.008  35.452  30.815  1.00  0.00     0.002 A 
ATOM     81  C   UNL A   1      45.351  36.029  28.552  1.00  0.00     0.091 A 
ATOM     82  F   UNL A   1      44.021  34.494  27.301  1.00  0.00    -0.205 F 
ATOM     83  C   UNL A   1      45.998  36.356  29.755  1.00  0.00     0.022 A 
BRANCH  81  84
ATOM     84  S   UNL A   1      45.471  37.213  27.208  1.00  0.00     0.127 S 
ATOM     85  O   UNL A   1      44.064  37.523  26.958  1.00  0.00    -0.237 OA
ATOM     86  O   UNL A   1      46.236  38.299  27.822  1.00  0.00    -0.237 OA
ATOM     87  O   UNL A   1      46.160  36.525  26.124  1.00  0.00    -0.744 OA
ENDBRANCH  81  84
ENDBRANCH  54  77
ENDBRANCH  28  29
ENDBRANCH  21  23
ENDBRANCH  20  21
ENDBRANCH   1  20
TORSDOF 15
ENDMDL
