MODEL 1
REMARK VINA RESULT:     -11.4      0.000      0.000
REMARK SMILES Cc1ccc(OCCC[N@H+]2CCCC[C@@H]2C(=O)OCCOC(=O)c2ccc(-c3c4nc(c(-c5cccc(S(=O)(=O)[O-])c5F)c5ccc([nH]5)c(-c5cccc(S(=O)(=O)[O-])c5F)c5nc(c(-c6cccc(S(=O)(=O)[O-])c6F)c6ccc3[nH]6)C=C5)C=C4)cc2)cc1C
REMARK SMILES IDX 19 1 18 2 16 3 17 4 15 5 10 6 11 7 12 9 14 10 13 11 9 12
REMARK SMILES IDX 8 13 7 14 6 15 5 16 1 17 2 18 3 19 88 20 4 21 87 22 89 23
REMARK SMILES IDX 20 24 21 25 22 26 23 27 24 28 25 29 86 30 26 31 85 32 27 33
REMARK SMILES IDX 28 34 29 35 79 36 30 37 84 38 78 39 80 40 31 41 83 42 77 43
REMARK SMILES IDX 76 44 32 46 64 47 44 48 63 49 45 50 48 51 62 52 81 53 46 54
REMARK SMILES IDX 47 55 61 57 82 58 49 59 33 60 34 61 42 62 35 63 37 64 43 65
REMARK SMILES IDX 36 66 38 67 39 68 40 69 41 70 65 71 66 72 74 73 67 74 69 75
REMARK SMILES IDX 75 76 68 77 70 78 71 79 72 80 73 81 50 82 51 83 59 84 52 85
REMARK SMILES IDX 54 86 60 87 53 88 55 89 56 90 57 91 58 92
REMARK H PARENT 10 8 80 45 48 56
REMARK Flexibility Score: inf
ROOT
ATOM      1  C   UNL A   1      32.017  29.688  25.015  1.00  0.00     0.274 C 
ENDROOT
BRANCH   1   2
ATOM      2  O   UNL A   1      33.131  28.824  25.316  1.00  0.00    -0.458 OA
BRANCH   2   3
ATOM      3  C   UNL A   1      32.807  27.527  25.564  1.00  0.00     0.365 C 
ATOM      4  O   UNL A   1      32.709  27.054  26.691  1.00  0.00    -0.245 OA
BRANCH   3   5
ATOM      5  C   UNL A   1      32.557  26.678  24.317  1.00  0.00     0.295 C 
ATOM      6  N   UNL A   1      31.553  25.582  24.535  1.00  0.00    -0.323 N 
ATOM      7  C   UNL A   1      31.358  24.858  23.251  1.00  0.00     0.262 C 
ATOM      8  H   UNL A   1      31.907  24.968  25.269  1.00  0.00     0.348 HD
ATOM      9  C   UNL A   1      32.651  24.333  22.622  1.00  0.00     0.062 C 
ATOM     10  C   UNL A   1      33.888  26.154  23.760  1.00  0.00     0.078 C 
ATOM     11  C   UNL A   1      33.669  25.448  22.433  1.00  0.00     0.013 C 
BRANCH   6  12
ATOM     12  C   UNL A   1      30.231  26.124  24.957  1.00  0.00     0.266 C 
BRANCH  12  13
ATOM     13  C   UNL A   1      29.677  25.485  26.242  1.00  0.00     0.103 C 
BRANCH  13  14
ATOM     14  C   UNL A   1      30.132  24.045  26.504  1.00  0.00     0.235 C 
BRANCH  14  15
ATOM     15  O   UNL A   1      31.379  23.996  27.233  1.00  0.00    -0.493 OA
BRANCH  15  16
ATOM     16  C   UNL A   1      32.328  23.276  26.558  1.00  0.00     0.119 A 
ATOM     17  C   UNL A   1      35.317  20.700  24.856  1.00  0.00     0.044 C 
ATOM     18  C   UNL A   1      34.308  21.683  25.381  1.00  0.00    -0.048 A 
ATOM     19  C   UNL A   1      32.948  21.363  25.243  1.00  0.00     0.007 A 
ATOM     20  C   UNL A   1      34.666  22.902  25.992  1.00  0.00    -0.045 A 
ATOM     21  C   UNL A   1      31.962  22.169  25.808  1.00  0.00     0.047 A 
ATOM     22  C   UNL A   1      33.660  23.690  26.587  1.00  0.00     0.050 A 
ATOM     23  C   UNL A   1      36.082  23.406  25.980  1.00  0.00     0.045 C 
ENDBRANCH  15  16
ENDBRANCH  14  15
ENDBRANCH  13  14
ENDBRANCH  12  13
ENDBRANCH   6  12
ENDBRANCH   3   5
ENDBRANCH   2   3
ENDBRANCH   1   2
BRANCH   1  24
ATOM     24  C   UNL A   1      31.672  30.671  26.144  1.00  0.00     0.275 C 
BRANCH  24  25
ATOM     25  O   UNL A   1      32.593  30.591  27.250  1.00  0.00    -0.458 OA
BRANCH  25  26
ATOM     26  C   UNL A   1      33.323  31.714  27.460  1.00  0.00     0.338 C 
ATOM     27  O   UNL A   1      32.888  32.851  27.551  1.00  0.00    -0.246 OA
BRANCH  26  28
ATOM     28  C   UNL A   1      34.733  31.383  27.757  1.00  0.00     0.060 A 
ATOM     29  C   UNL A   1      35.043  30.027  27.921  1.00  0.00     0.016 A 
ATOM     30  C   UNL A   1      35.717  32.354  27.951  1.00  0.00     0.016 A 
ATOM     31  C   UNL A   1      36.320  29.634  28.303  1.00  0.00     0.010 A 
ATOM     32  C   UNL A   1      37.001  31.959  28.356  1.00  0.00     0.010 A 
ATOM     33  C   UNL A   1      37.295  30.600  28.574  1.00  0.00    -0.014 A 
BRANCH  33  34
ATOM     34  C   UNL A   1      38.510  30.167  29.307  1.00  0.00     0.031 A 
ATOM     35  C   UNL A   1      38.677  30.617  30.736  1.00  0.00     0.074 A 
ATOM     36  C   UNL A   1      39.405  29.323  28.760  1.00  0.00     0.049 A 
ATOM     37  N   UNL A   1      39.586  30.276  31.611  1.00  0.00    -0.248 NA
ATOM     38  C   UNL A   1      37.682  31.577  31.246  1.00  0.00     0.031 C 
ATOM     39  C   UNL A   1      39.366  28.814  27.391  1.00  0.00     0.029 A 
ATOM     40  N   UNL A   1      40.530  28.751  29.301  1.00  0.00    -0.354 N 
ATOM     41  C   UNL A   1      39.291  30.996  32.762  1.00  0.00     0.074 A 
ATOM     42  C   UNL A   1      38.128  31.804  32.473  1.00  0.00     0.031 C 
ATOM     43  C   UNL A   1      40.435  28.020  27.191  1.00  0.00     0.029 A 
ATOM     44  C   UNL A   1      41.230  27.962  28.418  1.00  0.00     0.049 A 
ATOM     45  H   UNL A   1      40.810  28.892  30.234  1.00  0.00     0.167 HD
ATOM     46  C   UNL A   1      39.914  30.973  33.962  1.00  0.00     0.034 A 
ATOM     47  C   UNL A   1      42.377  27.273  28.586  1.00  0.00     0.034 A 
ATOM     48  C   UNL A   1      41.043  30.142  34.274  1.00  0.00     0.049 A 
ATOM     49  C   UNL A   1      43.038  27.250  29.944  1.00  0.00     0.074 A 
ATOM     50  C   UNL A   1      41.702  30.009  35.483  1.00  0.00     0.029 A 
ATOM     51  N   UNL A   1      41.685  29.311  33.371  1.00  0.00    -0.354 N 
ATOM     52  N   UNL A   1      42.648  27.808  31.065  1.00  0.00    -0.248 NA
ATOM     53  C   UNL A   1      44.273  26.461  30.070  1.00  0.00     0.031 C 
ATOM     54  C   UNL A   1      42.757  29.106  35.306  1.00  0.00     0.029 A 
ATOM     55  C   UNL A   1      42.739  28.666  33.993  1.00  0.00     0.049 A 
ATOM     56  H   UNL A   1      41.429  29.197  32.428  1.00  0.00     0.167 HD
ATOM     57  C   UNL A   1      43.565  27.405  32.032  1.00  0.00     0.074 A 
ATOM     58  C   UNL A   1      44.513  26.533  31.372  1.00  0.00     0.031 C 
ATOM     59  C   UNL A   1      43.631  27.742  33.344  1.00  0.00     0.034 A 
BRANCH  46  60
ATOM     60  C   UNL A   1      39.363  31.855  35.047  1.00  0.00     0.023 A 
ATOM     61  C   UNL A   1      38.383  31.350  35.925  1.00  0.00     0.012 A 
ATOM     62  C   UNL A   1      39.858  33.161  35.233  1.00  0.00     0.148 A 
ATOM     63  C   UNL A   1      37.884  32.141  36.958  1.00  0.00     0.002 A 
ATOM     64  C   UNL A   1      39.385  33.928  36.290  1.00  0.00     0.091 A 
ATOM     65  F   UNL A   1      40.773  33.626  34.370  1.00  0.00    -0.205 F 
ATOM     66  C   UNL A   1      38.392  33.424  37.147  1.00  0.00     0.022 A 
BRANCH  64  67
ATOM     67  S   UNL A   1      40.022  35.565  36.660  1.00  0.00     0.127 S 
ATOM     68  O   UNL A   1      41.464  35.321  36.685  1.00  0.00    -0.237 OA
ATOM     69  O   UNL A   1      39.555  36.342  35.511  1.00  0.00    -0.237 OA
ATOM     70  O   UNL A   1      39.436  35.949  37.936  1.00  0.00    -0.744 OA
ENDBRANCH  64  67
ENDBRANCH  46  60
BRANCH  47  71
ATOM     71  C   UNL A   1      42.970  26.503  27.455  1.00  0.00     0.023 A 
ATOM     72  C   UNL A   1      43.873  27.136  26.576  1.00  0.00     0.012 A 
ATOM     73  C   UNL A   1      42.609  25.162  27.218  1.00  0.00     0.148 A 
ATOM     74  C   UNL A   1      44.366  26.463  25.457  1.00  0.00     0.002 A 
ATOM     75  C   UNL A   1      43.146  24.482  26.130  1.00  0.00     0.091 A 
ATOM     76  F   UNL A   1      41.732  24.583  28.049  1.00  0.00    -0.205 F 
ATOM     77  C   UNL A   1      44.009  25.135  25.238  1.00  0.00     0.022 A 
BRANCH  75  78
ATOM     78  S   UNL A   1      42.824  22.739  25.845  1.00  0.00     0.127 S 
ATOM     79  O   UNL A   1      43.382  22.545  24.510  1.00  0.00    -0.237 OA
ATOM     80  O   UNL A   1      43.579  22.105  26.927  1.00  0.00    -0.237 OA
ATOM     81  O   UNL A   1      41.379  22.592  25.963  1.00  0.00    -0.744 OA
ENDBRANCH  75  78
ENDBRANCH  47  71
BRANCH  59  82
ATOM     82  C   UNL A   1      44.736  27.141  34.175  1.00  0.00     0.023 A 
ATOM     83  C   UNL A   1      46.000  27.763  34.212  1.00  0.00     0.012 A 
ATOM     84  C   UNL A   1      44.501  26.008  34.979  1.00  0.00     0.148 A 
ATOM     85  C   UNL A   1      47.021  27.247  35.009  1.00  0.00     0.002 A 
ATOM     86  C   UNL A   1      45.510  25.529  35.808  1.00  0.00     0.091 A 
ATOM     87  F   UNL A   1      43.300  25.415  34.918  1.00  0.00    -0.205 F 
ATOM     88  C   UNL A   1      46.773  26.139  35.816  1.00  0.00     0.022 A 
BRANCH  86  89
ATOM     89  S   UNL A   1      45.233  24.169  36.950  1.00  0.00     0.127 S 
ATOM     90  O   UNL A   1      44.233  24.735  37.855  1.00  0.00    -0.237 OA
ATOM     91  O   UNL A   1      44.729  23.113  36.069  1.00  0.00    -0.237 OA
ATOM     92  O   UNL A   1      46.533  23.883  37.542  1.00  0.00    -0.744 OA
ENDBRANCH  86  89
ENDBRANCH  59  82
ENDBRANCH  33  34
ENDBRANCH  26  28
ENDBRANCH  25  26
ENDBRANCH  24  25
ENDBRANCH   1  24
TORSDOF 19
ENDMDL
MODEL 2
REMARK VINA RESULT:     -11.0      1.575      2.286
REMARK SMILES Cc1ccc(OCCC[N@H+]2CCCC[C@@H]2C(=O)OCCOC(=O)c2ccc(-c3c4nc(c(-c5cccc(S(=O)(=O)[O-])c5F)c5ccc([nH]5)c(-c5cccc(S(=O)(=O)[O-])c5F)c5nc(c(-c6cccc(S(=O)(=O)[O-])c6F)c6ccc3[nH]6)C=C5)C=C4)cc2)cc1C
REMARK SMILES IDX 19 1 18 2 16 3 17 4 15 5 10 6 11 7 12 9 14 10 13 11 9 12
REMARK SMILES IDX 8 13 7 14 6 15 5 16 1 17 2 18 3 19 88 20 4 21 87 22 89 23
REMARK SMILES IDX 20 24 21 25 22 26 23 27 24 28 25 29 86 30 26 31 85 32 27 33
REMARK SMILES IDX 28 34 29 35 79 36 30 37 84 38 78 39 80 40 31 41 83 42 77 43
REMARK SMILES IDX 76 44 32 46 64 47 44 48 63 49 45 50 48 51 62 52 81 53 46 54
REMARK SMILES IDX 47 55 61 57 82 58 49 59 33 60 34 61 42 62 35 63 37 64 43 65
REMARK SMILES IDX 36 66 38 67 39 68 40 69 41 70 65 71 66 72 74 73 67 74 69 75
REMARK SMILES IDX 75 76 68 77 70 78 71 79 72 80 73 81 50 82 51 83 59 84 52 85
REMARK SMILES IDX 54 86 60 87 53 88 55 89 56 90 57 91 58 92
REMARK H PARENT 10 8 80 45 48 56
REMARK Flexibility Score: inf
ROOT
ATOM      1  C   UNL A   1      31.931  29.542  25.776  1.00  0.00     0.274 C 
ENDROOT
BRANCH   1   2
ATOM      2  O   UNL A   1      32.750  29.394  24.599  1.00  0.00    -0.458 OA
BRANCH   2   3
ATOM      3  C   UNL A   1      32.085  29.009  23.476  1.00  0.00     0.365 C 
ATOM      4  O   UNL A   1      32.633  28.800  22.400  1.00  0.00    -0.245 OA
BRANCH   3   5
ATOM      5  C   UNL A   1      30.575  28.839  23.651  1.00  0.00     0.295 C 
ATOM      6  N   UNL A   1      30.086  27.464  23.294  1.00  0.00    -0.323 N 
ATOM      7  C   UNL A   1      28.622  27.404  23.547  1.00  0.00     0.262 C 
ATOM      8  H   UNL A   1      30.311  27.291  22.314  1.00  0.00     0.348 HD
ATOM      9  C   UNL A   1      27.816  28.499  22.843  1.00  0.00     0.062 C 
ATOM     10  C   UNL A   1      29.828  29.944  22.891  1.00  0.00     0.078 C 
ATOM     11  C   UNL A   1      28.341  29.884  23.190  1.00  0.00     0.013 C 
BRANCH   6  12
ATOM     12  C   UNL A   1      30.735  26.416  24.132  1.00  0.00     0.266 C 
BRANCH  12  13
ATOM     13  C   UNL A   1      30.356  24.979  23.734  1.00  0.00     0.103 C 
BRANCH  13  14
ATOM     14  C   UNL A   1      31.530  24.084  23.319  1.00  0.00     0.235 C 
BRANCH  14  15
ATOM     15  O   UNL A   1      31.855  23.112  24.338  1.00  0.00    -0.493 OA
BRANCH  15  16
ATOM     16  C   UNL A   1      33.161  23.217  24.736  1.00  0.00     0.119 A 
ATOM     17  C   UNL A   1      37.349  23.771  25.519  1.00  0.00     0.044 C 
ATOM     18  C   UNL A   1      35.884  23.495  25.324  1.00  0.00    -0.048 A 
ATOM     19  C   UNL A   1      34.980  24.538  25.583  1.00  0.00     0.007 A 
ATOM     20  C   UNL A   1      35.386  22.245  24.904  1.00  0.00    -0.045 A 
ATOM     21  C   UNL A   1      33.621  24.391  25.313  1.00  0.00     0.047 A 
ATOM     22  C   UNL A   1      34.014  22.122  24.605  1.00  0.00     0.050 A 
ATOM     23  C   UNL A   1      36.268  21.031  24.817  1.00  0.00     0.045 C 
ENDBRANCH  15  16
ENDBRANCH  14  15
ENDBRANCH  13  14
ENDBRANCH  12  13
ENDBRANCH   6  12
ENDBRANCH   3   5
ENDBRANCH   2   3
ENDBRANCH   1   2
BRANCH   1  24
ATOM     24  C   UNL A   1      32.062  30.914  26.453  1.00  0.00     0.275 C 
BRANCH  24  25
ATOM     25  O   UNL A   1      32.912  30.880  27.617  1.00  0.00    -0.458 OA
BRANCH  25  26
ATOM     26  C   UNL A   1      33.716  31.962  27.761  1.00  0.00     0.338 C 
ATOM     27  O   UNL A   1      33.353  33.125  27.842  1.00  0.00    -0.246 OA
BRANCH  26  28
ATOM     28  C   UNL A   1      35.118  31.555  27.999  1.00  0.00     0.060 A 
ATOM     29  C   UNL A   1      35.369  30.180  28.088  1.00  0.00     0.016 A 
ATOM     30  C   UNL A   1      36.151  32.470  28.207  1.00  0.00     0.016 A 
ATOM     31  C   UNL A   1      36.638  29.712  28.412  1.00  0.00     0.010 A 
ATOM     32  C   UNL A   1      37.426  31.999  28.553  1.00  0.00     0.010 A 
ATOM     33  C   UNL A   1      37.663  30.619  28.697  1.00  0.00    -0.014 A 
BRANCH  33  34
ATOM     34  C   UNL A   1      38.878  30.097  29.371  1.00  0.00     0.031 A 
ATOM     35  C   UNL A   1      39.199  30.606  30.753  1.00  0.00     0.074 A 
ATOM     36  C   UNL A   1      39.635  29.131  28.819  1.00  0.00     0.049 A 
ATOM     37  N   UNL A   1      40.130  30.217  31.583  1.00  0.00    -0.248 NA
ATOM     38  C   UNL A   1      38.352  31.696  31.269  1.00  0.00     0.031 C 
ATOM     39  C   UNL A   1      39.439  28.552  27.491  1.00  0.00     0.029 A 
ATOM     40  N   UNL A   1      40.731  28.470  29.316  1.00  0.00    -0.354 N 
ATOM     41  C   UNL A   1      40.001  31.029  32.704  1.00  0.00     0.074 A 
ATOM     42  C   UNL A   1      38.911  31.942  32.444  1.00  0.00     0.031 C 
ATOM     43  C   UNL A   1      40.400  27.636  27.270  1.00  0.00     0.029 A 
ATOM     44  C   UNL A   1      41.275  27.560  28.440  1.00  0.00     0.049 A 
ATOM     45  H   UNL A   1      41.094  28.632  30.217  1.00  0.00     0.167 HD
ATOM     46  C   UNL A   1      40.707  31.005  33.857  1.00  0.00     0.034 A 
ATOM     47  C   UNL A   1      42.352  26.760  28.572  1.00  0.00     0.034 A 
ATOM     48  C   UNL A   1      41.762  30.074  34.142  1.00  0.00     0.049 A 
ATOM     49  C   UNL A   1      43.107  26.741  29.880  1.00  0.00     0.074 A 
ATOM     50  C   UNL A   1      42.492  29.936  35.310  1.00  0.00     0.029 A 
ATOM     51  N   UNL A   1      42.242  29.128  33.253  1.00  0.00    -0.354 N 
ATOM     52  N   UNL A   1      42.864  27.400  30.987  1.00  0.00    -0.248 NA
ATOM     53  C   UNL A   1      44.259  25.829  29.971  1.00  0.00     0.031 C 
ATOM     54  C   UNL A   1      43.429  28.915  35.119  1.00  0.00     0.029 A 
ATOM     55  C   UNL A   1      43.266  28.406  33.840  1.00  0.00     0.049 A 
ATOM     56  H   UNL A   1      41.905  28.989  32.339  1.00  0.00     0.167 HD
ATOM     57  C   UNL A   1      43.805  26.953  31.912  1.00  0.00     0.074 A 
ATOM     58  C   UNL A   1      44.602  25.947  31.246  1.00  0.00     0.031 C 
ATOM     59  C   UNL A   1      44.004  27.355  33.192  1.00  0.00     0.034 A 
BRANCH  46  60
ATOM     60  C   UNL A   1      40.335  32.001  34.919  1.00  0.00     0.023 A 
ATOM     61  C   UNL A   1      41.003  33.241  34.976  1.00  0.00     0.012 A 
ATOM     62  C   UNL A   1      39.288  31.733  35.822  1.00  0.00     0.148 A 
ATOM     63  C   UNL A   1      40.651  34.191  35.933  1.00  0.00     0.002 A 
ATOM     64  C   UNL A   1      38.916  32.701  36.746  1.00  0.00     0.091 A 
ATOM     65  F   UNL A   1      38.684  30.537  35.762  1.00  0.00    -0.205 F 
ATOM     66  C   UNL A   1      39.601  33.925  36.808  1.00  0.00     0.022 A 
BRANCH  64  67
ATOM     67  S   UNL A   1      37.534  32.485  37.871  1.00  0.00     0.127 S 
ATOM     68  O   UNL A   1      37.979  33.251  39.035  1.00  0.00    -0.237 OA
ATOM     69  O   UNL A   1      36.433  33.095  37.125  1.00  0.00    -0.237 OA
ATOM     70  O   UNL A   1      37.406  31.050  38.084  1.00  0.00    -0.744 OA
ENDBRANCH  64  67
ENDBRANCH  46  60
BRANCH  47  71
ATOM     71  C   UNL A   1      42.774  25.867  27.454  1.00  0.00     0.023 A 
ATOM     72  C   UNL A   1      43.621  26.365  26.443  1.00  0.00     0.012 A 
ATOM     73  C   UNL A   1      42.303  24.543  27.362  1.00  0.00     0.148 A 
ATOM     74  C   UNL A   1      43.951  25.577  25.340  1.00  0.00     0.002 A 
ATOM     75  C   UNL A   1      42.679  23.747  26.286  1.00  0.00     0.091 A 
ATOM     76  F   UNL A   1      41.479  24.092  28.319  1.00  0.00    -0.205 F 
ATOM     77  C   UNL A   1      43.487  24.267  25.264  1.00  0.00     0.022 A 
BRANCH  75  78
ATOM     78  S   UNL A   1      42.214  22.016  26.175  1.00  0.00     0.127 S 
ATOM     79  O   UNL A   1      40.775  22.106  25.944  1.00  0.00    -0.237 OA
ATOM     80  O   UNL A   1      42.995  21.560  25.024  1.00  0.00    -0.237 OA
ATOM     81  O   UNL A   1      42.623  21.426  27.443  1.00  0.00    -0.744 OA
ENDBRANCH  75  78
ENDBRANCH  47  71
BRANCH  59  82
ATOM     82  C   UNL A   1      45.100  26.684  33.982  1.00  0.00     0.023 A 
ATOM     83  C   UNL A   1      46.387  27.255  34.015  1.00  0.00     0.012 A 
ATOM     84  C   UNL A   1      44.834  25.534  34.753  1.00  0.00     0.148 A 
ATOM     85  C   UNL A   1      47.401  26.673  34.775  1.00  0.00     0.002 A 
ATOM     86  C   UNL A   1      45.838  24.989  35.546  1.00  0.00     0.091 A 
ATOM     87  F   UNL A   1      43.610  24.991  34.695  1.00  0.00    -0.205 F 
ATOM     88  C   UNL A   1      47.124  25.549  35.549  1.00  0.00     0.022 A 
BRANCH  86  89
ATOM     89  S   UNL A   1      45.528  23.603  36.648  1.00  0.00     0.127 S 
ATOM     90  O   UNL A   1      44.670  22.751  35.825  1.00  0.00    -0.237 OA
ATOM     91  O   UNL A   1      46.874  23.072  36.877  1.00  0.00    -0.237 OA
ATOM     92  O   UNL A   1      44.902  24.176  37.833  1.00  0.00    -0.744 OA
ENDBRANCH  86  89
ENDBRANCH  59  82
ENDBRANCH  33  34
ENDBRANCH  26  28
ENDBRANCH  25  26
ENDBRANCH  24  25
ENDBRANCH   1  24
TORSDOF 19
ENDMDL
MODEL 3
REMARK VINA RESULT:     -10.7      4.458      9.811
REMARK SMILES Cc1ccc(OCCC[N@H+]2CCCC[C@@H]2C(=O)OCCOC(=O)c2ccc(-c3c4nc(c(-c5cccc(S(=O)(=O)[O-])c5F)c5ccc([nH]5)c(-c5cccc(S(=O)(=O)[O-])c5F)c5nc(c(-c6cccc(S(=O)(=O)[O-])c6F)c6ccc3[nH]6)C=C5)C=C4)cc2)cc1C
REMARK SMILES IDX 19 1 18 2 16 3 17 4 15 5 10 6 11 7 12 9 14 10 13 11 9 12
REMARK SMILES IDX 8 13 7 14 6 15 5 16 1 17 2 18 3 19 88 20 4 21 87 22 89 23
REMARK SMILES IDX 20 24 21 25 22 26 23 27 24 28 25 29 86 30 26 31 85 32 27 33
REMARK SMILES IDX 28 34 29 35 79 36 30 37 84 38 78 39 80 40 31 41 83 42 77 43
REMARK SMILES IDX 76 44 32 46 64 47 44 48 63 49 45 50 48 51 62 52 81 53 46 54
REMARK SMILES IDX 47 55 61 57 82 58 49 59 33 60 34 61 42 62 35 63 37 64 43 65
REMARK SMILES IDX 36 66 38 67 39 68 40 69 41 70 65 71 66 72 74 73 67 74 69 75
REMARK SMILES IDX 75 76 68 77 70 78 71 79 72 80 73 81 50 82 51 83 59 84 52 85
REMARK SMILES IDX 54 86 60 87 53 88 55 89 56 90 57 91 58 92
REMARK H PARENT 10 8 80 45 48 56
REMARK Flexibility Score: inf
ROOT
ATOM      1  C   UNL A   1      35.871  21.139  25.443  1.00  0.00     0.274 C 
ENDROOT
BRANCH   1   2
ATOM      2  O   UNL A   1      35.157  21.819  24.390  1.00  0.00    -0.458 OA
BRANCH   2   3
ATOM      3  C   UNL A   1      34.801  23.102  24.669  1.00  0.00     0.365 C 
ATOM      4  O   UNL A   1      35.578  24.049  24.621  1.00  0.00    -0.245 OA
BRANCH   3   5
ATOM      5  C   UNL A   1      33.331  23.293  25.045  1.00  0.00     0.295 C 
ATOM      6  N   UNL A   1      32.587  24.193  24.100  1.00  0.00    -0.323 N 
ATOM      7  C   UNL A   1      31.167  24.265  24.536  1.00  0.00     0.262 C 
ATOM      8  H   UNL A   1      33.036  25.108  24.112  1.00  0.00     0.348 HD
ATOM      9  C   UNL A   1      30.979  24.687  25.996  1.00  0.00     0.062 C 
ATOM     10  C   UNL A   1      33.215  23.751  26.506  1.00  0.00     0.078 C 
ATOM     11  C   UNL A   1      31.761  23.786  26.939  1.00  0.00     0.013 C 
BRANCH   6  12
ATOM     12  C   UNL A   1      32.607  23.662  22.707  1.00  0.00     0.266 C 
BRANCH  12  13
ATOM     13  C   UNL A   1      32.985  24.712  21.647  1.00  0.00     0.103 C 
BRANCH  13  14
ATOM     14  C   UNL A   1      33.283  26.113  22.193  1.00  0.00     0.235 C 
BRANCH  14  15
ATOM     15  O   UNL A   1      32.109  26.957  22.187  1.00  0.00    -0.493 OA
BRANCH  15  16
ATOM     16  C   UNL A   1      32.034  27.723  23.319  1.00  0.00     0.119 A 
ATOM     17  C   UNL A   1      32.029  30.505  26.593  1.00  0.00     0.044 C 
ATOM     18  C   UNL A   1      32.022  29.448  25.525  1.00  0.00    -0.048 A 
ATOM     19  C   UNL A   1      30.982  29.475  24.582  1.00  0.00     0.007 A 
ATOM     20  C   UNL A   1      33.002  28.438  25.435  1.00  0.00    -0.045 A 
ATOM     21  C   UNL A   1      30.975  28.600  23.498  1.00  0.00     0.047 A 
ATOM     22  C   UNL A   1      32.999  27.581  24.315  1.00  0.00     0.050 A 
ATOM     23  C   UNL A   1      34.014  28.219  26.524  1.00  0.00     0.045 C 
ENDBRANCH  15  16
ENDBRANCH  14  15
ENDBRANCH  13  14
ENDBRANCH  12  13
ENDBRANCH   6  12
ENDBRANCH   3   5
ENDBRANCH   2   3
ENDBRANCH   1   2
BRANCH   1  24
ATOM     24  C   UNL A   1      37.200  20.518  24.988  1.00  0.00     0.275 C 
BRANCH  24  25
ATOM     25  O   UNL A   1      38.299  21.448  25.052  1.00  0.00    -0.458 OA
BRANCH  25  26
ATOM     26  C   UNL A   1      39.271  21.115  25.936  1.00  0.00     0.338 C 
ATOM     27  O   UNL A   1      39.829  20.032  26.019  1.00  0.00    -0.246 OA
BRANCH  26  28
ATOM     28  C   UNL A   1      39.728  22.298  26.696  1.00  0.00     0.060 A 
ATOM     29  C   UNL A   1      39.104  23.516  26.403  1.00  0.00     0.016 A 
ATOM     30  C   UNL A   1      40.781  22.254  27.611  1.00  0.00     0.016 A 
ATOM     31  C   UNL A   1      39.540  24.696  26.995  1.00  0.00     0.010 A 
ATOM     32  C   UNL A   1      41.235  23.446  28.194  1.00  0.00     0.010 A 
ATOM     33  C   UNL A   1      40.643  24.677  27.856  1.00  0.00    -0.014 A 
BRANCH  33  34
ATOM     34  C   UNL A   1      41.287  25.974  28.180  1.00  0.00     0.031 A 
ATOM     35  C   UNL A   1      42.685  26.220  27.674  1.00  0.00     0.074 A 
ATOM     36  C   UNL A   1      40.626  26.951  28.828  1.00  0.00     0.049 A 
ATOM     37  N   UNL A   1      43.405  27.309  27.728  1.00  0.00    -0.248 NA
ATOM     38  C   UNL A   1      43.358  25.087  27.016  1.00  0.00     0.031 C 
ATOM     39  C   UNL A   1      39.273  26.846  29.373  1.00  0.00     0.029 A 
ATOM     40  N   UNL A   1      41.017  28.230  29.141  1.00  0.00    -0.354 N 
ATOM     41  C   UNL A   1      44.622  26.987  27.138  1.00  0.00     0.074 A 
ATOM     42  C   UNL A   1      44.550  25.597  26.745  1.00  0.00     0.031 C 
ATOM     43  C   UNL A   1      38.955  28.007  29.974  1.00  0.00     0.029 A 
ATOM     44  C   UNL A   1      40.077  28.938  29.854  1.00  0.00     0.049 A 
ATOM     45  H   UNL A   1      41.888  28.605  28.879  1.00  0.00     0.167 HD
ATOM     46  C   UNL A   1      45.696  27.778  26.919  1.00  0.00     0.034 A 
ATOM     47  C   UNL A   1      40.122  30.192  30.347  1.00  0.00     0.034 A 
ATOM     48  C   UNL A   1      45.762  29.170  27.264  1.00  0.00     0.049 A 
ATOM     49  C   UNL A   1      41.327  31.058  30.067  1.00  0.00     0.074 A 
ATOM     50  C   UNL A   1      46.789  30.066  27.024  1.00  0.00     0.029 A 
ATOM     51  N   UNL A   1      44.767  29.866  27.929  1.00  0.00    -0.354 N 
ATOM     52  N   UNL A   1      42.399  30.785  29.362  1.00  0.00    -0.248 NA
ATOM     53  C   UNL A   1      41.306  32.426  30.611  1.00  0.00     0.031 C 
ATOM     54  C   UNL A   1      46.420  31.304  27.562  1.00  0.00     0.029 A 
ATOM     55  C   UNL A   1      45.157  31.180  28.117  1.00  0.00     0.049 A 
ATOM     56  H   UNL A   1      43.910  29.483  28.225  1.00  0.00     0.167 HD
ATOM     57  C   UNL A   1      43.155  31.954  29.348  1.00  0.00     0.074 A 
ATOM     58  C   UNL A   1      42.407  32.946  30.088  1.00  0.00     0.031 C 
ATOM     59  C   UNL A   1      44.371  32.180  28.790  1.00  0.00     0.034 A 
BRANCH  46  60
ATOM     60  C   UNL A   1      46.885  27.161  26.237  1.00  0.00     0.023 A 
ATOM     61  C   UNL A   1      47.004  27.240  24.835  1.00  0.00     0.012 A 
ATOM     62  C   UNL A   1      47.911  26.555  26.990  1.00  0.00     0.148 A 
ATOM     63  C   UNL A   1      48.116  26.703  24.189  1.00  0.00     0.002 A 
ATOM     64  C   UNL A   1      49.034  26.059  26.341  1.00  0.00     0.091 A 
ATOM     65  F   UNL A   1      47.762  26.472  28.320  1.00  0.00    -0.205 F 
ATOM     66  C   UNL A   1      49.134  26.124  24.941  1.00  0.00     0.022 A 
BRANCH  64  67
ATOM     67  S   UNL A   1      50.430  25.356  27.224  1.00  0.00     0.127 S 
ATOM     68  O   UNL A   1      50.817  26.465  28.096  1.00  0.00    -0.237 OA
ATOM     69  O   UNL A   1      49.816  24.222  27.915  1.00  0.00    -0.237 OA
ATOM     70  O   UNL A   1      51.410  24.994  26.209  1.00  0.00    -0.744 OA
ENDBRANCH  64  67
ENDBRANCH  46  60
BRANCH  47  71
ATOM     71  C   UNL A   1      38.974  30.741  31.127  1.00  0.00     0.023 A 
ATOM     72  C   UNL A   1      38.927  30.554  32.523  1.00  0.00     0.012 A 
ATOM     73  C   UNL A   1      37.909  31.403  30.487  1.00  0.00     0.148 A 
ATOM     74  C   UNL A   1      37.818  30.975  33.260  1.00  0.00     0.002 A 
ATOM     75  C   UNL A   1      36.832  31.866  31.235  1.00  0.00     0.091 A 
ATOM     76  F   UNL A   1      37.958  31.551  29.156  1.00  0.00    -0.205 F 
ATOM     77  C   UNL A   1      36.775  31.637  32.618  1.00  0.00     0.022 A 
BRANCH  75  78
ATOM     78  S   UNL A   1      35.505  32.825  30.498  1.00  0.00     0.127 S 
ATOM     79  O   UNL A   1      34.709  33.185  31.669  1.00  0.00    -0.237 OA
ATOM     80  O   UNL A   1      36.233  33.936  29.883  1.00  0.00    -0.237 OA
ATOM     81  O   UNL A   1      34.868  31.929  29.543  1.00  0.00    -0.744 OA
ENDBRANCH  75  78
ENDBRANCH  47  71
BRANCH  59  82
ATOM     82  C   UNL A   1      44.960  33.562  28.915  1.00  0.00     0.023 A 
ATOM     83  C   UNL A   1      44.675  34.534  27.935  1.00  0.00     0.012 A 
ATOM     84  C   UNL A   1      45.729  33.921  30.040  1.00  0.00     0.148 A 
ATOM     85  C   UNL A   1      45.176  35.830  28.056  1.00  0.00     0.002 A 
ATOM     86  C   UNL A   1      46.183  35.229  30.178  1.00  0.00     0.091 A 
ATOM     87  F   UNL A   1      46.008  32.980  30.954  1.00  0.00    -0.205 F 
ATOM     88  C   UNL A   1      45.917  36.181  29.182  1.00  0.00     0.022 A 
BRANCH  86  89
ATOM     89  S   UNL A   1      47.057  35.779  31.649  1.00  0.00     0.127 S 
ATOM     90  O   UNL A   1      46.202  35.264  32.717  1.00  0.00    -0.237 OA
ATOM     91  O   UNL A   1      48.348  35.100  31.522  1.00  0.00    -0.237 OA
ATOM     92  O   UNL A   1      47.131  37.230  31.540  1.00  0.00    -0.744 OA
ENDBRANCH  86  89
ENDBRANCH  59  82
ENDBRANCH  33  34
ENDBRANCH  26  28
ENDBRANCH  25  26
ENDBRANCH  24  25
ENDBRANCH   1  24
TORSDOF 19
ENDMDL
