MODEL 1
REMARK VINA RESULT:     -12.9      0.000      0.000
REMARK SMILES Cc1ccc(Oc2cc(C(=O)OCCOC(=O)c3ccc(-c4c5nc(c(-c6cccc(S(=O)(=O)[O-])c6F)c6ccc([nH]6)c(-c6cccc(S(=O)(=O)[O-])c6F)c6nc(c(-c7cccc(S(=O)(=O)[O-])c7F)c7ccc4[nH]7)C=C6)C=C5)cc3)nc3ccccc23)cc1
REMARK SMILES IDX 14 1 13 2 12 3 10 4 11 5 9 6 7 7 8 8 87 9 82 10 86 11 81 12
REMARK SMILES IDX 83 13 85 14 84 15 6 16 5 17 1 18 2 19 3 20 89 21 4 22 88 23
REMARK SMILES IDX 15 24 16 25 17 26 18 27 19 28 80 29 20 30 79 31 21 32 22 33
REMARK SMILES IDX 23 34 73 35 24 36 78 37 72 38 74 39 25 40 77 41 71 42 70 43
REMARK SMILES IDX 26 45 58 46 38 47 57 48 39 49 42 50 56 51 75 52 40 53 41 54
REMARK SMILES IDX 55 56 76 57 43 58 27 59 28 60 36 61 29 62 31 63 37 64 30 65
REMARK SMILES IDX 32 66 33 67 34 68 35 69 59 70 60 71 68 72 61 73 63 74 69 75
REMARK SMILES IDX 62 76 64 77 65 78 66 79 67 80 44 81 45 82 53 83 46 84 48 85
REMARK SMILES IDX 54 86 47 87 49 88 50 89 51 90 52 91
REMARK H PARENT 74 44 42 55
REMARK Flexibility Score: inf
ROOT
ATOM      1  C   UNL A   1      33.524  31.238  27.595  1.00  0.00     0.275 C 
ENDROOT
BRANCH   1   2
ATOM      2  C   UNL A   1      32.362  30.558  26.854  1.00  0.00     0.275 C 
BRANCH   2   3
ATOM      3  O   UNL A   1      32.671  29.302  26.222  1.00  0.00    -0.457 OA
BRANCH   3   4
ATOM      4  C   UNL A   1      32.056  28.268  26.878  1.00  0.00     0.357 C 
ATOM      5  O   UNL A   1      31.379  28.418  27.891  1.00  0.00    -0.244 OA
BRANCH   4   6
ATOM      6  C   UNL A   1      32.353  26.896  26.357  1.00  0.00     0.152 A 
ATOM      7  C   UNL A   1      33.346  25.265  24.920  1.00  0.00     0.139 A 
ATOM      8  C   UNL A   1      33.352  26.563  25.459  1.00  0.00     0.084 A 
ATOM      9  C   UNL A   1      32.421  24.296  25.393  1.00  0.00     0.043 A 
ATOM     10  C   UNL A   1      31.450  24.760  26.295  1.00  0.00     0.075 A 
ATOM     11  C   UNL A   1      32.382  22.925  25.033  1.00  0.00     0.014 A 
ATOM     12  N   UNL A   1      31.423  26.003  26.771  1.00  0.00    -0.240 NA
ATOM     13  C   UNL A   1      30.442  23.916  26.724  1.00  0.00     0.029 A 
ATOM     14  C   UNL A   1      31.357  22.086  25.472  1.00  0.00     0.001 A 
ATOM     15  C   UNL A   1      30.373  22.591  26.308  1.00  0.00     0.002 A 
BRANCH   7  16
ATOM     16  O   UNL A   1      34.314  25.010  23.961  1.00  0.00    -0.457 OA
BRANCH  16  17
ATOM     17  C   UNL A   1      35.371  24.160  24.241  1.00  0.00     0.127 A 
ATOM     18  C   UNL A   1      38.412  21.403  25.607  1.00  0.00     0.044 C 
ATOM     19  C   UNL A   1      37.376  22.373  25.121  1.00  0.00    -0.051 A 
ATOM     20  C   UNL A   1      36.941  23.416  25.946  1.00  0.00     0.007 A 
ATOM     21  C   UNL A   1      36.861  22.290  23.822  1.00  0.00     0.007 A 
ATOM     22  C   UNL A   1      35.946  24.300  25.508  1.00  0.00     0.047 A 
ATOM     23  C   UNL A   1      35.885  23.191  23.376  1.00  0.00     0.047 A 
ENDBRANCH  16  17
ENDBRANCH   7  16
ENDBRANCH   4   6
ENDBRANCH   3   4
ENDBRANCH   2   3
ENDBRANCH   1   2
BRANCH   1  24
ATOM     24  O   UNL A   1      34.861  30.706  27.446  1.00  0.00    -0.458 OA
BRANCH  24  25
ATOM     25  C   UNL A   1      36.022  31.134  28.022  1.00  0.00     0.338 C 
ATOM     26  O   UNL A   1      36.164  32.258  28.433  1.00  0.00    -0.246 OA
BRANCH  25  27
ATOM     27  C   UNL A   1      37.097  30.136  28.147  1.00  0.00     0.060 A 
ATOM     28  C   UNL A   1      37.180  29.362  29.314  1.00  0.00     0.016 A 
ATOM     29  C   UNL A   1      37.957  29.930  27.077  1.00  0.00     0.016 A 
ATOM     30  C   UNL A   1      38.087  28.312  29.387  1.00  0.00     0.010 A 
ATOM     31  C   UNL A   1      38.758  28.817  27.088  1.00  0.00     0.010 A 
ATOM     32  C   UNL A   1      38.881  28.064  28.271  1.00  0.00    -0.014 A 
BRANCH  32  33
ATOM     33  C   UNL A   1      40.176  27.412  28.371  1.00  0.00     0.031 A 
ATOM     34  C   UNL A   1      40.365  25.962  28.348  1.00  0.00     0.074 A 
ATOM     35  C   UNL A   1      41.177  28.318  28.289  1.00  0.00     0.049 A 
ATOM     36  N   UNL A   1      41.468  25.400  28.699  1.00  0.00    -0.248 NA
ATOM     37  C   UNL A   1      39.326  25.011  27.973  1.00  0.00     0.031 C 
ATOM     38  C   UNL A   1      42.562  28.175  27.899  1.00  0.00     0.029 A 
ATOM     39  N   UNL A   1      41.072  29.665  28.676  1.00  0.00    -0.354 N 
ATOM     40  C   UNL A   1      41.405  24.081  28.296  1.00  0.00     0.074 A 
ATOM     41  C   UNL A   1      40.012  23.860  27.988  1.00  0.00     0.031 C 
ATOM     42  C   UNL A   1      43.227  29.279  28.295  1.00  0.00     0.029 A 
ATOM     43  C   UNL A   1      42.321  30.056  29.139  1.00  0.00     0.049 A 
ATOM     44  H   UNL A   1      40.264  30.226  28.626  1.00  0.00     0.167 HD
ATOM     45  C   UNL A   1      42.581  23.418  28.097  1.00  0.00     0.034 A 
ATOM     46  C   UNL A   1      42.506  30.398  30.450  1.00  0.00     0.034 A 
ATOM     47  C   UNL A   1      43.711  24.281  28.494  1.00  0.00     0.049 A 
ATOM     48  C   UNL A   1      43.478  29.441  31.112  1.00  0.00     0.074 A 
ATOM     49  C   UNL A   1      44.534  25.121  27.758  1.00  0.00     0.029 A 
ATOM     50  N   UNL A   1      43.891  24.628  29.829  1.00  0.00    -0.354 N 
ATOM     51  N   UNL A   1      43.814  28.287  30.608  1.00  0.00    -0.248 NA
ATOM     52  C   UNL A   1      44.113  29.691  32.399  1.00  0.00     0.031 C 
ATOM     53  C   UNL A   1      45.123  26.052  28.655  1.00  0.00     0.029 A 
ATOM     54  C   UNL A   1      44.695  25.756  29.939  1.00  0.00     0.049 A 
ATOM     55  H   UNL A   1      43.501  24.143  30.591  1.00  0.00     0.167 HD
ATOM     56  C   UNL A   1      44.614  27.610  31.480  1.00  0.00     0.074 A 
ATOM     57  C   UNL A   1      44.816  28.557  32.568  1.00  0.00     0.031 C 
ATOM     58  C   UNL A   1      44.999  26.319  31.252  1.00  0.00     0.034 A 
BRANCH  45  59
ATOM     59  C   UNL A   1      42.783  22.170  27.237  1.00  0.00     0.023 A 
ATOM     60  C   UNL A   1      42.014  21.031  27.588  1.00  0.00     0.012 A 
ATOM     61  C   UNL A   1      43.700  21.980  26.175  1.00  0.00     0.148 A 
ATOM     62  C   UNL A   1      42.202  19.773  27.007  1.00  0.00     0.002 A 
ATOM     63  C   UNL A   1      43.905  20.715  25.602  1.00  0.00     0.091 A 
ATOM     64  F   UNL A   1      44.356  23.023  25.666  1.00  0.00    -0.205 F 
ATOM     65  C   UNL A   1      43.167  19.607  26.029  1.00  0.00     0.022 A 
BRANCH  63  66
ATOM     66  S   UNL A   1      45.135  20.396  24.319  1.00  0.00     0.127 S 
ATOM     67  O   UNL A   1      44.693  21.284  23.243  1.00  0.00    -0.237 OA
ATOM     68  O   UNL A   1      46.379  20.807  24.969  1.00  0.00    -0.237 OA
ATOM     69  O   UNL A   1      45.046  18.976  24.005  1.00  0.00    -0.744 OA
ENDBRANCH  63  66
ENDBRANCH  45  59
BRANCH  46  70
ATOM     70  C   UNL A   1      41.280  30.954  31.138  1.00  0.00     0.023 A 
ATOM     71  C   UNL A   1      40.668  32.114  30.590  1.00  0.00     0.012 A 
ATOM     72  C   UNL A   1      40.531  30.174  32.035  1.00  0.00     0.148 A 
ATOM     73  C   UNL A   1      39.318  32.403  30.825  1.00  0.00     0.002 A 
ATOM     74  C   UNL A   1      39.181  30.457  32.246  1.00  0.00     0.091 A 
ATOM     75  F   UNL A   1      41.111  29.124  32.630  1.00  0.00    -0.205 F 
ATOM     76  C   UNL A   1      38.568  31.559  31.634  1.00  0.00     0.022 A 
BRANCH  74  77
ATOM     77  S   UNL A   1      38.146  29.267  33.113  1.00  0.00     0.127 S 
ATOM     78  O   UNL A   1      36.819  29.541  32.556  1.00  0.00    -0.237 OA
ATOM     79  O   UNL A   1      38.697  27.980  32.711  1.00  0.00    -0.237 OA
ATOM     80  O   UNL A   1      38.332  29.667  34.503  1.00  0.00    -0.744 OA
ENDBRANCH  74  77
ENDBRANCH  46  70
BRANCH  58  81
ATOM     81  C   UNL A   1      45.718  25.451  32.254  1.00  0.00     0.023 A 
ATOM     82  C   UNL A   1      47.092  25.590  32.520  1.00  0.00     0.012 A 
ATOM     83  C   UNL A   1      44.985  24.566  33.084  1.00  0.00     0.148 A 
ATOM     84  C   UNL A   1      47.727  24.833  33.509  1.00  0.00     0.002 A 
ATOM     85  C   UNL A   1      45.595  23.918  34.149  1.00  0.00     0.091 A 
ATOM     86  F   UNL A   1      43.688  24.332  32.835  1.00  0.00    -0.205 F 
ATOM     87  C   UNL A   1      46.974  24.017  34.342  1.00  0.00     0.022 A 
BRANCH  85  88
ATOM     88  S   UNL A   1      44.607  23.088  35.400  1.00  0.00     0.127 S 
ATOM     89  O   UNL A   1      44.142  21.903  34.684  1.00  0.00    -0.237 OA
ATOM     90  O   UNL A   1      45.591  22.819  36.450  1.00  0.00    -0.237 OA
ATOM     91  O   UNL A   1      43.585  24.055  35.779  1.00  0.00    -0.744 OA
ENDBRANCH  85  88
ENDBRANCH  58  81
ENDBRANCH  32  33
ENDBRANCH  25  27
ENDBRANCH  24  25
ENDBRANCH   1  24
TORSDOF 16
ENDMDL
MODEL 2
REMARK VINA RESULT:     -12.6      1.584      2.262
REMARK SMILES Cc1ccc(Oc2cc(C(=O)OCCOC(=O)c3ccc(-c4c5nc(c(-c6cccc(S(=O)(=O)[O-])c6F)c6ccc([nH]6)c(-c6cccc(S(=O)(=O)[O-])c6F)c6nc(c(-c7cccc(S(=O)(=O)[O-])c7F)c7ccc4[nH]7)C=C6)C=C5)cc3)nc3ccccc23)cc1
REMARK SMILES IDX 14 1 13 2 12 3 10 4 11 5 9 6 7 7 8 8 87 9 82 10 86 11 81 12
REMARK SMILES IDX 83 13 85 14 84 15 6 16 5 17 1 18 2 19 3 20 89 21 4 22 88 23
REMARK SMILES IDX 15 24 16 25 17 26 18 27 19 28 80 29 20 30 79 31 21 32 22 33
REMARK SMILES IDX 23 34 73 35 24 36 78 37 72 38 74 39 25 40 77 41 71 42 70 43
REMARK SMILES IDX 26 45 58 46 38 47 57 48 39 49 42 50 56 51 75 52 40 53 41 54
REMARK SMILES IDX 55 56 76 57 43 58 27 59 28 60 36 61 29 62 31 63 37 64 30 65
REMARK SMILES IDX 32 66 33 67 34 68 35 69 59 70 60 71 68 72 61 73 63 74 69 75
REMARK SMILES IDX 62 76 64 77 65 78 66 79 67 80 44 81 45 82 53 83 46 84 48 85
REMARK SMILES IDX 54 86 47 87 49 88 50 89 51 90 52 91
REMARK H PARENT 74 44 42 55
REMARK Flexibility Score: inf
ROOT
ATOM      1  C   UNL A   1      34.109  29.698  26.479  1.00  0.00     0.275 C 
ENDROOT
BRANCH   1   2
ATOM      2  C   UNL A   1      32.691  29.878  27.042  1.00  0.00     0.275 C 
BRANCH   2   3
ATOM      3  O   UNL A   1      31.646  29.168  26.352  1.00  0.00    -0.457 OA
BRANCH   3   4
ATOM      4  C   UNL A   1      31.483  27.916  26.883  1.00  0.00     0.357 C 
ATOM      5  O   UNL A   1      31.210  27.713  28.063  1.00  0.00    -0.244 OA
BRANCH   4   6
ATOM      6  C   UNL A   1      31.778  26.773  25.962  1.00  0.00     0.152 A 
ATOM      7  C   UNL A   1      32.577  24.607  25.344  1.00  0.00     0.139 A 
ATOM      8  C   UNL A   1      32.129  25.489  26.343  1.00  0.00     0.084 A 
ATOM      9  C   UNL A   1      32.537  24.990  23.977  1.00  0.00     0.043 A 
ATOM     10  C   UNL A   1      32.173  26.323  23.721  1.00  0.00     0.075 A 
ATOM     11  C   UNL A   1      32.838  24.165  22.863  1.00  0.00     0.014 A 
ATOM     12  N   UNL A   1      31.795  27.176  24.669  1.00  0.00    -0.240 NA
ATOM     13  C   UNL A   1      32.214  26.816  22.431  1.00  0.00     0.029 A 
ATOM     14  C   UNL A   1      32.876  24.679  21.567  1.00  0.00     0.001 A 
ATOM     15  C   UNL A   1      32.578  26.016  21.353  1.00  0.00     0.002 A 
BRANCH   7  16
ATOM     16  O   UNL A   1      32.999  23.363  25.789  1.00  0.00    -0.457 OA
BRANCH  16  17
ATOM     17  C   UNL A   1      34.350  23.058  25.838  1.00  0.00     0.127 A 
ATOM     18  C   UNL A   1      38.467  21.759  25.557  1.00  0.00     0.044 C 
ATOM     19  C   UNL A   1      37.041  22.211  25.680  1.00  0.00    -0.051 A 
ATOM     20  C   UNL A   1      36.002  21.275  25.718  1.00  0.00     0.007 A 
ATOM     21  C   UNL A   1      36.723  23.568  25.811  1.00  0.00     0.007 A 
ATOM     22  C   UNL A   1      34.669  21.697  25.795  1.00  0.00     0.047 A 
ATOM     23  C   UNL A   1      35.389  23.987  25.915  1.00  0.00     0.047 A 
ENDBRANCH  16  17
ENDBRANCH   7  16
ENDBRANCH   4   6
ENDBRANCH   3   4
ENDBRANCH   2   3
ENDBRANCH   1   2
BRANCH   1  24
ATOM     24  O   UNL A   1      35.203  29.451  27.394  1.00  0.00    -0.458 OA
BRANCH  24  25
ATOM     25  C   UNL A   1      36.268  30.251  27.691  1.00  0.00     0.338 C 
ATOM     26  O   UNL A   1      36.167  31.447  27.801  1.00  0.00    -0.246 OA
BRANCH  25  27
ATOM     27  C   UNL A   1      37.556  29.572  27.904  1.00  0.00     0.060 A 
ATOM     28  C   UNL A   1      38.468  29.486  26.841  1.00  0.00     0.016 A 
ATOM     29  C   UNL A   1      37.871  29.098  29.170  1.00  0.00     0.016 A 
ATOM     30  C   UNL A   1      39.747  28.988  27.062  1.00  0.00     0.010 A 
ATOM     31  C   UNL A   1      39.168  28.734  29.427  1.00  0.00     0.010 A 
ATOM     32  C   UNL A   1      40.075  28.600  28.358  1.00  0.00    -0.014 A 
BRANCH  32  33
ATOM     33  C   UNL A   1      41.102  27.610  28.634  1.00  0.00     0.031 A 
ATOM     34  C   UNL A   1      40.911  26.169  28.477  1.00  0.00     0.074 A 
ATOM     35  C   UNL A   1      42.295  28.207  28.860  1.00  0.00     0.049 A 
ATOM     36  N   UNL A   1      41.725  25.303  28.971  1.00  0.00    -0.248 NA
ATOM     37  C   UNL A   1      39.773  25.568  27.795  1.00  0.00     0.031 C 
ATOM     38  C   UNL A   1      43.647  27.710  28.738  1.00  0.00     0.029 A 
ATOM     39  N   UNL A   1      42.457  29.505  29.375  1.00  0.00    -0.354 N 
ATOM     40  C   UNL A   1      41.416  24.080  28.411  1.00  0.00     0.074 A 
ATOM     41  C   UNL A   1      40.118  24.273  27.809  1.00  0.00     0.031 C 
ATOM     42  C   UNL A   1      44.469  28.561  29.385  1.00  0.00     0.029 A 
ATOM     43  C   UNL A   1      43.629  29.505  30.120  1.00  0.00     0.049 A 
ATOM     44  H   UNL A   1      41.854  30.269  29.233  1.00  0.00     0.167 HD
ATOM     45  C   UNL A   1      42.395  23.130  28.371  1.00  0.00     0.034 A 
ATOM     46  C   UNL A   1      43.600  29.703  31.472  1.00  0.00     0.034 A 
ATOM     47  C   UNL A   1      43.592  23.621  29.082  1.00  0.00     0.049 A 
ATOM     48  C   UNL A   1      44.120  28.476  32.195  1.00  0.00     0.074 A 
ATOM     49  C   UNL A   1      44.745  24.243  28.629  1.00  0.00     0.029 A 
ATOM     50  N   UNL A   1      43.553  23.824  30.458  1.00  0.00    -0.354 N 
ATOM     51  N   UNL A   1      44.250  27.306  31.635  1.00  0.00    -0.248 NA
ATOM     52  C   UNL A   1      44.496  28.462  33.603  1.00  0.00     0.031 C 
ATOM     53  C   UNL A   1      45.340  24.918  29.729  1.00  0.00     0.029 A 
ATOM     54  C   UNL A   1      44.576  24.676  30.858  1.00  0.00     0.049 A 
ATOM     55  H   UNL A   1      42.892  23.420  31.065  1.00  0.00     0.167 HD
ATOM     56  C   UNL A   1      44.635  26.383  32.561  1.00  0.00     0.074 A 
ATOM     57  C   UNL A   1      44.827  27.169  33.772  1.00  0.00     0.031 C 
ATOM     58  C   UNL A   1      44.715  25.052  32.262  1.00  0.00     0.034 A 
BRANCH  45  59
ATOM     59  C   UNL A   1      42.455  21.930  27.426  1.00  0.00     0.023 A 
ATOM     60  C   UNL A   1      41.456  20.939  27.603  1.00  0.00     0.012 A 
ATOM     61  C   UNL A   1      43.429  21.641  26.440  1.00  0.00     0.148 A 
ATOM     62  C   UNL A   1      41.471  19.711  26.932  1.00  0.00     0.002 A 
ATOM     63  C   UNL A   1      43.458  20.403  25.780  1.00  0.00     0.091 A 
ATOM     64  F   UNL A   1      44.317  22.572  26.088  1.00  0.00    -0.205 F 
ATOM     65  C   UNL A   1      42.487  19.431  26.037  1.00  0.00     0.022 A 
BRANCH  63  66
ATOM     66  S   UNL A   1      44.738  19.944  24.592  1.00  0.00     0.127 S 
ATOM     67  O   UNL A   1      45.965  20.258  25.326  1.00  0.00    -0.237 OA
ATOM     68  O   UNL A   1      44.495  18.515  24.406  1.00  0.00    -0.237 OA
ATOM     69  O   UNL A   1      44.517  20.764  23.408  1.00  0.00    -0.744 OA
ENDBRANCH  63  66
ENDBRANCH  45  59
BRANCH  46  70
ATOM     70  C   UNL A   1      42.438  30.534  31.965  1.00  0.00     0.023 A 
ATOM     71  C   UNL A   1      42.258  31.834  31.417  1.00  0.00     0.012 A 
ATOM     72  C   UNL A   1      41.351  29.944  32.633  1.00  0.00     0.148 A 
ATOM     73  C   UNL A   1      41.005  32.457  31.420  1.00  0.00     0.002 A 
ATOM     74  C   UNL A   1      40.101  30.563  32.611  1.00  0.00     0.091 A 
ATOM     75  F   UNL A   1      41.517  28.759  33.231  1.00  0.00    -0.205 F 
ATOM     76  C   UNL A   1      39.920  31.809  31.996  1.00  0.00     0.022 A 
BRANCH  74  77
ATOM     77  S   UNL A   1      38.647  29.654  33.161  1.00  0.00     0.127 S 
ATOM     78  O   UNL A   1      38.654  29.896  34.605  1.00  0.00    -0.237 OA
ATOM     79  O   UNL A   1      37.551  30.311  32.460  1.00  0.00    -0.237 OA
ATOM     80  O   UNL A   1      38.975  28.293  32.756  1.00  0.00    -0.744 OA
ENDBRANCH  74  77
ENDBRANCH  46  70
BRANCH  58  81
ATOM     81  C   UNL A   1      44.944  23.960  33.277  1.00  0.00     0.023 A 
ATOM     82  C   UNL A   1      43.948  23.025  33.612  1.00  0.00     0.012 A 
ATOM     83  C   UNL A   1      46.238  23.745  33.811  1.00  0.00     0.148 A 
ATOM     84  C   UNL A   1      44.201  21.971  34.494  1.00  0.00     0.002 A 
ATOM     85  C   UNL A   1      46.515  22.623  34.580  1.00  0.00     0.091 A 
ATOM     86  F   UNL A   1      47.213  24.642  33.592  1.00  0.00    -0.205 F 
ATOM     87  C   UNL A   1      45.492  21.753  34.958  1.00  0.00     0.022 A 
BRANCH  85  88
ATOM     88  S   UNL A   1      48.214  22.169  34.955  1.00  0.00     0.127 S 
ATOM     89  O   UNL A   1      48.254  22.312  36.408  1.00  0.00    -0.237 OA
ATOM     90  O   UNL A   1      48.282  20.787  34.476  1.00  0.00    -0.237 OA
ATOM     91  O   UNL A   1      49.032  23.103  34.191  1.00  0.00    -0.744 OA
ENDBRANCH  85  88
ENDBRANCH  58  81
ENDBRANCH  32  33
ENDBRANCH  25  27
ENDBRANCH  24  25
ENDBRANCH   1  24
TORSDOF 16
ENDMDL
MODEL 3
REMARK VINA RESULT:     -12.3      1.724      2.826
REMARK SMILES Cc1ccc(Oc2cc(C(=O)OCCOC(=O)c3ccc(-c4c5nc(c(-c6cccc(S(=O)(=O)[O-])c6F)c6ccc([nH]6)c(-c6cccc(S(=O)(=O)[O-])c6F)c6nc(c(-c7cccc(S(=O)(=O)[O-])c7F)c7ccc4[nH]7)C=C6)C=C5)cc3)nc3ccccc23)cc1
REMARK SMILES IDX 14 1 13 2 12 3 10 4 11 5 9 6 7 7 8 8 87 9 82 10 86 11 81 12
REMARK SMILES IDX 83 13 85 14 84 15 6 16 5 17 1 18 2 19 3 20 89 21 4 22 88 23
REMARK SMILES IDX 15 24 16 25 17 26 18 27 19 28 80 29 20 30 79 31 21 32 22 33
REMARK SMILES IDX 23 34 73 35 24 36 78 37 72 38 74 39 25 40 77 41 71 42 70 43
REMARK SMILES IDX 26 45 58 46 38 47 57 48 39 49 42 50 56 51 75 52 40 53 41 54
REMARK SMILES IDX 55 56 76 57 43 58 27 59 28 60 36 61 29 62 31 63 37 64 30 65
REMARK SMILES IDX 32 66 33 67 34 68 35 69 59 70 60 71 68 72 61 73 63 74 69 75
REMARK SMILES IDX 62 76 64 77 65 78 66 79 67 80 44 81 45 82 53 83 46 84 48 85
REMARK SMILES IDX 54 86 47 87 49 88 50 89 51 90 52 91
REMARK H PARENT 74 44 42 55
REMARK Flexibility Score: inf
ROOT
ATOM      1  C   UNL A   1      33.644  29.533  26.547  1.00  0.00     0.275 C 
ENDROOT
BRANCH   1   2
ATOM      2  C   UNL A   1      32.613  28.402  26.681  1.00  0.00     0.275 C 
BRANCH   2   3
ATOM      3  O   UNL A   1      32.491  27.526  25.545  1.00  0.00    -0.457 OA
BRANCH   3   4
ATOM      4  C   UNL A   1      32.199  26.250  25.950  1.00  0.00     0.357 C 
ATOM      5  O   UNL A   1      31.447  25.994  26.886  1.00  0.00    -0.244 OA
BRANCH   4   6
ATOM      6  C   UNL A   1      32.951  25.157  25.257  1.00  0.00     0.152 A 
ATOM      7  C   UNL A   1      33.233  23.100  24.074  1.00  0.00     0.139 A 
ATOM      8  C   UNL A   1      32.402  24.163  24.466  1.00  0.00     0.084 A 
ATOM      9  C   UNL A   1      34.622  23.127  24.373  1.00  0.00     0.043 A 
ATOM     10  C   UNL A   1      35.055  24.182  25.192  1.00  0.00     0.075 A 
ATOM     11  C   UNL A   1      35.595  22.191  23.936  1.00  0.00     0.014 A 
ATOM     12  N   UNL A   1      34.260  25.166  25.606  1.00  0.00    -0.240 NA
ATOM     13  C   UNL A   1      36.367  24.229  25.626  1.00  0.00     0.029 A 
ATOM     14  C   UNL A   1      36.914  22.251  24.385  1.00  0.00     0.001 A 
ATOM     15  C   UNL A   1      37.297  23.266  25.248  1.00  0.00     0.002 A 
BRANCH   7  16
ATOM     16  O   UNL A   1      32.614  22.087  23.358  1.00  0.00    -0.457 OA
BRANCH  16  17
ATOM     17  C   UNL A   1      32.552  20.802  23.872  1.00  0.00     0.127 A 
ATOM     18  C   UNL A   1      32.722  16.648  25.069  1.00  0.00     0.044 C 
ATOM     19  C   UNL A   1      32.638  18.090  24.661  1.00  0.00    -0.051 A 
ATOM     20  C   UNL A   1      32.404  18.435  23.325  1.00  0.00     0.007 A 
ATOM     21  C   UNL A   1      32.739  19.115  25.608  1.00  0.00     0.007 A 
ATOM     22  C   UNL A   1      32.364  19.780  22.936  1.00  0.00     0.047 A 
ATOM     23  C   UNL A   1      32.671  20.461  25.221  1.00  0.00     0.047 A 
ENDBRANCH  16  17
ENDBRANCH   7  16
ENDBRANCH   4   6
ENDBRANCH   3   4
ENDBRANCH   2   3
ENDBRANCH   1   2
BRANCH   1  24
ATOM     24  O   UNL A   1      35.028  29.266  26.879  1.00  0.00    -0.458 OA
BRANCH  24  25
ATOM     25  C   UNL A   1      35.896  30.027  27.608  1.00  0.00     0.338 C 
ATOM     26  O   UNL A   1      35.592  31.104  28.055  1.00  0.00    -0.246 OA
BRANCH  25  27
ATOM     27  C   UNL A   1      37.227  29.448  27.851  1.00  0.00     0.060 A 
ATOM     28  C   UNL A   1      38.197  29.516  26.841  1.00  0.00     0.016 A 
ATOM     29  C   UNL A   1      37.516  28.915  29.099  1.00  0.00     0.016 A 
ATOM     30  C   UNL A   1      39.502  29.116  27.103  1.00  0.00     0.010 A 
ATOM     31  C   UNL A   1      38.825  28.646  29.408  1.00  0.00     0.010 A 
ATOM     32  C   UNL A   1      39.795  28.667  28.388  1.00  0.00    -0.014 A 
BRANCH  32  33
ATOM     33  C   UNL A   1      40.891  27.752  28.658  1.00  0.00     0.031 A 
ATOM     34  C   UNL A   1      40.812  26.304  28.470  1.00  0.00     0.074 A 
ATOM     35  C   UNL A   1      42.032  28.433  28.913  1.00  0.00     0.049 A 
ATOM     36  N   UNL A   1      41.684  25.493  28.957  1.00  0.00    -0.248 NA
ATOM     37  C   UNL A   1      39.732  25.633  27.759  1.00  0.00     0.031 C 
ATOM     38  C   UNL A   1      43.420  28.042  28.799  1.00  0.00     0.029 A 
ATOM     39  N   UNL A   1      42.089  29.728  29.456  1.00  0.00    -0.354 N 
ATOM     40  C   UNL A   1      41.475  24.261  28.368  1.00  0.00     0.074 A 
ATOM     41  C   UNL A   1      40.174  24.368  27.752  1.00  0.00     0.031 C 
ATOM     42  C   UNL A   1      44.166  28.939  29.475  1.00  0.00     0.029 A 
ATOM     43  C   UNL A   1      43.248  29.801  30.217  1.00  0.00     0.049 A 
ATOM     44  H   UNL A   1      41.431  30.447  29.321  1.00  0.00     0.167 HD
ATOM     45  C   UNL A   1      42.525  23.390  28.322  1.00  0.00     0.034 A 
ATOM     46  C   UNL A   1      43.187  29.968  31.573  1.00  0.00     0.034 A 
ATOM     47  C   UNL A   1      43.671  23.954  29.060  1.00  0.00     0.049 A 
ATOM     48  C   UNL A   1      43.790  28.768  32.278  1.00  0.00     0.074 A 
ATOM     49  C   UNL A   1      44.780  24.672  28.635  1.00  0.00     0.029 A 
ATOM     50  N   UNL A   1      43.600  24.125  30.439  1.00  0.00    -0.354 N 
ATOM     51  N   UNL A   1      44.016  27.624  31.696  1.00  0.00    -0.248 NA
ATOM     52  C   UNL A   1      44.148  28.753  33.690  1.00  0.00     0.031 C 
ATOM     53  C   UNL A   1      45.308  25.367  29.757  1.00  0.00     0.029 A 
ATOM     54  C   UNL A   1      44.550  25.043  30.870  1.00  0.00     0.049 A 
ATOM     55  H   UNL A   1      42.965  23.659  31.029  1.00  0.00     0.167 HD
ATOM     56  C   UNL A   1      44.458  26.714  32.609  1.00  0.00     0.074 A 
ATOM     57  C   UNL A   1      44.575  27.486  33.837  1.00  0.00     0.031 C 
ATOM     58  C   UNL A   1      44.643  25.399  32.284  1.00  0.00     0.034 A 
BRANCH  45  59
ATOM     59  C   UNL A   1      42.687  22.217  27.355  1.00  0.00     0.023 A 
ATOM     60  C   UNL A   1      41.936  21.051  27.646  1.00  0.00     0.012 A 
ATOM     61  C   UNL A   1      43.554  22.119  26.239  1.00  0.00     0.148 A 
ATOM     62  C   UNL A   1      42.097  19.845  26.955  1.00  0.00     0.002 A 
ATOM     63  C   UNL A   1      43.733  20.906  25.556  1.00  0.00     0.091 A 
ATOM     64  F   UNL A   1      44.185  23.203  25.788  1.00  0.00    -0.205 F 
ATOM     65  C   UNL A   1      43.015  19.764  25.924  1.00  0.00     0.022 A 
BRANCH  63  66
ATOM     66  S   UNL A   1      44.902  20.698  24.196  1.00  0.00     0.127 S 
ATOM     67  O   UNL A   1      46.191  20.849  24.874  1.00  0.00    -0.237 OA
ATOM     68  O   UNL A   1      44.615  19.339  23.740  1.00  0.00    -0.237 OA
ATOM     69  O   UNL A   1      44.602  21.747  23.230  1.00  0.00    -0.744 OA
ENDBRANCH  63  66
ENDBRANCH  45  59
BRANCH  46  70
ATOM     70  C   UNL A   1      41.959  30.697  32.065  1.00  0.00     0.023 A 
ATOM     71  C   UNL A   1      41.683  31.987  31.535  1.00  0.00     0.012 A 
ATOM     72  C   UNL A   1      40.917  30.014  32.714  1.00  0.00     0.148 A 
ATOM     73  C   UNL A   1      40.384  32.510  31.534  1.00  0.00     0.002 A 
ATOM     74  C   UNL A   1      39.621  30.534  32.690  1.00  0.00     0.091 A 
ATOM     75  F   UNL A   1      41.170  28.836  33.297  1.00  0.00    -0.205 F 
ATOM     76  C   UNL A   1      39.349  31.771  32.090  1.00  0.00     0.022 A 
BRANCH  74  77
ATOM     77  S   UNL A   1      38.239  29.505  33.212  1.00  0.00     0.127 S 
ATOM     78  O   UNL A   1      37.130  30.049  32.425  1.00  0.00    -0.237 OA
ATOM     79  O   UNL A   1      38.643  28.164  32.809  1.00  0.00    -0.237 OA
ATOM     80  O   UNL A   1      38.183  29.783  34.642  1.00  0.00    -0.744 OA
ENDBRANCH  74  77
ENDBRANCH  46  70
BRANCH  58  81
ATOM     81  C   UNL A   1      44.942  24.306  33.280  1.00  0.00     0.023 A 
ATOM     82  C   UNL A   1      44.072  23.220  33.487  1.00  0.00     0.012 A 
ATOM     83  C   UNL A   1      46.201  24.259  33.928  1.00  0.00     0.148 A 
ATOM     84  C   UNL A   1      44.401  22.175  34.354  1.00  0.00     0.002 A 
ATOM     85  C   UNL A   1      46.573  23.155  34.682  1.00  0.00     0.091 A 
ATOM     86  F   UNL A   1      47.044  25.298  33.832  1.00  0.00    -0.205 F 
ATOM     87  C   UNL A   1      45.663  22.128  34.932  1.00  0.00     0.022 A 
BRANCH  85  88
ATOM     88  S   UNL A   1      48.280  22.939  35.203  1.00  0.00     0.127 S 
ATOM     89  O   UNL A   1      48.505  24.133  36.013  1.00  0.00    -0.237 OA
ATOM     90  O   UNL A   1      48.220  21.689  35.963  1.00  0.00    -0.237 OA
ATOM     91  O   UNL A   1      49.044  22.844  33.965  1.00  0.00    -0.744 OA
ENDBRANCH  85  88
ENDBRANCH  58  81
ENDBRANCH  32  33
ENDBRANCH  25  27
ENDBRANCH  24  25
ENDBRANCH   1  24
TORSDOF 16
ENDMDL
