MODEL 1
REMARK VINA RESULT:     -12.4      0.000      0.000
REMARK SMILES C[C@@H](C(=O)OCCOC(=O)c1ccc(-c2c3nc(c(-c4cccc(S(=O)(=O)[O-])c4F)c4ccc([nH]4)c(-c4cccc(S(=O)(=O)[O-])c4F)c4nc(c(-c5cccc(S(=O)(=O)[O-])c5F)c5ccc2[nH]5)C=C4)C=C3)cc1)c1ccc(-c2ccc3[nH]ccc3c2)cc1
REMARK SMILES IDX 7 1 6 2 5 3 3 4 4 5 2 6 1 7 74 8 75 9 88 10 76 11 87 12
REMARK SMILES IDX 77 13 78 14 79 15 86 16 80 17 85 18 81 19 84 20 82 21 83 22
REMARK SMILES IDX 8 24 9 25 10 26 11 27 12 28 73 29 13 30 72 31 14 32 15 33
REMARK SMILES IDX 16 34 66 35 17 36 71 37 65 38 67 39 18 40 70 41 64 42 63 43
REMARK SMILES IDX 19 45 51 46 31 47 50 48 32 49 35 50 49 51 68 52 33 53 34 54
REMARK SMILES IDX 48 56 69 57 36 58 20 59 21 60 29 61 22 62 24 63 30 64 23 65
REMARK SMILES IDX 25 66 26 67 27 68 28 69 52 70 53 71 61 72 54 73 56 74 62 75
REMARK SMILES IDX 55 76 57 77 58 78 59 79 60 80 37 81 38 82 46 83 39 84 41 85
REMARK SMILES IDX 47 86 40 87 42 88 43 89 44 90 45 91
REMARK H PARENT 82 23 67 44 35 55
REMARK Flexibility Score: inf
ROOT
ATOM      1  C   UNL A   1      36.565  20.894  24.563  1.00  0.00     0.275 C 
ENDROOT
BRANCH   1   2
ATOM      2  C   UNL A   1      35.216  20.294  24.943  1.00  0.00     0.274 C 
BRANCH   2   3
ATOM      3  O   UNL A   1      34.171  21.194  24.516  1.00  0.00    -0.462 OA
BRANCH   3   4
ATOM      4  C   UNL A   1      33.222  21.545  25.430  1.00  0.00     0.313 C 
ATOM      5  O   UNL A   1      32.075  21.114  25.410  1.00  0.00    -0.252 OA
BRANCH   4   6
ATOM      6  C   UNL A   1      33.730  22.602  26.435  1.00  0.00     0.126 C 
ATOM      7  C   UNL A   1      33.508  22.113  27.883  1.00  0.00     0.025 C 
BRANCH   6   8
ATOM      8  C   UNL A   1      33.216  24.034  26.208  1.00  0.00    -0.034 A 
ATOM      9  C   UNL A   1      34.039  25.076  25.752  1.00  0.00     0.005 A 
ATOM     10  C   UNL A   1      31.880  24.374  26.489  1.00  0.00     0.005 A 
ATOM     11  C   UNL A   1      33.516  26.344  25.439  1.00  0.00     0.009 A 
ATOM     12  C   UNL A   1      31.358  25.636  26.173  1.00  0.00     0.009 A 
ATOM     13  C   UNL A   1      32.149  26.624  25.579  1.00  0.00    -0.018 A 
BRANCH  13  14
ATOM     14  C   UNL A   1      31.541  27.845  25.009  1.00  0.00    -0.018 A 
ATOM     15  C   UNL A   1      31.827  29.098  25.583  1.00  0.00     0.011 A 
ATOM     16  C   UNL A   1      30.618  27.796  23.946  1.00  0.00     0.019 A 
ATOM     17  C   UNL A   1      31.218  30.284  25.153  1.00  0.00     0.027 A 
ATOM     18  C   UNL A   1      29.991  28.978  23.489  1.00  0.00    -0.000 A 
ATOM     19  C   UNL A   1      30.297  30.187  24.111  1.00  0.00     0.045 A 
ATOM     20  C   UNL A   1      29.033  29.264  22.475  1.00  0.00     0.028 A 
ATOM     21  N   UNL A   1      29.516  31.160  23.527  1.00  0.00    -0.361 N 
ATOM     22  C   UNL A   1      28.769  30.615  22.515  1.00  0.00     0.083 A 
ATOM     23  H   UNL A   1      29.498  32.108  23.796  1.00  0.00     0.166 HD
ENDBRANCH  13  14
ENDBRANCH   6   8
ENDBRANCH   4   6
ENDBRANCH   3   4
ENDBRANCH   2   3
ENDBRANCH   1   2
BRANCH   1  24
ATOM     24  O   UNL A   1      37.172  21.410  25.759  1.00  0.00    -0.458 OA
BRANCH  24  25
ATOM     25  C   UNL A   1      38.490  21.159  25.917  1.00  0.00     0.338 C 
ATOM     26  O   UNL A   1      39.088  20.124  25.661  1.00  0.00    -0.246 OA
BRANCH  25  27
ATOM     27  C   UNL A   1      39.134  22.370  26.443  1.00  0.00     0.060 A 
ATOM     28  C   UNL A   1      38.618  23.618  26.100  1.00  0.00     0.016 A 
ATOM     29  C   UNL A   1      40.297  22.275  27.207  1.00  0.00     0.016 A 
ATOM     30  C   UNL A   1      39.294  24.773  26.484  1.00  0.00     0.010 A 
ATOM     31  C   UNL A   1      40.936  23.443  27.642  1.00  0.00     0.010 A 
ATOM     32  C   UNL A   1      40.460  24.708  27.258  1.00  0.00    -0.014 A 
BRANCH  32  33
ATOM     33  C   UNL A   1      41.205  25.958  27.584  1.00  0.00     0.031 A 
ATOM     34  C   UNL A   1      40.565  27.011  28.453  1.00  0.00     0.074 A 
ATOM     35  C   UNL A   1      42.470  26.145  27.156  1.00  0.00     0.049 A 
ATOM     36  N   UNL A   1      41.003  28.202  28.773  1.00  0.00    -0.248 NA
ATOM     37  C   UNL A   1      39.255  26.680  29.039  1.00  0.00     0.031 C 
ATOM     38  C   UNL A   1      43.248  25.189  26.367  1.00  0.00     0.029 A 
ATOM     39  N   UNL A   1      43.332  27.199  27.341  1.00  0.00    -0.354 N 
ATOM     40  C   UNL A   1      39.994  28.789  29.527  1.00  0.00     0.074 A 
ATOM     41  C   UNL A   1      38.928  27.817  29.637  1.00  0.00     0.031 C 
ATOM     42  C   UNL A   1      44.487  25.675  26.186  1.00  0.00     0.029 A 
ATOM     43  C   UNL A   1      44.571  27.008  26.774  1.00  0.00     0.049 A 
ATOM     44  H   UNL A   1      43.086  28.015  27.833  1.00  0.00     0.167 HD
ATOM     45  C   UNL A   1      39.960  30.020  30.087  1.00  0.00     0.034 A 
ATOM     46  C   UNL A   1      45.646  27.820  26.714  1.00  0.00     0.034 A 
ATOM     47  C   UNL A   1      41.047  30.959  30.057  1.00  0.00     0.049 A 
ATOM     48  C   UNL A   1      45.570  29.193  27.329  1.00  0.00     0.074 A 
ATOM     49  C   UNL A   1      41.110  32.215  30.635  1.00  0.00     0.029 A 
ATOM     50  N   UNL A   1      42.261  30.748  29.424  1.00  0.00    -0.354 N 
ATOM     51  N   UNL A   1      44.617  29.728  28.055  1.00  0.00    -0.248 NA
ATOM     52  C   UNL A   1      46.722  30.081  27.107  1.00  0.00     0.031 C 
ATOM     53  C   UNL A   1      42.366  32.764  30.355  1.00  0.00     0.029 A 
ATOM     54  C   UNL A   1      43.088  31.844  29.613  1.00  0.00     0.049 A 
ATOM     55  H   UNL A   1      42.501  29.941  28.915  1.00  0.00     0.167 HD
ATOM     56  C   UNL A   1      45.062  31.003  28.386  1.00  0.00     0.074 A 
ATOM     57  C   UNL A   1      46.383  31.151  27.814  1.00  0.00     0.031 C 
ATOM     58  C   UNL A   1      44.422  31.970  29.085  1.00  0.00     0.034 A 
BRANCH  45  59
ATOM     59  C   UNL A   1      38.702  30.424  30.803  1.00  0.00     0.023 A 
ATOM     60  C   UNL A   1      38.566  30.165  32.181  1.00  0.00     0.012 A 
ATOM     61  C   UNL A   1      37.680  31.113  30.121  1.00  0.00     0.148 A 
ATOM     62  C   UNL A   1      37.419  30.566  32.865  1.00  0.00     0.002 A 
ATOM     63  C   UNL A   1      36.557  31.542  30.818  1.00  0.00     0.091 A 
ATOM     64  F   UNL A   1      37.821  31.325  28.805  1.00  0.00    -0.205 F 
ATOM     65  C   UNL A   1      36.422  31.264  32.187  1.00  0.00     0.022 A 
BRANCH  63  66
ATOM     66  S   UNL A   1      35.254  32.503  30.039  1.00  0.00     0.127 S 
ATOM     67  O   UNL A   1      34.303  32.657  31.138  1.00  0.00    -0.237 OA
ATOM     68  O   UNL A   1      35.956  33.731  29.662  1.00  0.00    -0.237 OA
ATOM     69  O   UNL A   1      34.792  31.704  28.912  1.00  0.00    -0.744 OA
ENDBRANCH  63  66
ENDBRANCH  45  59
BRANCH  46  70
ATOM     70  C   UNL A   1      46.906  27.352  26.066  1.00  0.00     0.023 A 
ATOM     71  C   UNL A   1      47.129  27.646  24.706  1.00  0.00     0.012 A 
ATOM     72  C   UNL A   1      47.887  26.636  26.778  1.00  0.00     0.148 A 
ATOM     73  C   UNL A   1      48.296  27.226  24.066  1.00  0.00     0.002 A 
ATOM     74  C   UNL A   1      49.076  26.276  26.152  1.00  0.00     0.091 A 
ATOM     75  F   UNL A   1      47.646  26.320  28.058  1.00  0.00    -0.205 F 
ATOM     76  C   UNL A   1      49.276  26.556  24.792  1.00  0.00     0.022 A 
BRANCH  74  77
ATOM     77  S   UNL A   1      50.439  25.545  27.065  1.00  0.00     0.127 S 
ATOM     78  O   UNL A   1      50.742  26.587  28.041  1.00  0.00    -0.237 OA
ATOM     79  O   UNL A   1      49.828  24.338  27.624  1.00  0.00    -0.237 OA
ATOM     80  O   UNL A   1      51.467  25.281  26.067  1.00  0.00    -0.744 OA
ENDBRANCH  74  77
ENDBRANCH  46  70
BRANCH  58  81
ATOM     81  C   UNL A   1      45.140  33.276  29.298  1.00  0.00     0.023 A 
ATOM     82  C   UNL A   1      45.922  33.460  30.454  1.00  0.00     0.012 A 
ATOM     83  C   UNL A   1      45.104  34.287  28.318  1.00  0.00     0.148 A 
ATOM     84  C   UNL A   1      46.640  34.642  30.644  1.00  0.00     0.002 A 
ATOM     85  C   UNL A   1      45.857  35.442  28.492  1.00  0.00     0.091 A 
ATOM     86  F   UNL A   1      44.334  34.101  27.236  1.00  0.00    -0.205 F 
ATOM     87  C   UNL A   1      46.618  35.627  29.658  1.00  0.00     0.022 A 
BRANCH  85  88
ATOM     88  S   UNL A   1      45.960  36.716  27.229  1.00  0.00     0.127 S 
ATOM     89  O   UNL A   1      47.100  37.504  27.692  1.00  0.00    -0.237 OA
ATOM     90  O   UNL A   1      46.210  35.935  26.016  1.00  0.00    -0.237 OA
ATOM     91  O   UNL A   1      44.672  37.396  27.250  1.00  0.00    -0.744 OA
ENDBRANCH  85  88
ENDBRANCH  58  81
ENDBRANCH  32  33
ENDBRANCH  25  27
ENDBRANCH  24  25
ENDBRANCH   1  24
TORSDOF 16
ENDMDL
MODEL 2
REMARK VINA RESULT:     -12.4      5.448     10.364
REMARK SMILES C[C@@H](C(=O)OCCOC(=O)c1ccc(-c2c3nc(c(-c4cccc(S(=O)(=O)[O-])c4F)c4ccc([nH]4)c(-c4cccc(S(=O)(=O)[O-])c4F)c4nc(c(-c5cccc(S(=O)(=O)[O-])c5F)c5ccc2[nH]5)C=C4)C=C3)cc1)c1ccc(-c2ccc3[nH]ccc3c2)cc1
REMARK SMILES IDX 7 1 6 2 5 3 3 4 4 5 2 6 1 7 74 8 75 9 88 10 76 11 87 12
REMARK SMILES IDX 77 13 78 14 79 15 86 16 80 17 85 18 81 19 84 20 82 21 83 22
REMARK SMILES IDX 8 24 9 25 10 26 11 27 12 28 73 29 13 30 72 31 14 32 15 33
REMARK SMILES IDX 16 34 66 35 17 36 71 37 65 38 67 39 18 40 70 41 64 42 63 43
REMARK SMILES IDX 19 45 51 46 31 47 50 48 32 49 35 50 49 51 68 52 33 53 34 54
REMARK SMILES IDX 48 56 69 57 36 58 20 59 21 60 29 61 22 62 24 63 30 64 23 65
REMARK SMILES IDX 25 66 26 67 27 68 28 69 52 70 53 71 61 72 54 73 56 74 62 75
REMARK SMILES IDX 55 76 57 77 58 78 59 79 60 80 37 81 38 82 46 83 39 84 41 85
REMARK SMILES IDX 47 86 40 87 42 88 43 89 44 90 45 91
REMARK H PARENT 82 23 67 44 35 55
REMARK Flexibility Score: inf
ROOT
ATOM      1  C   UNL A   1      31.848  30.148  26.246  1.00  0.00     0.275 C 
ENDROOT
BRANCH   1   2
ATOM      2  C   UNL A   1      31.960  28.639  26.441  1.00  0.00     0.274 C 
BRANCH   2   3
ATOM      3  O   UNL A   1      31.195  27.981  25.410  1.00  0.00    -0.462 OA
BRANCH   3   4
ATOM      4  C   UNL A   1      31.699  27.988  24.142  1.00  0.00     0.313 C 
ATOM      5  O   UNL A   1      31.001  28.084  23.139  1.00  0.00    -0.252 OA
BRANCH   4   6
ATOM      6  C   UNL A   1      33.230  27.780  24.113  1.00  0.00     0.126 C 
ATOM      7  C   UNL A   1      33.845  28.514  22.901  1.00  0.00     0.025 C 
BRANCH   6   8
ATOM      8  C   UNL A   1      33.703  26.320  24.224  1.00  0.00    -0.034 A 
ATOM      9  C   UNL A   1      34.173  25.761  25.423  1.00  0.00     0.005 A 
ATOM     10  C   UNL A   1      33.718  25.478  23.097  1.00  0.00     0.005 A 
ATOM     11  C   UNL A   1      34.485  24.393  25.523  1.00  0.00     0.009 A 
ATOM     12  C   UNL A   1      34.025  24.115  23.198  1.00  0.00     0.009 A 
ATOM     13  C   UNL A   1      34.349  23.531  24.427  1.00  0.00    -0.018 A 
BRANCH  13  14
ATOM     14  C   UNL A   1      34.410  22.061  24.577  1.00  0.00    -0.018 A 
ATOM     15  C   UNL A   1      35.620  21.450  24.960  1.00  0.00     0.011 A 
ATOM     16  C   UNL A   1      33.312  21.231  24.280  1.00  0.00     0.019 A 
ATOM     17  C   UNL A   1      35.775  20.061  25.035  1.00  0.00     0.027 A 
ATOM     18  C   UNL A   1      33.440  19.825  24.351  1.00  0.00    -0.000 A 
ATOM     19  C   UNL A   1      34.669  19.276  24.713  1.00  0.00     0.045 A 
ATOM     20  C   UNL A   1      32.555  18.735  24.111  1.00  0.00     0.028 A 
ATOM     21  N   UNL A   1      34.545  17.906  24.647  1.00  0.00    -0.361 N 
ATOM     22  C   UNL A   1      33.259  17.569  24.311  1.00  0.00     0.083 A 
ATOM     23  H   UNL A   1      35.272  17.263  24.817  1.00  0.00     0.166 HD
ENDBRANCH  13  14
ENDBRANCH   6   8
ENDBRANCH   4   6
ENDBRANCH   3   4
ENDBRANCH   2   3
ENDBRANCH   1   2
BRANCH   1  24
ATOM     24  O   UNL A   1      33.179  30.687  26.197  1.00  0.00    -0.458 OA
BRANCH  24  25
ATOM     25  C   UNL A   1      33.507  31.561  27.173  1.00  0.00     0.338 C 
ATOM     26  O   UNL A   1      32.855  32.517  27.569  1.00  0.00    -0.246 OA
BRANCH  25  27
ATOM     27  C   UNL A   1      34.808  31.167  27.733  1.00  0.00     0.060 A 
ATOM     28  C   UNL A   1      35.029  29.832  28.063  1.00  0.00     0.016 A 
ATOM     29  C   UNL A   1      35.778  32.131  28.008  1.00  0.00     0.016 A 
ATOM     30  C   UNL A   1      36.205  29.468  28.713  1.00  0.00     0.010 A 
ATOM     31  C   UNL A   1      36.985  31.746  28.605  1.00  0.00     0.010 A 
ATOM     32  C   UNL A   1      37.200  30.413  28.995  1.00  0.00    -0.014 A 
BRANCH  32  33
ATOM     33  C   UNL A   1      38.413  30.008  29.763  1.00  0.00     0.031 A 
ATOM     34  C   UNL A   1      39.433  29.095  29.132  1.00  0.00     0.074 A 
ATOM     35  C   UNL A   1      38.642  30.485  31.003  1.00  0.00     0.049 A 
ATOM     36  N   UNL A   1      40.500  28.552  29.660  1.00  0.00    -0.248 NA
ATOM     37  C   UNL A   1      39.225  28.746  27.716  1.00  0.00     0.031 C 
ATOM     38  C   UNL A   1      37.783  31.430  31.719  1.00  0.00     0.029 A 
ATOM     39  N   UNL A   1      39.678  30.255  31.875  1.00  0.00    -0.354 N 
ATOM     40  C   UNL A   1      41.043  27.739  28.672  1.00  0.00     0.074 A 
ATOM     41  C   UNL A   1      40.202  27.875  27.503  1.00  0.00     0.031 C 
ATOM     42  C   UNL A   1      38.357  31.739  32.894  1.00  0.00     0.029 A 
ATOM     43  C   UNL A   1      39.580  30.960  33.052  1.00  0.00     0.049 A 
ATOM     44  H   UNL A   1      40.422  29.641  31.676  1.00  0.00     0.167 HD
ATOM     45  C   UNL A   1      42.146  26.958  28.727  1.00  0.00     0.034 A 
ATOM     46  C   UNL A   1      40.371  30.965  34.144  1.00  0.00     0.034 A 
ATOM     47  C   UNL A   1      43.036  26.883  29.852  1.00  0.00     0.049 A 
ATOM     48  C   UNL A   1      41.581  30.068  34.183  1.00  0.00     0.074 A 
ATOM     49  C   UNL A   1      44.201  26.146  29.975  1.00  0.00     0.029 A 
ATOM     50  N   UNL A   1      42.869  27.569  31.044  1.00  0.00    -0.354 N 
ATOM     51  N   UNL A   1      42.093  29.320  33.235  1.00  0.00    -0.248 NA
ATOM     52  C   UNL A   1      42.322  30.013  35.454  1.00  0.00     0.031 C 
ATOM     53  C   UNL A   1      44.742  26.389  31.242  1.00  0.00     0.029 A 
ATOM     54  C   UNL A   1      43.920  27.288  31.902  1.00  0.00     0.049 A 
ATOM     55  H   UNL A   1      42.115  28.167  31.251  1.00  0.00     0.167 HD
ATOM     56  C   UNL A   1      43.218  28.721  33.790  1.00  0.00     0.074 A 
ATOM     57  C   UNL A   1      43.337  29.218  35.144  1.00  0.00     0.031 C 
ATOM     58  C   UNL A   1      44.064  27.822  33.231  1.00  0.00     0.034 A 
BRANCH  45  59
ATOM     59  C   UNL A   1      42.470  26.125  27.518  1.00  0.00     0.023 A 
ATOM     60  C   UNL A   1      43.218  26.682  26.463  1.00  0.00     0.012 A 
ATOM     61  C   UNL A   1      42.082  24.772  27.457  1.00  0.00     0.148 A 
ATOM     62  C   UNL A   1      43.556  25.910  25.353  1.00  0.00     0.002 A 
ATOM     63  C   UNL A   1      42.453  24.000  26.364  1.00  0.00     0.091 A 
ATOM     64  F   UNL A   1      41.348  24.272  28.461  1.00  0.00    -0.205 F 
ATOM     65  C   UNL A   1      43.183  24.568  25.308  1.00  0.00     0.022 A 
BRANCH  63  66
ATOM     66  S   UNL A   1      42.072  22.247  26.254  1.00  0.00     0.127 S 
ATOM     67  O   UNL A   1      42.896  21.837  25.118  1.00  0.00    -0.237 OA
ATOM     68  O   UNL A   1      42.531  21.748  27.552  1.00  0.00    -0.237 OA
ATOM     69  O   UNL A   1      40.633  22.166  26.052  1.00  0.00    -0.744 OA
ENDBRANCH  63  66
ENDBRANCH  45  59
BRANCH  46  70
ATOM     70  C   UNL A   1      40.063  31.867  35.292  1.00  0.00     0.023 A 
ATOM     71  C   UNL A   1      40.743  33.095  35.403  1.00  0.00     0.012 A 
ATOM     72  C   UNL A   1      39.100  31.531  36.263  1.00  0.00     0.148 A 
ATOM     73  C   UNL A   1      40.480  33.965  36.463  1.00  0.00     0.002 A 
ATOM     74  C   UNL A   1      38.797  32.429  37.281  1.00  0.00     0.091 A 
ATOM     75  F   UNL A   1      38.493  30.339  36.176  1.00  0.00    -0.205 F 
ATOM     76  C   UNL A   1      39.496  33.640  37.392  1.00  0.00     0.022 A 
BRANCH  74  77
ATOM     77  S   UNL A   1      37.440  32.139  38.421  1.00  0.00     0.127 S 
ATOM     78  O   UNL A   1      38.002  32.605  39.685  1.00  0.00    -0.237 OA
ATOM     79  O   UNL A   1      36.382  32.986  37.869  1.00  0.00    -0.237 OA
ATOM     80  O   UNL A   1      37.165  30.711  38.328  1.00  0.00    -0.744 OA
ENDBRANCH  74  77
ENDBRANCH  46  70
BRANCH  58  81
ATOM     81  C   UNL A   1      45.214  27.325  34.066  1.00  0.00     0.023 A 
ATOM     82  C   UNL A   1      46.443  28.013  34.039  1.00  0.00     0.012 A 
ATOM     83  C   UNL A   1      45.053  26.229  34.936  1.00  0.00     0.148 A 
ATOM     84  C   UNL A   1      47.503  27.601  34.847  1.00  0.00     0.002 A 
ATOM     85  C   UNL A   1      46.098  25.853  35.771  1.00  0.00     0.091 A 
ATOM     86  F   UNL A   1      43.883  25.574  34.928  1.00  0.00    -0.205 F 
ATOM     87  C   UNL A   1      47.327  26.530  35.721  1.00  0.00     0.022 A 
BRANCH  85  88
ATOM     88  S   UNL A   1      45.924  24.547  36.993  1.00  0.00     0.127 S 
ATOM     89  O   UNL A   1      44.786  25.022  37.777  1.00  0.00    -0.237 OA
ATOM     90  O   UNL A   1      45.646  23.375  36.162  1.00  0.00    -0.237 OA
ATOM     91  O   UNL A   1      47.198  24.495  37.698  1.00  0.00    -0.744 OA
ENDBRANCH  85  88
ENDBRANCH  58  81
ENDBRANCH  32  33
ENDBRANCH  25  27
ENDBRANCH  24  25
ENDBRANCH   1  24
TORSDOF 16
ENDMDL
MODEL 3
REMARK VINA RESULT:     -12.2      5.302      8.232
REMARK SMILES C[C@@H](C(=O)OCCOC(=O)c1ccc(-c2c3nc(c(-c4cccc(S(=O)(=O)[O-])c4F)c4ccc([nH]4)c(-c4cccc(S(=O)(=O)[O-])c4F)c4nc(c(-c5cccc(S(=O)(=O)[O-])c5F)c5ccc2[nH]5)C=C4)C=C3)cc1)c1ccc(-c2ccc3[nH]ccc3c2)cc1
REMARK SMILES IDX 7 1 6 2 5 3 3 4 4 5 2 6 1 7 74 8 75 9 88 10 76 11 87 12
REMARK SMILES IDX 77 13 78 14 79 15 86 16 80 17 85 18 81 19 84 20 82 21 83 22
REMARK SMILES IDX 8 24 9 25 10 26 11 27 12 28 73 29 13 30 72 31 14 32 15 33
REMARK SMILES IDX 16 34 66 35 17 36 71 37 65 38 67 39 18 40 70 41 64 42 63 43
REMARK SMILES IDX 19 45 51 46 31 47 50 48 32 49 35 50 49 51 68 52 33 53 34 54
REMARK SMILES IDX 48 56 69 57 36 58 20 59 21 60 29 61 22 62 24 63 30 64 23 65
REMARK SMILES IDX 25 66 26 67 27 68 28 69 52 70 53 71 61 72 54 73 56 74 62 75
REMARK SMILES IDX 55 76 57 77 58 78 59 79 60 80 37 81 38 82 46 83 39 84 41 85
REMARK SMILES IDX 47 86 40 87 42 88 43 89 44 90 45 91
REMARK H PARENT 82 23 67 44 35 55
REMARK Flexibility Score: inf
ROOT
ATOM      1  C   UNL A   1      31.372  31.998  26.324  1.00  0.00     0.275 C 
ENDROOT
BRANCH   1   2
ATOM      2  C   UNL A   1      31.007  30.843  25.396  1.00  0.00     0.274 C 
BRANCH   2   3
ATOM      3  O   UNL A   1      31.873  29.726  25.686  1.00  0.00    -0.462 OA
BRANCH   3   4
ATOM      4  C   UNL A   1      31.800  28.637  24.868  1.00  0.00     0.313 C 
ATOM      5  O   UNL A   1      30.793  27.947  24.751  1.00  0.00    -0.252 OA
BRANCH   4   6
ATOM      6  C   UNL A   1      33.145  28.327  24.174  1.00  0.00     0.126 C 
ATOM      7  C   UNL A   1      33.124  28.836  22.716  1.00  0.00     0.025 C 
BRANCH   6   8
ATOM      8  C   UNL A   1      33.628  26.870  24.286  1.00  0.00    -0.034 A 
ATOM      9  C   UNL A   1      34.094  26.312  25.487  1.00  0.00     0.005 A 
ATOM     10  C   UNL A   1      33.658  26.031  23.157  1.00  0.00     0.005 A 
ATOM     11  C   UNL A   1      34.415  24.946  25.587  1.00  0.00     0.009 A 
ATOM     12  C   UNL A   1      33.974  24.669  23.258  1.00  0.00     0.009 A 
ATOM     13  C   UNL A   1      34.293  24.085  24.488  1.00  0.00    -0.018 A 
BRANCH  13  14
ATOM     14  C   UNL A   1      34.364  22.615  24.636  1.00  0.00    -0.018 A 
ATOM     15  C   UNL A   1      35.560  22.017  25.077  1.00  0.00     0.011 A 
ATOM     16  C   UNL A   1      33.292  21.774  24.280  1.00  0.00     0.019 A 
ATOM     17  C   UNL A   1      35.728  20.630  25.155  1.00  0.00     0.027 A 
ATOM     18  C   UNL A   1      33.433  20.369  24.352  1.00  0.00    -0.000 A 
ATOM     19  C   UNL A   1      34.648  19.834  24.775  1.00  0.00     0.045 A 
ATOM     20  C   UNL A   1      32.575  19.270  24.064  1.00  0.00     0.028 A 
ATOM     21  N   UNL A   1      34.544  18.462  24.697  1.00  0.00    -0.361 N 
ATOM     22  C   UNL A   1      33.281  18.112  24.295  1.00  0.00     0.083 A 
ATOM     23  H   UNL A   1      35.269  17.827  24.901  1.00  0.00     0.166 HD
ENDBRANCH  13  14
ENDBRANCH   6   8
ENDBRANCH   4   6
ENDBRANCH   3   4
ENDBRANCH   2   3
ENDBRANCH   1   2
BRANCH   1  24
ATOM     24  O   UNL A   1      32.572  31.639  27.026  1.00  0.00    -0.458 OA
BRANCH  24  25
ATOM     25  C   UNL A   1      33.319  32.662  27.496  1.00  0.00     0.338 C 
ATOM     26  O   UNL A   1      33.008  33.842  27.567  1.00  0.00    -0.246 OA
BRANCH  25  27
ATOM     27  C   UNL A   1      34.608  32.124  27.955  1.00  0.00     0.060 A 
ATOM     28  C   UNL A   1      34.718  30.763  28.228  1.00  0.00     0.016 A 
ATOM     29  C   UNL A   1      35.684  32.980  28.192  1.00  0.00     0.016 A 
ATOM     30  C   UNL A   1      35.892  30.263  28.785  1.00  0.00     0.010 A 
ATOM     31  C   UNL A   1      36.884  32.459  28.694  1.00  0.00     0.010 A 
ATOM     32  C   UNL A   1      36.991  31.097  29.027  1.00  0.00    -0.014 A 
BRANCH  32  33
ATOM     33  C   UNL A   1      38.206  30.550  29.699  1.00  0.00     0.031 A 
ATOM     34  C   UNL A   1      38.499  30.908  31.133  1.00  0.00     0.074 A 
ATOM     35  C   UNL A   1      39.027  29.693  29.058  1.00  0.00     0.049 A 
ATOM     36  N   UNL A   1      39.544  30.617  31.865  1.00  0.00    -0.248 NA
ATOM     37  C   UNL A   1      37.480  31.702  31.840  1.00  0.00     0.031 C 
ATOM     38  C   UNL A   1      38.838  29.197  27.694  1.00  0.00     0.029 A 
ATOM     39  N   UNL A   1      40.177  29.070  29.478  1.00  0.00    -0.354 N 
ATOM     40  C   UNL A   1      39.346  31.254  33.083  1.00  0.00     0.074 A 
ATOM     41  C   UNL A   1      38.071  31.932  33.004  1.00  0.00     0.031 C 
ATOM     42  C   UNL A   1      39.805  28.308  27.413  1.00  0.00     0.029 A 
ATOM     43  C   UNL A   1      40.726  28.226  28.542  1.00  0.00     0.049 A 
ATOM     44  H   UNL A   1      40.573  29.216  30.369  1.00  0.00     0.167 HD
ATOM     45  C   UNL A   1      40.146  31.267  34.174  1.00  0.00     0.034 A 
ATOM     46  C   UNL A   1      41.852  27.486  28.576  1.00  0.00     0.034 A 
ATOM     47  C   UNL A   1      41.373  30.528  34.294  1.00  0.00     0.049 A 
ATOM     48  C   UNL A   1      42.734  27.538  29.797  1.00  0.00     0.074 A 
ATOM     49  C   UNL A   1      42.225  30.454  35.382  1.00  0.00     0.029 A 
ATOM     50  N   UNL A   1      41.920  29.732  33.302  1.00  0.00    -0.354 N 
ATOM     51  N   UNL A   1      42.525  28.130  30.948  1.00  0.00    -0.248 NA
ATOM     52  C   UNL A   1      44.016  26.822  29.716  1.00  0.00     0.031 C 
ATOM     53  C   UNL A   1      43.288  29.608  35.049  1.00  0.00     0.029 A 
ATOM     54  C   UNL A   1      43.090  29.147  33.758  1.00  0.00     0.049 A 
ATOM     55  H   UNL A   1      41.535  29.601  32.405  1.00  0.00     0.167 HD
ATOM     56  C   UNL A   1      43.639  27.844  31.730  1.00  0.00     0.074 A 
ATOM     57  C   UNL A   1      44.505  26.998  30.937  1.00  0.00     0.031 C 
ATOM     58  C   UNL A   1      43.926  28.264  32.985  1.00  0.00     0.034 A 
BRANCH  45  59
ATOM     59  C   UNL A   1      39.711  32.101  35.346  1.00  0.00     0.023 A 
ATOM     60  C   UNL A   1      40.084  33.457  35.419  1.00  0.00     0.012 A 
ATOM     61  C   UNL A   1      38.882  31.554  36.345  1.00  0.00     0.148 A 
ATOM     62  C   UNL A   1      39.658  34.251  36.482  1.00  0.00     0.002 A 
ATOM     63  C   UNL A   1      38.431  32.361  37.382  1.00  0.00     0.091 A 
ATOM     64  F   UNL A   1      38.561  30.255  36.268  1.00  0.00    -0.205 F 
ATOM     65  C   UNL A   1      38.824  33.707  37.456  1.00  0.00     0.022 A 
BRANCH  63  66
ATOM     66  S   UNL A   1      37.301  31.761  38.644  1.00  0.00     0.127 S 
ATOM     67  O   UNL A   1      38.122  31.865  39.849  1.00  0.00    -0.237 OA
ATOM     68  O   UNL A   1      36.206  32.728  38.565  1.00  0.00    -0.237 OA
ATOM     69  O   UNL A   1      36.941  30.409  38.241  1.00  0.00    -0.744 OA
ENDBRANCH  63  66
ENDBRANCH  45  59
BRANCH  46  70
ATOM     70  C   UNL A   1      42.209  26.606  27.425  1.00  0.00     0.023 A 
ATOM     71  C   UNL A   1      42.920  27.151  26.338  1.00  0.00     0.012 A 
ATOM     72  C   UNL A   1      41.868  25.240  27.399  1.00  0.00     0.148 A 
ATOM     73  C   UNL A   1      43.272  26.359  25.244  1.00  0.00     0.002 A 
ATOM     74  C   UNL A   1      42.277  24.441  26.336  1.00  0.00     0.091 A 
ATOM     75  F   UNL A   1      41.150  24.741  28.415  1.00  0.00    -0.205 F 
ATOM     76  C   UNL A   1      42.966  25.001  25.251  1.00  0.00     0.022 A 
BRANCH  74  77
ATOM     77  S   UNL A   1      42.045  22.660  26.352  1.00  0.00     0.127 S 
ATOM     78  O   UNL A   1      42.769  22.251  25.153  1.00  0.00    -0.237 OA
ATOM     79  O   UNL A   1      42.676  22.274  27.615  1.00  0.00    -0.237 OA
ATOM     80  O   UNL A   1      40.600  22.465  26.328  1.00  0.00    -0.744 OA
ENDBRANCH  74  77
ENDBRANCH  46  70
BRANCH  58  81
ATOM     81  C   UNL A   1      45.219  27.804  33.603  1.00  0.00     0.023 A 
ATOM     82  C   UNL A   1      46.366  28.615  33.505  1.00  0.00     0.012 A 
ATOM     83  C   UNL A   1      45.277  26.609  34.346  1.00  0.00     0.148 A 
ATOM     84  C   UNL A   1      47.559  28.231  34.118  1.00  0.00     0.002 A 
ATOM     85  C   UNL A   1      46.457  26.256  34.992  1.00  0.00     0.091 A 
ATOM     86  F   UNL A   1      44.181  25.840  34.407  1.00  0.00    -0.205 F 
ATOM     87  C   UNL A   1      47.602  27.060  34.871  1.00  0.00     0.022 A 
BRANCH  85  88
ATOM     88  S   UNL A   1      46.568  24.815  36.060  1.00  0.00     0.127 S 
ATOM     89  O   UNL A   1      45.496  25.070  37.018  1.00  0.00    -0.237 OA
ATOM     90  O   UNL A   1      46.308  23.716  35.129  1.00  0.00    -0.237 OA
ATOM     91  O   UNL A   1      47.919  24.833  36.605  1.00  0.00    -0.744 OA
ENDBRANCH  85  88
ENDBRANCH  58  81
ENDBRANCH  32  33
ENDBRANCH  25  27
ENDBRANCH  24  25
ENDBRANCH   1  24
TORSDOF 16
ENDMDL
