MODEL 1
REMARK VINA RESULT:     -10.0      0.000      0.000
REMARK SMILES Cc1cscc1-c1noc(SCC(=O)OCCOC(=O)c2ccc(-c3c4nc(c(-c5cccc(S(=O)(=O)[O-])c5F)c5ccc([nH]5)c(-c5cccc(S(=O)(=O)[O-])c5F)c5nc(c(-c6cccc(S(=O)(=O)[O-])c6F)c6ccc3[nH]6)C=C5)C=C4)cc2)n1
REMARK SMILES IDX 16 1 15 2 13 3 14 4 12 5 11 6 10 7 7 8 8 9 84 10 9 11 6 12
REMARK SMILES IDX 1 13 2 14 3 15 4 16 5 17 17 18 18 19 19 20 20 21 21 22 22 23
REMARK SMILES IDX 83 24 23 25 82 26 24 27 25 28 26 29 76 30 27 31 81 32 75 33
REMARK SMILES IDX 77 34 28 35 80 36 74 37 73 38 29 40 61 41 41 42 60 43 42 44
REMARK SMILES IDX 45 45 59 46 78 47 43 48 44 49 58 51 79 52 46 53 30 54 31 55
REMARK SMILES IDX 39 56 32 57 34 58 40 59 33 60 35 61 36 62 37 63 38 64 62 65
REMARK SMILES IDX 63 66 71 67 64 68 66 69 72 70 65 71 67 72 68 73 69 74 70 75
REMARK SMILES IDX 47 76 48 77 56 78 49 79 51 80 57 81 50 82 52 83 53 84 54 85
REMARK SMILES IDX 55 86
REMARK H PARENT 77 39 45 50
REMARK Flexibility Score: inf
ROOT
ATOM      1  C   UNL A   1      33.835  34.152  28.428  1.00  0.00     0.274 C 
ENDROOT
BRANCH   1   2
ATOM      2  O   UNL A   1      33.310  34.583  29.703  1.00  0.00    -0.461 OA
BRANCH   2   3
ATOM      3  C   UNL A   1      32.905  35.878  29.772  1.00  0.00     0.316 C 
ATOM      4  O   UNL A   1      32.320  36.458  28.859  1.00  0.00    -0.251 OA
BRANCH   3   5
ATOM      5  C   UNL A   1      33.160  36.578  31.090  1.00  0.00     0.202 C 
BRANCH   5   6
ATOM      6  S   UNL A   1      32.830  35.630  32.583  1.00  0.00    -0.053 SA
BRANCH   6   7
ATOM      7  C   UNL A   1      34.425  35.167  33.103  1.00  0.00     0.286 A 
ATOM      8  C   UNL A   1      36.089  34.234  33.959  1.00  0.00     0.204 A 
ATOM      9  N   UNL A   1      36.642  35.084  33.086  1.00  0.00    -0.056 NA
ATOM     10  N   UNL A   1      34.719  34.325  34.073  1.00  0.00    -0.181 NA
ATOM     11  O   UNL A   1      35.538  35.705  32.514  1.00  0.00    -0.327 OA
BRANCH   8  12
ATOM     12  C   UNL A   1      36.875  33.236  34.693  1.00  0.00     0.036 A 
ATOM     13  C   UNL A   1      36.692  31.343  32.876  1.00  0.00     0.046 C 
ATOM     14  C   UNL A   1      37.168  31.919  34.171  1.00  0.00    -0.029 A 
ATOM     15  C   UNL A   1      37.956  31.208  35.059  1.00  0.00     0.069 A 
ATOM     16  S   UNL A   1      38.402  32.117  36.428  1.00  0.00    -0.151 S 
ATOM     17  C   UNL A   1      37.455  33.450  35.924  1.00  0.00     0.077 A 
ENDBRANCH   8  12
ENDBRANCH   6   7
ENDBRANCH   5   6
ENDBRANCH   3   5
ENDBRANCH   2   3
ENDBRANCH   1   2
BRANCH   1  18
ATOM     18  C   UNL A   1      33.688  32.640  28.221  1.00  0.00     0.275 C 
BRANCH  18  19
ATOM     19  O   UNL A   1      34.875  32.051  27.658  1.00  0.00    -0.458 OA
BRANCH  19  20
ATOM     20  C   UNL A   1      34.803  30.703  27.567  1.00  0.00     0.338 C 
ATOM     21  O   UNL A   1      33.866  30.075  27.109  1.00  0.00    -0.246 OA
BRANCH  20  22
ATOM     22  C   UNL A   1      36.021  30.050  28.060  1.00  0.00     0.060 A 
ATOM     23  C   UNL A   1      36.015  29.438  29.315  1.00  0.00     0.016 A 
ATOM     24  C   UNL A   1      37.210  30.193  27.344  1.00  0.00     0.016 A 
ATOM     25  C   UNL A   1      37.213  28.996  29.876  1.00  0.00     0.010 A 
ATOM     26  C   UNL A   1      38.402  29.707  27.888  1.00  0.00     0.010 A 
ATOM     27  C   UNL A   1      38.415  29.116  29.162  1.00  0.00    -0.014 A 
BRANCH  27  28
ATOM     28  C   UNL A   1      39.670  28.543  29.708  1.00  0.00     0.031 A 
ATOM     29  C   UNL A   1      40.342  29.137  30.911  1.00  0.00     0.074 A 
ATOM     30  C   UNL A   1      40.235  27.508  29.061  1.00  0.00     0.049 A 
ATOM     31  N   UNL A   1      41.508  28.862  31.433  1.00  0.00    -0.248 NA
ATOM     32  C   UNL A   1      39.605  30.191  31.615  1.00  0.00     0.031 C 
ATOM     33  C   UNL A   1      39.682  26.860  27.872  1.00  0.00     0.029 A 
ATOM     34  N   UNL A   1      41.409  26.842  29.294  1.00  0.00    -0.354 N 
ATOM     35  C   UNL A   1      41.670  29.746  32.493  1.00  0.00     0.074 A 
ATOM     36  C   UNL A   1      40.480  30.569  32.539  1.00  0.00     0.031 C 
ATOM     37  C   UNL A   1      40.524  25.898  27.467  1.00  0.00     0.029 A 
ATOM     38  C   UNL A   1      41.691  25.893  28.344  1.00  0.00     0.049 A 
ATOM     39  H   UNL A   1      41.992  27.026  30.066  1.00  0.00     0.167 HD
ATOM     40  C   UNL A   1      42.707  29.846  33.360  1.00  0.00     0.034 A 
ATOM     41  C   UNL A   1      42.781  25.119  28.179  1.00  0.00     0.034 A 
ATOM     42  C   UNL A   1      43.847  28.967  33.351  1.00  0.00     0.049 A 
ATOM     43  C   UNL A   1      43.900  25.220  29.174  1.00  0.00     0.074 A 
ATOM     44  C   UNL A   1      44.915  28.928  34.231  1.00  0.00     0.029 A 
ATOM     45  N   UNL A   1      44.062  27.961  32.420  1.00  0.00    -0.354 N 
ATOM     46  N   UNL A   1      43.997  25.995  30.227  1.00  0.00    -0.248 NA
ATOM     47  C   UNL A   1      45.045  24.322  28.977  1.00  0.00     0.031 C 
ATOM     48  C   UNL A   1      45.774  27.898  33.831  1.00  0.00     0.029 A 
ATOM     49  C   UNL A   1      45.242  27.296  32.704  1.00  0.00     0.049 A 
ATOM     50  H   UNL A   1      43.462  27.752  31.668  1.00  0.00     0.167 HD
ATOM     51  C   UNL A   1      45.203  25.666  30.831  1.00  0.00     0.074 A 
ATOM     52  C   UNL A   1      45.790  24.604  30.038  1.00  0.00     0.031 C 
ATOM     53  C   UNL A   1      45.784  26.207  31.930  1.00  0.00     0.034 A 
BRANCH  40  54
ATOM     54  C   UNL A   1      42.635  30.898  34.436  1.00  0.00     0.023 A 
ATOM     55  C   UNL A   1      42.129  30.554  35.706  1.00  0.00     0.012 A 
ATOM     56  C   UNL A   1      43.140  32.197  34.224  1.00  0.00     0.148 A 
ATOM     57  C   UNL A   1      42.108  31.490  36.741  1.00  0.00     0.002 A 
ATOM     58  C   UNL A   1      43.146  33.114  35.271  1.00  0.00     0.091 A 
ATOM     59  F   UNL A   1      43.596  32.517  33.005  1.00  0.00    -0.205 F 
ATOM     60  C   UNL A   1      42.626  32.765  36.528  1.00  0.00     0.022 A 
BRANCH  58  61
ATOM     61  S   UNL A   1      43.866  34.753  35.103  1.00  0.00     0.127 S 
ATOM     62  O   UNL A   1      42.936  35.393  34.174  1.00  0.00    -0.237 OA
ATOM     63  O   UNL A   1      43.806  35.268  36.473  1.00  0.00    -0.237 OA
ATOM     64  O   UNL A   1      45.217  34.540  34.602  1.00  0.00    -0.744 OA
ENDBRANCH  58  61
ENDBRANCH  40  54
BRANCH  41  65
ATOM     65  C   UNL A   1      42.812  24.149  27.053  1.00  0.00     0.023 A 
ATOM     66  C   UNL A   1      43.541  24.468  25.892  1.00  0.00     0.012 A 
ATOM     67  C   UNL A   1      42.218  22.877  27.168  1.00  0.00     0.148 A 
ATOM     68  C   UNL A   1      43.671  23.537  24.861  1.00  0.00     0.002 A 
ATOM     69  C   UNL A   1      42.399  21.937  26.161  1.00  0.00     0.091 A 
ATOM     70  F   UNL A   1      41.513  22.600  28.274  1.00  0.00    -0.205 F 
ATOM     71  C   UNL A   1      43.114  22.269  25.001  1.00  0.00     0.022 A 
BRANCH  69  72
ATOM     72  S   UNL A   1      41.846  20.237  26.346  1.00  0.00     0.127 S 
ATOM     73  O   UNL A   1      40.406  20.364  26.142  1.00  0.00    -0.237 OA
ATOM     74  O   UNL A   1      42.562  19.556  25.267  1.00  0.00    -0.237 OA
ATOM     75  O   UNL A   1      42.272  19.840  27.682  1.00  0.00    -0.744 OA
ENDBRANCH  69  72
ENDBRANCH  41  65
BRANCH  53  76
ATOM     76  C   UNL A   1      47.120  25.656  32.344  1.00  0.00     0.023 A 
ATOM     77  C   UNL A   1      48.285  26.140  31.718  1.00  0.00     0.012 A 
ATOM     78  C   UNL A   1      47.229  24.715  33.385  1.00  0.00     0.148 A 
ATOM     79  C   UNL A   1      49.541  25.675  32.107  1.00  0.00     0.002 A 
ATOM     80  C   UNL A   1      48.486  24.282  33.790  1.00  0.00     0.091 A 
ATOM     81  F   UNL A   1      46.105  24.249  33.949  1.00  0.00    -0.205 F 
ATOM     82  C   UNL A   1      49.642  24.755  33.148  1.00  0.00     0.022 A 
BRANCH  80  83
ATOM     83  S   UNL A   1      48.700  23.157  35.174  1.00  0.00     0.127 S 
ATOM     84  O   UNL A   1      50.155  23.034  35.238  1.00  0.00    -0.237 OA
ATOM     85  O   UNL A   1      48.103  23.900  36.285  1.00  0.00    -0.237 OA
ATOM     86  O   UNL A   1      47.978  21.945  34.809  1.00  0.00    -0.744 OA
ENDBRANCH  80  83
ENDBRANCH  53  76
ENDBRANCH  27  28
ENDBRANCH  20  22
ENDBRANCH  19  20
ENDBRANCH  18  19
ENDBRANCH   1  18
TORSDOF 17
ENDMDL
MODEL 2
REMARK VINA RESULT:     -10.0      3.994     10.304
REMARK SMILES Cc1cscc1-c1noc(SCC(=O)OCCOC(=O)c2ccc(-c3c4nc(c(-c5cccc(S(=O)(=O)[O-])c5F)c5ccc([nH]5)c(-c5cccc(S(=O)(=O)[O-])c5F)c5nc(c(-c6cccc(S(=O)(=O)[O-])c6F)c6ccc3[nH]6)C=C5)C=C4)cc2)n1
REMARK SMILES IDX 16 1 15 2 13 3 14 4 12 5 11 6 10 7 7 8 8 9 84 10 9 11 6 12
REMARK SMILES IDX 1 13 2 14 3 15 4 16 5 17 17 18 18 19 19 20 20 21 21 22 22 23
REMARK SMILES IDX 83 24 23 25 82 26 24 27 25 28 26 29 76 30 27 31 81 32 75 33
REMARK SMILES IDX 77 34 28 35 80 36 74 37 73 38 29 40 61 41 41 42 60 43 42 44
REMARK SMILES IDX 45 45 59 46 78 47 43 48 44 49 58 51 79 52 46 53 30 54 31 55
REMARK SMILES IDX 39 56 32 57 34 58 40 59 33 60 35 61 36 62 37 63 38 64 62 65
REMARK SMILES IDX 63 66 71 67 64 68 66 69 72 70 65 71 67 72 68 73 69 74 70 75
REMARK SMILES IDX 47 76 48 77 56 78 49 79 51 80 57 81 50 82 52 83 53 84 54 85
REMARK SMILES IDX 55 86
REMARK H PARENT 77 39 45 50
REMARK Flexibility Score: inf
ROOT
ATOM      1  C   UNL A   1      31.887  27.987  25.995  1.00  0.00     0.274 C 
ENDROOT
BRANCH   1   2
ATOM      2  O   UNL A   1      30.887  27.535  25.056  1.00  0.00    -0.461 OA
BRANCH   2   3
ATOM      3  C   UNL A   1      30.907  28.130  23.835  1.00  0.00     0.316 C 
ATOM      4  O   UNL A   1      30.089  28.976  23.476  1.00  0.00    -0.251 OA
BRANCH   3   5
ATOM      5  C   UNL A   1      32.054  27.735  22.930  1.00  0.00     0.202 C 
BRANCH   5   6
ATOM      6  S   UNL A   1      31.706  26.482  21.686  1.00  0.00    -0.053 SA
BRANCH   6   7
ATOM      7  C   UNL A   1      32.716  25.156  22.187  1.00  0.00     0.286 A 
ATOM      8  C   UNL A   1      33.730  23.664  23.245  1.00  0.00     0.204 A 
ATOM      9  N   UNL A   1      33.955  23.328  21.969  1.00  0.00    -0.056 NA
ATOM     10  N   UNL A   1      33.049  24.849  23.423  1.00  0.00    -0.181 NA
ATOM     11  O   UNL A   1      33.281  24.318  21.262  1.00  0.00    -0.327 OA
BRANCH   8  12
ATOM     12  C   UNL A   1      34.121  22.804  24.367  1.00  0.00     0.036 A 
ATOM     13  C   UNL A   1      36.682  22.716  23.775  1.00  0.00     0.046 C 
ATOM     14  C   UNL A   1      35.487  22.398  24.615  1.00  0.00    -0.029 A 
ATOM     15  C   UNL A   1      35.564  21.623  25.758  1.00  0.00     0.069 A 
ATOM     16  S   UNL A   1      34.068  21.461  26.556  1.00  0.00    -0.151 S 
ATOM     17  C   UNL A   1      33.253  22.329  25.326  1.00  0.00     0.077 A 
ENDBRANCH   8  12
ENDBRANCH   6   7
ENDBRANCH   5   6
ENDBRANCH   3   5
ENDBRANCH   2   3
ENDBRANCH   1   2
BRANCH   1  18
ATOM     18  C   UNL A   1      31.690  29.454  26.392  1.00  0.00     0.275 C 
BRANCH  18  19
ATOM     19  O   UNL A   1      32.788  30.284  25.968  1.00  0.00    -0.458 OA
BRANCH  19  20
ATOM     20  C   UNL A   1      33.136  31.211  26.891  1.00  0.00     0.338 C 
ATOM     21  O   UNL A   1      32.464  32.171  27.216  1.00  0.00    -0.246 OA
BRANCH  20  22
ATOM     22  C   UNL A   1      34.435  30.915  27.508  1.00  0.00     0.060 A 
ATOM     23  C   UNL A   1      34.701  29.625  27.969  1.00  0.00     0.016 A 
ATOM     24  C   UNL A   1      35.319  31.962  27.775  1.00  0.00     0.016 A 
ATOM     25  C   UNL A   1      35.843  29.384  28.733  1.00  0.00     0.010 A 
ATOM     26  C   UNL A   1      36.485  31.708  28.500  1.00  0.00     0.010 A 
ATOM     27  C   UNL A   1      36.751  30.421  28.995  1.00  0.00    -0.014 A 
BRANCH  27  28
ATOM     28  C   UNL A   1      38.021  30.142  29.709  1.00  0.00     0.031 A 
ATOM     29  C   UNL A   1      39.054  29.218  29.134  1.00  0.00     0.074 A 
ATOM     30  C   UNL A   1      38.206  30.689  30.923  1.00  0.00     0.049 A 
ATOM     31  N   UNL A   1      40.145  28.749  29.679  1.00  0.00    -0.248 NA
ATOM     32  C   UNL A   1      38.821  28.752  27.763  1.00  0.00     0.031 C 
ATOM     33  C   UNL A   1      37.263  31.588  31.590  1.00  0.00     0.029 A 
ATOM     34  N   UNL A   1      39.229  30.546  31.822  1.00  0.00    -0.354 N 
ATOM     35  C   UNL A   1      40.701  27.888  28.739  1.00  0.00     0.074 A 
ATOM     36  C   UNL A   1      39.824  27.900  27.588  1.00  0.00     0.031 C 
ATOM     37  C   UNL A   1      37.744  31.905  32.800  1.00  0.00     0.029 A 
ATOM     38  C   UNL A   1      39.005  31.199  33.008  1.00  0.00     0.049 A 
ATOM     39  H   UNL A   1      40.045  30.027  31.635  1.00  0.00     0.167 HD
ATOM     40  C   UNL A   1      41.849  27.172  28.823  1.00  0.00     0.034 A 
ATOM     41  C   UNL A   1      39.721  31.210  34.148  1.00  0.00     0.034 A 
ATOM     42  C   UNL A   1      42.752  27.233  29.943  1.00  0.00     0.049 A 
ATOM     43  C   UNL A   1      41.008  30.441  34.204  1.00  0.00     0.074 A 
ATOM     44  C   UNL A   1      43.979  26.611  30.097  1.00  0.00     0.029 A 
ATOM     45  N   UNL A   1      42.530  27.970  31.097  1.00  0.00    -0.354 N 
ATOM     46  N   UNL A   1      41.569  29.707  33.273  1.00  0.00    -0.248 NA
ATOM     47  C   UNL A   1      41.776  30.522  35.453  1.00  0.00     0.031 C 
ATOM     48  C   UNL A   1      44.500  26.974  31.345  1.00  0.00     0.029 A 
ATOM     49  C   UNL A   1      43.597  27.821  31.967  1.00  0.00     0.049 A 
ATOM     50  H   UNL A   1      41.732  28.518  31.271  1.00  0.00     0.167 HD
ATOM     51  C   UNL A   1      42.764  29.254  33.816  1.00  0.00     0.074 A 
ATOM     52  C   UNL A   1      42.857  29.818  35.148  1.00  0.00     0.031 C 
ATOM     53  C   UNL A   1      43.692  28.431  33.269  1.00  0.00     0.034 A 
BRANCH  40  54
ATOM     54  C   UNL A   1      42.235  26.308  27.650  1.00  0.00     0.023 A 
ATOM     55  C   UNL A   1      43.038  26.851  26.628  1.00  0.00     0.012 A 
ATOM     56  C   UNL A   1      41.879  24.945  27.597  1.00  0.00     0.148 A 
ATOM     57  C   UNL A   1      43.463  26.059  25.560  1.00  0.00     0.002 A 
ATOM     58  C   UNL A   1      42.336  24.154  26.547  1.00  0.00     0.091 A 
ATOM     59  F   UNL A   1      41.096  24.448  28.564  1.00  0.00    -0.205 F 
ATOM     60  C   UNL A   1      43.122  24.709  25.526  1.00  0.00     0.022 A 
BRANCH  58  61
ATOM     61  S   UNL A   1      42.007  22.387  26.467  1.00  0.00     0.127 S 
ATOM     62  O   UNL A   1      40.545  22.357  26.465  1.00  0.00    -0.237 OA
ATOM     63  O   UNL A   1      42.623  22.007  25.194  1.00  0.00    -0.237 OA
ATOM     64  O   UNL A   1      42.652  21.814  27.640  1.00  0.00    -0.744 OA
ENDBRANCH  58  61
ENDBRANCH  40  54
BRANCH  41  65
ATOM     65  C   UNL A   1      39.244  32.033  35.291  1.00  0.00     0.023 A 
ATOM     66  C   UNL A   1      38.409  31.445  36.258  1.00  0.00     0.012 A 
ATOM     67  C   UNL A   1      39.697  33.353  35.480  1.00  0.00     0.148 A 
ATOM     68  C   UNL A   1      38.026  32.161  37.392  1.00  0.00     0.002 A 
ATOM     69  C   UNL A   1      39.357  34.040  36.639  1.00  0.00     0.091 A 
ATOM     70  F   UNL A   1      40.477  33.901  34.537  1.00  0.00    -0.205 F 
ATOM     71  C   UNL A   1      38.512  33.451  37.591  1.00  0.00     0.022 A 
BRANCH  69  72
ATOM     72  S   UNL A   1      40.074  35.640  37.032  1.00  0.00     0.127 S 
ATOM     73  O   UNL A   1      39.650  36.449  35.893  1.00  0.00    -0.237 OA
ATOM     74  O   UNL A   1      39.420  35.973  38.299  1.00  0.00    -0.237 OA
ATOM     75  O   UNL A   1      41.506  35.398  37.151  1.00  0.00    -0.744 OA
ENDBRANCH  69  72
ENDBRANCH  41  65
BRANCH  53  76
ATOM     76  C   UNL A   1      44.893  28.093  34.109  1.00  0.00     0.023 A 
ATOM     77  C   UNL A   1      45.996  28.968  34.112  1.00  0.00     0.012 A 
ATOM     78  C   UNL A   1      44.906  26.953  34.935  1.00  0.00     0.148 A 
ATOM     79  C   UNL A   1      47.108  28.700  34.910  1.00  0.00     0.002 A 
ATOM     80  C   UNL A   1      46.004  26.712  35.753  1.00  0.00     0.091 A 
ATOM     81  F   UNL A   1      43.856  26.120  34.897  1.00  0.00    -0.205 F 
ATOM     82  C   UNL A   1      47.108  27.579  35.737  1.00  0.00     0.022 A 
BRANCH  80  83
ATOM     83  S   UNL A   1      46.044  25.331  36.901  1.00  0.00     0.127 S 
ATOM     84  O   UNL A   1      47.320  25.543  37.581  1.00  0.00    -0.237 OA
ATOM     85  O   UNL A   1      44.864  25.572  37.733  1.00  0.00    -0.237 OA
ATOM     86  O   UNL A   1      45.959  24.133  36.075  1.00  0.00    -0.744 OA
ENDBRANCH  80  83
ENDBRANCH  53  76
ENDBRANCH  27  28
ENDBRANCH  20  22
ENDBRANCH  19  20
ENDBRANCH  18  19
ENDBRANCH   1  18
TORSDOF 17
ENDMDL
MODEL 3
REMARK VINA RESULT:      -9.9      4.295     11.988
REMARK SMILES Cc1cscc1-c1noc(SCC(=O)OCCOC(=O)c2ccc(-c3c4nc(c(-c5cccc(S(=O)(=O)[O-])c5F)c5ccc([nH]5)c(-c5cccc(S(=O)(=O)[O-])c5F)c5nc(c(-c6cccc(S(=O)(=O)[O-])c6F)c6ccc3[nH]6)C=C5)C=C4)cc2)n1
REMARK SMILES IDX 16 1 15 2 13 3 14 4 12 5 11 6 10 7 7 8 8 9 84 10 9 11 6 12
REMARK SMILES IDX 1 13 2 14 3 15 4 16 5 17 17 18 18 19 19 20 20 21 21 22 22 23
REMARK SMILES IDX 83 24 23 25 82 26 24 27 25 28 26 29 76 30 27 31 81 32 75 33
REMARK SMILES IDX 77 34 28 35 80 36 74 37 73 38 29 40 61 41 41 42 60 43 42 44
REMARK SMILES IDX 45 45 59 46 78 47 43 48 44 49 58 51 79 52 46 53 30 54 31 55
REMARK SMILES IDX 39 56 32 57 34 58 40 59 33 60 35 61 36 62 37 63 38 64 62 65
REMARK SMILES IDX 63 66 71 67 64 68 66 69 72 70 65 71 67 72 68 73 69 74 70 75
REMARK SMILES IDX 47 76 48 77 56 78 49 79 51 80 57 81 50 82 52 83 53 84 54 85
REMARK SMILES IDX 55 86
REMARK H PARENT 77 39 45 50
REMARK Flexibility Score: inf
ROOT
ATOM      1  C   UNL A   1      42.530  20.883  26.050  1.00  0.00     0.274 C 
ENDROOT
BRANCH   1   2
ATOM      2  O   UNL A   1      42.712  21.949  25.093  1.00  0.00    -0.461 OA
BRANCH   2   3
ATOM      3  C   UNL A   1      43.837  22.696  25.241  1.00  0.00     0.316 C 
ATOM      4  O   UNL A   1      44.839  22.564  24.541  1.00  0.00    -0.251 OA
BRANCH   3   5
ATOM      5  C   UNL A   1      43.775  23.774  26.302  1.00  0.00     0.202 C 
BRANCH   5   6
ATOM      6  S   UNL A   1      44.373  23.330  27.939  1.00  0.00    -0.053 SA
BRANCH   6   7
ATOM      7  C   UNL A   1      45.924  24.118  28.006  1.00  0.00     0.286 A 
ATOM      8  C   UNL A   1      47.808  24.928  27.596  1.00  0.00     0.204 A 
ATOM      9  N   UNL A   1      47.508  25.460  28.788  1.00  0.00    -0.056 NA
ATOM     10  N   UNL A   1      46.895  24.011  27.123  1.00  0.00    -0.181 NA
ATOM     11  O   UNL A   1      46.255  24.924  29.062  1.00  0.00    -0.327 OA
BRANCH   8  12
ATOM     12  C   UNL A   1      48.985  25.339  26.823  1.00  0.00     0.036 A 
ATOM     13  C   UNL A   1      47.651  26.395  24.818  1.00  0.00     0.046 C 
ATOM     14  C   UNL A   1      48.898  26.037  25.559  1.00  0.00    -0.029 A 
ATOM     15  C   UNL A   1      50.162  26.330  25.078  1.00  0.00     0.069 A 
ATOM     16  S   UNL A   1      51.406  25.862  26.144  1.00  0.00    -0.151 S 
ATOM     17  C   UNL A   1      50.288  25.151  27.227  1.00  0.00     0.077 A 
ENDBRANCH   8  12
ENDBRANCH   6   7
ENDBRANCH   5   6
ENDBRANCH   3   5
ENDBRANCH   2   3
ENDBRANCH   1   2
BRANCH   1  18
ATOM     18  C   UNL A   1      41.052  20.536  26.260  1.00  0.00     0.275 C 
BRANCH  18  19
ATOM     19  O   UNL A   1      40.425  21.397  27.230  1.00  0.00    -0.458 OA
BRANCH  19  20
ATOM     20  C   UNL A   1      39.684  22.378  26.664  1.00  0.00     0.338 C 
ATOM     21  O   UNL A   1      38.702  22.209  25.966  1.00  0.00    -0.246 OA
BRANCH  20  22
ATOM     22  C   UNL A   1      40.178  23.715  27.014  1.00  0.00     0.060 A 
ATOM     23  C   UNL A   1      40.698  23.946  28.290  1.00  0.00     0.016 A 
ATOM     24  C   UNL A   1      39.969  24.774  26.130  1.00  0.00     0.016 A 
ATOM     25  C   UNL A   1      40.980  25.249  28.698  1.00  0.00     0.010 A 
ATOM     26  C   UNL A   1      40.296  26.074  26.525  1.00  0.00     0.010 A 
ATOM     27  C   UNL A   1      40.792  26.323  27.815  1.00  0.00    -0.014 A 
BRANCH  27  28
ATOM     28  C   UNL A   1      41.199  27.695  28.207  1.00  0.00     0.031 A 
ATOM     29  C   UNL A   1      42.639  28.116  28.197  1.00  0.00     0.074 A 
ATOM     30  C   UNL A   1      40.250  28.545  28.636  1.00  0.00     0.049 A 
ATOM     31  N   UNL A   1      43.187  29.216  28.643  1.00  0.00    -0.248 NA
ATOM     32  C   UNL A   1      43.592  27.166  27.616  1.00  0.00     0.031 C 
ATOM     33  C   UNL A   1      38.820  28.240  28.706  1.00  0.00     0.029 A 
ATOM     34  N   UNL A   1      40.347  29.822  29.121  1.00  0.00    -0.354 N 
ATOM     35  C   UNL A   1      44.555  29.067  28.448  1.00  0.00     0.074 A 
ATOM     36  C   UNL A   1      44.754  27.767  27.842  1.00  0.00     0.031 C 
ATOM     37  C   UNL A   1      38.173  29.295  29.220  1.00  0.00     0.029 A 
ATOM     38  C   UNL A   1      39.147  30.331  29.553  1.00  0.00     0.049 A 
ATOM     39  H   UNL A   1      41.193  30.325  29.156  1.00  0.00     0.167 HD
ATOM     40  C   UNL A   1      45.550  29.944  28.728  1.00  0.00     0.034 A 
ATOM     41  C   UNL A   1      38.863  31.492  30.173  1.00  0.00     0.034 A 
ATOM     42  C   UNL A   1      45.328  31.265  29.256  1.00  0.00     0.049 A 
ATOM     43  C   UNL A   1      39.975  32.464  30.437  1.00  0.00     0.074 A 
ATOM     44  C   UNL A   1      46.256  32.263  29.502  1.00  0.00     0.029 A 
ATOM     45  N   UNL A   1      44.088  31.778  29.607  1.00  0.00    -0.354 N 
ATOM     46  N   UNL A   1      41.252  32.349  30.160  1.00  0.00    -0.248 NA
ATOM     47  C   UNL A   1      39.607  33.736  31.073  1.00  0.00     0.031 C 
ATOM     48  C   UNL A   1      45.575  33.379  30.002  1.00  0.00     0.029 A 
ATOM     49  C   UNL A   1      44.225  33.076  30.067  1.00  0.00     0.049 A 
ATOM     50  H   UNL A   1      43.237  31.289  29.539  1.00  0.00     0.167 HD
ATOM     51  C   UNL A   1      41.837  33.540  30.569  1.00  0.00     0.074 A 
ATOM     52  C   UNL A   1      40.771  34.372  31.090  1.00  0.00     0.031 C 
ATOM     53  C   UNL A   1      43.143  33.905  30.535  1.00  0.00     0.034 A 
BRANCH  40  54
ATOM     54  C   UNL A   1      46.966  29.538  28.411  1.00  0.00     0.023 A 
ATOM     55  C   UNL A   1      47.495  29.816  27.135  1.00  0.00     0.012 A 
ATOM     56  C   UNL A   1      47.798  28.962  29.392  1.00  0.00     0.148 A 
ATOM     57  C   UNL A   1      48.822  29.508  26.832  1.00  0.00     0.002 A 
ATOM     58  C   UNL A   1      49.130  28.689  29.093  1.00  0.00     0.091 A 
ATOM     59  F   UNL A   1      47.275  28.682  30.594  1.00  0.00    -0.205 F 
ATOM     60  C   UNL A   1      49.642  28.956  27.813  1.00  0.00     0.022 A 
BRANCH  58  61
ATOM     61  S   UNL A   1      50.275  28.049  30.323  1.00  0.00     0.127 S 
ATOM     62  O   UNL A   1      51.462  27.781  29.514  1.00  0.00    -0.237 OA
ATOM     63  O   UNL A   1      50.412  29.178  31.246  1.00  0.00    -0.237 OA
ATOM     64  O   UNL A   1      49.621  26.882  30.898  1.00  0.00    -0.744 OA
ENDBRANCH  58  61
ENDBRANCH  40  54
BRANCH  41  65
ATOM     65  C   UNL A   1      37.450  31.798  30.517  1.00  0.00     0.023 A 
ATOM     66  C   UNL A   1      36.989  31.534  31.820  1.00  0.00     0.012 A 
ATOM     67  C   UNL A   1      36.597  32.443  29.600  1.00  0.00     0.148 A 
ATOM     68  C   UNL A   1      35.699  31.902  32.202  1.00  0.00     0.002 A 
ATOM     69  C   UNL A   1      35.334  32.856  30.005  1.00  0.00     0.091 A 
ATOM     70  F   UNL A   1      37.049  32.669  28.358  1.00  0.00    -0.205 F 
ATOM     71  C   UNL A   1      34.877  32.575  31.302  1.00  0.00     0.022 A 
BRANCH  69  72
ATOM     72  S   UNL A   1      34.287  33.865  28.949  1.00  0.00     0.127 S 
ATOM     73  O   UNL A   1      33.852  32.900  27.944  1.00  0.00    -0.237 OA
ATOM     74  O   UNL A   1      33.241  34.305  29.874  1.00  0.00    -0.237 OA
ATOM     75  O   UNL A   1      35.148  34.942  28.475  1.00  0.00    -0.744 OA
ENDBRANCH  69  72
ENDBRANCH  41  65
BRANCH  53  76
ATOM     76  C   UNL A   1      43.491  35.266  31.071  1.00  0.00     0.023 A 
ATOM     77  C   UNL A   1      43.803  35.406  32.438  1.00  0.00     0.012 A 
ATOM     78  C   UNL A   1      43.568  36.386  30.222  1.00  0.00     0.148 A 
ATOM     79  C   UNL A   1      44.165  36.648  32.957  1.00  0.00     0.002 A 
ATOM     80  C   UNL A   1      43.963  37.614  30.740  1.00  0.00     0.091 A 
ATOM     81  F   UNL A   1      43.241  36.236  28.931  1.00  0.00    -0.205 F 
ATOM     82  C   UNL A   1      44.256  37.749  32.107  1.00  0.00     0.022 A 
BRANCH  80  83
ATOM     83  S   UNL A   1      44.176  39.059  29.695  1.00  0.00     0.127 S 
ATOM     84  O   UNL A   1      45.389  38.717  28.954  1.00  0.00    -0.237 OA
ATOM     85  O   UNL A   1      42.951  39.056  28.893  1.00  0.00    -0.237 OA
ATOM     86  O   UNL A   1      44.289  40.189  30.608  1.00  0.00    -0.744 OA
ENDBRANCH  80  83
ENDBRANCH  53  76
ENDBRANCH  27  28
ENDBRANCH  20  22
ENDBRANCH  19  20
ENDBRANCH  18  19
ENDBRANCH   1  18
TORSDOF 17
ENDMDL
