MODEL 1
REMARK VINA RESULT:     -11.5      0.000      0.000
REMARK SMILES C[C@@H](NS(=O)(=O)c1ccc2c(c1)CCC2)C(=O)OCCOC(=O)c1ccc(-c2c3nc(c(-c4cccc(S(=O)(=O)[O-])c4F)c4ccc([nH]4)c(-c4cccc(S(=O)(=O)[O-])c4F)c4nc(c(-c5cccc(S(=O)(=O)[O-])c5F)c5ccc2[nH]5)C=C4)C=C3)cc1
REMARK SMILES IDX 19 1 18 2 16 3 17 4 2 5 1 6 3 7 4 9 5 10 6 11 7 12 8 13
REMARK SMILES IDX 12 14 9 15 11 16 10 17 13 18 15 19 14 20 20 21 21 22 22 23
REMARK SMILES IDX 23 24 24 25 25 26 86 27 26 28 85 29 27 30 28 31 29 32 79 33
REMARK SMILES IDX 30 34 84 35 78 36 80 37 31 38 83 39 77 40 76 41 32 43 64 44
REMARK SMILES IDX 44 45 63 46 45 47 48 48 62 49 81 50 46 51 47 52 61 54 82 55
REMARK SMILES IDX 49 56 33 57 34 58 42 59 35 60 37 61 43 62 36 63 38 64 39 65
REMARK SMILES IDX 40 66 41 67 65 68 66 69 74 70 67 71 69 72 75 73 68 74 70 75
REMARK SMILES IDX 71 76 72 77 73 78 50 79 51 80 59 81 52 82 54 83 60 84 53 85
REMARK SMILES IDX 55 86 56 87 57 88 58 89
REMARK H PARENT 3 8 80 42 48 53
REMARK Flexibility Score: inf
ROOT
ATOM      1  C   UNL A   1      31.504  28.520  26.750  1.00  0.00     0.274 C 
ENDROOT
BRANCH   1   2
ATOM      2  O   UNL A   1      32.671  27.680  26.850  1.00  0.00    -0.461 OA
BRANCH   2   3
ATOM      3  C   UNL A   1      32.544  26.423  26.337  1.00  0.00     0.324 C 
ATOM      4  O   UNL A   1      31.698  25.616  26.702  1.00  0.00    -0.250 OA
BRANCH   3   5
ATOM      5  C   UNL A   1      33.613  26.087  25.302  1.00  0.00     0.176 C 
ATOM      6  C   UNL A   1      34.441  24.864  25.688  1.00  0.00     0.038 C 
BRANCH   5   7
ATOM      7  N   UNL A   1      33.049  25.867  23.949  1.00  0.00    -0.197 NA
ATOM      8  H   UNL A   1      32.095  25.526  24.071  1.00  0.00     0.142 HD
BRANCH   7   9
ATOM      9  S   UNL A   1      32.978  27.185  22.886  1.00  0.00     0.241 S 
ATOM     10  O   UNL A   1      33.745  28.254  23.491  1.00  0.00    -0.207 OA
ATOM     11  O   UNL A   1      33.323  26.643  21.593  1.00  0.00    -0.207 OA
BRANCH   9  12
ATOM     12  C   UNL A   1      31.264  27.616  22.836  1.00  0.00     0.082 A 
ATOM     13  C   UNL A   1      30.316  26.719  23.370  1.00  0.00     0.022 A 
ATOM     14  C   UNL A   1      30.892  28.883  22.377  1.00  0.00     0.025 A 
ATOM     15  C   UNL A   1      28.983  27.107  23.501  1.00  0.00     0.005 A 
ATOM     16  C   UNL A   1      29.566  29.253  22.520  1.00  0.00    -0.043 A 
ATOM     17  C   UNL A   1      28.629  28.385  23.097  1.00  0.00    -0.045 A 
ATOM     18  C   UNL A   1      28.923  30.546  22.122  1.00  0.00     0.036 C 
ATOM     19  C   UNL A   1      27.286  29.042  23.184  1.00  0.00     0.036 C 
ATOM     20  C   UNL A   1      27.656  30.520  22.985  1.00  0.00     0.010 C 
ENDBRANCH   9  12
ENDBRANCH   7   9
ENDBRANCH   5   7
ENDBRANCH   3   5
ENDBRANCH   2   3
ENDBRANCH   1   2
BRANCH   1  21
ATOM     21  C   UNL A   1      31.735  29.766  25.885  1.00  0.00     0.275 C 
BRANCH  21  22
ATOM     22  O   UNL A   1      33.085  30.251  25.984  1.00  0.00    -0.458 OA
BRANCH  22  23
ATOM     23  C   UNL A   1      33.284  31.222  26.908  1.00  0.00     0.338 C 
ATOM     24  O   UNL A   1      32.481  32.079  27.246  1.00  0.00    -0.246 OA
BRANCH  23  25
ATOM     25  C   UNL A   1      34.556  30.987  27.620  1.00  0.00     0.060 A 
ATOM     26  C   UNL A   1      34.795  29.694  28.101  1.00  0.00     0.016 A 
ATOM     27  C   UNL A   1      35.497  31.999  27.814  1.00  0.00     0.016 A 
ATOM     28  C   UNL A   1      35.985  29.396  28.757  1.00  0.00     0.010 A 
ATOM     29  C   UNL A   1      36.681  31.706  28.498  1.00  0.00     0.010 A 
ATOM     30  C   UNL A   1      36.928  30.407  28.972  1.00  0.00    -0.014 A 
BRANCH  30  31
ATOM     31  C   UNL A   1      38.155  30.109  29.741  1.00  0.00     0.031 A 
ATOM     32  C   UNL A   1      39.153  29.140  29.183  1.00  0.00     0.074 A 
ATOM     33  C   UNL A   1      38.354  30.693  30.936  1.00  0.00     0.049 A 
ATOM     34  N   UNL A   1      40.249  28.681  29.726  1.00  0.00    -0.248 NA
ATOM     35  C   UNL A   1      38.886  28.618  27.832  1.00  0.00     0.031 C 
ATOM     36  C   UNL A   1      37.457  31.665  31.558  1.00  0.00     0.029 A 
ATOM     37  N   UNL A   1      39.363  30.528  31.852  1.00  0.00    -0.354 N 
ATOM     38  C   UNL A   1      40.785  27.794  28.804  1.00  0.00     0.074 A 
ATOM     39  C   UNL A   1      39.900  27.782  27.659  1.00  0.00     0.031 C 
ATOM     40  C   UNL A   1      37.932  31.979  32.776  1.00  0.00     0.029 A 
ATOM     41  C   UNL A   1      39.148  31.210  33.027  1.00  0.00     0.049 A 
ATOM     42  H   UNL A   1      40.161  29.976  31.684  1.00  0.00     0.167 HD
ATOM     43  C   UNL A   1      41.919  27.061  28.903  1.00  0.00     0.034 A 
ATOM     44  C   UNL A   1      39.838  31.185  34.184  1.00  0.00     0.034 A 
ATOM     45  C   UNL A   1      42.807  27.103  30.031  1.00  0.00     0.049 A 
ATOM     46  C   UNL A   1      41.076  30.332  34.276  1.00  0.00     0.074 A 
ATOM     47  C   UNL A   1      44.015  26.448  30.199  1.00  0.00     0.029 A 
ATOM     48  N   UNL A   1      42.579  27.827  31.191  1.00  0.00    -0.354 N 
ATOM     49  N   UNL A   1      41.642  29.595  33.350  1.00  0.00    -0.248 NA
ATOM     50  C   UNL A   1      41.782  30.320  35.566  1.00  0.00     0.031 C 
ATOM     51  C   UNL A   1      44.507  26.761  31.471  1.00  0.00     0.029 A 
ATOM     52  C   UNL A   1      43.609  27.617  32.090  1.00  0.00     0.049 A 
ATOM     53  H   UNL A   1      41.798  28.406  31.351  1.00  0.00     0.167 HD
ATOM     54  C   UNL A   1      42.774  29.045  33.938  1.00  0.00     0.074 A 
ATOM     55  C   UNL A   1      42.834  29.559  35.291  1.00  0.00     0.031 C 
ATOM     56  C   UNL A   1      43.673  28.174  33.416  1.00  0.00     0.034 A 
BRANCH  43  57
ATOM     57  C   UNL A   1      42.281  26.168  27.751  1.00  0.00     0.023 A 
ATOM     58  C   UNL A   1      43.135  26.652  26.741  1.00  0.00     0.012 A 
ATOM     59  C   UNL A   1      41.838  24.832  27.708  1.00  0.00     0.148 A 
ATOM     60  C   UNL A   1      43.536  25.820  25.695  1.00  0.00     0.002 A 
ATOM     61  C   UNL A   1      42.265  24.001  26.679  1.00  0.00     0.091 A 
ATOM     62  F   UNL A   1      41.005  24.405  28.667  1.00  0.00    -0.205 F 
ATOM     63  C   UNL A   1      43.110  24.494  25.671  1.00  0.00     0.022 A 
BRANCH  61  64
ATOM     64  S   UNL A   1      41.820  22.264  26.587  1.00  0.00     0.127 S 
ATOM     65  O   UNL A   1      40.365  22.340  26.458  1.00  0.00    -0.237 OA
ATOM     66  O   UNL A   1      42.517  21.831  25.376  1.00  0.00    -0.237 OA
ATOM     67  O   UNL A   1      42.304  21.657  27.819  1.00  0.00    -0.744 OA
ENDBRANCH  61  64
ENDBRANCH  43  57
BRANCH  44  68
ATOM     68  C   UNL A   1      39.375  31.994  35.346  1.00  0.00     0.023 A 
ATOM     69  C   UNL A   1      38.490  31.426  36.282  1.00  0.00     0.012 A 
ATOM     70  C   UNL A   1      39.817  33.317  35.539  1.00  0.00     0.148 A 
ATOM     71  C   UNL A   1      38.037  32.169  37.374  1.00  0.00     0.002 A 
ATOM     72  C   UNL A   1      39.405  34.033  36.657  1.00  0.00     0.091 A 
ATOM     73  F   UNL A   1      40.633  33.859  34.622  1.00  0.00    -0.205 F 
ATOM     74  C   UNL A   1      38.503  33.466  37.569  1.00  0.00     0.022 A 
BRANCH  72  75
ATOM     75  S   UNL A   1      40.078  35.656  37.034  1.00  0.00     0.127 S 
ATOM     76  O   UNL A   1      39.653  36.436  35.876  1.00  0.00    -0.237 OA
ATOM     77  O   UNL A   1      39.400  35.995  38.287  1.00  0.00    -0.237 OA
ATOM     78  O   UNL A   1      41.513  35.446  37.178  1.00  0.00    -0.744 OA
ENDBRANCH  72  75
ENDBRANCH  44  68
BRANCH  56  79
ATOM     79  C   UNL A   1      44.794  27.712  34.308  1.00  0.00     0.023 A 
ATOM     80  C   UNL A   1      45.979  28.471  34.368  1.00  0.00     0.012 A 
ATOM     81  C   UNL A   1      44.648  26.588  35.142  1.00  0.00     0.148 A 
ATOM     82  C   UNL A   1      47.012  28.106  35.230  1.00  0.00     0.002 A 
ATOM     83  C   UNL A   1      45.664  26.254  36.030  1.00  0.00     0.091 A 
ATOM     84  F   UNL A   1      43.519  25.869  35.055  1.00  0.00    -0.205 F 
ATOM     85  C   UNL A   1      46.849  27.006  36.069  1.00  0.00     0.022 A 
BRANCH  83  86
ATOM     86  S   UNL A   1      45.503  24.908  37.209  1.00  0.00     0.127 S 
ATOM     87  O   UNL A   1      45.392  23.748  36.325  1.00  0.00    -0.237 OA
ATOM     88  O   UNL A   1      46.760  24.989  37.952  1.00  0.00    -0.237 OA
ATOM     89  O   UNL A   1      44.318  25.210  38.000  1.00  0.00    -0.744 OA
ENDBRANCH  83  86
ENDBRANCH  56  79
ENDBRANCH  30  31
ENDBRANCH  23  25
ENDBRANCH  22  23
ENDBRANCH  21  22
ENDBRANCH   1  21
TORSDOF 17
ENDMDL
MODEL 2
REMARK VINA RESULT:     -11.2      4.871      9.630
REMARK SMILES C[C@@H](NS(=O)(=O)c1ccc2c(c1)CCC2)C(=O)OCCOC(=O)c1ccc(-c2c3nc(c(-c4cccc(S(=O)(=O)[O-])c4F)c4ccc([nH]4)c(-c4cccc(S(=O)(=O)[O-])c4F)c4nc(c(-c5cccc(S(=O)(=O)[O-])c5F)c5ccc2[nH]5)C=C4)C=C3)cc1
REMARK SMILES IDX 19 1 18 2 16 3 17 4 2 5 1 6 3 7 4 9 5 10 6 11 7 12 8 13
REMARK SMILES IDX 12 14 9 15 11 16 10 17 13 18 15 19 14 20 20 21 21 22 22 23
REMARK SMILES IDX 23 24 24 25 25 26 86 27 26 28 85 29 27 30 28 31 29 32 79 33
REMARK SMILES IDX 30 34 84 35 78 36 80 37 31 38 83 39 77 40 76 41 32 43 64 44
REMARK SMILES IDX 44 45 63 46 45 47 48 48 62 49 81 50 46 51 47 52 61 54 82 55
REMARK SMILES IDX 49 56 33 57 34 58 42 59 35 60 37 61 43 62 36 63 38 64 39 65
REMARK SMILES IDX 40 66 41 67 65 68 66 69 74 70 67 71 69 72 75 73 68 74 70 75
REMARK SMILES IDX 71 76 72 77 73 78 50 79 51 80 59 81 52 82 54 83 60 84 53 85
REMARK SMILES IDX 55 86 56 87 57 88 58 89
REMARK H PARENT 3 8 80 42 48 53
REMARK Flexibility Score: inf
ROOT
ATOM      1  C   UNL A   1      34.695  21.176  24.769  1.00  0.00     0.274 C 
ENDROOT
BRANCH   1   2
ATOM      2  O   UNL A   1      34.650  22.615  24.679  1.00  0.00    -0.461 OA
BRANCH   2   3
ATOM      3  C   UNL A   1      34.727  23.133  23.420  1.00  0.00     0.324 C 
ATOM      4  O   UNL A   1      35.734  23.098  22.724  1.00  0.00    -0.250 OA
BRANCH   3   5
ATOM      5  C   UNL A   1      33.444  23.834  22.982  1.00  0.00     0.176 C 
ATOM      6  C   UNL A   1      32.223  22.920  23.049  1.00  0.00     0.038 C 
BRANCH   5   7
ATOM      7  N   UNL A   1      33.163  25.056  23.771  1.00  0.00    -0.197 NA
ATOM      8  H   UNL A   1      33.876  25.118  24.498  1.00  0.00     0.142 HD
BRANCH   7   9
ATOM      9  S   UNL A   1      33.141  26.545  22.962  1.00  0.00     0.241 S 
ATOM     10  O   UNL A   1      33.896  27.476  23.775  1.00  0.00    -0.207 OA
ATOM     11  O   UNL A   1      33.527  26.241  21.605  1.00  0.00    -0.207 OA
BRANCH   9  12
ATOM     12  C   UNL A   1      31.433  27.003  22.935  1.00  0.00     0.082 A 
ATOM     13  C   UNL A   1      30.496  26.193  23.607  1.00  0.00     0.022 A 
ATOM     14  C   UNL A   1      31.062  28.217  22.348  1.00  0.00     0.025 A 
ATOM     15  C   UNL A   1      29.176  26.622  23.748  1.00  0.00     0.005 A 
ATOM     16  C   UNL A   1      29.749  28.628  22.503  1.00  0.00    -0.043 A 
ATOM     17  C   UNL A   1      28.825  27.852  23.214  1.00  0.00    -0.045 A 
ATOM     18  C   UNL A   1      29.111  29.881  21.985  1.00  0.00     0.036 C 
ATOM     19  C   UNL A   1      27.498  28.542  23.281  1.00  0.00     0.036 C 
ATOM     20  C   UNL A   1      27.882  29.980  22.898  1.00  0.00     0.010 C 
ENDBRANCH   9  12
ENDBRANCH   7   9
ENDBRANCH   5   7
ENDBRANCH   3   5
ENDBRANCH   2   3
ENDBRANCH   1   2
BRANCH   1  21
ATOM     21  C   UNL A   1      36.104  20.638  25.046  1.00  0.00     0.275 C 
BRANCH  21  22
ATOM     22  O   UNL A   1      36.916  21.586  25.759  1.00  0.00    -0.458 OA
BRANCH  22  23
ATOM     23  C   UNL A   1      38.223  21.253  25.882  1.00  0.00     0.338 C 
ATOM     24  O   UNL A   1      38.749  20.220  25.493  1.00  0.00    -0.246 OA
BRANCH  23  25
ATOM     25  C   UNL A   1      38.994  22.409  26.379  1.00  0.00     0.060 A 
ATOM     26  C   UNL A   1      38.558  23.685  26.001  1.00  0.00     0.016 A 
ATOM     27  C   UNL A   1      40.115  22.259  27.197  1.00  0.00     0.016 A 
ATOM     28  C   UNL A   1      39.222  24.819  26.455  1.00  0.00     0.010 A 
ATOM     29  C   UNL A   1      40.799  23.399  27.632  1.00  0.00     0.010 A 
ATOM     30  C   UNL A   1      40.356  24.680  27.262  1.00  0.00    -0.014 A 
BRANCH  30  31
ATOM     31  C   UNL A   1      41.108  25.883  27.677  1.00  0.00     0.031 A 
ATOM     32  C   UNL A   1      40.403  26.965  28.437  1.00  0.00     0.074 A 
ATOM     33  C   UNL A   1      42.409  26.004  27.354  1.00  0.00     0.049 A 
ATOM     34  N   UNL A   1      40.852  28.128  28.826  1.00  0.00    -0.248 NA
ATOM     35  C   UNL A   1      39.003  26.702  28.815  1.00  0.00     0.031 C 
ATOM     36  C   UNL A   1      43.195  25.001  26.635  1.00  0.00     0.029 A 
ATOM     37  N   UNL A   1      43.287  27.037  27.563  1.00  0.00    -0.354 N 
ATOM     38  C   UNL A   1      39.788  28.751  29.462  1.00  0.00     0.074 A 
ATOM     39  C   UNL A   1      38.668  27.835  29.417  1.00  0.00     0.031 C 
ATOM     40  C   UNL A   1      44.430  25.487  26.424  1.00  0.00     0.029 A 
ATOM     41  C   UNL A   1      44.511  26.841  26.966  1.00  0.00     0.049 A 
ATOM     42  H   UNL A   1      43.064  27.839  28.089  1.00  0.00     0.167 HD
ATOM     43  C   UNL A   1      39.753  29.976  30.037  1.00  0.00     0.034 A 
ATOM     44  C   UNL A   1      45.561  27.676  26.843  1.00  0.00     0.034 A 
ATOM     45  C   UNL A   1      40.879  30.866  30.103  1.00  0.00     0.049 A 
ATOM     46  C   UNL A   1      45.479  29.047  27.463  1.00  0.00     0.074 A 
ATOM     47  C   UNL A   1      40.964  32.100  30.722  1.00  0.00     0.029 A 
ATOM     48  N   UNL A   1      42.112  30.625  29.518  1.00  0.00    -0.354 N 
ATOM     49  N   UNL A   1      44.511  29.575  28.172  1.00  0.00    -0.248 NA
ATOM     50  C   UNL A   1      46.641  29.929  27.282  1.00  0.00     0.031 C 
ATOM     51  C   UNL A   1      42.243  32.616  30.493  1.00  0.00     0.029 A 
ATOM     52  C   UNL A   1      42.958  31.697  29.739  1.00  0.00     0.049 A 
ATOM     53  H   UNL A   1      42.351  29.810  29.019  1.00  0.00     0.167 HD
ATOM     54  C   UNL A   1      44.950  30.843  28.534  1.00  0.00     0.074 A 
ATOM     55  C   UNL A   1      46.286  30.992  27.994  1.00  0.00     0.031 C 
ATOM     56  C   UNL A   1      44.300  31.808  29.230  1.00  0.00     0.034 A 
BRANCH  43  57
ATOM     57  C   UNL A   1      38.463  30.420  30.666  1.00  0.00     0.023 A 
ATOM     58  C   UNL A   1      38.246  30.189  32.038  1.00  0.00     0.012 A 
ATOM     59  C   UNL A   1      37.504  31.128  29.918  1.00  0.00     0.148 A 
ATOM     60  C   UNL A   1      37.084  30.649  32.657  1.00  0.00     0.002 A 
ATOM     61  C   UNL A   1      36.361  31.609  30.548  1.00  0.00     0.091 A 
ATOM     62  F   UNL A   1      37.722  31.311  28.608  1.00  0.00    -0.205 F 
ATOM     63  C   UNL A   1      36.149  31.367  31.915  1.00  0.00     0.022 A 
BRANCH  61  64
ATOM     64  S   UNL A   1      35.124  32.592  29.695  1.00  0.00     0.127 S 
ATOM     65  O   UNL A   1      34.246  32.981  30.798  1.00  0.00    -0.237 OA
ATOM     66  O   UNL A   1      35.926  33.683  29.141  1.00  0.00    -0.237 OA
ATOM     67  O   UNL A   1      34.524  31.713  28.702  1.00  0.00    -0.744 OA
ENDBRANCH  61  64
ENDBRANCH  43  57
BRANCH  44  68
ATOM     68  C   UNL A   1      46.778  27.239  26.104  1.00  0.00     0.023 A 
ATOM     69  C   UNL A   1      46.886  27.497  24.724  1.00  0.00     0.012 A 
ATOM     70  C   UNL A   1      47.838  26.584  26.762  1.00  0.00     0.148 A 
ATOM     71  C   UNL A   1      48.015  27.089  24.010  1.00  0.00     0.002 A 
ATOM     72  C   UNL A   1      48.982  26.229  26.057  1.00  0.00     0.091 A 
ATOM     73  F   UNL A   1      47.709  26.313  28.070  1.00  0.00    -0.205 F 
ATOM     74  C   UNL A   1      49.068  26.467  24.677  1.00  0.00     0.022 A 
BRANCH  72  75
ATOM     75  S   UNL A   1      50.424  25.550  26.886  1.00  0.00     0.127 S 
ATOM     76  O   UNL A   1      51.352  25.362  25.776  1.00  0.00    -0.237 OA
ATOM     77  O   UNL A   1      50.786  26.622  27.816  1.00  0.00    -0.237 OA
ATOM     78  O   UNL A   1      49.948  24.338  27.540  1.00  0.00    -0.744 OA
ENDBRANCH  72  75
ENDBRANCH  44  68
BRANCH  56  79
ATOM     79  C   UNL A   1      45.016  33.115  29.443  1.00  0.00     0.023 A 
ATOM     80  C   UNL A   1      45.851  33.264  30.567  1.00  0.00     0.012 A 
ATOM     81  C   UNL A   1      44.932  34.155  28.499  1.00  0.00     0.148 A 
ATOM     82  C   UNL A   1      46.577  34.438  30.760  1.00  0.00     0.002 A 
ATOM     83  C   UNL A   1      45.690  35.307  28.676  1.00  0.00     0.091 A 
ATOM     84  F   UNL A   1      44.115  34.000  27.445  1.00  0.00    -0.205 F 
ATOM     85  C   UNL A   1      46.506  35.453  29.809  1.00  0.00     0.022 A 
BRANCH  83  86
ATOM     86  S   UNL A   1      45.729  36.626  27.456  1.00  0.00     0.127 S 
ATOM     87  O   UNL A   1      44.340  37.082  27.465  1.00  0.00    -0.237 OA
ATOM     88  O   UNL A   1      46.683  37.568  28.042  1.00  0.00    -0.237 OA
ATOM     89  O   UNL A   1      46.179  36.009  26.216  1.00  0.00    -0.744 OA
ENDBRANCH  83  86
ENDBRANCH  56  79
ENDBRANCH  30  31
ENDBRANCH  23  25
ENDBRANCH  22  23
ENDBRANCH  21  22
ENDBRANCH   1  21
TORSDOF 17
ENDMDL
MODEL 3
REMARK VINA RESULT:     -11.2      5.073      9.928
REMARK SMILES C[C@@H](NS(=O)(=O)c1ccc2c(c1)CCC2)C(=O)OCCOC(=O)c1ccc(-c2c3nc(c(-c4cccc(S(=O)(=O)[O-])c4F)c4ccc([nH]4)c(-c4cccc(S(=O)(=O)[O-])c4F)c4nc(c(-c5cccc(S(=O)(=O)[O-])c5F)c5ccc2[nH]5)C=C4)C=C3)cc1
REMARK SMILES IDX 19 1 18 2 16 3 17 4 2 5 1 6 3 7 4 9 5 10 6 11 7 12 8 13
REMARK SMILES IDX 12 14 9 15 11 16 10 17 13 18 15 19 14 20 20 21 21 22 22 23
REMARK SMILES IDX 23 24 24 25 25 26 86 27 26 28 85 29 27 30 28 31 29 32 79 33
REMARK SMILES IDX 30 34 84 35 78 36 80 37 31 38 83 39 77 40 76 41 32 43 64 44
REMARK SMILES IDX 44 45 63 46 45 47 48 48 62 49 81 50 46 51 47 52 61 54 82 55
REMARK SMILES IDX 49 56 33 57 34 58 42 59 35 60 37 61 43 62 36 63 38 64 39 65
REMARK SMILES IDX 40 66 41 67 65 68 66 69 74 70 67 71 69 72 75 73 68 74 70 75
REMARK SMILES IDX 71 76 72 77 73 78 50 79 51 80 59 81 52 82 54 83 60 84 53 85
REMARK SMILES IDX 55 86 56 87 57 88 58 89
REMARK H PARENT 3 8 80 42 48 53
REMARK Flexibility Score: inf
ROOT
ATOM      1  C   UNL A   1      35.417  20.053  25.008  1.00  0.00     0.274 C 
ENDROOT
BRANCH   1   2
ATOM      2  O   UNL A   1      34.355  20.778  25.662  1.00  0.00    -0.461 OA
BRANCH   2   3
ATOM      3  C   UNL A   1      33.118  20.650  25.103  1.00  0.00     0.324 C 
ATOM      4  O   UNL A   1      32.650  19.588  24.708  1.00  0.00    -0.250 OA
BRANCH   3   5
ATOM      5  C   UNL A   1      32.389  21.981  24.948  1.00  0.00     0.176 C 
ATOM      6  C   UNL A   1      32.058  22.305  23.493  1.00  0.00     0.038 C 
BRANCH   5   7
ATOM      7  N   UNL A   1      31.138  22.043  25.741  1.00  0.00    -0.197 NA
ATOM      8  H   UNL A   1      30.994  21.120  26.150  1.00  0.00     0.142 HD
BRANCH   7   9
ATOM      9  S   UNL A   1      31.045  23.171  27.003  1.00  0.00     0.241 S 
ATOM     10  O   UNL A   1      29.702  23.091  27.539  1.00  0.00    -0.207 OA
ATOM     11  O   UNL A   1      32.204  22.913  27.824  1.00  0.00    -0.207 OA
BRANCH   9  12
ATOM     12  C   UNL A   1      31.295  24.733  26.213  1.00  0.00     0.082 A 
ATOM     13  C   UNL A   1      30.225  25.326  25.514  1.00  0.00     0.022 A 
ATOM     14  C   UNL A   1      32.510  25.402  26.393  1.00  0.00     0.025 A 
ATOM     15  C   UNL A   1      30.342  26.630  25.032  1.00  0.00     0.005 A 
ATOM     16  C   UNL A   1      32.606  26.696  25.913  1.00  0.00    -0.043 A 
ATOM     17  C   UNL A   1      31.528  27.311  25.263  1.00  0.00    -0.045 A 
ATOM     18  C   UNL A   1      33.783  27.620  25.989  1.00  0.00     0.036 C 
ATOM     19  C   UNL A   1      31.870  28.721  24.892  1.00  0.00     0.036 C 
ATOM     20  C   UNL A   1      33.101  28.978  25.775  1.00  0.00     0.010 C 
ENDBRANCH   9  12
ENDBRANCH   7   9
ENDBRANCH   5   7
ENDBRANCH   3   5
ENDBRANCH   2   3
ENDBRANCH   1   2
BRANCH   1  21
ATOM     21  C   UNL A   1      36.614  20.942  24.648  1.00  0.00     0.275 C 
BRANCH  21  22
ATOM     22  O   UNL A   1      37.227  21.524  25.811  1.00  0.00    -0.458 OA
BRANCH  22  23
ATOM     23  C   UNL A   1      38.528  21.198  26.004  1.00  0.00     0.338 C 
ATOM     24  O   UNL A   1      39.071  20.153  25.677  1.00  0.00    -0.246 OA
BRANCH  23  25
ATOM     25  C   UNL A   1      39.276  22.374  26.491  1.00  0.00     0.060 A 
ATOM     26  C   UNL A   1      38.837  23.635  26.070  1.00  0.00     0.016 A 
ATOM     27  C   UNL A   1      40.376  22.256  27.341  1.00  0.00     0.016 A 
ATOM     28  C   UNL A   1      39.479  24.787  26.512  1.00  0.00     0.010 A 
ATOM     29  C   UNL A   1      41.039  23.413  27.764  1.00  0.00     0.010 A 
ATOM     30  C   UNL A   1      40.594  24.680  27.350  1.00  0.00    -0.014 A 
BRANCH  30  31
ATOM     31  C   UNL A   1      41.324  25.900  27.754  1.00  0.00     0.031 A 
ATOM     32  C   UNL A   1      40.602  26.970  28.516  1.00  0.00     0.074 A 
ATOM     33  C   UNL A   1      42.619  26.046  27.419  1.00  0.00     0.049 A 
ATOM     34  N   UNL A   1      41.031  28.144  28.895  1.00  0.00    -0.248 NA
ATOM     35  C   UNL A   1      39.211  26.680  28.907  1.00  0.00     0.031 C 
ATOM     36  C   UNL A   1      43.419  25.058  26.698  1.00  0.00     0.029 A 
ATOM     37  N   UNL A   1      43.477  27.098  27.616  1.00  0.00    -0.354 N 
ATOM     38  C   UNL A   1      39.959  28.748  29.538  1.00  0.00     0.074 A 
ATOM     39  C   UNL A   1      38.859  27.808  29.507  1.00  0.00     0.031 C 
ATOM     40  C   UNL A   1      44.643  25.568  26.474  1.00  0.00     0.029 A 
ATOM     41  C   UNL A   1      44.700  26.925  27.010  1.00  0.00     0.049 A 
ATOM     42  H   UNL A   1      43.241  27.898  28.140  1.00  0.00     0.167 HD
ATOM     43  C   UNL A   1      39.903  29.974  30.108  1.00  0.00     0.034 A 
ATOM     44  C   UNL A   1      45.731  27.782  26.873  1.00  0.00     0.034 A 
ATOM     45  C   UNL A   1      41.011  30.887  30.161  1.00  0.00     0.049 A 
ATOM     46  C   UNL A   1      45.626  29.153  27.489  1.00  0.00     0.074 A 
ATOM     47  C   UNL A   1      41.075  32.126  30.774  1.00  0.00     0.029 A 
ATOM     48  N   UNL A   1      42.244  30.670  29.566  1.00  0.00    -0.354 N 
ATOM     49  N   UNL A   1      44.653  29.664  28.204  1.00  0.00    -0.248 NA
ATOM     50  C   UNL A   1      46.767  30.060  27.294  1.00  0.00     0.031 C 
ATOM     51  C   UNL A   1      42.342  32.667  30.531  1.00  0.00     0.029 A 
ATOM     52  C   UNL A   1      43.069  31.761  29.775  1.00  0.00     0.049 A 
ATOM     53  H   UNL A   1      42.496  29.858  29.069  1.00  0.00     0.167 HD
ATOM     54  C   UNL A   1      45.068  30.943  28.557  1.00  0.00     0.074 A 
ATOM     55  C   UNL A   1      46.396  31.117  28.004  1.00  0.00     0.031 C 
ATOM     56  C   UNL A   1      44.404  31.897  29.254  1.00  0.00     0.034 A 
BRANCH  43  57
ATOM     57  C   UNL A   1      38.610  30.393  30.746  1.00  0.00     0.023 A 
ATOM     58  C   UNL A   1      38.393  30.127  32.112  1.00  0.00     0.012 A 
ATOM     59  C   UNL A   1      37.647  31.114  30.015  1.00  0.00     0.148 A 
ATOM     60  C   UNL A   1      37.227  30.563  32.741  1.00  0.00     0.002 A 
ATOM     61  C   UNL A   1      36.501  31.572  30.656  1.00  0.00     0.091 A 
ATOM     62  F   UNL A   1      37.866  31.332  28.711  1.00  0.00    -0.205 F 
ATOM     63  C   UNL A   1      36.288  31.294  32.016  1.00  0.00     0.022 A 
BRANCH  61  64
ATOM     64  S   UNL A   1      35.259  32.569  29.827  1.00  0.00     0.127 S 
ATOM     65  O   UNL A   1      36.056  33.700  29.355  1.00  0.00    -0.237 OA
ATOM     66  O   UNL A   1      34.795  31.668  28.772  1.00  0.00    -0.237 OA
ATOM     67  O   UNL A   1      34.259  32.891  30.836  1.00  0.00    -0.744 OA
ENDBRANCH  61  64
ENDBRANCH  43  57
BRANCH  44  68
ATOM     68  C   UNL A   1      46.951  27.367  26.126  1.00  0.00     0.023 A 
ATOM     69  C   UNL A   1      47.064  27.668  24.755  1.00  0.00     0.012 A 
ATOM     70  C   UNL A   1      48.007  26.691  26.767  1.00  0.00     0.148 A 
ATOM     71  C   UNL A   1      48.195  27.281  24.034  1.00  0.00     0.002 A 
ATOM     72  C   UNL A   1      49.154  26.358  26.056  1.00  0.00     0.091 A 
ATOM     73  F   UNL A   1      47.873  26.380  28.065  1.00  0.00    -0.205 F 
ATOM     74  C   UNL A   1      49.245  26.638  24.685  1.00  0.00     0.022 A 
BRANCH  72  75
ATOM     75  S   UNL A   1      50.593  25.652  26.869  1.00  0.00     0.127 S 
ATOM     76  O   UNL A   1      51.528  25.506  25.758  1.00  0.00    -0.237 OA
ATOM     77  O   UNL A   1      50.947  26.690  27.839  1.00  0.00    -0.237 OA
ATOM     78  O   UNL A   1      50.114  24.416  27.476  1.00  0.00    -0.744 OA
ENDBRANCH  72  75
ENDBRANCH  44  68
BRANCH  56  79
ATOM     79  C   UNL A   1      45.094  33.219  29.456  1.00  0.00     0.023 A 
ATOM     80  C   UNL A   1      45.909  33.402  30.589  1.00  0.00     0.012 A 
ATOM     81  C   UNL A   1      45.007  34.242  28.493  1.00  0.00     0.148 A 
ATOM     82  C   UNL A   1      46.612  34.591  30.773  1.00  0.00     0.002 A 
ATOM     83  C   UNL A   1      45.742  35.410  28.661  1.00  0.00     0.091 A 
ATOM     84  F   UNL A   1      44.209  34.055  27.430  1.00  0.00    -0.205 F 
ATOM     85  C   UNL A   1      46.538  35.589  29.804  1.00  0.00     0.022 A 
BRANCH  83  86
ATOM     86  S   UNL A   1      45.777  36.708  27.420  1.00  0.00     0.127 S 
ATOM     87  O   UNL A   1      46.544  37.751  28.100  1.00  0.00    -0.237 OA
ATOM     88  O   UNL A   1      46.477  36.063  26.309  1.00  0.00    -0.237 OA
ATOM     89  O   UNL A   1      44.384  37.033  27.143  1.00  0.00    -0.744 OA
ENDBRANCH  83  86
ENDBRANCH  56  79
ENDBRANCH  30  31
ENDBRANCH  23  25
ENDBRANCH  22  23
ENDBRANCH  21  22
ENDBRANCH   1  21
TORSDOF 17
ENDMDL
