MODEL 1
REMARK VINA RESULT:     -11.6      0.000      0.000
REMARK SMILES CCc1ccc2c(c1)C=C(C(=O)OCCOC(=O)c1ccc(-c3c4nc(c(-c5cccc(S(=O)(=O)[O-])c5F)c5ccc([nH]5)c(-c5cccc(S(=O)(=O)[O-])c5F)c5nc(c(-c6cccc(S(=O)(=O)[O-])c6F)c6ccc3[nH]6)C=C5)C=C4)cc1)[C@H](C(F)(F)F)O2
REMARK SMILES IDX 15 1 14 2 13 3 11 4 12 5 10 6 3 7 4 8 8 9 5 10 7 11 6 12
REMARK SMILES IDX 9 13 87 14 82 15 2 16 1 17 83 18 84 19 85 20 86 21 16 22
REMARK SMILES IDX 17 23 18 24 19 25 20 26 81 27 21 28 80 29 22 30 23 31 24 32
REMARK SMILES IDX 74 33 25 34 79 35 73 36 75 37 26 38 78 39 72 40 71 41 27 43
REMARK SMILES IDX 59 44 39 45 58 46 40 47 43 48 57 49 76 50 41 51 42 52 56 54
REMARK SMILES IDX 77 55 44 56 28 57 29 58 37 59 30 60 32 61 38 62 31 63 33 64
REMARK SMILES IDX 34 65 35 66 36 67 60 68 61 69 69 70 62 71 64 72 70 73 63 74
REMARK SMILES IDX 65 75 66 76 67 77 68 78 45 79 46 80 54 81 47 82 49 83 55 84
REMARK SMILES IDX 48 85 50 86 51 87 52 88 53 89
REMARK H PARENT 75 42 43 53
REMARK Flexibility Score: inf
ROOT
ATOM      1  C   UNL A   1      31.519  30.299  25.677  1.00  0.00     0.275 C 
ENDROOT
BRANCH   1   2
ATOM      2  C   UNL A   1      31.375  29.467  24.399  1.00  0.00     0.275 C 
BRANCH   2   3
ATOM      3  O   UNL A   1      32.429  28.489  24.274  1.00  0.00    -0.459 OA
BRANCH   3   4
ATOM      4  C   UNL A   1      32.114  27.355  23.593  1.00  0.00     0.338 C 
ATOM      5  O   UNL A   1      31.559  27.320  22.514  1.00  0.00    -0.246 OA
BRANCH   4   6
ATOM      6  C   UNL A   1      32.540  26.135  24.324  1.00  0.00     0.087 C 
ATOM      7  C   UNL A   1      35.874  22.899  25.692  1.00  0.00    -0.047 A 
ATOM      8  C   UNL A   1      34.928  22.314  26.545  1.00  0.00     0.007 A 
ATOM      9  C   UNL A   1      35.494  23.999  24.903  1.00  0.00     0.015 A 
ATOM     10  C   UNL A   1      33.655  22.866  26.668  1.00  0.00     0.047 A 
ATOM     11  C   UNL A   1      34.216  24.554  25.020  1.00  0.00     0.018 A 
ATOM     12  C   UNL A   1      33.315  23.992  25.925  1.00  0.00     0.128 A 
ATOM     13  C   UNL A   1      33.827  25.748  24.275  1.00  0.00     0.027 C 
ATOM     14  O   UNL A   1      32.104  24.561  26.197  1.00  0.00    -0.475 OA
ATOM     15  C   UNL A   1      31.513  25.339  25.119  1.00  0.00     0.316 C 
BRANCH   7  16
ATOM     16  C   UNL A   1      37.287  22.367  25.658  1.00  0.00     0.032 C 
ATOM     17  C   UNL A   1      37.417  21.136  24.768  1.00  0.00     0.009 C 
ENDBRANCH   7  16
BRANCH  15  18
ATOM     18  C   UNL A   1      30.295  26.075  25.711  1.00  0.00     0.430 C 
ATOM     19  F   UNL A   1      29.484  26.570  24.753  1.00  0.00    -0.167 F 
ATOM     20  F   UNL A   1      29.531  25.204  26.425  1.00  0.00    -0.167 F 
ATOM     21  F   UNL A   1      30.652  27.068  26.551  1.00  0.00    -0.167 F 
ENDBRANCH  15  18
ENDBRANCH   4   6
ENDBRANCH   3   4
ENDBRANCH   2   3
ENDBRANCH   1   2
BRANCH   1  22
ATOM     22  O   UNL A   1      32.892  30.390  26.098  1.00  0.00    -0.458 OA
BRANCH  22  23
ATOM     23  C   UNL A   1      33.180  31.454  26.885  1.00  0.00     0.338 C 
ATOM     24  O   UNL A   1      32.449  32.403  27.124  1.00  0.00    -0.246 OA
BRANCH  23  25
ATOM     25  C   UNL A   1      34.438  31.211  27.614  1.00  0.00     0.060 A 
ATOM     26  C   UNL A   1      34.639  29.914  28.091  1.00  0.00     0.016 A 
ATOM     27  C   UNL A   1      35.396  32.199  27.844  1.00  0.00     0.016 A 
ATOM     28  C   UNL A   1      35.830  29.566  28.725  1.00  0.00     0.010 A 
ATOM     29  C   UNL A   1      36.571  31.866  28.535  1.00  0.00     0.010 A 
ATOM     30  C   UNL A   1      36.801  30.544  28.963  1.00  0.00    -0.014 A 
BRANCH  30  31
ATOM     31  C   UNL A   1      38.002  30.196  29.758  1.00  0.00     0.031 A 
ATOM     32  C   UNL A   1      39.021  29.265  29.171  1.00  0.00     0.074 A 
ATOM     33  C   UNL A   1      38.195  30.721  30.983  1.00  0.00     0.049 A 
ATOM     34  N   UNL A   1      40.113  28.789  29.706  1.00  0.00    -0.248 NA
ATOM     35  C   UNL A   1      38.779  28.819  27.789  1.00  0.00     0.031 C 
ATOM     36  C   UNL A   1      37.313  31.685  31.638  1.00  0.00     0.029 A 
ATOM     37  N   UNL A   1      39.190  30.493  31.901  1.00  0.00    -0.354 N 
ATOM     38  C   UNL A   1      40.680  27.967  28.741  1.00  0.00     0.074 A 
ATOM     39  C   UNL A   1      39.812  28.014  27.582  1.00  0.00     0.031 C 
ATOM     40  C   UNL A   1      37.786  31.936  32.872  1.00  0.00     0.029 A 
ATOM     41  C   UNL A   1      38.981  31.125  33.104  1.00  0.00     0.049 A 
ATOM     42  H   UNL A   1      39.978  29.932  31.717  1.00  0.00     0.167 HD
ATOM     43  C   UNL A   1      41.817  27.237  28.812  1.00  0.00     0.034 A 
ATOM     44  C   UNL A   1      39.654  31.030  34.269  1.00  0.00     0.034 A 
ATOM     45  C   UNL A   1      42.672  27.179  29.967  1.00  0.00     0.049 A 
ATOM     46  C   UNL A   1      40.873  30.143  34.348  1.00  0.00     0.074 A 
ATOM     47  C   UNL A   1      43.850  26.473  30.128  1.00  0.00     0.029 A 
ATOM     48  N   UNL A   1      42.429  27.831  31.165  1.00  0.00    -0.354 N 
ATOM     49  N   UNL A   1      41.446  29.436  33.404  1.00  0.00    -0.248 NA
ATOM     50  C   UNL A   1      41.556  30.062  35.649  1.00  0.00     0.031 C 
ATOM     51  C   UNL A   1      44.297  26.662  31.439  1.00  0.00     0.029 A 
ATOM     52  C   UNL A   1      43.425  27.527  32.079  1.00  0.00     0.049 A 
ATOM     53  H   UNL A   1      41.662  28.423  31.342  1.00  0.00     0.167 HD
ATOM     54  C   UNL A   1      42.574  28.862  33.982  1.00  0.00     0.074 A 
ATOM     55  C   UNL A   1      42.613  29.316  35.357  1.00  0.00     0.031 C 
ATOM     56  C   UNL A   1      43.489  28.028  33.429  1.00  0.00     0.034 A 
BRANCH  43  57
ATOM     57  C   UNL A   1      42.194  26.422  27.604  1.00  0.00     0.023 A 
ATOM     58  C   UNL A   1      42.867  27.029  26.525  1.00  0.00     0.012 A 
ATOM     59  C   UNL A   1      41.913  25.042  27.558  1.00  0.00     0.148 A 
ATOM     60  C   UNL A   1      43.224  26.283  25.403  1.00  0.00     0.002 A 
ATOM     61  C   UNL A   1      42.313  24.296  26.456  1.00  0.00     0.091 A 
ATOM     62  F   UNL A   1      41.253  24.489  28.586  1.00  0.00    -0.205 F 
ATOM     63  C   UNL A   1      42.955  24.917  25.373  1.00  0.00     0.022 A 
BRANCH  61  64
ATOM     64  S   UNL A   1      42.080  22.518  26.356  1.00  0.00     0.127 S 
ATOM     65  O   UNL A   1      40.624  22.408  26.433  1.00  0.00    -0.237 OA
ATOM     66  O   UNL A   1      42.647  22.210  25.043  1.00  0.00    -0.237 OA
ATOM     67  O   UNL A   1      42.807  21.951  27.483  1.00  0.00    -0.744 OA
ENDBRANCH  61  64
ENDBRANCH  43  57
BRANCH  44  68
ATOM     68  C   UNL A   1      39.197  31.790  35.469  1.00  0.00     0.023 A 
ATOM     69  C   UNL A   1      38.266  31.208  36.352  1.00  0.00     0.012 A 
ATOM     70  C   UNL A   1      39.660  33.095  35.724  1.00  0.00     0.148 A 
ATOM     71  C   UNL A   1      37.776  31.927  37.445  1.00  0.00     0.002 A 
ATOM     72  C   UNL A   1      39.211  33.785  36.844  1.00  0.00     0.091 A 
ATOM     73  F   UNL A   1      40.530  33.640  34.862  1.00  0.00    -0.205 F 
ATOM     74  C   UNL A   1      38.255  33.210  37.695  1.00  0.00     0.022 A 
BRANCH  72  75
ATOM     75  S   UNL A   1      39.845  35.401  37.306  1.00  0.00     0.127 S 
ATOM     76  O   UNL A   1      39.039  35.714  38.483  1.00  0.00    -0.237 OA
ATOM     77  O   UNL A   1      41.250  35.102  37.585  1.00  0.00    -0.237 OA
ATOM     78  O   UNL A   1      39.628  36.258  36.149  1.00  0.00    -0.744 OA
ENDBRANCH  72  75
ENDBRANCH  44  68
BRANCH  56  79
ATOM     79  C   UNL A   1      44.652  27.584  34.281  1.00  0.00     0.023 A 
ATOM     80  C   UNL A   1      45.811  28.382  34.371  1.00  0.00     0.012 A 
ATOM     81  C   UNL A   1      44.558  26.415  35.064  1.00  0.00     0.148 A 
ATOM     82  C   UNL A   1      46.867  28.006  35.202  1.00  0.00     0.002 A 
ATOM     83  C   UNL A   1      45.591  26.077  35.930  1.00  0.00     0.091 A 
ATOM     84  F   UNL A   1      43.455  25.660  34.954  1.00  0.00    -0.205 F 
ATOM     85  C   UNL A   1      46.751  26.864  35.991  1.00  0.00     0.022 A 
BRANCH  83  86
ATOM     86  S   UNL A   1      45.489  24.683  37.058  1.00  0.00     0.127 S 
ATOM     87  O   UNL A   1      44.197  24.915  37.703  1.00  0.00    -0.237 OA
ATOM     88  O   UNL A   1      45.517  23.542  36.143  1.00  0.00    -0.237 OA
ATOM     89  O   UNL A   1      46.649  24.786  37.934  1.00  0.00    -0.744 OA
ENDBRANCH  83  86
ENDBRANCH  56  79
ENDBRANCH  30  31
ENDBRANCH  23  25
ENDBRANCH  22  23
ENDBRANCH   1  22
TORSDOF 16
ENDMDL
MODEL 2
REMARK VINA RESULT:     -11.4      0.531      7.859
REMARK SMILES CCc1ccc2c(c1)C=C(C(=O)OCCOC(=O)c1ccc(-c3c4nc(c(-c5cccc(S(=O)(=O)[O-])c5F)c5ccc([nH]5)c(-c5cccc(S(=O)(=O)[O-])c5F)c5nc(c(-c6cccc(S(=O)(=O)[O-])c6F)c6ccc3[nH]6)C=C5)C=C4)cc1)[C@H](C(F)(F)F)O2
REMARK SMILES IDX 15 1 14 2 13 3 11 4 12 5 10 6 3 7 4 8 8 9 5 10 7 11 6 12
REMARK SMILES IDX 9 13 87 14 82 15 2 16 1 17 83 18 84 19 85 20 86 21 16 22
REMARK SMILES IDX 17 23 18 24 19 25 20 26 81 27 21 28 80 29 22 30 23 31 24 32
REMARK SMILES IDX 74 33 25 34 79 35 73 36 75 37 26 38 78 39 72 40 71 41 27 43
REMARK SMILES IDX 59 44 39 45 58 46 40 47 43 48 57 49 76 50 41 51 42 52 56 54
REMARK SMILES IDX 77 55 44 56 28 57 29 58 37 59 30 60 32 61 38 62 31 63 33 64
REMARK SMILES IDX 34 65 35 66 36 67 60 68 61 69 69 70 62 71 64 72 70 73 63 74
REMARK SMILES IDX 65 75 66 76 67 77 68 78 45 79 46 80 54 81 47 82 49 83 55 84
REMARK SMILES IDX 48 85 50 86 51 87 52 88 53 89
REMARK H PARENT 75 42 43 53
REMARK Flexibility Score: inf
ROOT
ATOM      1  C   UNL A   1      31.482  30.711  25.759  1.00  0.00     0.275 C 
ENDROOT
BRANCH   1   2
ATOM      2  C   UNL A   1      31.136  29.617  24.744  1.00  0.00     0.275 C 
BRANCH   2   3
ATOM      3  O   UNL A   1      32.190  28.638  24.631  1.00  0.00    -0.459 OA
BRANCH   3   4
ATOM      4  C   UNL A   1      31.897  27.524  23.907  1.00  0.00     0.338 C 
ATOM      5  O   UNL A   1      31.291  27.515  22.855  1.00  0.00    -0.246 OA
BRANCH   4   6
ATOM      6  C   UNL A   1      32.417  26.292  24.552  1.00  0.00     0.087 C 
ATOM      7  C   UNL A   1      36.019  23.332  25.865  1.00  0.00    -0.047 A 
ATOM      8  C   UNL A   1      35.096  22.560  26.584  1.00  0.00     0.007 A 
ATOM      9  C   UNL A   1      35.562  24.457  25.156  1.00  0.00     0.015 A 
ATOM     10  C   UNL A   1      33.760  22.949  26.660  1.00  0.00     0.047 A 
ATOM     11  C   UNL A   1      34.222  24.849  25.225  1.00  0.00     0.018 A 
ATOM     12  C   UNL A   1      33.337  24.099  26.001  1.00  0.00     0.128 A 
ATOM     13  C   UNL A   1      33.742  26.061  24.567  1.00  0.00     0.027 C 
ATOM     14  O   UNL A   1      32.052  24.497  26.231  1.00  0.00    -0.475 OA
ATOM     15  C   UNL A   1      31.443  25.309  25.187  1.00  0.00     0.316 C 
BRANCH   7  16
ATOM     16  C   UNL A   1      37.484  22.970  25.891  1.00  0.00     0.032 C 
ATOM     17  C   UNL A   1      38.345  24.094  26.454  1.00  0.00     0.009 C 
ENDBRANCH   7  16
BRANCH  15  18
ATOM     18  C   UNL A   1      30.109  25.838  25.750  1.00  0.00     0.430 C 
ATOM     19  F   UNL A   1      29.227  26.137  24.773  1.00  0.00    -0.167 F 
ATOM     20  F   UNL A   1      29.510  24.876  26.502  1.00  0.00    -0.167 F 
ATOM     21  F   UNL A   1      30.277  26.915  26.545  1.00  0.00    -0.167 F 
ENDBRANCH  15  18
ENDBRANCH   4   6
ENDBRANCH   3   4
ENDBRANCH   2   3
ENDBRANCH   1   2
BRANCH   1  22
ATOM     22  O   UNL A   1      32.769  30.485  26.362  1.00  0.00    -0.458 OA
BRANCH  22  23
ATOM     23  C   UNL A   1      33.266  31.537  27.057  1.00  0.00     0.338 C 
ATOM     24  O   UNL A   1      32.708  32.602  27.269  1.00  0.00    -0.246 OA
BRANCH  23  25
ATOM     25  C   UNL A   1      34.516  31.142  27.733  1.00  0.00     0.060 A 
ATOM     26  C   UNL A   1      34.615  29.805  28.126  1.00  0.00     0.016 A 
ATOM     27  C   UNL A   1      35.562  32.028  27.993  1.00  0.00     0.016 A 
ATOM     28  C   UNL A   1      35.786  29.319  28.703  1.00  0.00     0.010 A 
ATOM     29  C   UNL A   1      36.720  31.554  28.628  1.00  0.00     0.010 A 
ATOM     30  C   UNL A   1      36.843  30.193  28.970  1.00  0.00    -0.014 A 
BRANCH  30  31
ATOM     31  C   UNL A   1      38.028  29.695  29.707  1.00  0.00     0.031 A 
ATOM     32  C   UNL A   1      38.282  30.190  31.100  1.00  0.00     0.074 A 
ATOM     33  C   UNL A   1      38.860  28.795  29.149  1.00  0.00     0.049 A 
ATOM     34  N   UNL A   1      39.278  29.927  31.903  1.00  0.00    -0.248 NA
ATOM     35  C   UNL A   1      37.269  31.094  31.667  1.00  0.00     0.031 C 
ATOM     36  C   UNL A   1      38.689  28.190  27.830  1.00  0.00     0.029 A 
ATOM     37  N   UNL A   1      40.029  28.252  29.622  1.00  0.00    -0.354 N 
ATOM     38  C   UNL A   1      39.030  30.651  33.062  1.00  0.00     0.074 A 
ATOM     39  C   UNL A   1      37.784  31.360  32.859  1.00  0.00     0.031 C 
ATOM     40  C   UNL A   1      39.740  27.388  27.581  1.00  0.00     0.029 A 
ATOM     41  C   UNL A   1      40.672  27.452  28.707  1.00  0.00     0.049 A 
ATOM     42  H   UNL A   1      40.376  28.419  30.529  1.00  0.00     0.167 HD
ATOM     43  C   UNL A   1      39.773  30.722  34.191  1.00  0.00     0.034 A 
ATOM     44  C   UNL A   1      41.888  26.870  28.757  1.00  0.00     0.034 A 
ATOM     45  C   UNL A   1      41.018  30.029  34.388  1.00  0.00     0.049 A 
ATOM     46  C   UNL A   1      42.734  27.033  29.997  1.00  0.00     0.074 A 
ATOM     47  C   UNL A   1      41.836  30.035  35.503  1.00  0.00     0.029 A 
ATOM     48  N   UNL A   1      41.636  29.229  33.441  1.00  0.00    -0.354 N 
ATOM     49  N   UNL A   1      42.452  27.652  31.117  1.00  0.00    -0.248 NA
ATOM     50  C   UNL A   1      44.059  26.392  29.987  1.00  0.00     0.031 C 
ATOM     51  C   UNL A   1      42.973  29.273  35.214  1.00  0.00     0.029 A 
ATOM     52  C   UNL A   1      42.838  28.751  33.938  1.00  0.00     0.049 A 
ATOM     53  H   UNL A   1      41.276  29.030  32.547  1.00  0.00     0.167 HD
ATOM     54  C   UNL A   1      43.541  27.442  31.958  1.00  0.00     0.074 A 
ATOM     55  C   UNL A   1      44.483  26.625  31.222  1.00  0.00     0.031 C 
ATOM     56  C   UNL A   1      43.746  27.892  33.221  1.00  0.00     0.034 A 
BRANCH  43  57
ATOM     57  C   UNL A   1      39.263  31.601  35.301  1.00  0.00     0.023 A 
ATOM     58  C   UNL A   1      38.358  31.085  36.251  1.00  0.00     0.012 A 
ATOM     59  C   UNL A   1      39.713  32.931  35.424  1.00  0.00     0.148 A 
ATOM     60  C   UNL A   1      37.882  31.889  37.285  1.00  0.00     0.002 A 
ATOM     61  C   UNL A   1      39.269  33.711  36.484  1.00  0.00     0.091 A 
ATOM     62  F   UNL A   1      40.557  33.408  34.498  1.00  0.00    -0.205 F 
ATOM     63  C   UNL A   1      38.344  33.197  37.407  1.00  0.00     0.022 A 
BRANCH  61  64
ATOM     64  S   UNL A   1      39.864  35.382  36.770  1.00  0.00     0.127 S 
ATOM     65  O   UNL A   1      39.282  36.099  35.636  1.00  0.00    -0.237 OA
ATOM     66  O   UNL A   1      39.265  35.701  38.067  1.00  0.00    -0.237 OA
ATOM     67  O   UNL A   1      41.317  35.299  36.774  1.00  0.00    -0.744 OA
ENDBRANCH  61  64
ENDBRANCH  43  57
BRANCH  44  68
ATOM     68  C   UNL A   1      42.393  26.076  27.599  1.00  0.00     0.023 A 
ATOM     69  C   UNL A   1      43.156  26.708  26.597  1.00  0.00     0.012 A 
ATOM     70  C   UNL A   1      42.098  24.704  27.473  1.00  0.00     0.148 A 
ATOM     71  C   UNL A   1      43.582  25.998  25.473  1.00  0.00     0.002 A 
ATOM     72  C   UNL A   1      42.573  23.991  26.378  1.00  0.00     0.091 A 
ATOM     73  F   UNL A   1      41.353  24.124  28.425  1.00  0.00    -0.205 F 
ATOM     74  C   UNL A   1      43.299  24.640  25.369  1.00  0.00     0.022 A 
BRANCH  72  75
ATOM     75  S   UNL A   1      42.346  22.217  26.207  1.00  0.00     0.127 S 
ATOM     76  O   UNL A   1      43.099  21.935  24.987  1.00  0.00    -0.237 OA
ATOM     77  O   UNL A   1      42.960  21.716  27.438  1.00  0.00    -0.237 OA
ATOM     78  O   UNL A   1      40.907  22.007  26.119  1.00  0.00    -0.744 OA
ENDBRANCH  72  75
ENDBRANCH  44  68
BRANCH  56  79
ATOM     79  C   UNL A   1      45.011  27.474  33.928  1.00  0.00     0.023 A 
ATOM     80  C   UNL A   1      46.149  28.306  33.898  1.00  0.00     0.012 A 
ATOM     81  C   UNL A   1      45.041  26.294  34.698  1.00  0.00     0.148 A 
ATOM     82  C   UNL A   1      47.303  27.953  34.598  1.00  0.00     0.002 A 
ATOM     83  C   UNL A   1      46.175  25.977  35.436  1.00  0.00     0.091 A 
ATOM     84  F   UNL A   1      43.955  25.507  34.703  1.00  0.00    -0.205 F 
ATOM     85  C   UNL A   1      47.312  26.799  35.377  1.00  0.00     0.022 A 
BRANCH  83  86
ATOM     86  S   UNL A   1      46.244  24.566  36.547  1.00  0.00     0.127 S 
ATOM     87  O   UNL A   1      45.145  24.859  37.467  1.00  0.00    -0.237 OA
ATOM     88  O   UNL A   1      45.997  23.446  35.639  1.00  0.00    -0.237 OA
ATOM     89  O   UNL A   1      47.574  24.584  37.140  1.00  0.00    -0.744 OA
ENDBRANCH  83  86
ENDBRANCH  56  79
ENDBRANCH  30  31
ENDBRANCH  23  25
ENDBRANCH  22  23
ENDBRANCH   1  22
TORSDOF 16
ENDMDL
MODEL 3
REMARK VINA RESULT:     -11.4      5.325      9.658
REMARK SMILES CCc1ccc2c(c1)C=C(C(=O)OCCOC(=O)c1ccc(-c3c4nc(c(-c5cccc(S(=O)(=O)[O-])c5F)c5ccc([nH]5)c(-c5cccc(S(=O)(=O)[O-])c5F)c5nc(c(-c6cccc(S(=O)(=O)[O-])c6F)c6ccc3[nH]6)C=C5)C=C4)cc1)[C@H](C(F)(F)F)O2
REMARK SMILES IDX 15 1 14 2 13 3 11 4 12 5 10 6 3 7 4 8 8 9 5 10 7 11 6 12
REMARK SMILES IDX 9 13 87 14 82 15 2 16 1 17 83 18 84 19 85 20 86 21 16 22
REMARK SMILES IDX 17 23 18 24 19 25 20 26 81 27 21 28 80 29 22 30 23 31 24 32
REMARK SMILES IDX 74 33 25 34 79 35 73 36 75 37 26 38 78 39 72 40 71 41 27 43
REMARK SMILES IDX 59 44 39 45 58 46 40 47 43 48 57 49 76 50 41 51 42 52 56 54
REMARK SMILES IDX 77 55 44 56 28 57 29 58 37 59 30 60 32 61 38 62 31 63 33 64
REMARK SMILES IDX 34 65 35 66 36 67 60 68 61 69 69 70 62 71 64 72 70 73 63 74
REMARK SMILES IDX 65 75 66 76 67 77 68 78 45 79 46 80 54 81 47 82 49 83 55 84
REMARK SMILES IDX 48 85 50 86 51 87 52 88 53 89
REMARK H PARENT 75 42 43 53
REMARK Flexibility Score: inf
ROOT
ATOM      1  C   UNL A   1      40.571  20.037  26.369  1.00  0.00     0.275 C 
ENDROOT
BRANCH   1   2
ATOM      2  C   UNL A   1      42.079  19.928  26.127  1.00  0.00     0.275 C 
BRANCH   2   3
ATOM      3  O   UNL A   1      42.797  21.035  26.711  1.00  0.00    -0.459 OA
BRANCH   3   4
ATOM      4  C   UNL A   1      43.126  22.047  25.864  1.00  0.00     0.338 C 
ATOM      5  O   UNL A   1      42.600  22.258  24.790  1.00  0.00    -0.246 OA
BRANCH   4   6
ATOM      6  C   UNL A   1      44.216  22.893  26.411  1.00  0.00     0.087 C 
ATOM      7  C   UNL A   1      46.341  25.365  29.994  1.00  0.00    -0.047 A 
ATOM      8  C   UNL A   1      47.452  25.574  29.165  1.00  0.00     0.007 A 
ATOM      9  C   UNL A   1      45.238  24.652  29.491  1.00  0.00     0.015 A 
ATOM     10  C   UNL A   1      47.494  25.013  27.890  1.00  0.00     0.047 A 
ATOM     11  C   UNL A   1      45.275  24.090  28.211  1.00  0.00     0.018 A 
ATOM     12  C   UNL A   1      46.419  24.258  27.431  1.00  0.00     0.128 A 
ATOM     13  C   UNL A   1      44.177  23.274  27.700  1.00  0.00     0.027 C 
ATOM     14  O   UNL A   1      46.585  23.624  26.234  1.00  0.00    -0.475 OA
ATOM     15  C   UNL A   1      45.363  23.319  25.504  1.00  0.00     0.316 C 
BRANCH   7  16
ATOM     16  C   UNL A   1      46.358  25.874  31.415  1.00  0.00     0.032 C 
ATOM     17  C   UNL A   1      46.084  27.371  31.494  1.00  0.00     0.009 C 
ENDBRANCH   7  16
BRANCH  15  18
ATOM     18  C   UNL A   1      45.759  22.408  24.325  1.00  0.00     0.430 C 
ATOM     19  F   UNL A   1      44.935  22.558  23.266  1.00  0.00    -0.167 F 
ATOM     20  F   UNL A   1      46.998  22.745  23.876  1.00  0.00    -0.167 F 
ATOM     21  F   UNL A   1      45.805  21.105  24.674  1.00  0.00    -0.167 F 
ENDBRANCH  15  18
ENDBRANCH   4   6
ENDBRANCH   3   4
ENDBRANCH   2   3
ENDBRANCH   1   2
BRANCH   1  22
ATOM     22  O   UNL A   1      40.247  21.173  27.191  1.00  0.00    -0.458 OA
BRANCH  22  23
ATOM     23  C   UNL A   1      39.466  22.106  26.594  1.00  0.00     0.338 C 
ATOM     24  O   UNL A   1      38.466  21.900  25.924  1.00  0.00    -0.246 OA
BRANCH  23  25
ATOM     25  C   UNL A   1      39.860  23.452  27.050  1.00  0.00     0.060 A 
ATOM     26  C   UNL A   1      39.607  24.505  26.169  1.00  0.00     0.016 A 
ATOM     27  C   UNL A   1      40.466  23.699  28.282  1.00  0.00     0.016 A 
ATOM     28  C   UNL A   1      39.873  25.822  26.540  1.00  0.00     0.010 A 
ATOM     29  C   UNL A   1      40.790  25.018  28.634  1.00  0.00     0.010 A 
ATOM     30  C   UNL A   1      40.478  26.087  27.771  1.00  0.00    -0.014 A 
BRANCH  30  31
ATOM     31  C   UNL A   1      40.882  27.474  28.098  1.00  0.00     0.031 A 
ATOM     32  C   UNL A   1      42.326  27.863  27.973  1.00  0.00     0.074 A 
ATOM     33  C   UNL A   1      39.969  28.387  28.481  1.00  0.00     0.049 A 
ATOM     34  N   UNL A   1      42.904  29.001  28.253  1.00  0.00    -0.248 NA
ATOM     35  C   UNL A   1      43.237  26.832  27.452  1.00  0.00     0.031 C 
ATOM     36  C   UNL A   1      38.529  28.153  28.580  1.00  0.00     0.029 A 
ATOM     37  N   UNL A   1      40.128  29.691  28.881  1.00  0.00    -0.354 N 
ATOM     38  C   UNL A   1      44.251  28.819  27.969  1.00  0.00     0.074 A 
ATOM     39  C   UNL A   1      44.403  27.462  27.487  1.00  0.00     0.031 C 
ATOM     40  C   UNL A   1      37.941  29.266  29.053  1.00  0.00     0.029 A 
ATOM     41  C   UNL A   1      38.964  30.275  29.322  1.00  0.00     0.049 A 
ATOM     42  H   UNL A   1      40.992  30.163  28.855  1.00  0.00     0.167 HD
ATOM     43  C   UNL A   1      45.270  29.701  28.099  1.00  0.00     0.034 A 
ATOM     44  C   UNL A   1      38.755  31.472  29.909  1.00  0.00     0.034 A 
ATOM     45  C   UNL A   1      45.121  31.044  28.591  1.00  0.00     0.049 A 
ATOM     46  C   UNL A   1      39.923  32.405  30.120  1.00  0.00     0.074 A 
ATOM     47  C   UNL A   1      46.097  32.012  28.749  1.00  0.00     0.029 A 
ATOM     48  N   UNL A   1      43.930  31.601  29.026  1.00  0.00    -0.354 N 
ATOM     49  N   UNL A   1      41.178  32.254  29.770  1.00  0.00    -0.248 NA
ATOM     50  C   UNL A   1      39.640  33.688  30.783  1.00  0.00     0.031 C 
ATOM     51  C   UNL A   1      45.502  33.141  29.323  1.00  0.00     0.029 A 
ATOM     52  C   UNL A   1      44.147  32.894  29.474  1.00  0.00     0.049 A 
ATOM     53  H   UNL A   1      43.057  31.145  29.020  1.00  0.00     0.167 HD
ATOM     54  C   UNL A   1      41.823  33.433  30.132  1.00  0.00     0.074 A 
ATOM     55  C   UNL A   1      40.816  34.296  30.714  1.00  0.00     0.031 C 
ATOM     56  C   UNL A   1      43.130  33.768  30.002  1.00  0.00     0.034 A 
BRANCH  43  57
ATOM     57  C   UNL A   1      46.647  29.228  27.719  1.00  0.00     0.023 A 
ATOM     58  C   UNL A   1      47.665  29.167  28.691  1.00  0.00     0.012 A 
ATOM     59  C   UNL A   1      46.919  28.807  26.402  1.00  0.00     0.148 A 
ATOM     60  C   UNL A   1      48.943  28.727  28.352  1.00  0.00     0.002 A 
ATOM     61  C   UNL A   1      48.183  28.326  26.083  1.00  0.00     0.091 A 
ATOM     62  F   UNL A   1      45.943  28.894  25.488  1.00  0.00    -0.205 F 
ATOM     63  C   UNL A   1      49.200  28.298  27.051  1.00  0.00     0.022 A 
BRANCH  61  64
ATOM     64  S   UNL A   1      48.590  27.682  24.456  1.00  0.00     0.127 S 
ATOM     65  O   UNL A   1      49.937  28.216  24.257  1.00  0.00    -0.237 OA
ATOM     66  O   UNL A   1      48.532  26.237  24.678  1.00  0.00    -0.237 OA
ATOM     67  O   UNL A   1      47.575  28.201  23.550  1.00  0.00    -0.744 OA
ENDBRANCH  61  64
ENDBRANCH  43  57
BRANCH  44  68
ATOM     68  C   UNL A   1      37.386  31.867  30.350  1.00  0.00     0.023 A 
ATOM     69  C   UNL A   1      36.928  31.495  31.629  1.00  0.00     0.012 A 
ATOM     70  C   UNL A   1      36.527  32.587  29.497  1.00  0.00     0.148 A 
ATOM     71  C   UNL A   1      35.627  31.798  32.035  1.00  0.00     0.002 A 
ATOM     72  C   UNL A   1      35.252  32.935  29.929  1.00  0.00     0.091 A 
ATOM     73  F   UNL A   1      36.972  32.916  28.276  1.00  0.00    -0.205 F 
ATOM     74  C   UNL A   1      34.794  32.525  31.190  1.00  0.00     0.022 A 
BRANCH  72  75
ATOM     75  S   UNL A   1      34.144  33.957  28.953  1.00  0.00     0.127 S 
ATOM     76  O   UNL A   1      33.602  32.988  28.003  1.00  0.00    -0.237 OA
ATOM     77  O   UNL A   1      33.195  34.422  29.965  1.00  0.00    -0.237 OA
ATOM     78  O   UNL A   1      34.975  35.005  28.375  1.00  0.00    -0.744 OA
ENDBRANCH  72  75
ENDBRANCH  44  68
BRANCH  56  79
ATOM     79  C   UNL A   1      43.559  35.146  30.442  1.00  0.00     0.023 A 
ATOM     80  C   UNL A   1      43.693  36.183  29.498  1.00  0.00     0.012 A 
ATOM     81  C   UNL A   1      43.741  35.432  31.810  1.00  0.00     0.148 A 
ATOM     82  C   UNL A   1      44.033  37.474  29.905  1.00  0.00     0.002 A 
ATOM     83  C   UNL A   1      44.025  36.731  32.214  1.00  0.00     0.091 A 
ATOM     84  F   UNL A   1      43.624  34.430  32.694  1.00  0.00    -0.205 F 
ATOM     85  C   UNL A   1      44.184  37.751  31.262  1.00  0.00     0.022 A 
BRANCH  83  86
ATOM     86  S   UNL A   1      44.137  37.204  33.944  1.00  0.00     0.127 S 
ATOM     87  O   UNL A   1      42.815  36.825  34.442  1.00  0.00    -0.237 OA
ATOM     88  O   UNL A   1      45.233  36.363  34.424  1.00  0.00    -0.237 OA
ATOM     89  O   UNL A   1      44.419  38.633  33.955  1.00  0.00    -0.744 OA
ENDBRANCH  83  86
ENDBRANCH  56  79
ENDBRANCH  30  31
ENDBRANCH  23  25
ENDBRANCH  22  23
ENDBRANCH   1  22
TORSDOF 16
ENDMDL
