MODEL 1
REMARK VINA RESULT:     -12.1      0.000      0.000
REMARK SMILES O=C(Cn1nc(C(=O)OCCOC(=O)c2ccc(-c3c4nc(c(-c5cccc(S(=O)(=O)[O-])c5F)c5ccc([nH]5)c(-c5cccc(S(=O)(=O)[O-])c5F)c5nc(c(-c6cccc(S(=O)(=O)[O-])c6F)c6ccc3[nH]6)C=C5)C=C4)cc2)c2ccccc2c1=O)Nc1ccc2c(c1)C(=O)c1ccccc1C2=O
REMARK SMILES IDX 10 1 9 2 7 3 8 4 6 5 4 6 5 7 84 8 83 9 85 10 78 11 82 12
REMARK SMILES IDX 79 13 81 14 80 15 3 16 2 17 1 18 86 19 87 21 88 22 92 23
REMARK SMILES IDX 89 24 91 25 90 26 93 27 101 28 94 29 95 30 100 31 102 32
REMARK SMILES IDX 96 33 99 34 97 35 98 36 11 37 12 38 13 39 14 40 15 41 16 42
REMARK SMILES IDX 77 43 17 44 76 45 18 46 19 47 20 48 70 49 21 50 75 51 69 52
REMARK SMILES IDX 71 53 22 54 74 55 68 56 67 57 23 59 55 60 35 61 54 62 36 63
REMARK SMILES IDX 39 64 53 65 72 66 37 67 38 68 52 70 73 71 40 72 24 73 25 74
REMARK SMILES IDX 33 75 26 76 28 77 34 78 27 79 29 80 30 81 31 82 32 83 56 84
REMARK SMILES IDX 57 85 65 86 58 87 60 88 66 89 59 90 61 91 62 92 63 93 64 94
REMARK SMILES IDX 41 95 42 96 50 97 43 98 45 99 51 100 44 101 46 102 47 103
REMARK SMILES IDX 48 104 49 105
REMARK H PARENT 86 20 71 58 39 69
REMARK Flexibility Score: inf
ROOT
ATOM      1  C   UNL A   1      33.486  29.472  24.977  1.00  0.00     0.275 C 
ENDROOT
BRANCH   1   2
ATOM      2  O   UNL A   1      34.104  28.218  24.623  1.00  0.00    -0.457 OA
BRANCH   2   3
ATOM      3  C   UNL A   1      33.968  27.826  23.342  1.00  0.00     0.359 C 
ATOM      4  O   UNL A   1      34.334  28.413  22.339  1.00  0.00    -0.244 OA
BRANCH   3   5
ATOM      5  C   UNL A   1      33.181  26.525  23.252  1.00  0.00     0.176 A 
ATOM      6  N   UNL A   1      33.221  24.229  23.155  1.00  0.00    -0.219 N 
ATOM      7  N   UNL A   1      33.877  25.435  23.130  1.00  0.00    -0.161 NA
ATOM      8  C   UNL A   1      31.868  24.075  23.451  1.00  0.00     0.275 A 
ATOM      9  C   UNL A   1      31.082  25.317  23.587  1.00  0.00     0.051 A 
ATOM     10  O   UNL A   1      31.318  22.979  23.540  1.00  0.00    -0.267 OA
ATOM     11  C   UNL A   1      31.717  26.536  23.399  1.00  0.00     0.022 A 
ATOM     12  C   UNL A   1      29.701  25.270  23.830  1.00  0.00     0.014 A 
ATOM     13  C   UNL A   1      30.957  27.705  23.367  1.00  0.00     0.011 A 
ATOM     14  C   UNL A   1      28.956  26.451  23.850  1.00  0.00     0.001 A 
ATOM     15  C   UNL A   1      29.582  27.667  23.598  1.00  0.00     0.001 A 
BRANCH   6  16
ATOM     16  C   UNL A   1      34.010  23.057  22.790  1.00  0.00     0.248 C 
BRANCH  16  17
ATOM     17  C   UNL A   1      35.430  23.313  23.295  1.00  0.00     0.246 C 
ATOM     18  O   UNL A   1      36.402  23.317  22.542  1.00  0.00    -0.273 OA
ATOM     19  N   UNL A   1      35.511  23.407  24.675  1.00  0.00    -0.324 N 
ATOM     20  H   UNL A   1      34.737  23.795  25.145  1.00  0.00     0.169 HD
BRANCH  19  21
ATOM     21  C   UNL A   1      36.602  22.996  25.464  1.00  0.00     0.042 A 
ATOM     22  C   UNL A   1      37.050  21.675  25.304  1.00  0.00     0.027 A 
ATOM     23  C   UNL A   1      37.368  23.910  26.192  1.00  0.00     0.039 A 
ATOM     24  C   UNL A   1      38.302  21.286  25.781  1.00  0.00     0.015 A 
ATOM     25  C   UNL A   1      38.660  23.544  26.573  1.00  0.00     0.036 A 
ATOM     26  C   UNL A   1      39.133  22.253  26.340  1.00  0.00     0.034 A 
ATOM     27  C   UNL A   1      39.625  24.597  26.946  1.00  0.00     0.194 C 
ATOM     28  C   UNL A   1      40.585  21.997  26.417  1.00  0.00     0.194 C 
ATOM     29  O   UNL A   1      39.291  25.582  27.586  1.00  0.00    -0.289 OA
ATOM     30  C   UNL A   1      40.977  24.443  26.372  1.00  0.00     0.034 A 
ATOM     31  C   UNL A   1      41.445  23.156  26.095  1.00  0.00     0.034 A 
ATOM     32  O   UNL A   1      41.027  20.874  26.600  1.00  0.00    -0.289 OA
ATOM     33  C   UNL A   1      41.691  25.565  25.955  1.00  0.00     0.013 A 
ATOM     34  C   UNL A   1      42.628  22.976  25.378  1.00  0.00     0.013 A 
ATOM     35  C   UNL A   1      42.856  25.386  25.208  1.00  0.00     0.001 A 
ATOM     36  C   UNL A   1      43.320  24.099  24.917  1.00  0.00     0.001 A 
ENDBRANCH  19  21
ENDBRANCH  16  17
ENDBRANCH   6  16
ENDBRANCH   3   5
ENDBRANCH   2   3
ENDBRANCH   1   2
BRANCH   1  37
ATOM     37  C   UNL A   1      33.425  29.636  26.492  1.00  0.00     0.275 C 
BRANCH  37  38
ATOM     38  O   UNL A   1      34.757  29.490  27.013  1.00  0.00    -0.458 OA
BRANCH  38  39
ATOM     39  C   UNL A   1      35.314  30.594  27.553  1.00  0.00     0.338 C 
ATOM     40  O   UNL A   1      34.831  31.716  27.599  1.00  0.00    -0.246 OA
BRANCH  39  41
ATOM     41  C   UNL A   1      36.619  30.251  28.150  1.00  0.00     0.060 A 
ATOM     42  C   UNL A   1      37.571  31.246  28.349  1.00  0.00     0.016 A 
ATOM     43  C   UNL A   1      36.848  28.971  28.655  1.00  0.00     0.016 A 
ATOM     44  C   UNL A   1      38.740  30.954  29.063  1.00  0.00     0.010 A 
ATOM     45  C   UNL A   1      37.932  28.738  29.504  1.00  0.00     0.010 A 
ATOM     46  C   UNL A   1      38.912  29.716  29.715  1.00  0.00    -0.014 A 
BRANCH  46  47
ATOM     47  C   UNL A   1      40.088  29.467  30.614  1.00  0.00     0.031 A 
ATOM     48  C   UNL A   1      40.229  30.154  31.958  1.00  0.00     0.074 A 
ATOM     49  C   UNL A   1      41.091  28.656  30.208  1.00  0.00     0.049 A 
ATOM     50  N   UNL A   1      41.209  30.065  32.826  1.00  0.00    -0.248 NA
ATOM     51  C   UNL A   1      39.185  31.112  32.358  1.00  0.00     0.031 C 
ATOM     52  C   UNL A   1      41.215  28.041  28.882  1.00  0.00     0.029 A 
ATOM     53  N   UNL A   1      42.196  28.186  30.882  1.00  0.00    -0.354 N 
ATOM     54  C   UNL A   1      40.946  31.016  33.806  1.00  0.00     0.074 A 
ATOM     55  C   UNL A   1      39.736  31.700  33.411  1.00  0.00     0.031 C 
ATOM     56  C   UNL A   1      42.259  27.198  28.877  1.00  0.00     0.029 A 
ATOM     57  C   UNL A   1      42.908  27.236  30.183  1.00  0.00     0.049 A 
ATOM     58  H   UNL A   1      42.453  28.500  31.780  1.00  0.00     0.167 HD
ATOM     59  C   UNL A   1      41.604  31.265  34.963  1.00  0.00     0.034 A 
ATOM     60  C   UNL A   1      43.938  26.451  30.557  1.00  0.00     0.034 A 
ATOM     61  C   UNL A   1      42.682  30.463  35.466  1.00  0.00     0.049 A 
ATOM     62  C   UNL A   1      44.494  26.563  31.948  1.00  0.00     0.074 A 
ATOM     63  C   UNL A   1      43.303  30.538  36.701  1.00  0.00     0.029 A 
ATOM     64  N   UNL A   1      43.260  29.404  34.789  1.00  0.00    -0.354 N 
ATOM     65  N   UNL A   1      44.139  27.379  32.908  1.00  0.00    -0.248 NA
ATOM     66  C   UNL A   1      45.571  25.631  32.320  1.00  0.00     0.031 C 
ATOM     67  C   UNL A   1      44.232  29.497  36.785  1.00  0.00     0.029 A 
ATOM     68  C   UNL A   1      44.201  28.789  35.595  1.00  0.00     0.049 A 
ATOM     69  H   UNL A   1      43.035  29.128  33.871  1.00  0.00     0.167 HD
ATOM     70  C   UNL A   1      44.934  27.051  33.999  1.00  0.00     0.074 A 
ATOM     71  C   UNL A   1      45.773  25.945  33.594  1.00  0.00     0.031 C 
ATOM     72  C   UNL A   1      44.978  27.640  35.217  1.00  0.00     0.034 A 
BRANCH  59  73
ATOM     73  C   UNL A   1      41.089  32.371  35.847  1.00  0.00     0.023 A 
ATOM     74  C   UNL A   1      41.695  33.641  35.778  1.00  0.00     0.012 A 
ATOM     75  C   UNL A   1      39.963  32.182  36.674  1.00  0.00     0.148 A 
ATOM     76  C   UNL A   1      41.213  34.700  36.544  1.00  0.00     0.002 A 
ATOM     77  C   UNL A   1      39.464  33.254  37.406  1.00  0.00     0.091 A 
ATOM     78  F   UNL A   1      39.403  30.965  36.724  1.00  0.00    -0.205 F 
ATOM     79  C   UNL A   1      40.095  34.509  37.350  1.00  0.00     0.022 A 
BRANCH  77  80
ATOM     80  S   UNL A   1      37.987  33.143  38.422  1.00  0.00     0.127 S 
ATOM     81  O   UNL A   1      38.118  34.332  39.263  1.00  0.00    -0.237 OA
ATOM     82  O   UNL A   1      36.922  33.218  37.423  1.00  0.00    -0.237 OA
ATOM     83  O   UNL A   1      38.077  31.873  39.128  1.00  0.00    -0.744 OA
ENDBRANCH  77  80
ENDBRANCH  59  73
BRANCH  60  84
ATOM     84  C   UNL A   1      44.410  25.378  29.638  1.00  0.00     0.023 A 
ATOM     85  C   UNL A   1      43.681  24.173  29.575  1.00  0.00     0.012 A 
ATOM     86  C   UNL A   1      45.519  25.557  28.794  1.00  0.00     0.148 A 
ATOM     87  C   UNL A   1      44.060  23.157  28.700  1.00  0.00     0.002 A 
ATOM     88  C   UNL A   1      45.869  24.556  27.894  1.00  0.00     0.091 A 
ATOM     89  F   UNL A   1      46.198  26.710  28.875  1.00  0.00    -0.205 F 
ATOM     90  C   UNL A   1      45.148  23.351  27.854  1.00  0.00     0.022 A 
BRANCH  88  91
ATOM     91  S   UNL A   1      47.184  24.761  26.688  1.00  0.00     0.127 S 
ATOM     92  O   UNL A   1      48.373  24.509  27.498  1.00  0.00    -0.237 OA
ATOM     93  O   UNL A   1      46.866  23.716  25.715  1.00  0.00    -0.237 OA
ATOM     94  O   UNL A   1      47.041  26.119  26.178  1.00  0.00    -0.744 OA
ENDBRANCH  88  91
ENDBRANCH  60  84
BRANCH  72  95
ATOM     95  C   UNL A   1      45.946  27.110  36.235  1.00  0.00     0.023 A 
ATOM     96  C   UNL A   1      47.187  27.756  36.399  1.00  0.00     0.012 A 
ATOM     97  C   UNL A   1      45.571  26.082  37.121  1.00  0.00     0.148 A 
ATOM     98  C   UNL A   1      48.043  27.386  37.434  1.00  0.00     0.002 A 
ATOM     99  C   UNL A   1      46.417  25.738  38.168  1.00  0.00     0.091 A 
ATOM    100  F   UNL A   1      44.389  25.477  36.933  1.00  0.00    -0.205 F 
ATOM    101  C   UNL A   1      47.653  26.387  38.325  1.00  0.00     0.022 A 
BRANCH  99 102
ATOM    102  S   UNL A   1      45.972  24.521  39.412  1.00  0.00     0.127 S 
ATOM    103  O   UNL A   1      47.260  24.268  40.055  1.00  0.00    -0.237 OA
ATOM    104  O   UNL A   1      45.012  25.257  40.235  1.00  0.00    -0.237 OA
ATOM    105  O   UNL A   1      45.408  23.390  38.687  1.00  0.00    -0.744 OA
ENDBRANCH  99 102
ENDBRANCH  72  95
ENDBRANCH  46  47
ENDBRANCH  39  41
ENDBRANCH  38  39
ENDBRANCH  37  38
ENDBRANCH   1  37
TORSDOF 17
ENDMDL
MODEL 2
REMARK VINA RESULT:     -11.9      6.789     16.461
REMARK SMILES O=C(Cn1nc(C(=O)OCCOC(=O)c2ccc(-c3c4nc(c(-c5cccc(S(=O)(=O)[O-])c5F)c5ccc([nH]5)c(-c5cccc(S(=O)(=O)[O-])c5F)c5nc(c(-c6cccc(S(=O)(=O)[O-])c6F)c6ccc3[nH]6)C=C5)C=C4)cc2)c2ccccc2c1=O)Nc1ccc2c(c1)C(=O)c1ccccc1C2=O
REMARK SMILES IDX 10 1 9 2 7 3 8 4 6 5 4 6 5 7 84 8 83 9 85 10 78 11 82 12
REMARK SMILES IDX 79 13 81 14 80 15 3 16 2 17 1 18 86 19 87 21 88 22 92 23
REMARK SMILES IDX 89 24 91 25 90 26 93 27 101 28 94 29 95 30 100 31 102 32
REMARK SMILES IDX 96 33 99 34 97 35 98 36 11 37 12 38 13 39 14 40 15 41 16 42
REMARK SMILES IDX 77 43 17 44 76 45 18 46 19 47 20 48 70 49 21 50 75 51 69 52
REMARK SMILES IDX 71 53 22 54 74 55 68 56 67 57 23 59 55 60 35 61 54 62 36 63
REMARK SMILES IDX 39 64 53 65 72 66 37 67 38 68 52 70 73 71 40 72 24 73 25 74
REMARK SMILES IDX 33 75 26 76 28 77 34 78 27 79 29 80 30 81 31 82 32 83 56 84
REMARK SMILES IDX 57 85 65 86 58 87 60 88 66 89 59 90 61 91 62 92 63 93 64 94
REMARK SMILES IDX 41 95 42 96 50 97 43 98 45 99 51 100 44 101 46 102 47 103
REMARK SMILES IDX 48 104 49 105
REMARK H PARENT 86 20 71 58 39 69
REMARK Flexibility Score: inf
ROOT
ATOM      1  C   UNL A   1      45.789  21.583  36.620  1.00  0.00     0.275 C 
ENDROOT
BRANCH   1   2
ATOM      2  O   UNL A   1      46.264  20.775  37.716  1.00  0.00    -0.457 OA
BRANCH   2   3
ATOM      3  C   UNL A   1      46.178  21.324  38.943  1.00  0.00     0.359 C 
ATOM      4  O   UNL A   1      45.706  22.404  39.246  1.00  0.00    -0.244 OA
BRANCH   3   5
ATOM      5  C   UNL A   1      46.856  20.439  39.982  1.00  0.00     0.176 A 
ATOM      6  N   UNL A   1      46.662  19.210  41.915  1.00  0.00    -0.219 N 
ATOM      7  N   UNL A   1      46.134  20.094  41.006  1.00  0.00    -0.161 NA
ATOM      8  C   UNL A   1      47.868  18.532  41.744  1.00  0.00     0.275 A 
ATOM      9  C   UNL A   1      48.683  18.929  40.580  1.00  0.00     0.051 A 
ATOM     10  O   UNL A   1      48.285  17.689  42.537  1.00  0.00    -0.267 OA
ATOM     11  C   UNL A   1      48.221  19.942  39.752  1.00  0.00     0.022 A 
ATOM     12  C   UNL A   1      49.938  18.346  40.350  1.00  0.00     0.014 A 
ATOM     13  C   UNL A   1      49.051  20.433  38.745  1.00  0.00     0.011 A 
ATOM     14  C   UNL A   1      50.741  18.808  39.305  1.00  0.00     0.001 A 
ATOM     15  C   UNL A   1      50.305  19.867  38.514  1.00  0.00     0.001 A 
BRANCH   6  16
ATOM     16  C   UNL A   1      45.911  19.031  43.153  1.00  0.00     0.248 C 
BRANCH  16  17
ATOM     17  C   UNL A   1      44.489  18.644  42.749  1.00  0.00     0.246 C 
ATOM     18  O   UNL A   1      43.502  19.234  43.184  1.00  0.00    -0.273 OA
ATOM     19  N   UNL A   1      44.435  17.505  41.963  1.00  0.00    -0.324 N 
ATOM     20  H   UNL A   1      45.188  17.347  41.349  1.00  0.00     0.169 HD
BRANCH  19  21
ATOM     21  C   UNL A   1      43.398  16.552  41.966  1.00  0.00     0.042 A 
ATOM     22  C   UNL A   1      43.004  16.025  40.726  1.00  0.00     0.027 A 
ATOM     23  C   UNL A   1      42.944  15.965  43.150  1.00  0.00     0.039 A 
ATOM     24  C   UNL A   1      42.239  14.861  40.658  1.00  0.00     0.015 A 
ATOM     25  C   UNL A   1      42.270  14.745  43.076  1.00  0.00     0.036 A 
ATOM     26  C   UNL A   1      41.949  14.183  41.840  1.00  0.00     0.034 A 
ATOM     27  C   UNL A   1      42.162  13.908  44.286  1.00  0.00     0.194 C 
ATOM     28  C   UNL A   1      41.571  12.758  41.778  1.00  0.00     0.194 C 
ATOM     29  O   UNL A   1      41.977  14.392  45.392  1.00  0.00    -0.289 OA
ATOM     30  C   UNL A   1      42.436  12.471  44.082  1.00  0.00     0.034 A 
ATOM     31  C   UNL A   1      42.158  11.906  42.834  1.00  0.00     0.034 A 
ATOM     32  O   UNL A   1      40.932  12.306  40.841  1.00  0.00    -0.289 OA
ATOM     33  C   UNL A   1      43.117  11.744  45.057  1.00  0.00     0.013 A 
ATOM     34  C   UNL A   1      42.578  10.609  42.540  1.00  0.00     0.013 A 
ATOM     35  C   UNL A   1      43.568  10.460  44.750  1.00  0.00     0.001 A 
ATOM     36  C   UNL A   1      43.304   9.897  43.497  1.00  0.00     0.001 A 
ENDBRANCH  19  21
ENDBRANCH  16  17
ENDBRANCH   6  16
ENDBRANCH   3   5
ENDBRANCH   2   3
ENDBRANCH   1   2
BRANCH   1  37
ATOM     37  C   UNL A   1      46.913  22.449  36.061  1.00  0.00     0.275 C 
BRANCH  37  38
ATOM     38  O   UNL A   1      46.792  23.764  36.629  1.00  0.00    -0.458 OA
BRANCH  38  39
ATOM     39  C   UNL A   1      47.414  24.762  35.968  1.00  0.00     0.338 C 
ATOM     40  O   UNL A   1      48.616  24.888  35.785  1.00  0.00    -0.246 OA
BRANCH  39  41
ATOM     41  C   UNL A   1      46.411  25.703  35.430  1.00  0.00     0.060 A 
ATOM     42  C   UNL A   1      46.813  26.730  34.581  1.00  0.00     0.016 A 
ATOM     43  C   UNL A   1      45.052  25.479  35.642  1.00  0.00     0.016 A 
ATOM     44  C   UNL A   1      45.849  27.518  33.941  1.00  0.00     0.010 A 
ATOM     45  C   UNL A   1      44.104  26.158  34.873  1.00  0.00     0.010 A 
ATOM     46  C   UNL A   1      44.476  27.203  34.018  1.00  0.00    -0.014 A 
BRANCH  46  47
ATOM     47  C   UNL A   1      43.461  27.948  33.200  1.00  0.00     0.031 A 
ATOM     48  C   UNL A   1      43.151  27.566  31.766  1.00  0.00     0.074 A 
ATOM     49  C   UNL A   1      42.835  29.030  33.718  1.00  0.00     0.049 A 
ATOM     50  N   UNL A   1      42.325  28.141  30.924  1.00  0.00    -0.248 NA
ATOM     51  C   UNL A   1      43.903  26.449  31.170  1.00  0.00     0.031 C 
ATOM     52  C   UNL A   1      43.123  29.648  35.016  1.00  0.00     0.029 A 
ATOM     53  N   UNL A   1      41.803  29.793  33.222  1.00  0.00    -0.354 N 
ATOM     54  C   UNL A   1      42.535  27.524  29.695  1.00  0.00     0.074 A 
ATOM     55  C   UNL A   1      43.591  26.557  29.886  1.00  0.00     0.031 C 
ATOM     56  C   UNL A   1      42.225  30.615  35.258  1.00  0.00     0.029 A 
ATOM     57  C   UNL A   1      41.316  30.717  34.121  1.00  0.00     0.049 A 
ATOM     58  H   UNL A   1      41.445  29.688  32.310  1.00  0.00     0.167 HD
ATOM     59  C   UNL A   1      41.874  27.692  28.524  1.00  0.00     0.034 A 
ATOM     60  C   UNL A   1      40.240  31.526  34.063  1.00  0.00     0.034 A 
ATOM     61  C   UNL A   1      40.695  28.496  28.372  1.00  0.00     0.049 A 
ATOM     62  C   UNL A   1      39.360  31.510  32.845  1.00  0.00     0.074 A 
ATOM     63  C   UNL A   1      39.864  28.599  27.269  1.00  0.00     0.029 A 
ATOM     64  N   UNL A   1      40.146  29.288  29.364  1.00  0.00    -0.354 N 
ATOM     65  N   UNL A   1      39.501  30.816  31.743  1.00  0.00    -0.248 NA
ATOM     66  C   UNL A   1      38.161  32.362  32.869  1.00  0.00     0.031 C 
ATOM     67  C   UNL A   1      38.789  29.425  27.610  1.00  0.00     0.029 A 
ATOM     68  C   UNL A   1      38.964  29.849  28.916  1.00  0.00     0.049 A 
ATOM     69  H   UNL A   1      40.537  29.429  30.257  1.00  0.00     0.167 HD
ATOM     70  C   UNL A   1      38.405  31.135  30.951  1.00  0.00     0.074 A 
ATOM     71  C   UNL A   1      37.593  32.064  31.707  1.00  0.00     0.031 C 
ATOM     72  C   UNL A   1      38.119  30.711  29.698  1.00  0.00     0.034 A 
BRANCH  59  73
ATOM     73  C   UNL A   1      42.320  26.879  27.337  1.00  0.00     0.023 A 
ATOM     74  C   UNL A   1      43.090  27.500  26.333  1.00  0.00     0.012 A 
ATOM     75  C   UNL A   1      42.055  25.497  27.255  1.00  0.00     0.148 A 
ATOM     76  C   UNL A   1      43.562  26.768  25.246  1.00  0.00     0.002 A 
ATOM     77  C   UNL A   1      42.563  24.766  26.187  1.00  0.00     0.091 A 
ATOM     78  F   UNL A   1      41.321  24.928  28.221  1.00  0.00    -0.205 F 
ATOM     79  C   UNL A   1      43.305  25.401  25.178  1.00  0.00     0.022 A 
BRANCH  77  80
ATOM     80  S   UNL A   1      42.357  22.988  26.032  1.00  0.00     0.127 S 
ATOM     81  O   UNL A   1      43.024  22.724  24.758  1.00  0.00    -0.237 OA
ATOM     82  O   UNL A   1      43.071  22.494  27.208  1.00  0.00    -0.237 OA
ATOM     83  O   UNL A   1      40.921  22.745  26.041  1.00  0.00    -0.744 OA
ENDBRANCH  77  80
ENDBRANCH  59  73
BRANCH  60  84
ATOM     84  C   UNL A   1      39.851  32.312  35.266  1.00  0.00     0.023 A 
ATOM     85  C   UNL A   1      40.326  33.632  35.394  1.00  0.00     0.012 A 
ATOM     86  C   UNL A   1      38.979  31.796  36.241  1.00  0.00     0.148 A 
ATOM     87  C   UNL A   1      39.955  34.421  36.481  1.00  0.00     0.002 A 
ATOM     88  C   UNL A   1      38.581  32.601  37.303  1.00  0.00     0.091 A 
ATOM     89  F   UNL A   1      38.545  30.536  36.100  1.00  0.00    -0.205 F 
ATOM     90  C   UNL A   1      39.076  33.909  37.431  1.00  0.00     0.022 A 
BRANCH  88  91
ATOM     91  S   UNL A   1      37.365  32.066  38.513  1.00  0.00     0.127 S 
ATOM     92  O   UNL A   1      37.996  32.468  39.768  1.00  0.00    -0.237 OA
ATOM     93  O   UNL A   1      36.193  32.853  38.130  1.00  0.00    -0.237 OA
ATOM     94  O   UNL A   1      37.215  30.631  38.311  1.00  0.00    -0.744 OA
ENDBRANCH  88  91
ENDBRANCH  60  84
BRANCH  72  95
ATOM     95  C   UNL A   1      36.869  31.217  29.038  1.00  0.00     0.023 A 
ATOM     96  C   UNL A   1      36.752  32.593  28.760  1.00  0.00     0.012 A 
ATOM     97  C   UNL A   1      35.892  30.322  28.562  1.00  0.00     0.148 A 
ATOM     98  C   UNL A   1      35.678  33.073  28.014  1.00  0.00     0.002 A 
ATOM     99  C   UNL A   1      34.837  30.805  27.795  1.00  0.00     0.091 A 
ATOM    100  F   UNL A   1      36.022  29.020  28.853  1.00  0.00    -0.205 F 
ATOM    101  C   UNL A   1      34.728  32.179  27.522  1.00  0.00     0.022 A 
BRANCH  99 102
ATOM    102  S   UNL A   1      33.609  29.726  27.052  1.00  0.00     0.127 S 
ATOM    103  O   UNL A   1      34.391  29.056  26.013  1.00  0.00    -0.237 OA
ATOM    104  O   UNL A   1      33.228  28.870  28.176  1.00  0.00    -0.237 OA
ATOM    105  O   UNL A   1      32.547  30.596  26.566  1.00  0.00    -0.744 OA
ENDBRANCH  99 102
ENDBRANCH  72  95
ENDBRANCH  46  47
ENDBRANCH  39  41
ENDBRANCH  38  39
ENDBRANCH  37  38
ENDBRANCH   1  37
TORSDOF 17
ENDMDL
MODEL 3
REMARK VINA RESULT:     -11.8      4.815     10.529
REMARK SMILES O=C(Cn1nc(C(=O)OCCOC(=O)c2ccc(-c3c4nc(c(-c5cccc(S(=O)(=O)[O-])c5F)c5ccc([nH]5)c(-c5cccc(S(=O)(=O)[O-])c5F)c5nc(c(-c6cccc(S(=O)(=O)[O-])c6F)c6ccc3[nH]6)C=C5)C=C4)cc2)c2ccccc2c1=O)Nc1ccc2c(c1)C(=O)c1ccccc1C2=O
REMARK SMILES IDX 10 1 9 2 7 3 8 4 6 5 4 6 5 7 84 8 83 9 85 10 78 11 82 12
REMARK SMILES IDX 79 13 81 14 80 15 3 16 2 17 1 18 86 19 87 21 88 22 92 23
REMARK SMILES IDX 89 24 91 25 90 26 93 27 101 28 94 29 95 30 100 31 102 32
REMARK SMILES IDX 96 33 99 34 97 35 98 36 11 37 12 38 13 39 14 40 15 41 16 42
REMARK SMILES IDX 77 43 17 44 76 45 18 46 19 47 20 48 70 49 21 50 75 51 69 52
REMARK SMILES IDX 71 53 22 54 74 55 68 56 67 57 23 59 55 60 35 61 54 62 36 63
REMARK SMILES IDX 39 64 53 65 72 66 37 67 38 68 52 70 73 71 40 72 24 73 25 74
REMARK SMILES IDX 33 75 26 76 28 77 34 78 27 79 29 80 30 81 31 82 32 83 56 84
REMARK SMILES IDX 57 85 65 86 58 87 60 88 66 89 59 90 61 91 62 92 63 93 64 94
REMARK SMILES IDX 41 95 42 96 50 97 43 98 45 99 51 100 44 101 46 102 47 103
REMARK SMILES IDX 48 104 49 105
REMARK H PARENT 86 20 71 58 39 69
REMARK Flexibility Score: inf
ROOT
ATOM      1  C   UNL A   1      35.431  23.765  26.482  1.00  0.00     0.275 C 
ENDROOT
BRANCH   1   2
ATOM      2  O   UNL A   1      34.710  22.587  26.896  1.00  0.00    -0.457 OA
BRANCH   2   3
ATOM      3  C   UNL A   1      33.457  22.783  27.351  1.00  0.00     0.359 C 
ATOM      4  O   UNL A   1      33.011  22.508  28.450  1.00  0.00    -0.244 OA
BRANCH   3   5
ATOM      5  C   UNL A   1      32.562  23.343  26.253  1.00  0.00     0.176 A 
ATOM      6  N   UNL A   1      31.349  25.123  25.451  1.00  0.00    -0.219 N 
ATOM      7  N   UNL A   1      32.072  24.529  26.456  1.00  0.00    -0.161 NA
ATOM      8  C   UNL A   1      31.223  24.608  24.161  1.00  0.00     0.275 A 
ATOM      9  C   UNL A   1      31.780  23.260  23.938  1.00  0.00     0.051 A 
ATOM     10  O   UNL A   1      30.631  25.193  23.257  1.00  0.00    -0.267 OA
ATOM     11  C   UNL A   1      32.368  22.592  25.003  1.00  0.00     0.022 A 
ATOM     12  C   UNL A   1      31.657  22.629  22.691  1.00  0.00     0.014 A 
ATOM     13  C   UNL A   1      32.755  21.262  24.846  1.00  0.00     0.011 A 
ATOM     14  C   UNL A   1      32.096  21.314  22.528  1.00  0.00     0.001 A 
ATOM     15  C   UNL A   1      32.627  20.623  23.612  1.00  0.00     0.001 A 
BRANCH   6  16
ATOM     16  C   UNL A   1      30.634  26.345  25.804  1.00  0.00     0.248 C 
BRANCH  16  17
ATOM     17  C   UNL A   1      31.568  27.150  26.709  1.00  0.00     0.246 C 
ATOM     18  O   UNL A   1      31.284  27.410  27.876  1.00  0.00    -0.273 OA
ATOM     19  N   UNL A   1      32.677  27.649  26.044  1.00  0.00    -0.324 N 
ATOM     20  H   UNL A   1      33.042  27.105  25.309  1.00  0.00     0.169 HD
BRANCH  19  21
ATOM     21  C   UNL A   1      33.327  28.865  26.328  1.00  0.00     0.042 A 
ATOM     22  C   UNL A   1      32.534  30.023  26.374  1.00  0.00     0.027 A 
ATOM     23  C   UNL A   1      34.645  28.903  26.788  1.00  0.00     0.039 A 
ATOM     24  C   UNL A   1      33.015  31.192  26.964  1.00  0.00     0.015 A 
ATOM     25  C   UNL A   1      35.083  30.040  27.469  1.00  0.00     0.036 A 
ATOM     26  C   UNL A   1      34.262  31.162  27.583  1.00  0.00     0.034 A 
ATOM     27  C   UNL A   1      36.285  29.950  28.321  1.00  0.00     0.194 C 
ATOM     28  C   UNL A   1      34.590  32.190  28.591  1.00  0.00     0.194 C 
ATOM     29  O   UNL A   1      37.258  29.288  27.996  1.00  0.00    -0.289 OA
ATOM     30  C   UNL A   1      36.167  30.596  29.644  1.00  0.00     0.034 A 
ATOM     31  C   UNL A   1      35.315  31.695  29.780  1.00  0.00     0.034 A 
ATOM     32  O   UNL A   1      34.169  33.333  28.499  1.00  0.00    -0.289 OA
ATOM     33  C   UNL A   1      36.758  30.010  30.762  1.00  0.00     0.013 A 
ATOM     34  C   UNL A   1      35.027  32.210  31.044  1.00  0.00     0.013 A 
ATOM     35  C   UNL A   1      36.443  30.503  32.029  1.00  0.00     0.001 A 
ATOM     36  C   UNL A   1      35.579  31.594  32.170  1.00  0.00     0.001 A 
ENDBRANCH  19  21
ENDBRANCH  16  17
ENDBRANCH   6  16
ENDBRANCH   3   5
ENDBRANCH   2   3
ENDBRANCH   1   2
BRANCH   1  37
ATOM     37  C   UNL A   1      36.795  23.391  25.912  1.00  0.00     0.275 C 
BRANCH  37  38
ATOM     38  O   UNL A   1      37.794  24.176  26.585  1.00  0.00    -0.458 OA
BRANCH  38  39
ATOM     39  C   UNL A   1      38.988  23.581  26.788  1.00  0.00     0.338 C 
ATOM     40  O   UNL A   1      39.233  22.384  26.737  1.00  0.00    -0.246 OA
BRANCH  39  41
ATOM     41  C   UNL A   1      40.017  24.607  27.046  1.00  0.00     0.060 A 
ATOM     42  C   UNL A   1      40.044  25.768  26.279  1.00  0.00     0.016 A 
ATOM     43  C   UNL A   1      40.865  24.491  28.147  1.00  0.00     0.016 A 
ATOM     44  C   UNL A   1      40.911  26.809  26.629  1.00  0.00     0.010 A 
ATOM     45  C   UNL A   1      41.599  25.596  28.582  1.00  0.00     0.010 A 
ATOM     46  C   UNL A   1      41.654  26.775  27.827  1.00  0.00    -0.014 A 
BRANCH  46  47
ATOM     47  C   UNL A   1      42.454  27.961  28.281  1.00  0.00     0.031 A 
ATOM     48  C   UNL A   1      43.955  28.040  28.078  1.00  0.00     0.074 A 
ATOM     49  C   UNL A   1      41.850  28.972  28.946  1.00  0.00     0.049 A 
ATOM     50  N   UNL A   1      44.784  28.986  28.451  1.00  0.00    -0.248 NA
ATOM     51  C   UNL A   1      44.628  26.896  27.441  1.00  0.00     0.031 C 
ATOM     52  C   UNL A   1      40.450  28.996  29.382  1.00  0.00     0.029 A 
ATOM     53  N   UNL A   1      42.333  30.195  29.353  1.00  0.00    -0.354 N 
ATOM     54  C   UNL A   1      46.063  28.505  28.187  1.00  0.00     0.074 A 
ATOM     55  C   UNL A   1      45.907  27.171  27.657  1.00  0.00     0.031 C 
ATOM     56  C   UNL A   1      40.163  30.204  29.891  1.00  0.00     0.029 A 
ATOM     57  C   UNL A   1      41.362  31.033  29.856  1.00  0.00     0.049 A 
ATOM     58  H   UNL A   1      43.283  30.447  29.291  1.00  0.00     0.167 HD
ATOM     59  C   UNL A   1      47.259  29.130  28.309  1.00  0.00     0.034 A 
ATOM     60  C   UNL A   1      41.414  32.333  30.210  1.00  0.00     0.034 A 
ATOM     61  C   UNL A   1      47.414  30.518  28.638  1.00  0.00     0.049 A 
ATOM     62  C   UNL A   1      42.708  33.087  30.093  1.00  0.00     0.074 A 
ATOM     63  C   UNL A   1      48.571  31.277  28.626  1.00  0.00     0.029 A 
ATOM     64  N   UNL A   1      46.379  31.368  28.980  1.00  0.00    -0.354 N 
ATOM     65  N   UNL A   1      43.880  32.647  29.709  1.00  0.00    -0.248 NA
ATOM     66  C   UNL A   1      42.684  34.520  30.427  1.00  0.00     0.031 C 
ATOM     67  C   UNL A   1      48.228  32.599  28.924  1.00  0.00     0.029 A 
ATOM     68  C   UNL A   1      46.861  32.654  29.140  1.00  0.00     0.049 A 
ATOM     69  H   UNL A   1      45.438  31.099  29.092  1.00  0.00     0.167 HD
ATOM     70  C   UNL A   1      44.728  33.747  29.741  1.00  0.00     0.074 A 
ATOM     71  C   UNL A   1      43.933  34.882  30.155  1.00  0.00     0.031 C 
ATOM     72  C   UNL A   1      46.054  33.796  29.476  1.00  0.00     0.034 A 
BRANCH  59  73
ATOM     73  C   UNL A   1      48.500  28.358  27.944  1.00  0.00     0.023 A 
ATOM     74  C   UNL A   1      49.234  27.721  28.965  1.00  0.00     0.012 A 
ATOM     75  C   UNL A   1      48.890  28.191  26.600  1.00  0.00     0.148 A 
ATOM     76  C   UNL A   1      50.359  26.958  28.660  1.00  0.00     0.002 A 
ATOM     77  C   UNL A   1      49.991  27.395  26.301  1.00  0.00     0.091 A 
ATOM     78  F   UNL A   1      48.177  28.805  25.646  1.00  0.00    -0.205 F 
ATOM     79  C   UNL A   1      50.731  26.789  27.330  1.00  0.00     0.022 A 
BRANCH  77  80
ATOM     80  S   UNL A   1      50.520  27.048  24.620  1.00  0.00     0.127 S 
ATOM     81  O   UNL A   1      51.718  26.243  24.848  1.00  0.00    -0.237 OA
ATOM     82  O   UNL A   1      49.378  26.305  24.087  1.00  0.00    -0.237 OA
ATOM     83  O   UNL A   1      50.753  28.342  23.994  1.00  0.00    -0.744 OA
ENDBRANCH  77  80
ENDBRANCH  59  73
BRANCH  60  84
ATOM     84  C   UNL A   1      40.155  33.043  30.568  1.00  0.00     0.023 A 
ATOM     85  C   UNL A   1      39.231  33.338  29.545  1.00  0.00     0.012 A 
ATOM     86  C   UNL A   1      39.838  33.371  31.898  1.00  0.00     0.148 A 
ATOM     87  C   UNL A   1      38.020  33.964  29.837  1.00  0.00     0.002 A 
ATOM     88  C   UNL A   1      38.612  33.959  32.188  1.00  0.00     0.091 A 
ATOM     89  F   UNL A   1      40.734  33.084  32.852  1.00  0.00    -0.205 F 
ATOM     90  C   UNL A   1      37.707  34.266  31.158  1.00  0.00     0.022 A 
BRANCH  88  91
ATOM     91  S   UNL A   1      38.073  34.282  33.871  1.00  0.00     0.127 S 
ATOM     92  O   UNL A   1      36.747  34.856  33.655  1.00  0.00    -0.237 OA
ATOM     93  O   UNL A   1      38.079  32.939  34.452  1.00  0.00    -0.237 OA
ATOM     94  O   UNL A   1      39.069  35.183  34.436  1.00  0.00    -0.744 OA
ENDBRANCH  88  91
ENDBRANCH  60  84
BRANCH  72  95
ATOM     95  C   UNL A   1      46.761  35.115  29.598  1.00  0.00     0.023 A 
ATOM     96  C   UNL A   1      47.382  35.446  30.819  1.00  0.00     0.012 A 
ATOM     97  C   UNL A   1      46.938  35.946  28.476  1.00  0.00     0.148 A 
ATOM     98  C   UNL A   1      48.173  36.589  30.919  1.00  0.00     0.002 A 
ATOM     99  C   UNL A   1      47.751  37.069  28.576  1.00  0.00     0.091 A 
ATOM    100  F   UNL A   1      46.325  35.612  27.331  1.00  0.00    -0.205 F 
ATOM    101  C   UNL A   1      48.367  37.392  29.797  1.00  0.00     0.022 A 
BRANCH  99 102
ATOM    102  S   UNL A   1      48.126  38.121  27.170  1.00  0.00     0.127 S 
ATOM    103  O   UNL A   1      48.996  39.128  27.775  1.00  0.00    -0.237 OA
ATOM    104  O   UNL A   1      48.804  37.195  26.262  1.00  0.00    -0.237 OA
ATOM    105  O   UNL A   1      46.845  38.617  26.684  1.00  0.00    -0.744 OA
ENDBRANCH  99 102
ENDBRANCH  72  95
ENDBRANCH  46  47
ENDBRANCH  39  41
ENDBRANCH  38  39
ENDBRANCH  37  38
ENDBRANCH   1  37
TORSDOF 17
ENDMDL
