MODEL 1
REMARK VINA RESULT:     -11.7      0.000      0.000
REMARK SMILES O=C(C[C@H]1CN(C(=O)c2c(F)cccc2Cl)CCO1)OCCOC(=O)c1ccc(-c2c3nc(c(-c4cccc(S(=O)(=O)[O-])c4F)c4ccc([nH]4)c(-c4cccc(S(=O)(=O)[O-])c4F)c4nc(c(-c5cccc(S(=O)(=O)[O-])c5F)c5ccc2[nH]5)C=C4)C=C3)cc1
REMARK SMILES IDX 21 1 20 2 2 3 1 4 3 5 4 6 5 7 19 8 6 9 18 10 17 11 7 12 8 13
REMARK SMILES IDX 9 14 10 15 15 16 11 17 12 18 14 19 16 20 13 21 22 22 23 23
REMARK SMILES IDX 24 24 25 25 26 26 27 27 88 28 28 29 87 30 29 31 30 32 31 33
REMARK SMILES IDX 81 34 32 35 86 36 80 37 82 38 33 39 85 40 79 41 78 42 34 44
REMARK SMILES IDX 66 45 46 46 65 47 47 48 50 49 64 50 83 51 48 52 49 53 63 55
REMARK SMILES IDX 84 56 51 57 35 58 36 59 44 60 37 61 39 62 45 63 38 64 40 65
REMARK SMILES IDX 41 66 42 67 43 68 67 69 68 70 76 71 69 72 71 73 77 74 70 75
REMARK SMILES IDX 72 76 73 77 74 78 75 79 52 80 53 81 61 82 54 83 56 84 62 85
REMARK SMILES IDX 55 86 57 87 58 88 59 89 60 90
REMARK H PARENT 82 43 50 54
REMARK Flexibility Score: inf
ROOT
ATOM      1  C   UNL A   1      34.440  21.621  26.396  1.00  0.00     0.274 C 
ENDROOT
BRANCH   1   2
ATOM      2  O   UNL A   1      33.018  21.625  26.279  1.00  0.00    -0.462 OA
BRANCH   2   3
ATOM      3  C   UNL A   1      32.291  22.688  26.676  1.00  0.00     0.308 C 
ATOM      4  O   UNL A   1      32.134  22.902  27.877  1.00  0.00    -0.252 OA
BRANCH   3   5
ATOM      5  C   UNL A   1      31.639  23.567  25.632  1.00  0.00     0.156 C 
BRANCH   5   6
ATOM      6  C   UNL A   1      31.716  23.182  24.158  1.00  0.00     0.148 C 
ATOM      7  C   UNL A   1      30.660  23.944  23.318  1.00  0.00     0.152 C 
ATOM      8  O   UNL A   1      33.022  23.387  23.601  1.00  0.00    -0.374 OA
ATOM      9  N   UNL A   1      30.964  25.366  23.429  1.00  0.00    -0.334 N 
ATOM     10  C   UNL A   1      33.385  24.778  23.531  1.00  0.00     0.182 C 
ATOM     11  C   UNL A   1      32.302  25.657  22.889  1.00  0.00     0.148 C 
BRANCH   9  12
ATOM     12  C   UNL A   1      30.336  26.306  24.265  1.00  0.00     0.258 C 
ATOM     13  O   UNL A   1      29.175  26.133  24.641  1.00  0.00    -0.269 OA
BRANCH  12  14
ATOM     14  C   UNL A   1      31.049  27.484  24.848  1.00  0.00     0.094 A 
ATOM     15  C   UNL A   1      31.830  27.454  26.416  1.00  0.00     0.137 A 
ATOM     16  C   UNL A   1      30.663  28.913  24.026  1.00  0.00     0.056 A 
ATOM     17  F   UNL A   1      32.101  26.262  26.970  1.00  0.00    -0.206 F 
ATOM     18  C   UNL A   1      32.246  28.821  27.384  1.00  0.00     0.040 A 
ATOM     19  C   UNL A   1      30.962  30.413  24.825  1.00  0.00     0.021 A 
ATOM     20  Cl  UNL A   1      29.618  28.987  22.651  1.00  0.00    -0.083 Cl
ATOM     21  C   UNL A   1      31.825  30.397  26.731  1.00  0.00     0.005 A 
ENDBRANCH  12  14
ENDBRANCH   9  12
ENDBRANCH   5   6
ENDBRANCH   3   5
ENDBRANCH   2   3
ENDBRANCH   1   2
BRANCH   1  22
ATOM     22  C   UNL A   1      35.143  21.142  25.114  1.00  0.00     0.275 C 
BRANCH  22  23
ATOM     23  O   UNL A   1      36.436  21.746  24.862  1.00  0.00    -0.458 OA
BRANCH  23  24
ATOM     24  C   UNL A   1      37.562  21.058  25.218  1.00  0.00     0.338 C 
ATOM     25  O   UNL A   1      37.846  19.927  24.871  1.00  0.00    -0.246 OA
BRANCH  24  26
ATOM     26  C   UNL A   1      38.483  21.982  25.949  1.00  0.00     0.060 A 
ATOM     27  C   UNL A   1      39.674  21.504  26.531  1.00  0.00     0.016 A 
ATOM     28  C   UNL A   1      38.219  23.351  25.967  1.00  0.00     0.016 A 
ATOM     29  C   UNL A   1      40.643  22.397  27.034  1.00  0.00     0.010 A 
ATOM     30  C   UNL A   1      39.175  24.234  26.475  1.00  0.00     0.010 A 
ATOM     31  C   UNL A   1      40.433  23.778  26.945  1.00  0.00    -0.014 A 
BRANCH  31  32
ATOM     32  C   UNL A   1      41.485  24.803  27.311  1.00  0.00     0.031 A 
ATOM     33  C   UNL A   1      40.854  26.031  28.085  1.00  0.00     0.074 A 
ATOM     34  C   UNL A   1      42.797  24.898  26.794  1.00  0.00     0.049 A 
ATOM     35  N   UNL A   1      41.321  27.217  28.420  1.00  0.00    -0.248 NA
ATOM     36  C   UNL A   1      39.411  25.888  28.398  1.00  0.00     0.031 C 
ATOM     37  C   UNL A   1      44.202  24.148  25.366  1.00  0.00     0.029 A 
ATOM     38  N   UNL A   1      43.677  26.499  27.281  1.00  0.00    -0.354 N 
ATOM     39  C   UNL A   1      40.237  27.947  28.936  1.00  0.00     0.074 A 
ATOM     40  C   UNL A   1      39.073  27.108  28.773  1.00  0.00     0.031 C 
ATOM     41  C   UNL A   1      45.472  25.208  25.207  1.00  0.00     0.029 A 
ATOM     42  C   UNL A   1      45.236  26.711  26.348  1.00  0.00     0.049 A 
ATOM     43  H   UNL A   1      43.339  27.136  27.952  1.00  0.00     0.167 HD
ATOM     44  C   UNL A   1      40.148  29.177  29.512  1.00  0.00     0.034 A 
ATOM     45  C   UNL A   1      46.230  27.619  26.436  1.00  0.00     0.034 A 
ATOM     46  C   UNL A   1      41.229  30.109  29.692  1.00  0.00     0.049 A 
ATOM     47  C   UNL A   1      46.076  28.832  27.261  1.00  0.00     0.074 A 
ATOM     48  C   UNL A   1      41.191  31.323  30.364  1.00  0.00     0.029 A 
ATOM     49  N   UNL A   1      42.504  29.987  29.171  1.00  0.00    -0.354 N 
ATOM     50  N   UNL A   1      45.007  29.272  27.861  1.00  0.00    -0.248 NA
ATOM     51  C   UNL A   1      47.262  29.688  27.390  1.00  0.00     0.031 C 
ATOM     52  C   UNL A   1      42.400  31.982  30.153  1.00  0.00     0.029 A 
ATOM     53  C   UNL A   1      43.238  31.127  29.463  1.00  0.00     0.049 A 
ATOM     54  H   UNL A   1      42.840  29.209  28.668  1.00  0.00     0.167 HD
ATOM     55  C   UNL A   1      45.386  30.466  28.444  1.00  0.00     0.074 A 
ATOM     56  C   UNL A   1      46.791  30.664  28.151  1.00  0.00     0.031 C 
ATOM     57  C   UNL A   1      44.623  31.331  29.142  1.00  0.00     0.034 A 
BRANCH  44  58
ATOM     58  C   UNL A   1      38.775  29.616  30.015  1.00  0.00     0.023 A 
ATOM     59  C   UNL A   1      38.329  29.227  31.298  1.00  0.00     0.012 A 
ATOM     60  C   UNL A   1      37.934  30.425  29.221  1.00  0.00     0.148 A 
ATOM     61  C   UNL A   1      37.042  29.543  31.736  1.00  0.00     0.002 A 
ATOM     62  C   UNL A   1      36.678  30.795  29.693  1.00  0.00     0.091 A 
ATOM     63  F   UNL A   1      38.368  30.808  28.012  1.00  0.00    -0.205 F 
ATOM     64  C   UNL A   1      36.219  30.330  30.935  1.00  0.00     0.022 A 
BRANCH  62  65
ATOM     65  S   UNL A   1      35.573  31.874  28.776  1.00  0.00     0.127 S 
ATOM     66  O   UNL A   1      34.473  32.043  29.727  1.00  0.00    -0.237 OA
ATOM     67  O   UNL A   1      36.399  33.064  28.582  1.00  0.00    -0.237 OA
ATOM     68  O   UNL A   1      35.230  31.160  27.554  1.00  0.00    -0.744 OA
ENDBRANCH  62  65
ENDBRANCH  44  58
BRANCH  45  69
ATOM     69  C   UNL A   1      47.539  27.249  25.825  1.00  0.00     0.023 A 
ATOM     70  C   UNL A   1      48.410  26.382  26.520  1.00  0.00     0.012 A 
ATOM     71  C   UNL A   1      47.863  27.628  24.513  1.00  0.00     0.148 A 
ATOM     72  C   UNL A   1      49.575  25.902  25.916  1.00  0.00     0.002 A 
ATOM     73  C   UNL A   1      48.957  27.053  23.879  1.00  0.00     0.091 A 
ATOM     74  F   UNL A   1      47.028  28.462  23.874  1.00  0.00    -0.205 F 
ATOM     75  C   UNL A   1      49.830  26.211  24.584  1.00  0.00     0.022 A 
BRANCH  73  76
ATOM     76  S   UNL A   1      49.184  27.187  22.102  1.00  0.00     0.127 S 
ATOM     77  O   UNL A   1      48.674  28.528  21.837  1.00  0.00    -0.237 OA
ATOM     78  O   UNL A   1      50.633  27.034  21.966  1.00  0.00    -0.237 OA
ATOM     79  O   UNL A   1      48.418  26.086  21.531  1.00  0.00    -0.744 OA
ENDBRANCH  73  76
ENDBRANCH  45  69
BRANCH  57  80
ATOM     80  C   UNL A   1      45.297  32.562  29.666  1.00  0.00     0.023 A 
ATOM     81  C   UNL A   1      45.947  32.558  30.915  1.00  0.00     0.012 A 
ATOM     82  C   UNL A   1      45.310  33.723  28.873  1.00  0.00     0.148 A 
ATOM     83  C   UNL A   1      46.574  33.711  31.381  1.00  0.00     0.002 A 
ATOM     84  C   UNL A   1      45.989  34.844  29.313  1.00  0.00     0.091 A 
ATOM     85  F   UNL A   1      44.658  33.701  27.701  1.00  0.00    -0.205 F 
ATOM     86  C   UNL A   1      46.609  34.847  30.574  1.00  0.00     0.022 A 
BRANCH  84  87
ATOM     87  S   UNL A   1      46.153  36.313  28.301  1.00  0.00     0.127 S 
ATOM     88  O   UNL A   1      47.373  36.911  28.845  1.00  0.00    -0.237 OA
ATOM     89  O   UNL A   1      46.294  35.744  26.961  1.00  0.00    -0.237 OA
ATOM     90  O   UNL A   1      44.940  37.091  28.511  1.00  0.00    -0.744 OA
ENDBRANCH  84  87
ENDBRANCH  57  80
ENDBRANCH  31  32
ENDBRANCH  24  26
ENDBRANCH  23  24
ENDBRANCH  22  23
ENDBRANCH   1  22
TORSDOF 17
ENDMDL
MODEL 2
REMARK VINA RESULT:     -11.5      5.627      8.391
REMARK SMILES O=C(C[C@H]1CN(C(=O)c2c(F)cccc2Cl)CCO1)OCCOC(=O)c1ccc(-c2c3nc(c(-c4cccc(S(=O)(=O)[O-])c4F)c4ccc([nH]4)c(-c4cccc(S(=O)(=O)[O-])c4F)c4nc(c(-c5cccc(S(=O)(=O)[O-])c5F)c5ccc2[nH]5)C=C4)C=C3)cc1
REMARK SMILES IDX 21 1 20 2 2 3 1 4 3 5 4 6 5 7 19 8 6 9 18 10 17 11 7 12 8 13
REMARK SMILES IDX 9 14 10 15 15 16 11 17 12 18 14 19 16 20 13 21 22 22 23 23
REMARK SMILES IDX 24 24 25 25 26 26 27 27 88 28 28 29 87 30 29 31 30 32 31 33
REMARK SMILES IDX 81 34 32 35 86 36 80 37 82 38 33 39 85 40 79 41 78 42 34 44
REMARK SMILES IDX 66 45 46 46 65 47 47 48 50 49 64 50 83 51 48 52 49 53 63 55
REMARK SMILES IDX 84 56 51 57 35 58 36 59 44 60 37 61 39 62 45 63 38 64 40 65
REMARK SMILES IDX 41 66 42 67 43 68 67 69 68 70 76 71 69 72 71 73 77 74 70 75
REMARK SMILES IDX 72 76 73 77 74 78 75 79 52 80 53 81 61 82 54 83 56 84 62 85
REMARK SMILES IDX 55 86 57 87 58 88 59 89 60 90
REMARK H PARENT 82 43 50 54
REMARK Flexibility Score: inf
ROOT
ATOM      1  C   UNL A   1      32.151  30.726  26.634  1.00  0.00     0.274 C 
ENDROOT
BRANCH   1   2
ATOM      2  O   UNL A   1      32.889  29.959  25.683  1.00  0.00    -0.462 OA
BRANCH   2   3
ATOM      3  C   UNL A   1      32.868  28.613  25.709  1.00  0.00     0.308 C 
ATOM      4  O   UNL A   1      32.985  28.024  26.783  1.00  0.00    -0.252 OA
BRANCH   3   5
ATOM      5  C   UNL A   1      32.753  27.851  24.408  1.00  0.00     0.156 C 
BRANCH   5   6
ATOM      6  C   UNL A   1      31.414  27.787  23.681  1.00  0.00     0.148 C 
ATOM      7  C   UNL A   1      31.464  26.801  22.486  1.00  0.00     0.152 C 
ATOM      8  O   UNL A   1      30.327  27.443  24.551  1.00  0.00    -0.374 OA
ATOM      9  N   UNL A   1      31.745  25.478  23.031  1.00  0.00    -0.334 N 
ATOM     10  C   UNL A   1      30.420  26.097  25.051  1.00  0.00     0.182 C 
ATOM     11  C   UNL A   1      30.676  25.056  23.951  1.00  0.00     0.148 C 
BRANCH   9  12
ATOM     12  C   UNL A   1      32.985  24.818  23.061  1.00  0.00     0.258 C 
ATOM     13  O   UNL A   1      33.855  25.080  22.229  1.00  0.00    -0.269 OA
BRANCH  12  14
ATOM     14  C   UNL A   1      33.378  23.870  24.151  1.00  0.00     0.094 A 
ATOM     15  C   UNL A   1      34.456  24.308  25.460  1.00  0.00     0.137 A 
ATOM     16  C   UNL A   1      33.002  22.270  23.747  1.00  0.00     0.056 A 
ATOM     17  F   UNL A   1      34.673  25.611  25.699  1.00  0.00    -0.206 F 
ATOM     18  C   UNL A   1      35.345  23.224  26.466  1.00  0.00     0.040 A 
ATOM     19  C   UNL A   1      33.808  21.008  24.606  1.00  0.00     0.021 A 
ATOM     20  Cl  UNL A   1      32.214  21.800  22.282  1.00  0.00    -0.083 Cl
ATOM     21  C   UNL A   1      35.157  21.511  26.124  1.00  0.00     0.005 A 
ENDBRANCH  12  14
ENDBRANCH   9  12
ENDBRANCH   5   6
ENDBRANCH   3   5
ENDBRANCH   2   3
ENDBRANCH   1   2
BRANCH   1  22
ATOM     22  C   UNL A   1      33.044  31.654  27.476  1.00  0.00     0.275 C 
BRANCH  22  23
ATOM     23  O   UNL A   1      32.720  33.063  27.386  1.00  0.00    -0.458 OA
BRANCH  23  24
ATOM     24  C   UNL A   1      33.308  33.929  28.265  1.00  0.00     0.338 C 
ATOM     25  O   UNL A   1      32.853  34.999  28.623  1.00  0.00    -0.246 OA
BRANCH  24  26
ATOM     26  C   UNL A   1      34.509  33.269  28.863  1.00  0.00     0.060 A 
ATOM     27  C   UNL A   1      34.439  32.653  30.128  1.00  0.00     0.016 A 
ATOM     28  C   UNL A   1      35.684  33.166  28.120  1.00  0.00     0.016 A 
ATOM     29  C   UNL A   1      35.499  31.852  30.602  1.00  0.00     0.010 A 
ATOM     30  C   UNL A   1      36.738  32.380  28.596  1.00  0.00     0.010 A 
ATOM     31  C   UNL A   1      36.632  31.650  29.806  1.00  0.00    -0.014 A 
BRANCH  31  32
ATOM     32  C   UNL A   1      37.738  30.681  30.167  1.00  0.00     0.031 A 
ATOM     33  C   UNL A   1      38.293  30.949  31.625  1.00  0.00     0.074 A 
ATOM     34  C   UNL A   1      38.461  29.848  29.283  1.00  0.00     0.049 A 
ATOM     35  N   UNL A   1      39.350  30.511  32.278  1.00  0.00    -0.248 NA
ATOM     36  C   UNL A   1      37.560  31.995  32.381  1.00  0.00     0.031 C 
ATOM     37  C   UNL A   1      38.826  29.315  27.244  1.00  0.00     0.029 A 
ATOM     38  N   UNL A   1      39.959  29.025  30.091  1.00  0.00    -0.354 N 
ATOM     39  C   UNL A   1      39.416  31.242  33.475  1.00  0.00     0.074 A 
ATOM     40  C   UNL A   1      38.357  32.222  33.409  1.00  0.00     0.031 C 
ATOM     41  C   UNL A   1      40.233  28.437  27.130  1.00  0.00     0.029 A 
ATOM     42  C   UNL A   1      41.023  28.212  28.845  1.00  0.00     0.049 A 
ATOM     43  H   UNL A   1      40.143  29.034  31.058  1.00  0.00     0.167 HD
ATOM     44  C   UNL A   1      40.232  31.155  34.562  1.00  0.00     0.034 A 
ATOM     45  C   UNL A   1      42.112  27.423  28.957  1.00  0.00     0.034 A 
ATOM     46  C   UNL A   1      41.337  30.248  34.722  1.00  0.00     0.049 A 
ATOM     47  C   UNL A   1      42.797  27.260  30.253  1.00  0.00     0.074 A 
ATOM     48  C   UNL A   1      42.120  30.066  35.854  1.00  0.00     0.029 A 
ATOM     49  N   UNL A   1      41.861  29.424  33.742  1.00  0.00    -0.354 N 
ATOM     50  N   UNL A   1      42.588  27.903  31.366  1.00  0.00    -0.248 NA
ATOM     51  C   UNL A   1      43.892  26.282  30.294  1.00  0.00     0.031 C 
ATOM     52  C   UNL A   1      43.179  29.223  35.525  1.00  0.00     0.029 A 
ATOM     53  C   UNL A   1      42.986  28.777  34.232  1.00  0.00     0.049 A 
ATOM     54  H   UNL A   1      41.493  29.314  32.836  1.00  0.00     0.167 HD
ATOM     55  C   UNL A   1      43.529  27.411  32.250  1.00  0.00     0.074 A 
ATOM     56  C   UNL A   1      44.289  26.394  31.552  1.00  0.00     0.031 C 
ATOM     57  C   UNL A   1      43.755  27.791  33.524  1.00  0.00     0.034 A 
BRANCH  44  58
ATOM     58  C   UNL A   1      39.954  32.106  35.724  1.00  0.00     0.023 A 
ATOM     59  C   UNL A   1      40.714  33.287  35.875  1.00  0.00     0.012 A 
ATOM     60  C   UNL A   1      38.932  31.833  36.658  1.00  0.00     0.148 A 
ATOM     61  C   UNL A   1      40.535  34.119  36.981  1.00  0.00     0.002 A 
ATOM     62  C   UNL A   1      38.711  32.705  37.720  1.00  0.00     0.091 A 
ATOM     63  F   UNL A   1      38.200  30.722  36.501  1.00  0.00    -0.205 F 
ATOM     64  C   UNL A   1      39.531  33.830  37.901  1.00  0.00     0.022 A 
BRANCH  62  65
ATOM     65  S   UNL A   1      37.391  32.468  38.915  1.00  0.00     0.127 S 
ATOM     66  O   UNL A   1      37.744  33.449  39.942  1.00  0.00    -0.237 OA
ATOM     67  O   UNL A   1      36.204  32.807  38.131  1.00  0.00    -0.237 OA
ATOM     68  O   UNL A   1      37.469  31.076  39.337  1.00  0.00    -0.744 OA
ENDBRANCH  62  65
ENDBRANCH  44  58
BRANCH  45  69
ATOM     69  C   UNL A   1      42.469  26.591  27.773  1.00  0.00     0.023 A 
ATOM     70  C   UNL A   1      43.531  26.996  26.934  1.00  0.00     0.012 A 
ATOM     71  C   UNL A   1      41.869  25.341  27.553  1.00  0.00     0.148 A 
ATOM     72  C   UNL A   1      43.984  26.169  25.903  1.00  0.00     0.002 A 
ATOM     73  C   UNL A   1      42.403  24.476  26.606  1.00  0.00     0.091 A 
ATOM     74  F   UNL A   1      40.854  24.981  28.353  1.00  0.00    -0.205 F 
ATOM     75  C   UNL A   1      43.442  24.895  25.761  1.00  0.00     0.022 A 
BRANCH  73  76
ATOM     76  S   UNL A   1      41.941  22.741  26.560  1.00  0.00     0.127 S 
ATOM     77  O   UNL A   1      40.488  22.822  26.457  1.00  0.00    -0.237 OA
ATOM     78  O   UNL A   1      42.626  22.273  25.354  1.00  0.00    -0.237 OA
ATOM     79  O   UNL A   1      42.465  22.170  27.795  1.00  0.00    -0.744 OA
ENDBRANCH  73  76
ENDBRANCH  45  69
BRANCH  57  80
ATOM     80  C   UNL A   1      44.850  27.084  34.261  1.00  0.00     0.023 A 
ATOM     81  C   UNL A   1      46.169  27.577  34.247  1.00  0.00     0.012 A 
ATOM     82  C   UNL A   1      44.538  25.936  35.009  1.00  0.00     0.148 A 
ATOM     83  C   UNL A   1      47.172  26.909  34.946  1.00  0.00     0.002 A 
ATOM     84  C   UNL A   1      45.525  25.316  35.753  1.00  0.00     0.091 A 
ATOM     85  F   UNL A   1      43.278  25.479  34.980  1.00  0.00    -0.205 F 
ATOM     86  C   UNL A   1      46.848  25.790  35.710  1.00  0.00     0.022 A 
BRANCH  84  87
ATOM     87  S   UNL A   1      45.174  23.925  36.827  1.00  0.00     0.127 S 
ATOM     88  O   UNL A   1      44.616  22.957  35.882  1.00  0.00    -0.237 OA
ATOM     89  O   UNL A   1      46.504  23.592  37.335  1.00  0.00    -0.237 OA
ATOM     90  O   UNL A   1      44.239  24.412  37.832  1.00  0.00    -0.744 OA
ENDBRANCH  84  87
ENDBRANCH  57  80
ENDBRANCH  31  32
ENDBRANCH  24  26
ENDBRANCH  23  24
ENDBRANCH  22  23
ENDBRANCH   1  22
TORSDOF 17
ENDMDL
MODEL 3
REMARK VINA RESULT:     -11.5      2.243      8.036
REMARK SMILES O=C(C[C@H]1CN(C(=O)c2c(F)cccc2Cl)CCO1)OCCOC(=O)c1ccc(-c2c3nc(c(-c4cccc(S(=O)(=O)[O-])c4F)c4ccc([nH]4)c(-c4cccc(S(=O)(=O)[O-])c4F)c4nc(c(-c5cccc(S(=O)(=O)[O-])c5F)c5ccc2[nH]5)C=C4)C=C3)cc1
REMARK SMILES IDX 21 1 20 2 2 3 1 4 3 5 4 6 5 7 19 8 6 9 18 10 17 11 7 12 8 13
REMARK SMILES IDX 9 14 10 15 15 16 11 17 12 18 14 19 16 20 13 21 22 22 23 23
REMARK SMILES IDX 24 24 25 25 26 26 27 27 88 28 28 29 87 30 29 31 30 32 31 33
REMARK SMILES IDX 81 34 32 35 86 36 80 37 82 38 33 39 85 40 79 41 78 42 34 44
REMARK SMILES IDX 66 45 46 46 65 47 47 48 50 49 64 50 83 51 48 52 49 53 63 55
REMARK SMILES IDX 84 56 51 57 35 58 36 59 44 60 37 61 39 62 45 63 38 64 40 65
REMARK SMILES IDX 41 66 42 67 43 68 67 69 68 70 76 71 69 72 71 73 77 74 70 75
REMARK SMILES IDX 72 76 73 77 74 78 75 79 52 80 53 81 61 82 54 83 56 84 62 85
REMARK SMILES IDX 55 86 57 87 58 88 59 89 60 90
REMARK H PARENT 82 43 50 54
REMARK Flexibility Score: inf
ROOT
ATOM      1  C   UNL A   1      36.376  20.567  25.029  1.00  0.00     0.274 C 
ENDROOT
BRANCH   1   2
ATOM      2  O   UNL A   1      35.838  21.510  25.955  1.00  0.00    -0.462 OA
BRANCH   2   3
ATOM      3  C   UNL A   1      35.287  22.664  25.532  1.00  0.00     0.308 C 
ATOM      4  O   UNL A   1      36.006  23.543  25.060  1.00  0.00    -0.252 OA
BRANCH   3   5
ATOM      5  C   UNL A   1      33.798  22.874  25.695  1.00  0.00     0.156 C 
BRANCH   5   6
ATOM      6  C   UNL A   1      32.819  21.875  25.088  1.00  0.00     0.148 C 
ATOM      7  C   UNL A   1      31.358  22.196  25.493  1.00  0.00     0.152 C 
ATOM      8  O   UNL A   1      32.922  21.796  23.659  1.00  0.00    -0.374 OA
ATOM      9  N   UNL A   1      31.043  23.517  24.961  1.00  0.00    -0.334 N 
ATOM     10  C   UNL A   1      32.503  23.008  23.004  1.00  0.00     0.182 C 
ATOM     11  C   UNL A   1      31.141  23.523  23.492  1.00  0.00     0.148 C 
BRANCH   9  12
ATOM     12  C   UNL A   1      31.041  24.736  25.660  1.00  0.00     0.258 C 
ATOM     13  O   UNL A   1      30.656  24.787  26.829  1.00  0.00    -0.269 OA
BRANCH  12  14
ATOM     14  C   UNL A   1      31.611  25.999  25.097  1.00  0.00     0.094 A 
ATOM     15  C   UNL A   1      33.171  26.642  25.568  1.00  0.00     0.137 A 
ATOM     16  C   UNL A   1      30.430  26.910  24.297  1.00  0.00     0.056 A 
ATOM     17  F   UNL A   1      34.037  25.825  26.187  1.00  0.00    -0.206 F 
ATOM     18  C   UNL A   1      33.713  28.269  25.377  1.00  0.00     0.040 A 
ATOM     19  C   UNL A   1      30.745  28.586  24.029  1.00  0.00     0.021 A 
ATOM     20  Cl  UNL A   1      28.785  26.413  24.109  1.00  0.00    -0.083 Cl
ATOM     21  C   UNL A   1      32.572  29.391  24.651  1.00  0.00     0.005 A 
ENDBRANCH  12  14
ENDBRANCH   9  12
ENDBRANCH   5   6
ENDBRANCH   3   5
ENDBRANCH   2   3
ENDBRANCH   1   2
BRANCH   1  22
ATOM     22  C   UNL A   1      37.904  20.424  25.141  1.00  0.00     0.275 C 
BRANCH  22  23
ATOM     23  O   UNL A   1      38.613  21.649  25.450  1.00  0.00    -0.458 OA
BRANCH  23  24
ATOM     24  C   UNL A   1      39.604  21.615  26.391  1.00  0.00     0.338 C 
ATOM     25  O   UNL A   1      40.337  20.671  26.618  1.00  0.00    -0.246 OA
BRANCH  24  26
ATOM     26  C   UNL A   1      39.770  22.984  26.969  1.00  0.00     0.060 A 
ATOM     27  C   UNL A   1      40.836  23.274  27.842  1.00  0.00     0.016 A 
ATOM     28  C   UNL A   1      38.925  24.014  26.560  1.00  0.00     0.016 A 
ATOM     29  C   UNL A   1      41.120  24.603  28.221  1.00  0.00     0.010 A 
ATOM     30  C   UNL A   1      39.201  25.330  26.945  1.00  0.00     0.010 A 
ATOM     31  C   UNL A   1      40.345  25.653  27.716  1.00  0.00    -0.014 A 
BRANCH  31  32
ATOM     32  C   UNL A   1      40.678  27.114  27.942  1.00  0.00     0.031 A 
ATOM     33  C   UNL A   1      42.207  27.411  27.662  1.00  0.00     0.074 A 
ATOM     34  C   UNL A   1      39.888  28.071  28.617  1.00  0.00     0.049 A 
ATOM     35  N   UNL A   1      42.978  28.451  27.905  1.00  0.00    -0.248 NA
ATOM     36  C   UNL A   1      42.974  26.256  27.134  1.00  0.00     0.031 C 
ATOM     37  C   UNL A   1      38.129  28.419  29.783  1.00  0.00     0.029 A 
ATOM     38  N   UNL A   1      40.802  29.693  28.946  1.00  0.00    -0.354 N 
ATOM     39  C   UNL A   1      44.292  28.060  27.597  1.00  0.00     0.074 A 
ATOM     40  C   UNL A   1      44.225  26.660  27.250  1.00  0.00     0.031 C 
ATOM     41  C   UNL A   1      38.222  29.904  30.524  1.00  0.00     0.029 A 
ATOM     42  C   UNL A   1      39.854  30.773  30.078  1.00  0.00     0.049 A 
ATOM     43  H   UNL A   1      41.676  29.927  28.557  1.00  0.00     0.167 HD
ATOM     44  C   UNL A   1      45.471  28.741  27.568  1.00  0.00     0.034 A 
ATOM     45  C   UNL A   1      40.048  32.040  30.498  1.00  0.00     0.034 A 
ATOM     46  C   UNL A   1      45.662  30.121  27.926  1.00  0.00     0.049 A 
ATOM     47  C   UNL A   1      41.318  32.741  30.229  1.00  0.00     0.074 A 
ATOM     48  C   UNL A   1      46.826  30.867  27.811  1.00  0.00     0.029 A 
ATOM     49  N   UNL A   1      44.720  30.947  28.513  1.00  0.00    -0.354 N 
ATOM     50  N   UNL A   1      42.418  32.256  29.728  1.00  0.00    -0.248 NA
ATOM     51  C   UNL A   1      41.377  34.156  30.616  1.00  0.00     0.031 C 
ATOM     52  C   UNL A   1      46.623  32.100  28.427  1.00  0.00     0.029 A 
ATOM     53  C   UNL A   1      45.297  32.173  28.810  1.00  0.00     0.049 A 
ATOM     54  H   UNL A   1      43.783  30.703  28.693  1.00  0.00     0.167 HD
ATOM     55  C   UNL A   1      43.313  33.310  29.739  1.00  0.00     0.074 A 
ATOM     56  C   UNL A   1      42.616  34.465  30.266  1.00  0.00     0.031 C 
ATOM     57  C   UNL A   1      44.608  33.306  29.363  1.00  0.00     0.034 A 
BRANCH  44  58
ATOM     58  C   UNL A   1      46.711  27.974  27.115  1.00  0.00     0.023 A 
ATOM     59  C   UNL A   1      47.560  27.367  28.067  1.00  0.00     0.012 A 
ATOM     60  C   UNL A   1      47.026  27.846  25.745  1.00  0.00     0.148 A 
ATOM     61  C   UNL A   1      48.745  26.742  27.675  1.00  0.00     0.002 A 
ATOM     62  C   UNL A   1      48.173  27.159  25.357  1.00  0.00     0.091 A 
ATOM     63  F   UNL A   1      46.207  28.406  24.844  1.00  0.00    -0.205 F 
ATOM     64  C   UNL A   1      49.048  26.635  26.321  1.00  0.00     0.022 A 
BRANCH  62  65
ATOM     65  S   UNL A   1      48.612  26.894  23.636  1.00  0.00     0.127 S 
ATOM     66  O   UNL A   1      50.068  26.778  23.720  1.00  0.00    -0.237 OA
ATOM     67  O   UNL A   1      47.918  25.643  23.333  1.00  0.00    -0.237 OA
ATOM     68  O   UNL A   1      48.125  28.057  22.908  1.00  0.00    -0.744 OA
ENDBRANCH  62  65
ENDBRANCH  44  58
BRANCH  45  69
ATOM     69  C   UNL A   1      38.868  32.751  31.069  1.00  0.00     0.023 A 
ATOM     70  C   UNL A   1      37.835  33.185  30.208  1.00  0.00     0.012 A 
ATOM     71  C   UNL A   1      38.692  32.872  32.456  1.00  0.00     0.148 A 
ATOM     72  C   UNL A   1      36.654  33.723  30.723  1.00  0.00     0.002 A 
ATOM     73  C   UNL A   1      37.468  33.295  32.962  1.00  0.00     0.091 A 
ATOM     74  F   UNL A   1      39.689  32.465  33.255  1.00  0.00    -0.205 F 
ATOM     75  C   UNL A   1      36.457  33.747  32.101  1.00  0.00     0.022 A 
BRANCH  73  76
ATOM     76  S   UNL A   1      37.053  33.089  34.697  1.00  0.00     0.127 S 
ATOM     77  O   UNL A   1      35.623  33.379  34.698  1.00  0.00    -0.237 OA
ATOM     78  O   UNL A   1      37.405  31.688  34.932  1.00  0.00    -0.237 OA
ATOM     79  O   UNL A   1      37.899  34.038  35.411  1.00  0.00    -0.744 OA
ENDBRANCH  73  76
ENDBRANCH  45  69
BRANCH  57  80
ATOM     80  C   UNL A   1      45.354  34.599  29.481  1.00  0.00     0.023 A 
ATOM     81  C   UNL A   1      46.061  34.926  30.654  1.00  0.00     0.012 A 
ATOM     82  C   UNL A   1      45.378  35.475  28.382  1.00  0.00     0.148 A 
ATOM     83  C   UNL A   1      46.755  36.130  30.740  1.00  0.00     0.002 A 
ATOM     84  C   UNL A   1      46.122  36.639  28.450  1.00  0.00     0.091 A 
ATOM     85  F   UNL A   1      44.673  35.146  27.289  1.00  0.00    -0.205 F 
ATOM     86  C   UNL A   1      46.799  36.978  29.634  1.00  0.00     0.022 A 
BRANCH  84  87
ATOM     87  S   UNL A   1      46.299  37.738  27.046  1.00  0.00     0.127 S 
ATOM     88  O   UNL A   1      44.931  38.230  26.883  1.00  0.00    -0.237 OA
ATOM     89  O   UNL A   1      47.250  38.726  27.554  1.00  0.00    -0.237 OA
ATOM     90  O   UNL A   1      46.794  36.920  25.948  1.00  0.00    -0.744 OA
ENDBRANCH  84  87
ENDBRANCH  57  80
ENDBRANCH  31  32
ENDBRANCH  24  26
ENDBRANCH  23  24
ENDBRANCH  22  23
ENDBRANCH   1  22
TORSDOF 17
ENDMDL
