MODEL 1
REMARK VINA RESULT:     -11.6      0.000      0.000
REMARK SMILES C[C@@](NC(=O)CCOC1CC[NH2+]CC1)(C(=O)OCCOC(=O)c1ccc(-c2c3nc(c(-c4cccc(S(=O)(=O)[O-])c4F)c4ccc([nH]4)c(-c4cccc(S(=O)(=O)[O-])c4F)c4nc(c(-c5cccc(S(=O)(=O)[O-])c5F)c5ccc2[nH]5)C=C4)C=C3)cc1)C(F)(F)F
REMARK SMILES IDX 18 1 17 2 15 3 16 4 2 5 1 6 3 7 4 8 5 10 6 11 7 12 8 13 9 14
REMARK SMILES IDX 10 15 14 16 11 17 13 18 12 19 86 22 87 23 88 24 89 25 19 26
REMARK SMILES IDX 20 27 21 28 22 29 23 30 24 31 85 32 25 33 84 34 26 35 27 36
REMARK SMILES IDX 28 37 78 38 29 39 83 40 77 41 79 42 30 43 82 44 76 45 75 46
REMARK SMILES IDX 31 48 63 49 43 50 62 51 44 52 47 53 61 54 80 55 45 56 46 57
REMARK SMILES IDX 60 59 81 60 48 61 32 62 33 63 41 64 34 65 36 66 42 67 35 68
REMARK SMILES IDX 37 69 38 70 39 71 40 72 64 73 65 74 73 75 66 76 68 77 74 78
REMARK SMILES IDX 67 79 69 80 70 81 71 82 72 83 49 84 50 85 58 86 51 87 53 88
REMARK SMILES IDX 59 89 52 90 54 91 55 92 56 93 57 94
REMARK H PARENT 3 9 12 20 12 21 79 47 47 58
REMARK Flexibility Score: inf
ROOT
ATOM      1  C   UNL A   1      35.305  20.851  24.689  1.00  0.00     0.274 C 
ENDROOT
BRANCH   1   2
ATOM      2  O   UNL A   1      34.050  21.515  24.465  1.00  0.00    -0.460 OA
BRANCH   2   3
ATOM      3  C   UNL A   1      32.963  21.344  25.286  1.00  0.00     0.341 C 
ATOM      4  O   UNL A   1      32.160  20.449  25.172  1.00  0.00    -0.249 OA
BRANCH   3   5
ATOM      5  C   UNL A   1      32.895  22.542  26.252  1.00  0.00     0.231 C 
ATOM      6  C   UNL A   1      33.609  23.722  25.560  1.00  0.00     0.058 C 
BRANCH   5   7
ATOM      7  N   UNL A   1      31.469  22.722  26.712  1.00  0.00    -0.333 N 
ATOM      8  C   UNL A   1      30.589  23.737  26.826  1.00  0.00     0.223 C 
ATOM      9  H   UNL A   1      31.076  21.869  27.009  1.00  0.00     0.164 HD
ATOM     10  O   UNL A   1      29.479  23.494  27.306  1.00  0.00    -0.275 OA
BRANCH   8  11
ATOM     11  C   UNL A   1      30.957  25.127  26.420  1.00  0.00     0.128 C 
BRANCH  11  12
ATOM     12  C   UNL A   1      30.422  25.417  25.025  1.00  0.00     0.170 C 
BRANCH  12  13
ATOM     13  O   UNL A   1      31.353  26.222  24.310  1.00  0.00    -0.377 OA
BRANCH  13  14
ATOM     14  C   UNL A   1      31.399  27.610  24.633  1.00  0.00     0.129 C 
ATOM     15  C   UNL A   1      30.267  28.294  23.886  1.00  0.00     0.093 C 
ATOM     16  C   UNL A   1      32.771  28.215  24.267  1.00  0.00     0.093 C 
ATOM     17  C   UNL A   1      30.584  28.407  22.399  1.00  0.00     0.263 C 
ATOM     18  C   UNL A   1      32.953  28.750  22.837  1.00  0.00     0.263 C 
ATOM     19  N   UNL A   1      31.746  29.266  22.198  1.00  0.00    -0.346 N 
ATOM     20  H   UNL A   1      31.541  30.187  22.587  1.00  0.00     0.346 HD
ATOM     21  H   UNL A   1      31.925  29.309  21.194  1.00  0.00     0.346 HD
ENDBRANCH  13  14
ENDBRANCH  12  13
ENDBRANCH  11  12
ENDBRANCH   8  11
ENDBRANCH   5   7
BRANCH   5  22
ATOM     22  C   UNL A   1      33.706  22.309  27.552  1.00  0.00     0.422 C 
ATOM     23  F   UNL A   1      34.747  23.154  27.697  1.00  0.00    -0.168 F 
ATOM     24  F   UNL A   1      32.901  22.571  28.629  1.00  0.00    -0.168 F 
ATOM     25  F   UNL A   1      34.141  21.049  27.711  1.00  0.00    -0.168 F 
ENDBRANCH   5  22
ENDBRANCH   3   5
ENDBRANCH   2   3
ENDBRANCH   1   2
BRANCH   1  26
ATOM     26  C   UNL A   1      36.402  21.847  24.302  1.00  0.00     0.275 C 
BRANCH  26  27
ATOM     27  O   UNL A   1      37.047  22.255  25.520  1.00  0.00    -0.458 OA
BRANCH  27  28
ATOM     28  C   UNL A   1      38.283  21.767  25.778  1.00  0.00     0.338 C 
ATOM     29  O   UNL A   1      38.759  20.716  25.382  1.00  0.00    -0.246 OA
BRANCH  28  30
ATOM     30  C   UNL A   1      39.038  22.810  26.506  1.00  0.00     0.060 A 
ATOM     31  C   UNL A   1      38.705  24.133  26.260  1.00  0.00     0.016 A 
ATOM     32  C   UNL A   1      40.134  22.535  27.316  1.00  0.00     0.016 A 
ATOM     33  C   UNL A   1      39.522  25.165  26.694  1.00  0.00     0.010 A 
ATOM     34  C   UNL A   1      40.846  23.600  27.904  1.00  0.00     0.010 A 
ATOM     35  C   UNL A   1      40.568  24.942  27.579  1.00  0.00    -0.014 A 
BRANCH  35  36
ATOM     36  C   UNL A   1      41.336  26.108  28.125  1.00  0.00     0.031 A 
ATOM     37  C   UNL A   1      40.633  27.135  28.974  1.00  0.00     0.074 A 
ATOM     38  C   UNL A   1      42.660  26.269  27.877  1.00  0.00     0.049 A 
ATOM     39  N   UNL A   1      40.973  28.372  29.223  1.00  0.00    -0.248 NA
ATOM     40  C   UNL A   1      39.365  26.727  29.604  1.00  0.00     0.031 C 
ATOM     41  C   UNL A   1      43.531  25.334  27.153  1.00  0.00     0.029 A 
ATOM     42  N   UNL A   1      43.516  27.303  28.196  1.00  0.00    -0.354 N 
ATOM     43  C   UNL A   1      39.904  28.926  29.917  1.00  0.00     0.074 A 
ATOM     44  C   UNL A   1      38.925  27.876  30.097  1.00  0.00     0.031 C 
ATOM     45  C   UNL A   1      44.783  25.803  27.124  1.00  0.00     0.029 A 
ATOM     46  C   UNL A   1      44.775  27.154  27.653  1.00  0.00     0.049 A 
ATOM     47  H   UNL A   1      43.254  28.070  28.757  1.00  0.00     0.167 HD
ATOM     48  C   UNL A   1      39.754  30.202  30.343  1.00  0.00     0.034 A 
ATOM     49  C   UNL A   1      45.783  28.029  27.475  1.00  0.00     0.034 A 
ATOM     50  C   UNL A   1      40.788  31.201  30.248  1.00  0.00     0.049 A 
ATOM     51  C   UNL A   1      45.586  29.443  27.928  1.00  0.00     0.074 A 
ATOM     52  C   UNL A   1      40.756  32.515  30.679  1.00  0.00     0.029 A 
ATOM     53  N   UNL A   1      42.043  30.989  29.700  1.00  0.00    -0.354 N 
ATOM     54  N   UNL A   1      44.555  29.976  28.538  1.00  0.00    -0.248 NA
ATOM     55  C   UNL A   1      46.685  30.381  27.665  1.00  0.00     0.031 C 
ATOM     56  C   UNL A   1      41.984  33.106  30.366  1.00  0.00     0.029 A 
ATOM     57  C   UNL A   1      42.793  32.151  29.775  1.00  0.00     0.049 A 
ATOM     58  H   UNL A   1      42.356  30.139  29.315  1.00  0.00     0.167 HD
ATOM     59  C   UNL A   1      44.888  31.306  28.749  1.00  0.00     0.074 A 
ATOM     60  C   UNL A   1      46.230  31.489  28.232  1.00  0.00     0.031 C 
ATOM     61  C   UNL A   1      44.144  32.296  29.300  1.00  0.00     0.034 A 
BRANCH  48  62
ATOM     62  C   UNL A   1      38.427  30.613  30.926  1.00  0.00     0.023 A 
ATOM     63  C   UNL A   1      38.160  30.446  32.299  1.00  0.00     0.012 A 
ATOM     64  C   UNL A   1      37.469  31.248  30.108  1.00  0.00     0.148 A 
ATOM     65  C   UNL A   1      36.952  30.882  32.842  1.00  0.00     0.002 A 
ATOM     66  C   UNL A   1      36.288  31.723  30.666  1.00  0.00     0.091 A 
ATOM     67  F   UNL A   1      37.734  31.380  28.801  1.00  0.00    -0.205 F 
ATOM     68  C   UNL A   1      36.023  31.530  32.030  1.00  0.00     0.022 A 
BRANCH  66  69
ATOM     69  S   UNL A   1      35.068  32.644  29.721  1.00  0.00     0.127 S 
ATOM     70  O   UNL A   1      34.112  33.020  30.761  1.00  0.00    -0.237 OA
ATOM     71  O   UNL A   1      35.865  33.753  29.195  1.00  0.00    -0.237 OA
ATOM     72  O   UNL A   1      34.558  31.726  28.713  1.00  0.00    -0.744 OA
ENDBRANCH  66  69
ENDBRANCH  48  62
BRANCH  49  73
ATOM     73  C   UNL A   1      47.029  27.613  26.761  1.00  0.00     0.023 A 
ATOM     74  C   UNL A   1      48.062  26.977  27.474  1.00  0.00     0.012 A 
ATOM     75  C   UNL A   1      47.185  27.822  25.374  1.00  0.00     0.148 A 
ATOM     76  C   UNL A   1      49.234  26.582  26.827  1.00  0.00     0.002 A 
ATOM     77  C   UNL A   1      48.323  27.360  24.722  1.00  0.00     0.091 A 
ATOM     78  F   UNL A   1      46.208  28.456  24.710  1.00  0.00    -0.205 F 
ATOM     79  C   UNL A   1      49.358  26.759  25.451  1.00  0.00     0.022 A 
BRANCH  77  80
ATOM     80  S   UNL A   1      48.487  27.408  22.934  1.00  0.00     0.127 S 
ATOM     81  O   UNL A   1      49.813  27.998  22.770  1.00  0.00    -0.237 OA
ATOM     82  O   UNL A   1      48.395  25.991  22.581  1.00  0.00    -0.237 OA
ATOM     83  O   UNL A   1      47.368  28.213  22.461  1.00  0.00    -0.744 OA
ENDBRANCH  77  80
ENDBRANCH  49  73
BRANCH  61  84
ATOM     84  C   UNL A   1      44.787  33.649  29.420  1.00  0.00     0.023 A 
ATOM     85  C   UNL A   1      45.502  33.988  30.584  1.00  0.00     0.012 A 
ATOM     86  C   UNL A   1      44.719  34.565  28.352  1.00  0.00     0.148 A 
ATOM     87  C   UNL A   1      46.109  35.237  30.701  1.00  0.00     0.002 A 
ATOM     88  C   UNL A   1      45.372  35.784  28.454  1.00  0.00     0.091 A 
ATOM     89  F   UNL A   1      44.015  34.226  27.263  1.00  0.00    -0.205 F 
ATOM     90  C   UNL A   1      46.054  36.129  29.632  1.00  0.00     0.022 A 
BRANCH  88  91
ATOM     91  S   UNL A   1      45.437  36.954  27.094  1.00  0.00     0.127 S 
ATOM     92  O   UNL A   1      46.080  36.161  26.048  1.00  0.00    -0.237 OA
ATOM     93  O   UNL A   1      44.020  37.237  26.863  1.00  0.00    -0.237 OA
ATOM     94  O   UNL A   1      46.210  38.091  27.577  1.00  0.00    -0.744 OA
ENDBRANCH  88  91
ENDBRANCH  61  84
ENDBRANCH  35  36
ENDBRANCH  28  30
ENDBRANCH  27  28
ENDBRANCH  26  27
ENDBRANCH   1  26
TORSDOF 20
ENDMDL
MODEL 2
REMARK VINA RESULT:     -11.5      2.065      2.549
REMARK SMILES C[C@@](NC(=O)CCOC1CC[NH2+]CC1)(C(=O)OCCOC(=O)c1ccc(-c2c3nc(c(-c4cccc(S(=O)(=O)[O-])c4F)c4ccc([nH]4)c(-c4cccc(S(=O)(=O)[O-])c4F)c4nc(c(-c5cccc(S(=O)(=O)[O-])c5F)c5ccc2[nH]5)C=C4)C=C3)cc1)C(F)(F)F
REMARK SMILES IDX 18 1 17 2 15 3 16 4 2 5 1 6 3 7 4 8 5 10 6 11 7 12 8 13 9 14
REMARK SMILES IDX 10 15 14 16 11 17 13 18 12 19 86 22 87 23 88 24 89 25 19 26
REMARK SMILES IDX 20 27 21 28 22 29 23 30 24 31 85 32 25 33 84 34 26 35 27 36
REMARK SMILES IDX 28 37 78 38 29 39 83 40 77 41 79 42 30 43 82 44 76 45 75 46
REMARK SMILES IDX 31 48 63 49 43 50 62 51 44 52 47 53 61 54 80 55 45 56 46 57
REMARK SMILES IDX 60 59 81 60 48 61 32 62 33 63 41 64 34 65 36 66 42 67 35 68
REMARK SMILES IDX 37 69 38 70 39 71 40 72 64 73 65 74 73 75 66 76 68 77 74 78
REMARK SMILES IDX 67 79 69 80 70 81 71 82 72 83 49 84 50 85 58 86 51 87 53 88
REMARK SMILES IDX 59 89 52 90 54 91 55 92 56 93 57 94
REMARK H PARENT 3 9 12 20 12 21 79 47 47 58
REMARK Flexibility Score: inf
ROOT
ATOM      1  C   UNL A   1      35.206  23.568  25.863  1.00  0.00     0.274 C 
ENDROOT
BRANCH   1   2
ATOM      2  O   UNL A   1      34.223  23.865  24.856  1.00  0.00    -0.460 OA
BRANCH   2   3
ATOM      3  C   UNL A   1      32.879  23.650  25.045  1.00  0.00     0.341 C 
ATOM      4  O   UNL A   1      32.344  23.616  26.127  1.00  0.00    -0.249 OA
BRANCH   3   5
ATOM      5  C   UNL A   1      32.244  23.338  23.677  1.00  0.00     0.231 C 
ATOM      6  C   UNL A   1      30.715  23.468  23.848  1.00  0.00     0.058 C 
BRANCH   5   7
ATOM      7  N   UNL A   1      32.931  24.164  22.617  1.00  0.00    -0.333 N 
ATOM      8  C   UNL A   1      32.854  25.423  22.143  1.00  0.00     0.223 C 
ATOM      9  H   UNL A   1      33.621  23.643  22.146  1.00  0.00     0.164 HD
ATOM     10  O   UNL A   1      33.582  25.735  21.197  1.00  0.00    -0.275 OA
BRANCH   8  11
ATOM     11  C   UNL A   1      31.886  26.407  22.717  1.00  0.00     0.128 C 
BRANCH  11  12
ATOM     12  C   UNL A   1      32.592  27.295  23.730  1.00  0.00     0.170 C 
BRANCH  12  13
ATOM     13  O   UNL A   1      31.746  27.508  24.855  1.00  0.00    -0.377 OA
BRANCH  13  14
ATOM     14  C   UNL A   1      32.244  27.112  26.131  1.00  0.00     0.129 C 
ATOM     15  C   UNL A   1      31.499  27.912  27.185  1.00  0.00     0.093 C 
ATOM     16  C   UNL A   1      33.769  27.331  26.220  1.00  0.00     0.093 C 
ATOM     17  C   UNL A   1      31.975  29.360  27.208  1.00  0.00     0.263 C 
ATOM     18  C   UNL A   1      34.261  28.712  26.684  1.00  0.00     0.263 C 
ATOM     19  N   UNL A   1      33.378  29.420  27.605  1.00  0.00    -0.346 N 
ATOM     20  H   UNL A   1      33.473  29.003  28.532  1.00  0.00     0.346 HD
ATOM     21  H   UNL A   1      33.656  30.402  27.601  1.00  0.00     0.346 HD
ENDBRANCH  13  14
ENDBRANCH  12  13
ENDBRANCH  11  12
ENDBRANCH   8  11
ENDBRANCH   5   7
BRANCH   5  22
ATOM     22  C   UNL A   1      32.460  21.867  23.238  1.00  0.00     0.422 C 
ATOM     23  F   UNL A   1      33.730  21.442  23.385  1.00  0.00    -0.168 F 
ATOM     24  F   UNL A   1      31.728  21.049  24.057  1.00  0.00    -0.168 F 
ATOM     25  F   UNL A   1      32.052  21.601  21.987  1.00  0.00    -0.168 F 
ENDBRANCH   5  22
ENDBRANCH   3   5
ENDBRANCH   2   3
ENDBRANCH   1   2
BRANCH   1  26
ATOM     26  C   UNL A   1      35.688  22.139  25.596  1.00  0.00     0.275 C 
BRANCH  26  27
ATOM     27  O   UNL A   1      36.963  22.243  24.939  1.00  0.00    -0.458 OA
BRANCH  27  28
ATOM     28  C   UNL A   1      38.016  21.601  25.494  1.00  0.00     0.338 C 
ATOM     29  O   UNL A   1      38.341  20.436  25.331  1.00  0.00    -0.246 OA
BRANCH  28  30
ATOM     30  C   UNL A   1      38.822  22.604  26.225  1.00  0.00     0.060 A 
ATOM     31  C   UNL A   1      38.526  23.941  26.016  1.00  0.00     0.016 A 
ATOM     32  C   UNL A   1      39.928  22.276  27.002  1.00  0.00     0.016 A 
ATOM     33  C   UNL A   1      39.387  24.937  26.451  1.00  0.00     0.010 A 
ATOM     34  C   UNL A   1      40.689  23.304  27.594  1.00  0.00     0.010 A 
ATOM     35  C   UNL A   1      40.446  24.662  27.305  1.00  0.00    -0.014 A 
BRANCH  35  36
ATOM     36  C   UNL A   1      41.264  25.791  27.856  1.00  0.00     0.031 A 
ATOM     37  C   UNL A   1      40.615  26.819  28.745  1.00  0.00     0.074 A 
ATOM     38  C   UNL A   1      42.586  25.916  27.578  1.00  0.00     0.049 A 
ATOM     39  N   UNL A   1      41.000  28.039  29.012  1.00  0.00    -0.248 NA
ATOM     40  C   UNL A   1      39.351  26.437  29.398  1.00  0.00     0.031 C 
ATOM     41  C   UNL A   1      43.408  24.971  26.811  1.00  0.00     0.029 A 
ATOM     42  N   UNL A   1      43.482  26.915  27.897  1.00  0.00    -0.354 N 
ATOM     43  C   UNL A   1      39.968  28.611  29.746  1.00  0.00     0.074 A 
ATOM     44  C   UNL A   1      38.961  27.588  29.927  1.00  0.00     0.031 C 
ATOM     45  C   UNL A   1      44.673  25.401  26.760  1.00  0.00     0.029 A 
ATOM     46  C   UNL A   1      44.722  26.739  27.318  1.00  0.00     0.049 A 
ATOM     47  H   UNL A   1      43.258  27.677  28.481  1.00  0.00     0.167 HD
ATOM     48  C   UNL A   1      39.869  29.881  30.203  1.00  0.00     0.034 A 
ATOM     49  C   UNL A   1      45.752  27.586  27.134  1.00  0.00     0.034 A 
ATOM     50  C   UNL A   1      40.931  30.848  30.103  1.00  0.00     0.049 A 
ATOM     51  C   UNL A   1      45.611  28.995  27.623  1.00  0.00     0.074 A 
ATOM     52  C   UNL A   1      40.952  32.153  30.563  1.00  0.00     0.029 A 
ATOM     53  N   UNL A   1      42.165  30.610  29.518  1.00  0.00    -0.354 N 
ATOM     54  N   UNL A   1      44.613  29.546  28.270  1.00  0.00    -0.248 NA
ATOM     55  C   UNL A   1      46.732  29.904  27.352  1.00  0.00     0.031 C 
ATOM     56  C   UNL A   1      42.190  32.713  30.232  1.00  0.00     0.029 A 
ATOM     57  C   UNL A   1      42.953  31.746  29.599  1.00  0.00     0.049 A 
ATOM     58  H   UNL A   1      42.441  29.760  29.107  1.00  0.00     0.167 HD
ATOM     59  C   UNL A   1      44.994  30.860  28.502  1.00  0.00     0.074 A 
ATOM     60  C   UNL A   1      46.327  31.012  27.955  1.00  0.00     0.031 C 
ATOM     61  C   UNL A   1      44.296  31.859  29.093  1.00  0.00     0.034 A 
BRANCH  48  62
ATOM     62  C   UNL A   1      38.571  30.320  30.829  1.00  0.00     0.023 A 
ATOM     63  C   UNL A   1      38.331  30.126  32.203  1.00  0.00     0.012 A 
ATOM     64  C   UNL A   1      37.615  31.006  30.051  1.00  0.00     0.148 A 
ATOM     65  C   UNL A   1      37.151  30.587  32.786  1.00  0.00     0.002 A 
ATOM     66  C   UNL A   1      36.464  31.505  30.649  1.00  0.00     0.091 A 
ATOM     67  F   UNL A   1      37.853  31.163  28.741  1.00  0.00    -0.205 F 
ATOM     68  C   UNL A   1      36.225  31.286  32.014  1.00  0.00     0.022 A 
BRANCH  66  69
ATOM     69  S   UNL A   1      35.253  32.490  29.758  1.00  0.00     0.127 S 
ATOM     70  O   UNL A   1      34.270  32.765  30.804  1.00  0.00    -0.237 OA
ATOM     71  O   UNL A   1      36.047  33.648  29.346  1.00  0.00    -0.237 OA
ATOM     72  O   UNL A   1      34.778  31.655  28.664  1.00  0.00    -0.744 OA
ENDBRANCH  66  69
ENDBRANCH  48  62
BRANCH  49  73
ATOM     73  C   UNL A   1      46.966  27.148  26.379  1.00  0.00     0.023 A 
ATOM     74  C   UNL A   1      47.079  27.444  25.008  1.00  0.00     0.012 A 
ATOM     75  C   UNL A   1      48.020  26.460  27.018  1.00  0.00     0.148 A 
ATOM     76  C   UNL A   1      48.203  27.043  24.285  1.00  0.00     0.002 A 
ATOM     77  C   UNL A   1      49.168  26.128  26.308  1.00  0.00     0.091 A 
ATOM     78  F   UNL A   1      47.888  26.156  28.317  1.00  0.00    -0.205 F 
ATOM     79  C   UNL A   1      49.252  26.399  24.935  1.00  0.00     0.022 A 
BRANCH  77  80
ATOM     80  S   UNL A   1      50.623  25.443  27.109  1.00  0.00     0.127 S 
ATOM     81  O   UNL A   1      51.000  26.521  28.019  1.00  0.00    -0.237 OA
ATOM     82  O   UNL A   1      50.080  24.249  27.759  1.00  0.00    -0.237 OA
ATOM     83  O   UNL A   1      51.563  25.159  26.032  1.00  0.00    -0.744 OA
ENDBRANCH  77  80
ENDBRANCH  49  73
BRANCH  61  84
ATOM     84  C   UNL A   1      44.984  33.189  29.225  1.00  0.00     0.023 A 
ATOM     85  C   UNL A   1      45.837  33.434  30.318  1.00  0.00     0.012 A 
ATOM     86  C   UNL A   1      44.818  34.176  28.236  1.00  0.00     0.148 A 
ATOM     87  C   UNL A   1      46.487  34.660  30.445  1.00  0.00     0.002 A 
ATOM     88  C   UNL A   1      45.511  35.374  28.340  1.00  0.00     0.091 A 
ATOM     89  F   UNL A   1      43.985  33.927  27.216  1.00  0.00    -0.205 F 
ATOM     90  C   UNL A   1      46.333  35.624  29.451  1.00  0.00     0.022 A 
BRANCH  88  91
ATOM     91  S   UNL A   1      45.451  36.632  27.062  1.00  0.00     0.127 S 
ATOM     92  O   UNL A   1      46.192  35.991  25.977  1.00  0.00    -0.237 OA
ATOM     93  O   UNL A   1      44.013  36.763  26.826  1.00  0.00    -0.237 OA
ATOM     94  O   UNL A   1      46.081  37.816  27.631  1.00  0.00    -0.744 OA
ENDBRANCH  88  91
ENDBRANCH  61  84
ENDBRANCH  35  36
ENDBRANCH  28  30
ENDBRANCH  27  28
ENDBRANCH  26  27
ENDBRANCH   1  26
TORSDOF 20
ENDMDL
MODEL 3
REMARK VINA RESULT:     -11.5      1.298      1.565
REMARK SMILES C[C@@](NC(=O)CCOC1CC[NH2+]CC1)(C(=O)OCCOC(=O)c1ccc(-c2c3nc(c(-c4cccc(S(=O)(=O)[O-])c4F)c4ccc([nH]4)c(-c4cccc(S(=O)(=O)[O-])c4F)c4nc(c(-c5cccc(S(=O)(=O)[O-])c5F)c5ccc2[nH]5)C=C4)C=C3)cc1)C(F)(F)F
REMARK SMILES IDX 18 1 17 2 15 3 16 4 2 5 1 6 3 7 4 8 5 10 6 11 7 12 8 13 9 14
REMARK SMILES IDX 10 15 14 16 11 17 13 18 12 19 86 22 87 23 88 24 89 25 19 26
REMARK SMILES IDX 20 27 21 28 22 29 23 30 24 31 85 32 25 33 84 34 26 35 27 36
REMARK SMILES IDX 28 37 78 38 29 39 83 40 77 41 79 42 30 43 82 44 76 45 75 46
REMARK SMILES IDX 31 48 63 49 43 50 62 51 44 52 47 53 61 54 80 55 45 56 46 57
REMARK SMILES IDX 60 59 81 60 48 61 32 62 33 63 41 64 34 65 36 66 42 67 35 68
REMARK SMILES IDX 37 69 38 70 39 71 40 72 64 73 65 74 73 75 66 76 68 77 74 78
REMARK SMILES IDX 67 79 69 80 70 81 71 82 72 83 49 84 50 85 58 86 51 87 53 88
REMARK SMILES IDX 59 89 52 90 54 91 55 92 56 93 57 94
REMARK H PARENT 3 9 12 20 12 21 79 47 47 58
REMARK Flexibility Score: inf
ROOT
ATOM      1  C   UNL A   1      35.037  20.928  24.558  1.00  0.00     0.274 C 
ENDROOT
BRANCH   1   2
ATOM      2  O   UNL A   1      33.879  21.780  24.525  1.00  0.00    -0.460 OA
BRANCH   2   3
ATOM      3  C   UNL A   1      32.819  21.626  25.385  1.00  0.00     0.341 C 
ATOM      4  O   UNL A   1      31.933  20.821  25.232  1.00  0.00    -0.249 OA
BRANCH   3   5
ATOM      5  C   UNL A   1      32.908  22.725  26.460  1.00  0.00     0.231 C 
ATOM      6  C   UNL A   1      33.674  23.910  25.835  1.00  0.00     0.058 C 
BRANCH   5   7
ATOM      7  N   UNL A   1      31.531  22.967  27.030  1.00  0.00    -0.333 N 
ATOM      8  C   UNL A   1      30.387  23.558  26.630  1.00  0.00     0.223 C 
ATOM      9  H   UNL A   1      31.445  22.592  27.936  1.00  0.00     0.164 HD
ATOM     10  O   UNL A   1      29.444  23.598  27.423  1.00  0.00    -0.275 OA
BRANCH   8  11
ATOM     11  C   UNL A   1      30.274  24.187  25.278  1.00  0.00     0.128 C 
BRANCH  11  12
ATOM     12  C   UNL A   1      30.394  25.698  25.400  1.00  0.00     0.170 C 
BRANCH  12  13
ATOM     13  O   UNL A   1      31.290  26.191  24.408  1.00  0.00    -0.377 OA
BRANCH  13  14
ATOM     14  C   UNL A   1      32.104  27.307  24.761  1.00  0.00     0.129 C 
ATOM     15  C   UNL A   1      31.285  28.565  24.531  1.00  0.00     0.093 C 
ATOM     16  C   UNL A   1      33.410  27.318  23.938  1.00  0.00     0.093 C 
ATOM     17  C   UNL A   1      31.145  28.861  23.042  1.00  0.00     0.263 C 
ATOM     18  C   UNL A   1      33.383  28.028  22.574  1.00  0.00     0.263 C 
ATOM     19  N   UNL A   1      32.454  29.148  22.463  1.00  0.00    -0.346 N 
ATOM     20  H   UNL A   1      32.855  29.952  22.947  1.00  0.00     0.346 HD
ATOM     21  H   UNL A   1      32.315  29.333  21.469  1.00  0.00     0.346 HD
ENDBRANCH  13  14
ENDBRANCH  12  13
ENDBRANCH  11  12
ENDBRANCH   8  11
ENDBRANCH   5   7
BRANCH   5  22
ATOM     22  C   UNL A   1      33.773  22.305  27.676  1.00  0.00     0.422 C 
ATOM     23  F   UNL A   1      34.924  22.998  27.784  1.00  0.00    -0.168 F 
ATOM     24  F   UNL A   1      33.090  22.596  28.826  1.00  0.00    -0.168 F 
ATOM     25  F   UNL A   1      34.047  20.992  27.728  1.00  0.00    -0.168 F 
ENDBRANCH   5  22
ENDBRANCH   3   5
ENDBRANCH   2   3
ENDBRANCH   1   2
BRANCH   1  26
ATOM     26  C   UNL A   1      36.220  21.779  24.089  1.00  0.00     0.275 C 
BRANCH  26  27
ATOM     27  O   UNL A   1      36.878  22.270  25.270  1.00  0.00    -0.458 OA
BRANCH  27  28
ATOM     28  C   UNL A   1      38.037  21.677  25.642  1.00  0.00     0.338 C 
ATOM     29  O   UNL A   1      38.426  20.562  25.338  1.00  0.00    -0.246 OA
BRANCH  28  30
ATOM     30  C   UNL A   1      38.846  22.683  26.365  1.00  0.00     0.060 A 
ATOM     31  C   UNL A   1      38.520  24.018  26.186  1.00  0.00     0.016 A 
ATOM     32  C   UNL A   1      39.980  22.363  27.103  1.00  0.00     0.016 A 
ATOM     33  C   UNL A   1      39.376  25.023  26.612  1.00  0.00     0.010 A 
ATOM     34  C   UNL A   1      40.740  23.396  27.689  1.00  0.00     0.010 A 
ATOM     35  C   UNL A   1      40.465  24.754  27.430  1.00  0.00    -0.014 A 
BRANCH  35  36
ATOM     36  C   UNL A   1      41.279  25.888  27.974  1.00  0.00     0.031 A 
ATOM     37  C   UNL A   1      40.627  26.918  28.860  1.00  0.00     0.074 A 
ATOM     38  C   UNL A   1      42.599  26.018  27.693  1.00  0.00     0.049 A 
ATOM     39  N   UNL A   1      41.007  28.140  29.121  1.00  0.00    -0.248 NA
ATOM     40  C   UNL A   1      39.365  26.533  29.516  1.00  0.00     0.031 C 
ATOM     41  C   UNL A   1      43.424  25.073  26.930  1.00  0.00     0.029 A 
ATOM     42  N   UNL A   1      43.491  27.022  28.007  1.00  0.00    -0.354 N 
ATOM     43  C   UNL A   1      39.973  28.711  29.853  1.00  0.00     0.074 A 
ATOM     44  C   UNL A   1      38.970  27.685  30.041  1.00  0.00     0.031 C 
ATOM     45  C   UNL A   1      44.687  25.508  26.875  1.00  0.00     0.029 A 
ATOM     46  C   UNL A   1      44.731  26.849  27.427  1.00  0.00     0.049 A 
ATOM     47  H   UNL A   1      43.266  27.785  28.588  1.00  0.00     0.167 HD
ATOM     48  C   UNL A   1      39.870  29.983  30.305  1.00  0.00     0.034 A 
ATOM     49  C   UNL A   1      45.758  27.700  27.238  1.00  0.00     0.034 A 
ATOM     50  C   UNL A   1      40.927  30.955  30.199  1.00  0.00     0.049 A 
ATOM     51  C   UNL A   1      45.612  29.110  27.721  1.00  0.00     0.074 A 
ATOM     52  C   UNL A   1      40.943  32.261  30.654  1.00  0.00     0.029 A 
ATOM     53  N   UNL A   1      42.161  30.719  29.613  1.00  0.00    -0.354 N 
ATOM     54  N   UNL A   1      44.612  29.659  28.367  1.00  0.00    -0.248 NA
ATOM     55  C   UNL A   1      46.729  30.023  27.444  1.00  0.00     0.031 C 
ATOM     56  C   UNL A   1      42.178  32.825  30.318  1.00  0.00     0.029 A 
ATOM     57  C   UNL A   1      42.945  31.858  29.688  1.00  0.00     0.049 A 
ATOM     58  H   UNL A   1      42.440  29.868  29.206  1.00  0.00     0.167 HD
ATOM     59  C   UNL A   1      44.988  30.976  28.592  1.00  0.00     0.074 A 
ATOM     60  C   UNL A   1      46.319  31.132  28.042  1.00  0.00     0.031 C 
ATOM     61  C   UNL A   1      44.286  31.975  29.179  1.00  0.00     0.034 A 
BRANCH  48  62
ATOM     62  C   UNL A   1      38.570  30.419  30.931  1.00  0.00     0.023 A 
ATOM     63  C   UNL A   1      38.354  30.278  32.315  1.00  0.00     0.012 A 
ATOM     64  C   UNL A   1      37.588  31.051  30.138  1.00  0.00     0.148 A 
ATOM     65  C   UNL A   1      37.172  30.738  32.896  1.00  0.00     0.002 A 
ATOM     66  C   UNL A   1      36.435  31.549  30.732  1.00  0.00     0.091 A 
ATOM     67  F   UNL A   1      37.805  31.157  28.820  1.00  0.00    -0.205 F 
ATOM     68  C   UNL A   1      36.220  31.383  32.109  1.00  0.00     0.022 A 
BRANCH  66  69
ATOM     69  S   UNL A   1      35.190  32.467  29.818  1.00  0.00     0.127 S 
ATOM     70  O   UNL A   1      34.225  32.783  30.870  1.00  0.00    -0.237 OA
ATOM     71  O   UNL A   1      35.956  33.614  29.329  1.00  0.00    -0.237 OA
ATOM     72  O   UNL A   1      34.704  31.570  28.780  1.00  0.00    -0.744 OA
ENDBRANCH  66  69
ENDBRANCH  48  62
BRANCH  49  73
ATOM     73  C   UNL A   1      46.972  27.263  26.483  1.00  0.00     0.023 A 
ATOM     74  C   UNL A   1      47.105  27.598  25.122  1.00  0.00     0.012 A 
ATOM     75  C   UNL A   1      48.007  26.538  27.112  1.00  0.00     0.148 A 
ATOM     76  C   UNL A   1      48.230  27.199  24.400  1.00  0.00     0.002 A 
ATOM     77  C   UNL A   1      49.157  26.208  26.405  1.00  0.00     0.091 A 
ATOM     78  F   UNL A   1      47.856  26.198  28.400  1.00  0.00    -0.205 F 
ATOM     79  C   UNL A   1      49.261  26.519  25.042  1.00  0.00     0.022 A 
BRANCH  77  80
ATOM     80  S   UNL A   1      50.591  25.474  27.200  1.00  0.00     0.127 S 
ATOM     81  O   UNL A   1      50.035  24.238  27.743  1.00  0.00    -0.237 OA
ATOM     82  O   UNL A   1      51.508  25.295  26.073  1.00  0.00    -0.237 OA
ATOM     83  O   UNL A   1      51.039  26.456  28.180  1.00  0.00    -0.744 OA
ENDBRANCH  77  80
ENDBRANCH  49  73
BRANCH  61  84
ATOM     84  C   UNL A   1      44.969  33.308  29.305  1.00  0.00     0.023 A 
ATOM     85  C   UNL A   1      45.720  33.608  30.457  1.00  0.00     0.012 A 
ATOM     86  C   UNL A   1      44.901  34.243  28.255  1.00  0.00     0.148 A 
ATOM     87  C   UNL A   1      46.364  34.838  30.579  1.00  0.00     0.002 A 
ATOM     88  C   UNL A   1      45.590  35.442  28.359  1.00  0.00     0.091 A 
ATOM     89  F   UNL A   1      44.163  33.942  27.177  1.00  0.00    -0.205 F 
ATOM     90  C   UNL A   1      46.309  35.749  29.526  1.00  0.00     0.022 A 
BRANCH  88  91
ATOM     91  S   UNL A   1      45.656  36.632  27.017  1.00  0.00     0.127 S 
ATOM     92  O   UNL A   1      44.257  37.042  26.912  1.00  0.00    -0.237 OA
ATOM     93  O   UNL A   1      46.553  37.655  27.556  1.00  0.00    -0.237 OA
ATOM     94  O   UNL A   1      46.183  35.912  25.866  1.00  0.00    -0.744 OA
ENDBRANCH  88  91
ENDBRANCH  61  84
ENDBRANCH  35  36
ENDBRANCH  28  30
ENDBRANCH  27  28
ENDBRANCH  26  27
ENDBRANCH   1  26
TORSDOF 20
ENDMDL
