MODEL 1
REMARK VINA RESULT:      -9.9      0.000      0.000
REMARK SMILES C[NH+]1CCN(c2nc3c(cc2F)c(=O)c(C(=O)OCCOC(=O)c2ccc(-c4c5nc(c(-c6cccc(S(=O)(=O)[O-])c6F)c6ccc([nH]6)c(-c6cccc(S(=O)(=O)[O-])c6F)c6nc(c(-c7cccc(S(=O)(=O)[O-])c7F)c7ccc4[nH]7)C=C6)C=C5)cc2)cn3-c2ccc(F)cc2F)CC1
REMARK SMILES IDX 20 1 19 2 18 3 16 4 17 5 15 6 6 7 7 8 11 9 8 10 10 11 12 12
REMARK SMILES IDX 9 13 88 14 13 15 87 16 14 17 5 18 1 19 2 20 3 21 98 22 4 24
REMARK SMILES IDX 97 25 89 26 90 27 95 28 91 29 94 30 96 31 92 32 93 33 21 34
REMARK SMILES IDX 22 35 23 36 24 37 25 38 86 39 26 40 85 41 27 42 28 43 29 44
REMARK SMILES IDX 79 45 30 46 84 47 78 48 80 49 31 50 83 51 77 52 76 53 32 55
REMARK SMILES IDX 64 56 44 57 63 58 45 59 48 60 62 61 81 62 46 63 47 64 61 66
REMARK SMILES IDX 82 67 49 68 33 69 34 70 42 71 35 72 37 73 43 74 36 75 38 76
REMARK SMILES IDX 39 77 40 78 41 79 65 80 66 81 74 82 67 83 69 84 75 85 68 86
REMARK SMILES IDX 70 87 71 88 72 89 73 90 50 91 51 92 59 93 52 94 54 95 60 96
REMARK SMILES IDX 53 97 55 98 56 99 57 100 58 101
REMARK H PARENT 2 23 80 54 48 65
REMARK Flexibility Score: inf
ROOT
ATOM      1  C   UNL A   1      33.259  34.381  29.014  1.00  0.00     0.275 C 
ENDROOT
BRANCH   1   2
ATOM      2  C   UNL A   1      33.634  35.332  30.149  1.00  0.00     0.275 C 
BRANCH   2   3
ATOM      3  O   UNL A   1      34.657  34.747  30.974  1.00  0.00    -0.458 OA
BRANCH   3   4
ATOM      4  C   UNL A   1      34.273  34.284  32.185  1.00  0.00     0.343 C 
ATOM      5  O   UNL A   1      33.209  34.514  32.739  1.00  0.00    -0.246 OA
BRANCH   4   6
ATOM      6  C   UNL A   1      35.287  33.378  32.749  1.00  0.00     0.124 A 
ATOM      7  C   UNL A   1      38.940  30.022  33.746  1.00  0.00     0.167 A 
ATOM      8  N   UNL A   1      38.554  31.180  34.330  1.00  0.00    -0.209 NA
ATOM      9  C   UNL A   1      38.207  29.461  32.692  1.00  0.00     0.166 A 
ATOM     10  C   UNL A   1      37.469  31.841  33.838  1.00  0.00     0.151 A 
ATOM     11  C   UNL A   1      37.068  30.081  32.226  1.00  0.00     0.059 A 
ATOM     12  F   UNL A   1      38.591  28.305  32.126  1.00  0.00    -0.203 F 
ATOM     13  C   UNL A   1      36.702  31.294  32.797  1.00  0.00     0.069 A 
ATOM     14  N   UNL A   1      37.115  33.129  34.351  1.00  0.00    -0.297 N 
ATOM     15  C   UNL A   1      35.537  32.017  32.247  1.00  0.00     0.205 A 
ATOM     16  C   UNL A   1      36.082  33.824  33.733  1.00  0.00     0.113 A 
ATOM     17  O   UNL A   1      34.873  31.509  31.349  1.00  0.00    -0.288 OA
BRANCH   7  18
ATOM     18  N   UNL A   1      40.074  29.394  34.194  1.00  0.00    -0.343 N 
ATOM     19  C   UNL A   1      42.463  26.425  35.941  1.00  0.00     0.332 C 
ATOM     20  N   UNL A   1      42.124  27.666  35.248  1.00  0.00    -0.334 N 
ATOM     21  C   UNL A   1      41.290  28.537  36.120  1.00  0.00     0.283 C 
ATOM     22  C   UNL A   1      41.402  27.357  33.990  1.00  0.00     0.283 C 
ATOM     23  H   UNL A   1      42.984  28.165  35.023  1.00  0.00     0.347 HD
ATOM     24  C   UNL A   1      40.752  29.812  35.413  1.00  0.00     0.179 C 
ATOM     25  C   UNL A   1      40.880  28.612  33.265  1.00  0.00     0.179 C 
ENDBRANCH   7  18
BRANCH  14  26
ATOM     26  C   UNL A   1      37.822  33.752  35.425  1.00  0.00     0.083 A 
ATOM     27  C   UNL A   1      37.588  33.361  36.754  1.00  0.00     0.033 A 
ATOM     28  C   UNL A   1      38.794  34.742  35.183  1.00  0.00     0.150 A 
ATOM     29  C   UNL A   1      38.312  33.942  37.798  1.00  0.00     0.041 A 
ATOM     30  C   UNL A   1      39.505  35.336  36.221  1.00  0.00     0.080 A 
ATOM     31  F   UNL A   1      39.043  35.138  33.925  1.00  0.00    -0.205 F 
ATOM     32  C   UNL A   1      39.256  34.926  37.521  1.00  0.00     0.126 A 
ATOM     33  F   UNL A   1      39.931  35.487  38.533  1.00  0.00    -0.207 F 
ENDBRANCH  14  26
ENDBRANCH   4   6
ENDBRANCH   3   4
ENDBRANCH   2   3
ENDBRANCH   1   2
BRANCH   1  34
ATOM     34  O   UNL A   1      34.437  33.999  28.282  1.00  0.00    -0.458 OA
BRANCH  34  35
ATOM     35  C   UNL A   1      34.560  32.674  28.038  1.00  0.00     0.338 C 
ATOM     36  O   UNL A   1      33.706  31.911  27.623  1.00  0.00    -0.246 OA
BRANCH  35  37
ATOM     37  C   UNL A   1      35.949  32.263  28.278  1.00  0.00     0.060 A 
ATOM     38  C   UNL A   1      36.276  30.913  28.167  1.00  0.00     0.016 A 
ATOM     39  C   UNL A   1      36.885  33.181  28.747  1.00  0.00     0.016 A 
ATOM     40  C   UNL A   1      37.502  30.452  28.636  1.00  0.00     0.010 A 
ATOM     41  C   UNL A   1      38.152  32.730  29.124  1.00  0.00     0.010 A 
ATOM     42  C   UNL A   1      38.457  31.356  29.116  1.00  0.00    -0.014 A 
BRANCH  42  43
ATOM     43  C   UNL A   1      39.757  30.869  29.645  1.00  0.00     0.031 A 
ATOM     44  C   UNL A   1      40.415  29.665  29.024  1.00  0.00     0.074 A 
ATOM     45  C   UNL A   1      40.351  31.500  30.677  1.00  0.00     0.049 A 
ATOM     46  N   UNL A   1      41.451  28.987  29.443  1.00  0.00    -0.248 NA
ATOM     47  C   UNL A   1      39.830  29.153  27.771  1.00  0.00     0.031 C 
ATOM     48  C   UNL A   1      39.841  32.702  31.342  1.00  0.00     0.029 A 
ATOM     49  N   UNL A   1      41.511  31.215  31.352  1.00  0.00    -0.354 N 
ATOM     50  C   UNL A   1      41.604  27.935  28.547  1.00  0.00     0.074 A 
ATOM     51  C   UNL A   1      40.566  28.071  27.551  1.00  0.00     0.031 C 
ATOM     52  C   UNL A   1      40.695  33.064  32.313  1.00  0.00     0.029 A 
ATOM     53  C   UNL A   1      41.772  32.083  32.387  1.00  0.00     0.049 A 
ATOM     54  H   UNL A   1      42.100  30.462  31.118  1.00  0.00     0.167 HD
ATOM     55  C   UNL A   1      42.533  26.952  28.553  1.00  0.00     0.034 A 
ATOM     56  C   UNL A   1      42.752  32.077  33.312  1.00  0.00     0.034 A 
ATOM     57  C   UNL A   1      43.606  26.857  29.506  1.00  0.00     0.049 A 
ATOM     58  C   UNL A   1      43.767  30.971  33.300  1.00  0.00     0.074 A 
ATOM     59  C   UNL A   1      44.594  25.892  29.592  1.00  0.00     0.029 A 
ATOM     60  N   UNL A   1      43.845  27.770  30.520  1.00  0.00    -0.354 N 
ATOM     61  N   UNL A   1      43.886  29.976  32.455  1.00  0.00    -0.248 NA
ATOM     62  C   UNL A   1      44.781  30.984  34.363  1.00  0.00     0.031 C 
ATOM     63  C   UNL A   1      45.439  26.228  30.653  1.00  0.00     0.029 A 
ATOM     64  C   UNL A   1      44.976  27.402  31.226  1.00  0.00     0.049 A 
ATOM     65  H   UNL A   1      43.293  28.562  30.709  1.00  0.00     0.167 HD
ATOM     66  C   UNL A   1      44.999  29.257  32.871  1.00  0.00     0.074 A 
ATOM     67  C   UNL A   1      45.528  29.936  34.036  1.00  0.00     0.031 C 
ATOM     68  C   UNL A   1      45.522  28.123  32.344  1.00  0.00     0.034 A 
BRANCH  55  69
ATOM     69  C   UNL A   1      42.469  25.911  27.471  1.00  0.00     0.023 A 
ATOM     70  C   UNL A   1      43.259  26.069  26.317  1.00  0.00     0.012 A 
ATOM     71  C   UNL A   1      41.710  24.737  27.642  1.00  0.00     0.148 A 
ATOM     72  C   UNL A   1      43.289  25.074  25.340  1.00  0.00     0.002 A 
ATOM     73  C   UNL A   1      41.767  23.738  26.678  1.00  0.00     0.091 A 
ATOM     74  F   UNL A   1      40.959  24.618  28.745  1.00  0.00    -0.205 F 
ATOM     75  C   UNL A   1      42.552  23.906  25.525  1.00  0.00     0.022 A 
BRANCH  73  76
ATOM     76  S   UNL A   1      40.900  22.172  26.843  1.00  0.00     0.127 S 
ATOM     77  O   UNL A   1      39.512  22.580  26.633  1.00  0.00    -0.237 OA
ATOM     78  O   UNL A   1      41.477  21.386  25.753  1.00  0.00    -0.237 OA
ATOM     79  O   UNL A   1      41.204  21.681  28.179  1.00  0.00    -0.744 OA
ENDBRANCH  73  76
ENDBRANCH  55  69
BRANCH  56  80
ATOM     80  C   UNL A   1      42.829  33.183  34.306  1.00  0.00     0.023 A 
ATOM     81  C   UNL A   1      42.462  32.928  35.640  1.00  0.00     0.012 A 
ATOM     82  C   UNL A   1      43.325  34.453  33.956  1.00  0.00     0.148 A 
ATOM     83  C   UNL A   1      42.582  33.922  36.610  1.00  0.00     0.002 A 
ATOM     84  C   UNL A   1      43.484  35.426  34.936  1.00  0.00     0.091 A 
ATOM     85  F   UNL A   1      43.659  34.673  32.676  1.00  0.00    -0.205 F 
ATOM     86  C   UNL A   1      43.104  35.165  36.262  1.00  0.00     0.022 A 
BRANCH  84  87
ATOM     87  S   UNL A   1      44.251  37.016  34.607  1.00  0.00     0.127 S 
ATOM     88  O   UNL A   1      43.494  37.478  33.446  1.00  0.00    -0.237 OA
ATOM     89  O   UNL A   1      43.980  37.743  35.848  1.00  0.00    -0.237 OA
ATOM     90  O   UNL A   1      45.660  36.735  34.368  1.00  0.00    -0.744 OA
ENDBRANCH  84  87
ENDBRANCH  56  80
BRANCH  68  91
ATOM     91  C   UNL A   1      46.746  27.545  32.996  1.00  0.00     0.023 A 
ATOM     92  C   UNL A   1      48.014  28.046  32.646  1.00  0.00     0.012 A 
ATOM     93  C   UNL A   1      46.629  26.603  34.035  1.00  0.00     0.148 A 
ATOM     94  C   UNL A   1      49.154  27.611  33.319  1.00  0.00     0.002 A 
ATOM     95  C   UNL A   1      47.766  26.198  34.723  1.00  0.00     0.091 A 
ATOM     96  F   UNL A   1      45.410  26.135  34.338  1.00  0.00    -0.205 F 
ATOM     97  C   UNL A   1      49.028  26.698  34.364  1.00  0.00     0.022 A 
BRANCH  95  98
ATOM     98  S   UNL A   1      47.697  25.082  36.129  1.00  0.00     0.127 S 
ATOM     99  O   UNL A   1      47.769  23.775  35.476  1.00  0.00    -0.237 OA
ATOM    100  O   UNL A   1      48.897  25.456  36.879  1.00  0.00    -0.237 OA
ATOM    101  O   UNL A   1      46.443  25.367  36.811  1.00  0.00    -0.744 OA
ENDBRANCH  95  98
ENDBRANCH  68  91
ENDBRANCH  42  43
ENDBRANCH  35  37
ENDBRANCH  34  35
ENDBRANCH   1  34
TORSDOF 16
ENDMDL
MODEL 2
REMARK VINA RESULT:      -9.7      5.269      8.547
REMARK SMILES C[NH+]1CCN(c2nc3c(cc2F)c(=O)c(C(=O)OCCOC(=O)c2ccc(-c4c5nc(c(-c6cccc(S(=O)(=O)[O-])c6F)c6ccc([nH]6)c(-c6cccc(S(=O)(=O)[O-])c6F)c6nc(c(-c7cccc(S(=O)(=O)[O-])c7F)c7ccc4[nH]7)C=C6)C=C5)cc2)cn3-c2ccc(F)cc2F)CC1
REMARK SMILES IDX 20 1 19 2 18 3 16 4 17 5 15 6 6 7 7 8 11 9 8 10 10 11 12 12
REMARK SMILES IDX 9 13 88 14 13 15 87 16 14 17 5 18 1 19 2 20 3 21 98 22 4 24
REMARK SMILES IDX 97 25 89 26 90 27 95 28 91 29 94 30 96 31 92 32 93 33 21 34
REMARK SMILES IDX 22 35 23 36 24 37 25 38 86 39 26 40 85 41 27 42 28 43 29 44
REMARK SMILES IDX 79 45 30 46 84 47 78 48 80 49 31 50 83 51 77 52 76 53 32 55
REMARK SMILES IDX 64 56 44 57 63 58 45 59 48 60 62 61 81 62 46 63 47 64 61 66
REMARK SMILES IDX 82 67 49 68 33 69 34 70 42 71 35 72 37 73 43 74 36 75 38 76
REMARK SMILES IDX 39 77 40 78 41 79 65 80 66 81 74 82 67 83 69 84 75 85 68 86
REMARK SMILES IDX 70 87 71 88 72 89 73 90 50 91 51 92 59 93 52 94 54 95 60 96
REMARK SMILES IDX 53 97 55 98 56 99 57 100 58 101
REMARK H PARENT 2 23 80 54 48 65
REMARK Flexibility Score: inf
ROOT
ATOM      1  C   UNL A   1      32.231  29.209  24.659  1.00  0.00     0.275 C 
ENDROOT
BRANCH   1   2
ATOM      2  C   UNL A   1      32.594  28.680  23.273  1.00  0.00     0.275 C 
BRANCH   2   3
ATOM      3  O   UNL A   1      33.651  27.707  23.371  1.00  0.00    -0.458 OA
BRANCH   3   4
ATOM      4  C   UNL A   1      33.648  26.711  22.456  1.00  0.00     0.343 C 
ATOM      5  O   UNL A   1      33.671  26.847  21.242  1.00  0.00    -0.246 OA
BRANCH   4   6
ATOM      6  C   UNL A   1      33.691  25.393  23.112  1.00  0.00     0.124 A 
ATOM      7  C   UNL A   1      33.413  20.545  24.530  1.00  0.00     0.167 A 
ATOM      8  N   UNL A   1      34.302  21.536  24.771  1.00  0.00    -0.209 NA
ATOM      9  C   UNL A   1      32.221  20.790  23.838  1.00  0.00     0.166 A 
ATOM     10  C   UNL A   1      34.058  22.779  24.272  1.00  0.00     0.151 A 
ATOM     11  C   UNL A   1      31.924  22.058  23.387  1.00  0.00     0.059 A 
ATOM     12  F   UNL A   1      31.338  19.803  23.615  1.00  0.00    -0.203 F 
ATOM     13  C   UNL A   1      32.862  23.063  23.593  1.00  0.00     0.069 A 
ATOM     14  N   UNL A   1      35.039  23.814  24.399  1.00  0.00    -0.297 N 
ATOM     15  C   UNL A   1      32.601  24.405  23.034  1.00  0.00     0.205 A 
ATOM     16  C   UNL A   1      34.804  25.028  23.764  1.00  0.00     0.113 A 
ATOM     17  O   UNL A   1      31.542  24.631  22.460  1.00  0.00    -0.288 OA
BRANCH   7  18
ATOM     18  N   UNL A   1      33.694  19.275  24.970  1.00  0.00    -0.343 N 
ATOM     19  C   UNL A   1      33.752  15.084  25.021  1.00  0.00     0.332 C 
ATOM     20  N   UNL A   1      34.047  16.454  25.434  1.00  0.00    -0.334 N 
ATOM     21  C   UNL A   1      32.792  17.170  25.793  1.00  0.00     0.283 C 
ATOM     22  C   UNL A   1      34.749  17.168  24.340  1.00  0.00     0.283 C 
ATOM     23  H   UNL A   1      34.650  16.430  26.256  1.00  0.00     0.347 HD
ATOM     24  C   UNL A   1      32.991  18.682  26.099  1.00  0.00     0.179 C 
ATOM     25  C   UNL A   1      34.974  18.663  24.635  1.00  0.00     0.179 C 
ENDBRANCH   7  18
BRANCH  14  26
ATOM     26  C   UNL A   1      36.273  23.624  25.095  1.00  0.00     0.083 A 
ATOM     27  C   UNL A   1      36.549  24.348  26.266  1.00  0.00     0.033 A 
ATOM     28  C   UNL A   1      37.224  22.685  24.652  1.00  0.00     0.150 A 
ATOM     29  C   UNL A   1      37.738  24.129  26.967  1.00  0.00     0.041 A 
ATOM     30  C   UNL A   1      38.417  22.475  25.336  1.00  0.00     0.080 A 
ATOM     31  F   UNL A   1      36.990  21.975  23.537  1.00  0.00    -0.205 F 
ATOM     32  C   UNL A   1      38.660  23.202  26.492  1.00  0.00     0.126 A 
ATOM     33  F   UNL A   1      39.803  23.014  27.164  1.00  0.00    -0.207 F 
ENDBRANCH  14  26
ENDBRANCH   4   6
ENDBRANCH   3   4
ENDBRANCH   2   3
ENDBRANCH   1   2
BRANCH   1  34
ATOM     34  O   UNL A   1      33.420  29.616  25.358  1.00  0.00    -0.458 OA
BRANCH  34  35
ATOM     35  C   UNL A   1      33.227  30.511  26.353  1.00  0.00     0.338 C 
ATOM     36  O   UNL A   1      32.289  31.276  26.494  1.00  0.00    -0.246 OA
BRANCH  35  37
ATOM     37  C   UNL A   1      34.311  30.388  27.336  1.00  0.00     0.060 A 
ATOM     38  C   UNL A   1      35.110  31.500  27.594  1.00  0.00     0.016 A 
ATOM     39  C   UNL A   1      34.624  29.148  27.887  1.00  0.00     0.016 A 
ATOM     40  C   UNL A   1      36.294  31.356  28.310  1.00  0.00     0.010 A 
ATOM     41  C   UNL A   1      35.762  29.028  28.690  1.00  0.00     0.010 A 
ATOM     42  C   UNL A   1      36.632  30.119  28.870  1.00  0.00    -0.014 A 
BRANCH  42  43
ATOM     43  C   UNL A   1      37.909  29.950  29.611  1.00  0.00     0.031 A 
ATOM     44  C   UNL A   1      39.028  29.146  29.004  1.00  0.00     0.074 A 
ATOM     45  C   UNL A   1      38.070  30.514  30.825  1.00  0.00     0.049 A 
ATOM     46  N   UNL A   1      40.143  28.743  29.555  1.00  0.00    -0.248 NA
ATOM     47  C   UNL A   1      38.874  28.740  27.595  1.00  0.00     0.031 C 
ATOM     48  C   UNL A   1      37.081  31.352  31.508  1.00  0.00     0.029 A 
ATOM     49  N   UNL A   1      39.124  30.464  31.702  1.00  0.00    -0.354 N 
ATOM     50  C   UNL A   1      40.791  27.984  28.588  1.00  0.00     0.074 A 
ATOM     51  C   UNL A   1      39.956  27.995  27.408  1.00  0.00     0.031 C 
ATOM     52  C   UNL A   1      37.584  31.755  32.686  1.00  0.00     0.029 A 
ATOM     53  C   UNL A   1      38.897  31.149  32.873  1.00  0.00     0.049 A 
ATOM     54  H   UNL A   1      39.962  29.984  31.511  1.00  0.00     0.167 HD
ATOM     55  C   UNL A   1      41.980  27.343  28.676  1.00  0.00     0.034 A 
ATOM     56  C   UNL A   1      39.646  31.255  33.988  1.00  0.00     0.034 A 
ATOM     57  C   UNL A   1      42.841  27.389  29.826  1.00  0.00     0.049 A 
ATOM     58  C   UNL A   1      40.959  30.530  34.062  1.00  0.00     0.074 A 
ATOM     59  C   UNL A   1      44.064  26.769  30.007  1.00  0.00     0.029 A 
ATOM     60  N   UNL A   1      42.582  28.113  30.979  1.00  0.00    -0.354 N 
ATOM     61  N   UNL A   1      41.548  29.803  33.143  1.00  0.00    -0.248 NA
ATOM     62  C   UNL A   1      41.711  30.637  35.320  1.00  0.00     0.031 C 
ATOM     63  C   UNL A   1      44.552  27.127  31.267  1.00  0.00     0.029 A 
ATOM     64  C   UNL A   1      43.631  27.971  31.868  1.00  0.00     0.049 A 
ATOM     65  H   UNL A   1      41.773  28.650  31.139  1.00  0.00     0.167 HD
ATOM     66  C   UNL A   1      42.748  29.385  33.704  1.00  0.00     0.074 A 
ATOM     67  C   UNL A   1      42.810  29.948  35.037  1.00  0.00     0.031 C 
ATOM     68  C   UNL A   1      43.703  28.587  33.166  1.00  0.00     0.034 A 
BRANCH  55  69
ATOM     69  C   UNL A   1      42.455  26.566  27.481  1.00  0.00     0.023 A 
ATOM     70  C   UNL A   1      43.000  27.257  26.383  1.00  0.00     0.012 A 
ATOM     71  C   UNL A   1      42.455  25.157  27.488  1.00  0.00     0.148 A 
ATOM     72  C   UNL A   1      43.534  26.557  25.301  1.00  0.00     0.002 A 
ATOM     73  C   UNL A   1      43.013  24.466  26.420  1.00  0.00     0.091 A 
ATOM     74  F   UNL A   1      41.919  24.526  28.541  1.00  0.00    -0.205 F 
ATOM     75  C   UNL A   1      43.549  25.164  25.324  1.00  0.00     0.022 A 
BRANCH  73  76
ATOM     76  S   UNL A   1      43.133  22.674  26.373  1.00  0.00     0.127 S 
ATOM     77  O   UNL A   1      42.158  22.340  25.335  1.00  0.00    -0.237 OA
ATOM     78  O   UNL A   1      44.529  22.470  25.987  1.00  0.00    -0.237 OA
ATOM     79  O   UNL A   1      42.793  22.211  27.710  1.00  0.00    -0.744 OA
ENDBRANCH  73  76
ENDBRANCH  55  69
BRANCH  56  80
ATOM     80  C   UNL A   1      39.177  32.114  35.109  1.00  0.00     0.023 A 
ATOM     81  C   UNL A   1      38.266  31.583  36.040  1.00  0.00     0.012 A 
ATOM     82  C   UNL A   1      39.676  33.418  35.296  1.00  0.00     0.148 A 
ATOM     83  C   UNL A   1      37.853  32.338  37.138  1.00  0.00     0.002 A 
ATOM     84  C   UNL A   1      39.295  34.149  36.415  1.00  0.00     0.091 A 
ATOM     85  F   UNL A   1      40.535  33.904  34.389  1.00  0.00    -0.205 F 
ATOM     86  C   UNL A   1      38.376  33.614  37.332  1.00  0.00     0.022 A 
BRANCH  84  87
ATOM     87  S   UNL A   1      39.999  35.753  36.810  1.00  0.00     0.127 S 
ATOM     88  O   UNL A   1      39.343  36.063  38.077  1.00  0.00    -0.237 OA
ATOM     89  O   UNL A   1      41.425  35.437  36.915  1.00  0.00    -0.237 OA
ATOM     90  O   UNL A   1      39.655  36.623  35.693  1.00  0.00    -0.744 OA
ENDBRANCH  84  87
ENDBRANCH  56  80
BRANCH  68  91
ATOM     91  C   UNL A   1      44.918  28.288  33.997  1.00  0.00     0.023 A 
ATOM     92  C   UNL A   1      45.995  29.193  33.993  1.00  0.00     0.012 A 
ATOM     93  C   UNL A   1      44.936  27.181  34.868  1.00  0.00     0.148 A 
ATOM     94  C   UNL A   1      47.082  28.999  34.844  1.00  0.00     0.002 A 
ATOM     95  C   UNL A   1      46.008  27.012  35.735  1.00  0.00     0.091 A 
ATOM     96  F   UNL A   1      43.902  26.329  34.840  1.00  0.00    -0.205 F 
ATOM     97  C   UNL A   1      47.082  27.916  35.722  1.00  0.00     0.022 A 
BRANCH  95  98
ATOM     98  S   UNL A   1      46.066  25.691  36.952  1.00  0.00     0.127 S 
ATOM     99  O   UNL A   1      47.462  25.744  37.383  1.00  0.00    -0.237 OA
ATOM    100  O   UNL A   1      45.101  26.150  37.952  1.00  0.00    -0.237 OA
ATOM    101  O   UNL A   1      45.679  24.477  36.248  1.00  0.00    -0.744 OA
ENDBRANCH  95  98
ENDBRANCH  68  91
ENDBRANCH  42  43
ENDBRANCH  35  37
ENDBRANCH  34  35
ENDBRANCH   1  34
TORSDOF 16
ENDMDL
MODEL 3
REMARK VINA RESULT:      -9.6      3.933      9.583
REMARK SMILES C[NH+]1CCN(c2nc3c(cc2F)c(=O)c(C(=O)OCCOC(=O)c2ccc(-c4c5nc(c(-c6cccc(S(=O)(=O)[O-])c6F)c6ccc([nH]6)c(-c6cccc(S(=O)(=O)[O-])c6F)c6nc(c(-c7cccc(S(=O)(=O)[O-])c7F)c7ccc4[nH]7)C=C6)C=C5)cc2)cn3-c2ccc(F)cc2F)CC1
REMARK SMILES IDX 20 1 19 2 18 3 16 4 17 5 15 6 6 7 7 8 11 9 8 10 10 11 12 12
REMARK SMILES IDX 9 13 88 14 13 15 87 16 14 17 5 18 1 19 2 20 3 21 98 22 4 24
REMARK SMILES IDX 97 25 89 26 90 27 95 28 91 29 94 30 96 31 92 32 93 33 21 34
REMARK SMILES IDX 22 35 23 36 24 37 25 38 86 39 26 40 85 41 27 42 28 43 29 44
REMARK SMILES IDX 79 45 30 46 84 47 78 48 80 49 31 50 83 51 77 52 76 53 32 55
REMARK SMILES IDX 64 56 44 57 63 58 45 59 48 60 62 61 81 62 46 63 47 64 61 66
REMARK SMILES IDX 82 67 49 68 33 69 34 70 42 71 35 72 37 73 43 74 36 75 38 76
REMARK SMILES IDX 39 77 40 78 41 79 65 80 66 81 74 82 67 83 69 84 75 85 68 86
REMARK SMILES IDX 70 87 71 88 72 89 73 90 50 91 51 92 59 93 52 94 54 95 60 96
REMARK SMILES IDX 53 97 55 98 56 99 57 100 58 101
REMARK H PARENT 2 23 80 54 48 65
REMARK Flexibility Score: inf
ROOT
ATOM      1  C   UNL A   1      36.831  32.682  33.209  1.00  0.00     0.275 C 
ENDROOT
BRANCH   1   2
ATOM      2  C   UNL A   1      37.836  33.660  32.605  1.00  0.00     0.275 C 
BRANCH   2   3
ATOM      3  O   UNL A   1      37.312  34.230  31.392  1.00  0.00    -0.458 OA
BRANCH   3   4
ATOM      4  C   UNL A   1      37.925  33.879  30.239  1.00  0.00     0.343 C 
ATOM      5  O   UNL A   1      38.959  34.358  29.799  1.00  0.00    -0.246 OA
BRANCH   4   6
ATOM      6  C   UNL A   1      37.222  32.762  29.587  1.00  0.00     0.124 A 
ATOM      7  C   UNL A   1      34.337  29.636  26.848  1.00  0.00     0.167 A 
ATOM      8  N   UNL A   1      35.594  29.552  27.339  1.00  0.00    -0.209 NA
ATOM      9  C   UNL A   1      33.504  30.718  27.164  1.00  0.00     0.166 A 
ATOM     10  C   UNL A   1      36.076  30.572  28.103  1.00  0.00     0.151 A 
ATOM     11  C   UNL A   1      33.952  31.724  27.991  1.00  0.00     0.059 A 
ATOM     12  F   UNL A   1      32.253  30.787  26.681  1.00  0.00    -0.203 F 
ATOM     13  C   UNL A   1      35.260  31.658  28.455  1.00  0.00     0.069 A 
ATOM     14  N   UNL A   1      37.443  30.571  28.529  1.00  0.00    -0.297 N 
ATOM     15  C   UNL A   1      35.785  32.776  29.267  1.00  0.00     0.205 A 
ATOM     16  C   UNL A   1      37.927  31.690  29.195  1.00  0.00     0.113 A 
ATOM     17  O   UNL A   1      35.046  33.704  29.575  1.00  0.00    -0.288 OA
BRANCH   7  18
ATOM     18  N   UNL A   1      33.876  28.645  26.019  1.00  0.00    -0.343 N 
ATOM     19  C   UNL A   1      31.133  26.290  23.896  1.00  0.00     0.332 C 
ATOM     20  N   UNL A   1      32.426  26.788  24.361  1.00  0.00    -0.334 N 
ATOM     21  C   UNL A   1      32.552  26.611  25.833  1.00  0.00     0.283 C 
ATOM     22  C   UNL A   1      32.570  28.219  24.002  1.00  0.00     0.283 C 
ATOM     23  H   UNL A   1      33.169  26.256  23.908  1.00  0.00     0.347 HD
ATOM     24  C   UNL A   1      33.832  27.252  26.440  1.00  0.00     0.179 C 
ATOM     25  C   UNL A   1      33.845  28.865  24.578  1.00  0.00     0.179 C 
ENDBRANCH   7  18
BRANCH  14  26
ATOM     26  C   UNL A   1      38.339  29.496  28.239  1.00  0.00     0.083 A 
ATOM     27  C   UNL A   1      39.264  29.603  27.188  1.00  0.00     0.033 A 
ATOM     28  C   UNL A   1      38.347  28.322  29.017  1.00  0.00     0.150 A 
ATOM     29  C   UNL A   1      40.168  28.567  26.935  1.00  0.00     0.041 A 
ATOM     30  C   UNL A   1      39.233  27.281  28.758  1.00  0.00     0.080 A 
ATOM     31  F   UNL A   1      37.477  28.188  30.030  1.00  0.00    -0.205 F 
ATOM     32  C   UNL A   1      40.138  27.417  27.717  1.00  0.00     0.126 A 
ATOM     33  F   UNL A   1      40.998  26.426  27.453  1.00  0.00    -0.207 F 
ENDBRANCH  14  26
ENDBRANCH   4   6
ENDBRANCH   3   4
ENDBRANCH   2   3
ENDBRANCH   1   2
BRANCH   1  34
ATOM     34  O   UNL A   1      37.502  31.482  33.630  1.00  0.00    -0.458 OA
BRANCH  34  35
ATOM     35  C   UNL A   1      37.374  30.425  32.797  1.00  0.00     0.338 C 
ATOM     36  O   UNL A   1      36.361  30.031  32.245  1.00  0.00    -0.246 OA
BRANCH  35  37
ATOM     37  C   UNL A   1      38.693  29.822  32.569  1.00  0.00     0.060 A 
ATOM     38  C   UNL A   1      38.808  28.434  32.592  1.00  0.00     0.016 A 
ATOM     39  C   UNL A   1      39.828  30.624  32.477  1.00  0.00     0.016 A 
ATOM     40  C   UNL A   1      40.064  27.838  32.642  1.00  0.00     0.010 A 
ATOM     41  C   UNL A   1      41.086  30.019  32.426  1.00  0.00     0.010 A 
ATOM     42  C   UNL A   1      41.219  28.625  32.556  1.00  0.00    -0.014 A 
BRANCH  42  43
ATOM     43  C   UNL A   1      42.564  27.999  32.638  1.00  0.00     0.031 A 
ATOM     44  C   UNL A   1      43.169  27.697  33.983  1.00  0.00     0.074 A 
ATOM     45  C   UNL A   1      43.245  27.701  31.514  1.00  0.00     0.049 A 
ATOM     46  N   UNL A   1      44.386  27.315  34.269  1.00  0.00    -0.248 NA
ATOM     47  C   UNL A   1      42.295  27.844  35.160  1.00  0.00     0.031 C 
ATOM     48  C   UNL A   1      42.756  27.904  30.148  1.00  0.00     0.029 A 
ATOM     49  N   UNL A   1      44.498  27.168  31.341  1.00  0.00    -0.354 N 
ATOM     50  C   UNL A   1      44.445  27.241  35.656  1.00  0.00     0.074 A 
ATOM     51  C   UNL A   1      43.137  27.599  36.157  1.00  0.00     0.031 C 
ATOM     52  C   UNL A   1      43.687  27.480  29.279  1.00  0.00     0.029 A 
ATOM     53  C   UNL A   1      44.864  27.043  30.021  1.00  0.00     0.049 A 
ATOM     54  H   UNL A   1      45.078  26.901  32.090  1.00  0.00     0.167 HD
ATOM     55  C   UNL A   1      45.493  26.895  36.438  1.00  0.00     0.034 A 
ATOM     56  C   UNL A   1      46.027  26.649  29.466  1.00  0.00     0.034 A 
ATOM     57  C   UNL A   1      46.773  26.474  35.937  1.00  0.00     0.049 A 
ATOM     58  C   UNL A   1      47.177  26.276  30.357  1.00  0.00     0.074 A 
ATOM     59  C   UNL A   1      47.897  26.107  36.656  1.00  0.00     0.029 A 
ATOM     60  N   UNL A   1      47.091  26.339  34.596  1.00  0.00    -0.354 N 
ATOM     61  N   UNL A   1      47.218  26.228  31.666  1.00  0.00    -0.248 NA
ATOM     62  C   UNL A   1      48.437  25.905  29.700  1.00  0.00     0.031 C 
ATOM     63  C   UNL A   1      48.894  25.739  35.748  1.00  0.00     0.029 A 
ATOM     64  C   UNL A   1      48.387  25.877  34.464  1.00  0.00     0.049 A 
ATOM     65  H   UNL A   1      46.484  26.541  33.848  1.00  0.00     0.167 HD
ATOM     66  C   UNL A   1      48.499  25.800  31.989  1.00  0.00     0.074 A 
ATOM     67  C   UNL A   1      49.201  25.591  30.739  1.00  0.00     0.031 C 
ATOM     68  C   UNL A   1      49.049  25.617  33.214  1.00  0.00     0.034 A 
BRANCH  55  69
ATOM     69  C   UNL A   1      45.300  26.912  37.928  1.00  0.00     0.023 A 
ATOM     70  C   UNL A   1      45.026  25.706  38.600  1.00  0.00     0.012 A 
ATOM     71  C   UNL A   1      45.490  28.096  38.668  1.00  0.00     0.148 A 
ATOM     72  C   UNL A   1      44.934  25.678  39.992  1.00  0.00     0.002 A 
ATOM     73  C   UNL A   1      45.425  28.054  40.056  1.00  0.00     0.091 A 
ATOM     74  F   UNL A   1      45.739  29.231  38.002  1.00  0.00    -0.205 F 
ATOM     75  C   UNL A   1      45.143  26.847  40.719  1.00  0.00     0.022 A 
BRANCH  73  76
ATOM     76  S   UNL A   1      45.732  29.491  41.091  1.00  0.00     0.127 S 
ATOM     77  O   UNL A   1      46.467  28.898  42.208  1.00  0.00    -0.237 OA
ATOM     78  O   UNL A   1      46.538  30.336  40.210  1.00  0.00    -0.237 OA
ATOM     79  O   UNL A   1      44.424  30.032  41.430  1.00  0.00    -0.744 OA
ENDBRANCH  73  76
ENDBRANCH  55  69
BRANCH  56  80
ATOM     80  C   UNL A   1      46.139  26.557  27.984  1.00  0.00     0.023 A 
ATOM     81  C   UNL A   1      46.580  27.682  27.263  1.00  0.00     0.012 A 
ATOM     82  C   UNL A   1      45.881  25.354  27.300  1.00  0.00     0.148 A 
ATOM     83  C   UNL A   1      46.757  27.613  25.881  1.00  0.00     0.002 A 
ATOM     84  C   UNL A   1      46.102  25.278  25.930  1.00  0.00     0.091 A 
ATOM     85  F   UNL A   1      45.453  24.300  28.009  1.00  0.00    -0.205 F 
ATOM     86  C   UNL A   1      46.531  26.410  25.217  1.00  0.00     0.022 A 
BRANCH  84  87
ATOM     87  S   UNL A   1      45.947  23.745  25.007  1.00  0.00     0.127 S 
ATOM     88  O   UNL A   1      46.820  23.996  23.863  1.00  0.00    -0.237 OA
ATOM     89  O   UNL A   1      46.455  22.764  25.967  1.00  0.00    -0.237 OA
ATOM     90  O   UNL A   1      44.530  23.610  24.699  1.00  0.00    -0.744 OA
ENDBRANCH  84  87
ENDBRANCH  56  80
BRANCH  68  91
ATOM     91  C   UNL A   1      50.473  25.143  33.281  1.00  0.00     0.023 A 
ATOM     92  C   UNL A   1      51.500  26.077  33.505  1.00  0.00     0.012 A 
ATOM     93  C   UNL A   1      50.773  23.767  33.247  1.00  0.00     0.148 A 
ATOM     94  C   UNL A   1      52.814  25.650  33.689  1.00  0.00     0.002 A 
ATOM     95  C   UNL A   1      52.080  23.347  33.463  1.00  0.00     0.091 A 
ATOM     96  F   UNL A   1      49.776  22.901  33.020  1.00  0.00    -0.205 F 
ATOM     97  C   UNL A   1      53.101  24.286  33.680  1.00  0.00     0.022 A 
BRANCH  95  98
ATOM     98  S   UNL A   1      52.535  21.611  33.543  1.00  0.00     0.127 S 
ATOM     99  O   UNL A   1      52.182  21.149  32.200  1.00  0.00    -0.237 OA
ATOM    100  O   UNL A   1      53.972  21.680  33.807  1.00  0.00    -0.237 OA
ATOM    101  O   UNL A   1      51.746  21.036  34.623  1.00  0.00    -0.744 OA
ENDBRANCH  95  98
ENDBRANCH  68  91
ENDBRANCH  42  43
ENDBRANCH  35  37
ENDBRANCH  34  35
ENDBRANCH   1  34
TORSDOF 16
ENDMDL
