MODEL 1
REMARK VINA RESULT:     -12.9      0.000      0.000
REMARK SMILES Cc1ccc(C(=O)OCCOC(=O)c2ccc(-c3c4nc(c(-c5cccc(S(=O)(=O)[O-])c5F)c5ccc([nH]5)c(-c5cccc(S(=O)(=O)[O-])c5F)c5nc(c(-c6cccc(S(=O)(=O)[O-])c6F)c6ccc3[nH]6)C=C5)C=C4)cc2)c2c1N[C@H](c1ccccc1F)[C@H]1CC=C[C@@H]21
REMARK SMILES IDX 10 1 9 2 8 3 6 4 7 5 5 6 1 7 2 8 3 9 78 10 4 11 77 12 79 13
REMARK SMILES IDX 92 14 80 15 88 17 91 18 89 19 90 20 81 21 82 22 86 23 83 24
REMARK SMILES IDX 85 25 87 26 84 27 11 28 12 29 13 30 14 31 15 32 76 33 16 34
REMARK SMILES IDX 75 35 17 36 18 37 19 38 69 39 20 40 74 41 68 42 70 43 21 44
REMARK SMILES IDX 73 45 67 46 66 47 22 49 54 50 34 51 53 52 35 53 38 54 52 55
REMARK SMILES IDX 71 56 36 57 37 58 51 60 72 61 39 62 23 63 24 64 32 65 25 66
REMARK SMILES IDX 27 67 33 68 26 69 28 70 29 71 30 72 31 73 55 74 56 75 64 76
REMARK SMILES IDX 57 77 59 78 65 79 58 80 60 81 61 82 62 83 63 84 40 85 41 86
REMARK SMILES IDX 49 87 42 88 44 89 50 90 43 91 45 92 46 93 47 94 48 95
REMARK H PARENT 79 16 70 48 38 59
REMARK Flexibility Score: inf
ROOT
ATOM      1  C   UNL A   1      31.415  30.046  25.355  1.00  0.00     0.275 C 
ENDROOT
BRANCH   1   2
ATOM      2  C   UNL A   1      32.302  29.279  24.374  1.00  0.00     0.275 C 
BRANCH   2   3
ATOM      3  O   UNL A   1      31.914  27.889  24.309  1.00  0.00    -0.458 OA
BRANCH   3   4
ATOM      4  C   UNL A   1      32.721  27.012  24.972  1.00  0.00     0.338 C 
ATOM      5  O   UNL A   1      33.913  27.150  25.135  1.00  0.00    -0.246 OA
BRANCH   4   6
ATOM      6  C   UNL A   1      31.913  25.841  25.451  1.00  0.00     0.065 A 
ATOM      7  C   UNL A   1      29.421  22.677  26.988  1.00  0.00     0.046 C 
ATOM      8  C   UNL A   1      30.372  23.737  26.498  1.00  0.00    -0.028 A 
ATOM      9  C   UNL A   1      30.133  25.062  26.891  1.00  0.00     0.006 A 
ATOM     10  C   UNL A   1      31.407  23.446  25.580  1.00  0.00     0.042 A 
ATOM     11  C   UNL A   1      30.918  26.099  26.402  1.00  0.00     0.016 A 
ATOM     12  C   UNL A   1      32.117  24.515  24.978  1.00  0.00    -0.003 A 
ATOM     13  N   UNL A   1      31.702  22.129  25.262  1.00  0.00    -0.377 N 
ATOM     14  C   UNL A   1      33.142  24.213  23.910  1.00  0.00     0.050 C 
ATOM     15  C   UNL A   1      32.364  21.786  24.021  1.00  0.00     0.117 C 
ATOM     16  H   UNL A   1      31.458  21.413  25.892  1.00  0.00     0.161 HD
ATOM     17  C   UNL A   1      33.532  22.734  23.727  1.00  0.00     0.031 C 
ATOM     18  C   UNL A   1      32.784  24.608  22.502  1.00  0.00    -0.023 C 
ATOM     19  C   UNL A   1      33.942  22.587  22.246  1.00  0.00     0.034 C 
ATOM     20  C   UNL A   1      33.266  23.747  21.599  1.00  0.00    -0.030 C 
BRANCH  15  21
ATOM     21  C   UNL A   1      32.753  20.311  23.989  1.00  0.00     0.010 A 
ATOM     22  C   UNL A   1      32.125  19.457  23.066  1.00  0.00     0.009 A 
ATOM     23  C   UNL A   1      33.798  19.776  24.757  1.00  0.00     0.128 A 
ATOM     24  C   UNL A   1      32.593  18.155  22.860  1.00  0.00     0.001 A 
ATOM     25  C   UNL A   1      34.289  18.492  24.531  1.00  0.00     0.039 A 
ATOM     26  F   UNL A   1      34.372  20.495  25.726  1.00  0.00    -0.207 F 
ATOM     27  C   UNL A   1      33.695  17.683  23.569  1.00  0.00     0.003 A 
ENDBRANCH  15  21
ENDBRANCH   4   6
ENDBRANCH   3   4
ENDBRANCH   2   3
ENDBRANCH   1   2
BRANCH   1  28
ATOM     28  O   UNL A   1      32.038  30.059  26.649  1.00  0.00    -0.458 OA
BRANCH  28  29
ATOM     29  C   UNL A   1      32.660  31.206  27.014  1.00  0.00     0.338 C 
ATOM     30  O   UNL A   1      32.157  32.317  27.075  1.00  0.00    -0.246 OA
BRANCH  29  31
ATOM     31  C   UNL A   1      34.072  30.930  27.379  1.00  0.00     0.060 A 
ATOM     32  C   UNL A   1      34.555  29.629  27.418  1.00  0.00     0.016 A 
ATOM     33  C   UNL A   1      34.900  31.968  27.813  1.00  0.00     0.016 A 
ATOM     34  C   UNL A   1      35.778  29.361  28.042  1.00  0.00     0.010 A 
ATOM     35  C   UNL A   1      36.177  31.691  28.337  1.00  0.00     0.010 A 
ATOM     36  C   UNL A   1      36.610  30.373  28.555  1.00  0.00    -0.014 A 
BRANCH  36  37
ATOM     37  C   UNL A   1      37.835  30.063  29.396  1.00  0.00     0.031 A 
ATOM     38  C   UNL A   1      39.012  29.283  28.813  1.00  0.00     0.074 A 
ATOM     39  C   UNL A   1      37.988  30.523  30.662  1.00  0.00     0.049 A 
ATOM     40  N   UNL A   1      40.050  28.764  29.428  1.00  0.00    -0.248 NA
ATOM     41  C   UNL A   1      39.027  29.050  27.359  1.00  0.00     0.031 C 
ATOM     42  C   UNL A   1      37.027  31.339  31.401  1.00  0.00     0.029 A 
ATOM     43  N   UNL A   1      39.043  30.396  31.545  1.00  0.00    -0.354 N 
ATOM     44  C   UNL A   1      40.778  28.078  28.459  1.00  0.00     0.074 A 
ATOM     45  C   UNL A   1      40.079  28.256  27.207  1.00  0.00     0.031 C 
ATOM     46  C   UNL A   1      37.569  31.727  32.564  1.00  0.00     0.029 A 
ATOM     47  C   UNL A   1      38.856  31.064  32.736  1.00  0.00     0.049 A 
ATOM     48  H   UNL A   1      39.853  29.875  31.344  1.00  0.00     0.167 HD
ATOM     49  C   UNL A   1      41.939  27.389  28.576  1.00  0.00     0.034 A 
ATOM     50  C   UNL A   1      39.584  31.107  33.873  1.00  0.00     0.034 A 
ATOM     51  C   UNL A   1      42.731  27.295  29.772  1.00  0.00     0.049 A 
ATOM     52  C   UNL A   1      40.825  30.273  34.010  1.00  0.00     0.074 A 
ATOM     53  C   UNL A   1      43.919  26.604  29.958  1.00  0.00     0.029 A 
ATOM     54  N   UNL A   1      42.448  27.928  30.967  1.00  0.00    -0.354 N 
ATOM     55  N   UNL A   1      41.449  29.572  33.100  1.00  0.00    -0.248 NA
ATOM     56  C   UNL A   1      41.445  30.213  35.345  1.00  0.00     0.031 C 
ATOM     57  C   UNL A   1      44.355  26.822  31.267  1.00  0.00     0.029 A 
ATOM     58  C   UNL A   1      43.440  27.649  31.892  1.00  0.00     0.049 A 
ATOM     59  H   UNL A   1      41.659  28.493  31.135  1.00  0.00     0.167 HD
ATOM     60  C   UNL A   1      42.532  28.987  33.749  1.00  0.00     0.074 A 
ATOM     61  C   UNL A   1      42.498  29.437  35.124  1.00  0.00     0.031 C 
ATOM     62  C   UNL A   1      43.449  28.130  33.246  1.00  0.00     0.034 A 
BRANCH  49  63
ATOM     63  C   UNL A   1      42.482  26.686  27.360  1.00  0.00     0.023 A 
ATOM     64  C   UNL A   1      43.374  27.364  26.508  1.00  0.00     0.012 A 
ATOM     65  C   UNL A   1      42.232  25.314  27.159  1.00  0.00     0.148 A 
ATOM     66  C   UNL A   1      44.010  26.686  25.468  1.00  0.00     0.002 A 
ATOM     67  C   UNL A   1      42.891  24.638  26.139  1.00  0.00     0.091 A 
ATOM     68  F   UNL A   1      41.378  24.695  27.986  1.00  0.00    -0.205 F 
ATOM     69  C   UNL A   1      43.779  25.323  25.292  1.00  0.00     0.022 A 
BRANCH  67  70
ATOM     70  S   UNL A   1      42.715  22.871  25.869  1.00  0.00     0.127 S 
ATOM     71  O   UNL A   1      41.269  22.695  26.010  1.00  0.00    -0.237 OA
ATOM     72  O   UNL A   1      43.219  22.717  24.505  1.00  0.00    -0.237 OA
ATOM     73  O   UNL A   1      43.518  22.223  26.896  1.00  0.00    -0.744 OA
ENDBRANCH  67  70
ENDBRANCH  49  63
BRANCH  50  74
ATOM     74  C   UNL A   1      39.121  31.950  35.014  1.00  0.00     0.023 A 
ATOM     75  C   UNL A   1      38.203  31.421  35.941  1.00  0.00     0.012 A 
ATOM     76  C   UNL A   1      39.622  33.253  35.206  1.00  0.00     0.148 A 
ATOM     77  C   UNL A   1      37.799  32.174  37.044  1.00  0.00     0.002 A 
ATOM     78  C   UNL A   1      39.265  33.971  36.338  1.00  0.00     0.091 A 
ATOM     79  F   UNL A   1      40.465  33.747  34.289  1.00  0.00    -0.205 F 
ATOM     80  C   UNL A   1      38.343  33.440  37.253  1.00  0.00     0.022 A 
BRANCH  78  81
ATOM     81  S   UNL A   1      40.025  35.543  36.756  1.00  0.00     0.127 S 
ATOM     82  O   UNL A   1      39.576  36.393  35.655  1.00  0.00    -0.237 OA
ATOM     83  O   UNL A   1      39.412  35.837  38.051  1.00  0.00    -0.237 OA
ATOM     84  O   UNL A   1      41.457  35.288  36.812  1.00  0.00    -0.744 OA
ENDBRANCH  78  81
ENDBRANCH  50  74
BRANCH  62  85
ATOM     85  C   UNL A   1      44.524  27.611  34.160  1.00  0.00     0.023 A 
ATOM     86  C   UNL A   1      45.696  28.369  34.345  1.00  0.00     0.012 A 
ATOM     87  C   UNL A   1      44.321  26.446  34.927  1.00  0.00     0.148 A 
ATOM     88  C   UNL A   1      46.655  27.972  35.277  1.00  0.00     0.002 A 
ATOM     89  C   UNL A   1      45.267  26.074  35.875  1.00  0.00     0.091 A 
ATOM     90  F   UNL A   1      43.199  25.740  34.726  1.00  0.00    -0.205 F 
ATOM     91  C   UNL A   1      46.436  26.834  36.049  1.00  0.00     0.022 A 
BRANCH  89  92
ATOM     92  S   UNL A   1      45.044  24.663  36.966  1.00  0.00     0.127 S 
ATOM     93  O   UNL A   1      46.269  24.707  37.763  1.00  0.00    -0.237 OA
ATOM     94  O   UNL A   1      43.828  25.024  37.694  1.00  0.00    -0.237 OA
ATOM     95  O   UNL A   1      44.913  23.499  36.100  1.00  0.00    -0.744 OA
ENDBRANCH  89  92
ENDBRANCH  62  85
ENDBRANCH  36  37
ENDBRANCH  29  31
ENDBRANCH  28  29
ENDBRANCH   1  28
TORSDOF 15
ENDMDL
MODEL 2
REMARK VINA RESULT:     -12.9      1.591      2.310
REMARK SMILES Cc1ccc(C(=O)OCCOC(=O)c2ccc(-c3c4nc(c(-c5cccc(S(=O)(=O)[O-])c5F)c5ccc([nH]5)c(-c5cccc(S(=O)(=O)[O-])c5F)c5nc(c(-c6cccc(S(=O)(=O)[O-])c6F)c6ccc3[nH]6)C=C5)C=C4)cc2)c2c1N[C@H](c1ccccc1F)[C@H]1CC=C[C@@H]21
REMARK SMILES IDX 10 1 9 2 8 3 6 4 7 5 5 6 1 7 2 8 3 9 78 10 4 11 77 12 79 13
REMARK SMILES IDX 92 14 80 15 88 17 91 18 89 19 90 20 81 21 82 22 86 23 83 24
REMARK SMILES IDX 85 25 87 26 84 27 11 28 12 29 13 30 14 31 15 32 76 33 16 34
REMARK SMILES IDX 75 35 17 36 18 37 19 38 69 39 20 40 74 41 68 42 70 43 21 44
REMARK SMILES IDX 73 45 67 46 66 47 22 49 54 50 34 51 53 52 35 53 38 54 52 55
REMARK SMILES IDX 71 56 36 57 37 58 51 60 72 61 39 62 23 63 24 64 32 65 25 66
REMARK SMILES IDX 27 67 33 68 26 69 28 70 29 71 30 72 31 73 55 74 56 75 64 76
REMARK SMILES IDX 57 77 59 78 65 79 58 80 60 81 61 82 62 83 63 84 40 85 41 86
REMARK SMILES IDX 49 87 42 88 44 89 50 90 43 91 45 92 46 93 47 94 48 95
REMARK H PARENT 79 16 70 48 38 59
REMARK Flexibility Score: inf
ROOT
ATOM      1  C   UNL A   1      31.770  29.417  26.769  1.00  0.00     0.275 C 
ENDROOT
BRANCH   1   2
ATOM      2  C   UNL A   1      32.046  27.998  27.265  1.00  0.00     0.275 C 
BRANCH   2   3
ATOM      3  O   UNL A   1      32.389  27.127  26.166  1.00  0.00    -0.458 OA
BRANCH   3   4
ATOM      4  C   UNL A   1      31.498  26.132  25.891  1.00  0.00     0.338 C 
ATOM      5  O   UNL A   1      30.502  25.892  26.537  1.00  0.00    -0.246 OA
BRANCH   4   6
ATOM      6  C   UNL A   1      31.948  25.368  24.680  1.00  0.00     0.065 A 
ATOM      7  C   UNL A   1      33.195  23.429  21.037  1.00  0.00     0.046 C 
ATOM      8  C   UNL A   1      32.682  24.037  22.316  1.00  0.00    -0.028 A 
ATOM      9  C   UNL A   1      32.271  25.378  22.283  1.00  0.00     0.006 A 
ATOM     10  C   UNL A   1      32.714  23.336  23.543  1.00  0.00     0.042 A 
ATOM     11  C   UNL A   1      31.873  26.026  23.446  1.00  0.00     0.016 A 
ATOM     12  C   UNL A   1      32.440  24.035  24.745  1.00  0.00    -0.003 A 
ATOM     13  N   UNL A   1      33.033  21.986  23.562  1.00  0.00    -0.377 N 
ATOM     14  C   UNL A   1      32.589  23.318  26.067  1.00  0.00     0.050 C 
ATOM     15  C   UNL A   1      33.555  21.355  24.755  1.00  0.00     0.117 C 
ATOM     16  H   UNL A   1      32.901  21.446  22.749  1.00  0.00     0.161 HD
ATOM     17  C   UNL A   1      32.783  21.791  26.006  1.00  0.00     0.031 C 
ATOM     18  C   UNL A   1      33.746  23.736  26.933  1.00  0.00    -0.023 C 
ATOM     19  C   UNL A   1      33.601  21.420  27.261  1.00  0.00     0.034 C 
ATOM     20  C   UNL A   1      34.260  22.708  27.619  1.00  0.00    -0.030 C 
BRANCH  15  21
ATOM     21  C   UNL A   1      33.642  19.841  24.589  1.00  0.00     0.010 A 
ATOM     22  C   UNL A   1      32.480  19.120  24.264  1.00  0.00     0.009 A 
ATOM     23  C   UNL A   1      34.852  19.133  24.626  1.00  0.00     0.128 A 
ATOM     24  C   UNL A   1      32.551  17.771  23.900  1.00  0.00     0.001 A 
ATOM     25  C   UNL A   1      34.933  17.800  24.232  1.00  0.00     0.039 A 
ATOM     26  F   UNL A   1      35.980  19.728  25.028  1.00  0.00    -0.207 F 
ATOM     27  C   UNL A   1      33.782  17.119  23.853  1.00  0.00     0.003 A 
ENDBRANCH  15  21
ENDBRANCH   4   6
ENDBRANCH   3   4
ENDBRANCH   2   3
ENDBRANCH   1   2
BRANCH   1  28
ATOM     28  O   UNL A   1      33.005  30.028  26.363  1.00  0.00    -0.458 OA
BRANCH  28  29
ATOM     29  C   UNL A   1      33.498  31.000  27.170  1.00  0.00     0.338 C 
ATOM     30  O   UNL A   1      32.891  31.973  27.587  1.00  0.00    -0.246 OA
BRANCH  29  31
ATOM     31  C   UNL A   1      34.909  30.705  27.524  1.00  0.00     0.060 A 
ATOM     32  C   UNL A   1      35.403  29.409  27.460  1.00  0.00     0.016 A 
ATOM     33  C   UNL A   1      35.723  31.710  28.051  1.00  0.00     0.016 A 
ATOM     34  C   UNL A   1      36.622  29.101  28.072  1.00  0.00     0.010 A 
ATOM     35  C   UNL A   1      36.997  31.401  28.564  1.00  0.00     0.010 A 
ATOM     36  C   UNL A   1      37.440  30.073  28.676  1.00  0.00    -0.014 A 
BRANCH  36  37
ATOM     37  C   UNL A   1      38.659  29.703  29.500  1.00  0.00     0.031 A 
ATOM     38  C   UNL A   1      39.743  28.787  28.935  1.00  0.00     0.074 A 
ATOM     39  C   UNL A   1      38.895  30.223  30.730  1.00  0.00     0.049 A 
ATOM     40  N   UNL A   1      40.750  28.212  29.553  1.00  0.00    -0.248 NA
ATOM     41  C   UNL A   1      39.689  28.466  27.499  1.00  0.00     0.031 C 
ATOM     42  C   UNL A   1      38.035  31.165  31.443  1.00  0.00     0.029 A 
ATOM     43  N   UNL A   1      39.963  30.053  31.590  1.00  0.00    -0.354 N 
ATOM     44  C   UNL A   1      41.382  27.406  28.609  1.00  0.00     0.074 A 
ATOM     45  C   UNL A   1      40.660  27.571  27.368  1.00  0.00     0.031 C 
ATOM     46  C   UNL A   1      38.648  31.572  32.564  1.00  0.00     0.029 A 
ATOM     47  C   UNL A   1      39.876  30.806  32.741  1.00  0.00     0.049 A 
ATOM     48  H   UNL A   1      40.717  29.449  31.399  1.00  0.00     0.167 HD
ATOM     49  C   UNL A   1      42.480  26.623  28.737  1.00  0.00     0.034 A 
ATOM     50  C   UNL A   1      40.642  30.850  33.853  1.00  0.00     0.034 A 
ATOM     51  C   UNL A   1      43.300  26.529  29.914  1.00  0.00     0.049 A 
ATOM     52  C   UNL A   1      41.809  29.917  34.008  1.00  0.00     0.074 A 
ATOM     53  C   UNL A   1      44.426  25.746  30.110  1.00  0.00     0.029 A 
ATOM     54  N   UNL A   1      43.114  27.256  31.074  1.00  0.00    -0.354 N 
ATOM     55  N   UNL A   1      42.337  29.108  33.127  1.00  0.00    -0.248 NA
ATOM     56  C   UNL A   1      42.464  29.881  35.326  1.00  0.00     0.031 C 
ATOM     57  C   UNL A   1      44.923  26.000  31.390  1.00  0.00     0.029 A 
ATOM     58  C   UNL A   1      44.107  26.944  31.987  1.00  0.00     0.049 A 
ATOM     59  H   UNL A   1      42.384  27.899  31.228  1.00  0.00     0.167 HD
ATOM     60  C   UNL A   1      43.384  28.468  33.781  1.00  0.00     0.074 A 
ATOM     61  C   UNL A   1      43.436  29.001  35.125  1.00  0.00     0.031 C 
ATOM     62  C   UNL A   1      44.204  27.502  33.307  1.00  0.00     0.034 A 
BRANCH  49  63
ATOM     63  C   UNL A   1      42.918  25.802  27.553  1.00  0.00     0.023 A 
ATOM     64  C   UNL A   1      43.942  26.283  26.716  1.00  0.00     0.012 A 
ATOM     65  C   UNL A   1      42.424  24.494  27.371  1.00  0.00     0.148 A 
ATOM     66  C   UNL A   1      44.470  25.473  25.710  1.00  0.00     0.002 A 
ATOM     67  C   UNL A   1      42.976  23.683  26.386  1.00  0.00     0.091 A 
ATOM     68  F   UNL A   1      41.449  24.064  28.183  1.00  0.00    -0.205 F 
ATOM     69  C   UNL A   1      43.997  24.172  25.554  1.00  0.00     0.022 A 
BRANCH  67  70
ATOM     70  S   UNL A   1      42.485  21.972  26.146  1.00  0.00     0.127 S 
ATOM     71  O   UNL A   1      43.390  21.554  25.075  1.00  0.00    -0.237 OA
ATOM     72  O   UNL A   1      42.774  21.383  27.453  1.00  0.00    -0.237 OA
ATOM     73  O   UNL A   1      41.075  22.003  25.785  1.00  0.00    -0.744 OA
ENDBRANCH  67  70
ENDBRANCH  49  63
BRANCH  50  74
ATOM     74  C   UNL A   1      40.295  31.799  34.951  1.00  0.00     0.023 A 
ATOM     75  C   UNL A   1      40.872  33.084  34.967  1.00  0.00     0.012 A 
ATOM     76  C   UNL A   1      39.364  31.450  35.948  1.00  0.00     0.148 A 
ATOM     77  C   UNL A   1      40.519  34.005  35.954  1.00  0.00     0.002 A 
ATOM     78  C   UNL A   1      38.971  32.391  36.889  1.00  0.00     0.091 A 
ATOM     79  F   UNL A   1      38.859  30.208  35.933  1.00  0.00    -0.205 F 
ATOM     80  C   UNL A   1      39.557  33.666  36.903  1.00  0.00     0.022 A 
BRANCH  78  81
ATOM     81  S   UNL A   1      37.639  32.085  38.054  1.00  0.00     0.127 S 
ATOM     82  O   UNL A   1      36.618  33.022  37.590  1.00  0.00    -0.237 OA
ATOM     83  O   UNL A   1      37.341  30.675  37.805  1.00  0.00    -0.237 OA
ATOM     84  O   UNL A   1      38.195  32.360  39.371  1.00  0.00    -0.744 OA
ENDBRANCH  78  81
ENDBRANCH  50  74
BRANCH  62  85
ATOM     85  C   UNL A   1      45.258  26.943  34.222  1.00  0.00     0.023 A 
ATOM     86  C   UNL A   1      46.507  27.588  34.309  1.00  0.00     0.012 A 
ATOM     87  C   UNL A   1      44.971  25.864  35.082  1.00  0.00     0.148 A 
ATOM     88  C   UNL A   1      47.458  27.164  35.236  1.00  0.00     0.002 A 
ATOM     89  C   UNL A   1      45.913  25.467  36.024  1.00  0.00     0.091 A 
ATOM     90  F   UNL A   1      43.776  25.265  34.974  1.00  0.00    -0.205 F 
ATOM     91  C   UNL A   1      47.158  26.113  36.100  1.00  0.00     0.022 A 
BRANCH  89  92
ATOM     92  S   UNL A   1      45.595  24.169  37.227  1.00  0.00     0.127 S 
ATOM     93  O   UNL A   1      46.854  24.137  37.969  1.00  0.00    -0.237 OA
ATOM     94  O   UNL A   1      44.460  24.711  37.973  1.00  0.00    -0.237 OA
ATOM     95  O   UNL A   1      45.301  22.967  36.457  1.00  0.00    -0.744 OA
ENDBRANCH  89  92
ENDBRANCH  62  85
ENDBRANCH  36  37
ENDBRANCH  29  31
ENDBRANCH  28  29
ENDBRANCH   1  28
TORSDOF 15
ENDMDL
MODEL 3
REMARK VINA RESULT:     -12.8      4.805      9.970
REMARK SMILES Cc1ccc(C(=O)OCCOC(=O)c2ccc(-c3c4nc(c(-c5cccc(S(=O)(=O)[O-])c5F)c5ccc([nH]5)c(-c5cccc(S(=O)(=O)[O-])c5F)c5nc(c(-c6cccc(S(=O)(=O)[O-])c6F)c6ccc3[nH]6)C=C5)C=C4)cc2)c2c1N[C@H](c1ccccc1F)[C@H]1CC=C[C@@H]21
REMARK SMILES IDX 10 1 9 2 8 3 6 4 7 5 5 6 1 7 2 8 3 9 78 10 4 11 77 12 79 13
REMARK SMILES IDX 92 14 80 15 88 17 91 18 89 19 90 20 81 21 82 22 86 23 83 24
REMARK SMILES IDX 85 25 87 26 84 27 11 28 12 29 13 30 14 31 15 32 76 33 16 34
REMARK SMILES IDX 75 35 17 36 18 37 19 38 69 39 20 40 74 41 68 42 70 43 21 44
REMARK SMILES IDX 73 45 67 46 66 47 22 49 54 50 34 51 53 52 35 53 38 54 52 55
REMARK SMILES IDX 71 56 36 57 37 58 51 60 72 61 39 62 23 63 24 64 32 65 25 66
REMARK SMILES IDX 27 67 33 68 26 69 28 70 29 71 30 72 31 73 55 74 56 75 64 76
REMARK SMILES IDX 57 77 59 78 65 79 58 80 60 81 61 82 62 83 63 84 40 85 41 86
REMARK SMILES IDX 49 87 42 88 44 89 50 90 43 91 45 92 46 93 47 94 48 95
REMARK H PARENT 79 16 70 48 38 59
REMARK Flexibility Score: inf
ROOT
ATOM      1  C   UNL A   1      36.336  21.791  23.949  1.00  0.00     0.275 C 
ENDROOT
BRANCH   1   2
ATOM      2  C   UNL A   1      36.318  23.252  23.502  1.00  0.00     0.275 C 
BRANCH   2   3
ATOM      3  O   UNL A   1      35.139  23.926  23.993  1.00  0.00    -0.458 OA
BRANCH   3   4
ATOM      4  C   UNL A   1      34.026  23.830  23.210  1.00  0.00     0.338 C 
ATOM      5  O   UNL A   1      34.021  23.488  22.048  1.00  0.00    -0.246 OA
BRANCH   4   6
ATOM      6  C   UNL A   1      32.814  24.230  24.000  1.00  0.00     0.065 A 
ATOM      7  C   UNL A   1      29.354  25.111  26.416  1.00  0.00     0.046 C 
ATOM      8  C   UNL A   1      30.501  24.809  25.489  1.00  0.00    -0.028 A 
ATOM      9  C   UNL A   1      31.166  23.584  25.647  1.00  0.00     0.006 A 
ATOM     10  C   UNL A   1      30.983  25.760  24.560  1.00  0.00     0.042 A 
ATOM     11  C   UNL A   1      32.288  23.282  24.886  1.00  0.00     0.016 A 
ATOM     12  C   UNL A   1      32.203  25.509  23.884  1.00  0.00    -0.003 A 
ATOM     13  N   UNL A   1      30.275  26.932  24.338  1.00  0.00    -0.377 N 
ATOM     14  C   UNL A   1      32.780  26.575  22.981  1.00  0.00     0.050 C 
ATOM     15  C   UNL A   1      30.925  28.114  23.814  1.00  0.00     0.117 C 
ATOM     16  H   UNL A   1      29.311  26.960  24.538  1.00  0.00     0.161 HD
ATOM     17  C   UNL A   1      31.867  27.772  22.655  1.00  0.00     0.031 C 
ATOM     18  C   UNL A   1      34.025  27.268  23.467  1.00  0.00    -0.023 C 
ATOM     19  C   UNL A   1      32.812  28.965  22.400  1.00  0.00     0.034 C 
ATOM     20  C   UNL A   1      34.060  28.555  23.104  1.00  0.00    -0.030 C 
BRANCH  15  21
ATOM     21  C   UNL A   1      29.910  29.201  23.475  1.00  0.00     0.010 A 
ATOM     22  C   UNL A   1      28.872  28.911  22.572  1.00  0.00     0.009 A 
ATOM     23  C   UNL A   1      29.882  30.451  24.110  1.00  0.00     0.128 A 
ATOM     24  C   UNL A   1      27.808  29.801  22.391  1.00  0.00     0.001 A 
ATOM     25  C   UNL A   1      28.808  31.326  23.961  1.00  0.00     0.039 A 
ATOM     26  F   UNL A   1      30.888  30.839  24.902  1.00  0.00    -0.207 F 
ATOM     27  C   UNL A   1      27.759  30.994  23.110  1.00  0.00     0.003 A 
ENDBRANCH  15  21
ENDBRANCH   4   6
ENDBRANCH   3   4
ENDBRANCH   2   3
ENDBRANCH   1   2
BRANCH   1  28
ATOM     28  O   UNL A   1      36.724  21.720  25.330  1.00  0.00    -0.458 OA
BRANCH  28  29
ATOM     29  C   UNL A   1      38.029  21.459  25.584  1.00  0.00     0.338 C 
ATOM     30  O   UNL A   1      38.658  20.480  25.213  1.00  0.00    -0.246 OA
BRANCH  29  31
ATOM     31  C   UNL A   1      38.631  22.566  26.368  1.00  0.00     0.060 A 
ATOM     32  C   UNL A   1      38.012  23.807  26.438  1.00  0.00     0.016 A 
ATOM     33  C   UNL A   1      39.895  22.412  26.941  1.00  0.00     0.016 A 
ATOM     34  C   UNL A   1      38.724  24.911  26.919  1.00  0.00     0.010 A 
ATOM     35  C   UNL A   1      40.554  23.511  27.523  1.00  0.00     0.010 A 
ATOM     36  C   UNL A   1      40.027  24.810  27.441  1.00  0.00    -0.014 A 
BRANCH  36  37
ATOM     37  C   UNL A   1      40.857  26.034  27.780  1.00  0.00     0.031 A 
ATOM     38  C   UNL A   1      40.328  27.105  28.732  1.00  0.00     0.074 A 
ATOM     39  C   UNL A   1      42.126  26.202  27.334  1.00  0.00     0.049 A 
ATOM     40  N   UNL A   1      40.810  28.300  28.987  1.00  0.00    -0.248 NA
ATOM     41  C   UNL A   1      39.100  26.804  29.487  1.00  0.00     0.031 C 
ATOM     42  C   UNL A   1      42.862  25.282  26.469  1.00  0.00     0.029 A 
ATOM     43  N   UNL A   1      43.044  27.205  27.584  1.00  0.00    -0.354 N 
ATOM     44  C   UNL A   1      39.904  28.911  29.852  1.00  0.00     0.074 A 
ATOM     45  C   UNL A   1      38.848  27.956  30.095  1.00  0.00     0.031 C 
ATOM     46  C   UNL A   1      44.131  25.696  26.350  1.00  0.00     0.029 A 
ATOM     47  C   UNL A   1      44.272  26.996  26.996  1.00  0.00     0.049 A 
ATOM     48  H   UNL A   1      42.838  27.997  28.131  1.00  0.00     0.167 HD
ATOM     49  C   UNL A   1      39.950  30.138  30.425  1.00  0.00     0.034 A 
ATOM     50  C   UNL A   1      45.378  27.766  26.913  1.00  0.00     0.034 A 
ATOM     51  C   UNL A   1      41.042  31.067  30.311  1.00  0.00     0.049 A 
ATOM     52  C   UNL A   1      45.380  29.154  27.487  1.00  0.00     0.074 A 
ATOM     53  C   UNL A   1      41.146  32.334  30.865  1.00  0.00     0.029 A 
ATOM     54  N   UNL A   1      42.223  30.829  29.636  1.00  0.00    -0.354 N 
ATOM     55  N   UNL A   1      44.478  29.736  28.233  1.00  0.00    -0.248 NA
ATOM     56  C   UNL A   1      46.543  30.003  27.176  1.00  0.00     0.031 C 
ATOM     57  C   UNL A   1      42.394  32.862  30.525  1.00  0.00     0.029 A 
ATOM     58  C   UNL A   1      43.064  31.922  29.764  1.00  0.00     0.049 A 
ATOM     59  H   UNL A   1      42.435  30.006  29.139  1.00  0.00     0.167 HD
ATOM     60  C   UNL A   1      44.962  31.017  28.482  1.00  0.00     0.074 A 
ATOM     61  C   UNL A   1      46.250  31.119  27.831  1.00  0.00     0.031 C 
ATOM     62  C   UNL A   1      44.367  32.020  29.167  1.00  0.00     0.034 A 
BRANCH  49  63
ATOM     63  C   UNL A   1      38.792  30.573  31.284  1.00  0.00     0.023 A 
ATOM     64  C   UNL A   1      38.878  30.440  32.683  1.00  0.00     0.012 A 
ATOM     65  C   UNL A   1      37.697  31.253  30.713  1.00  0.00     0.148 A 
ATOM     66  C   UNL A   1      37.888  30.978  33.505  1.00  0.00     0.002 A 
ATOM     67  C   UNL A   1      36.730  31.811  31.540  1.00  0.00     0.091 A 
ATOM     68  F   UNL A   1      37.642  31.363  29.379  1.00  0.00    -0.205 F 
ATOM     69  C   UNL A   1      36.823  31.673  32.935  1.00  0.00     0.022 A 
BRANCH  67  70
ATOM     70  S   UNL A   1      35.355  32.782  30.912  1.00  0.00     0.127 S 
ATOM     71  O   UNL A   1      36.036  33.988  30.443  1.00  0.00    -0.237 OA
ATOM     72  O   UNL A   1      34.833  31.923  29.850  1.00  0.00    -0.237 OA
ATOM     73  O   UNL A   1      34.453  32.982  32.038  1.00  0.00    -0.744 OA
ENDBRANCH  67  70
ENDBRANCH  49  63
BRANCH  50  74
ATOM     74  C   UNL A   1      46.586  27.250  26.205  1.00  0.00     0.023 A 
ATOM     75  C   UNL A   1      46.725  27.468  24.821  1.00  0.00     0.012 A 
ATOM     76  C   UNL A   1      47.613  26.587  26.905  1.00  0.00     0.148 A 
ATOM     77  C   UNL A   1      47.872  27.040  24.150  1.00  0.00     0.002 A 
ATOM     78  C   UNL A   1      48.776  26.221  26.244  1.00  0.00     0.091 A 
ATOM     79  F   UNL A   1      47.438  26.358  28.214  1.00  0.00    -0.205 F 
ATOM     80  C   UNL A   1      48.904  26.434  24.863  1.00  0.00     0.022 A 
BRANCH  78  81
ATOM     81  S   UNL A   1      50.207  25.568  27.111  1.00  0.00     0.127 S 
ATOM     82  O   UNL A   1      51.168  25.410  26.022  1.00  0.00    -0.237 OA
ATOM     83  O   UNL A   1      50.509  26.650  28.048  1.00  0.00    -0.237 OA
ATOM     84  O   UNL A   1      49.759  24.334  27.740  1.00  0.00    -0.744 OA
ENDBRANCH  78  81
ENDBRANCH  50  74
BRANCH  62  85
ATOM     85  C   UNL A   1      45.086  33.336  29.282  1.00  0.00     0.023 A 
ATOM     86  C   UNL A   1      46.008  33.527  30.329  1.00  0.00     0.012 A 
ATOM     87  C   UNL A   1      44.945  34.326  28.288  1.00  0.00     0.148 A 
ATOM     88  C   UNL A   1      46.776  34.689  30.390  1.00  0.00     0.002 A 
ATOM     89  C   UNL A   1      45.737  35.467  28.340  1.00  0.00     0.091 A 
ATOM     90  F   UNL A   1      44.057  34.120  27.306  1.00  0.00    -0.205 F 
ATOM     91  C   UNL A   1      46.650  35.653  29.391  1.00  0.00     0.022 A 
BRANCH  89  92
ATOM     92  S   UNL A   1      45.697  36.733  27.065  1.00  0.00     0.127 S 
ATOM     93  O   UNL A   1      46.561  37.763  27.640  1.00  0.00    -0.237 OA
ATOM     94  O   UNL A   1      46.267  36.032  25.915  1.00  0.00    -0.237 OA
ATOM     95  O   UNL A   1      44.299  37.114  26.915  1.00  0.00    -0.744 OA
ENDBRANCH  89  92
ENDBRANCH  62  85
ENDBRANCH  36  37
ENDBRANCH  29  31
ENDBRANCH  28  29
ENDBRANCH   1  28
TORSDOF 15
ENDMDL
