MODEL 1
REMARK VINA RESULT:      -9.9      0.000      0.000
REMARK SMILES COc1ccc(/C=N/NC(=O)c2cc(C)nc3ccccc23)c(C(=O)OCCOC(=O)c2ccc(-c3c4nc(c(-c5cccc(S(=O)(=O)[O-])c5F)c5ccc([nH]5)c(-c5cccc(S(=O)(=O)[O-])c5F)c5nc(c(-c6cccc(S(=O)(=O)[O-])c6F)c6ccc3[nH]6)C=C5)C=C4)cc2)c1OC
REMARK SMILES IDX 27 1 26 2 24 3 25 4 23 5 3 6 4 7 95 8 5 9 6 10 2 11 1 12
REMARK SMILES IDX 96 13 97 14 7 15 8 16 9 17 10 18 11 20 12 21 13 22 22 23
REMARK SMILES IDX 14 24 17 25 21 26 15 27 16 28 18 29 20 30 19 31 28 32 29 33
REMARK SMILES IDX 30 34 31 35 32 36 33 37 94 38 34 39 93 40 35 41 36 42 37 43
REMARK SMILES IDX 87 44 38 45 92 46 86 47 88 48 39 49 91 50 85 51 84 52 40 54
REMARK SMILES IDX 72 55 52 56 71 57 53 58 56 59 70 60 89 61 54 62 55 63 69 65
REMARK SMILES IDX 90 66 57 67 41 68 42 69 50 70 43 71 45 72 51 73 44 74 46 75
REMARK SMILES IDX 47 76 48 77 49 78 73 79 74 80 82 81 75 82 77 83 83 84 76 85
REMARK SMILES IDX 78 86 79 87 80 88 81 89 58 90 59 91 67 92 60 93 62 94 68 95
REMARK SMILES IDX 61 96 63 97 64 98 65 99 66 100
REMARK H PARENT 9 19 88 53 56 64
REMARK Flexibility Score: inf
ROOT
ATOM      1  C   UNL A   1      42.396  22.340  25.406  1.00  0.00     0.275 C 
ENDROOT
BRANCH   1   2
ATOM      2  O   UNL A   1      42.715  21.760  26.679  1.00  0.00    -0.458 OA
BRANCH   2   3
ATOM      3  C   UNL A   1      41.907  22.085  27.733  1.00  0.00     0.342 C 
ATOM      4  O   UNL A   1      41.349  21.239  28.355  1.00  0.00    -0.246 OA
BRANCH   3   5
ATOM      5  C   UNL A   1      41.889  23.606  28.040  1.00  0.00     0.114 A 
ATOM      6  C   UNL A   1      42.969  25.615  29.013  1.00  0.00     0.161 A 
ATOM      7  C   UNL A   1      41.722  26.260  28.991  1.00  0.00     0.051 A 
ATOM      8  C   UNL A   1      43.023  24.259  28.609  1.00  0.00     0.175 A 
ATOM      9  C   UNL A   1      40.581  25.613  28.477  1.00  0.00     0.015 A 
ATOM     10  C   UNL A   1      40.691  24.335  27.879  1.00  0.00     0.013 A 
BRANCH   6  11
ATOM     11  O   UNL A   1      43.950  26.307  29.690  1.00  0.00    -0.493 OA
ATOM     12  C   UNL A   1      44.236  25.936  31.041  1.00  0.00     0.278 C 
ENDBRANCH   6  11
BRANCH   8  13
ATOM     13  O   UNL A   1      44.048  23.392  28.810  1.00  0.00    -0.492 OA
ATOM     14  C   UNL A   1      45.243  23.493  28.112  1.00  0.00     0.278 C 
ENDBRANCH   8  13
BRANCH  10  15
ATOM     15  C   UNL A   1      39.525  23.666  27.236  1.00  0.00     0.142 C 
ATOM     16  N   UNL A   1      38.582  24.264  26.604  1.00  0.00    -0.180 NA
BRANCH  16  17
ATOM     17  N   UNL A   1      37.454  23.459  26.254  1.00  0.00    -0.243 N 
ATOM     18  C   UNL A   1      37.289  22.409  25.251  1.00  0.00     0.272 C 
ATOM     19  H   UNL A   1      36.644  23.645  26.782  1.00  0.00     0.194 HD
ATOM     20  O   UNL A   1      37.908  21.357  25.273  1.00  0.00    -0.267 OA
BRANCH  18  21
ATOM     21  C   UNL A   1      36.176  21.974  24.308  1.00  0.00     0.052 A 
ATOM     22  C   UNL A   1      35.975  20.637  24.741  1.00  0.00     0.038 A 
ATOM     23  C   UNL A   1      34.836  22.842  23.724  1.00  0.00     0.013 A 
ATOM     24  C   UNL A   1      34.673  20.332  24.987  1.00  0.00     0.039 A 
ATOM     25  C   UNL A   1      33.794  22.013  23.983  1.00  0.00     0.071 A 
ATOM     26  C   UNL A   1      33.983  24.051  23.152  1.00  0.00     0.011 A 
ATOM     27  C   UNL A   1      33.905  19.104  24.694  1.00  0.00     0.067 C 
ATOM     28  N   UNL A   1      33.830  21.320  25.062  1.00  0.00    -0.253 NA
ATOM     29  C   UNL A   1      32.554  21.832  23.366  1.00  0.00     0.029 A 
ATOM     30  C   UNL A   1      32.634  23.955  22.557  1.00  0.00     0.001 A 
ATOM     31  C   UNL A   1      31.986  22.747  22.540  1.00  0.00     0.002 A 
ENDBRANCH  18  21
ENDBRANCH  16  17
ENDBRANCH  10  15
ENDBRANCH   3   5
ENDBRANCH   2   3
ENDBRANCH   1   2
BRANCH   1  32
ATOM     32  C   UNL A   1      43.588  23.089  24.784  1.00  0.00     0.275 C 
BRANCH  32  33
ATOM     33  O   UNL A   1      43.409  24.528  24.668  1.00  0.00    -0.458 OA
BRANCH  33  34
ATOM     34  C   UNL A   1      44.520  25.246  24.997  1.00  0.00     0.338 C 
ATOM     35  O   UNL A   1      45.654  24.948  24.635  1.00  0.00    -0.246 OA
BRANCH  34  36
ATOM     36  C   UNL A   1      44.305  26.549  25.694  1.00  0.00     0.060 A 
ATOM     37  C   UNL A   1      45.352  26.934  26.535  1.00  0.00     0.016 A 
ATOM     38  C   UNL A   1      43.170  27.343  25.712  1.00  0.00     0.016 A 
ATOM     39  C   UNL A   1      45.374  28.114  27.315  1.00  0.00     0.010 A 
ATOM     40  C   UNL A   1      43.171  28.554  26.492  1.00  0.00     0.010 A 
ATOM     41  C   UNL A   1      44.335  29.036  27.205  1.00  0.00    -0.014 A 
BRANCH  41  42
ATOM     42  C   UNL A   1      44.511  30.506  27.754  1.00  0.00     0.031 A 
ATOM     43  C   UNL A   1      43.498  30.759  28.810  1.00  0.00     0.074 A 
ATOM     44  C   UNL A   1      45.398  31.560  27.518  1.00  0.00     0.049 A 
ATOM     45  N   UNL A   1      43.359  31.821  29.540  1.00  0.00    -0.248 NA
ATOM     46  C   UNL A   1      42.492  29.704  29.047  1.00  0.00     0.031 C 
ATOM     47  C   UNL A   1      46.410  31.747  26.501  1.00  0.00     0.029 A 
ATOM     48  N   UNL A   1      45.679  32.760  28.188  1.00  0.00    -0.354 N 
ATOM     49  C   UNL A   1      42.237  31.581  30.292  1.00  0.00     0.074 A 
ATOM     50  C   UNL A   1      41.712  30.287  29.935  1.00  0.00     0.031 C 
ATOM     51  C   UNL A   1      47.411  32.558  26.794  1.00  0.00     0.029 A 
ATOM     52  C   UNL A   1      46.808  33.440  27.706  1.00  0.00     0.049 A 
ATOM     53  H   UNL A   1      45.130  33.095  28.933  1.00  0.00     0.167 HD
ATOM     54  C   UNL A   1      41.697  32.401  31.204  1.00  0.00     0.034 A 
ATOM     55  C   UNL A   1      47.325  34.677  27.737  1.00  0.00     0.034 A 
ATOM     56  C   UNL A   1      42.203  33.700  31.503  1.00  0.00     0.049 A 
ATOM     57  C   UNL A   1      46.622  35.581  28.633  1.00  0.00     0.074 A 
ATOM     58  C   UNL A   1      41.693  34.583  32.430  1.00  0.00     0.029 A 
ATOM     59  N   UNL A   1      43.256  34.334  30.864  1.00  0.00    -0.354 N 
ATOM     60  N   UNL A   1      45.591  35.284  29.366  1.00  0.00    -0.248 NA
ATOM     61  C   UNL A   1      47.151  36.930  28.763  1.00  0.00     0.031 C 
ATOM     62  C   UNL A   1      42.378  35.779  32.300  1.00  0.00     0.029 A 
ATOM     63  C   UNL A   1      43.383  35.615  31.365  1.00  0.00     0.049 A 
ATOM     64  H   UNL A   1      43.822  33.935  30.165  1.00  0.00     0.167 HD
ATOM     65  C   UNL A   1      45.359  36.406  30.105  1.00  0.00     0.074 A 
ATOM     66  C   UNL A   1      46.381  37.375  29.741  1.00  0.00     0.031 C 
ATOM     67  C   UNL A   1      44.374  36.582  31.004  1.00  0.00     0.034 A 
BRANCH  54  68
ATOM     68  C   UNL A   1      40.445  31.947  31.865  1.00  0.00     0.023 A 
ATOM     69  C   UNL A   1      40.480  31.154  33.025  1.00  0.00     0.012 A 
ATOM     70  C   UNL A   1      39.218  32.353  31.317  1.00  0.00     0.148 A 
ATOM     71  C   UNL A   1      39.290  30.727  33.604  1.00  0.00     0.002 A 
ATOM     72  C   UNL A   1      38.043  31.987  31.936  1.00  0.00     0.091 A 
ATOM     73  F   UNL A   1      39.232  33.105  30.207  1.00  0.00    -0.205 F 
ATOM     74  C   UNL A   1      38.074  31.164  33.074  1.00  0.00     0.022 A 
BRANCH  72  75
ATOM     75  S   UNL A   1      36.454  32.512  31.302  1.00  0.00     0.127 S 
ATOM     76  O   UNL A   1      36.548  33.963  31.455  1.00  0.00    -0.237 OA
ATOM     77  O   UNL A   1      36.502  32.035  29.921  1.00  0.00    -0.237 OA
ATOM     78  O   UNL A   1      35.444  31.874  32.137  1.00  0.00    -0.744 OA
ENDBRANCH  72  75
ENDBRANCH  54  68
BRANCH  55  79
ATOM     79  C   UNL A   1      48.492  35.121  26.895  1.00  0.00     0.023 A 
ATOM     80  C   UNL A   1      48.241  35.653  25.622  1.00  0.00     0.012 A 
ATOM     81  C   UNL A   1      49.835  35.021  27.336  1.00  0.00     0.148 A 
ATOM     82  C   UNL A   1      49.297  35.954  24.760  1.00  0.00     0.002 A 
ATOM     83  C   UNL A   1      50.883  35.396  26.503  1.00  0.00     0.091 A 
ATOM     84  F   UNL A   1      50.065  34.597  28.585  1.00  0.00    -0.205 F 
ATOM     85  C   UNL A   1      50.616  35.833  25.199  1.00  0.00     0.022 A 
BRANCH  83  86
ATOM     86  S   UNL A   1      52.609  35.290  27.010  1.00  0.00     0.127 S 
ATOM     87  O   UNL A   1      52.752  33.857  27.260  1.00  0.00    -0.237 OA
ATOM     88  O   UNL A   1      53.311  35.782  25.825  1.00  0.00    -0.237 OA
ATOM     89  O   UNL A   1      52.734  36.140  28.186  1.00  0.00    -0.744 OA
ENDBRANCH  83  86
ENDBRANCH  55  79
BRANCH  67  90
ATOM     90  C   UNL A   1      44.393  37.885  31.714  1.00  0.00     0.023 A 
ATOM     91  C   UNL A   1      45.007  37.988  32.974  1.00  0.00     0.012 A 
ATOM     92  C   UNL A   1      43.750  38.990  31.136  1.00  0.00     0.148 A 
ATOM     93  C   UNL A   1      44.863  39.152  33.712  1.00  0.00     0.002 A 
ATOM     94  C   UNL A   1      43.695  40.175  31.834  1.00  0.00     0.091 A 
ATOM     95  F   UNL A   1      43.197  38.856  29.922  1.00  0.00    -0.205 F 
ATOM     96  C   UNL A   1      44.224  40.251  33.135  1.00  0.00     0.022 A 
BRANCH  94  97
ATOM     97  S   UNL A   1      42.901  41.627  31.153  1.00  0.00     0.127 S 
ATOM     98  O   UNL A   1      41.497  41.217  31.156  1.00  0.00    -0.237 OA
ATOM     99  O   UNL A   1      43.244  42.652  32.135  1.00  0.00    -0.237 OA
ATOM    100  O   UNL A   1      43.474  41.830  29.829  1.00  0.00    -0.744 OA
ENDBRANCH  94  97
ENDBRANCH  67  90
ENDBRANCH  41  42
ENDBRANCH  34  36
ENDBRANCH  33  34
ENDBRANCH  32  33
ENDBRANCH   1  32
TORSDOF 19
ENDMDL
MODEL 2
REMARK VINA RESULT:      -9.7      3.850      7.798
REMARK SMILES COc1ccc(/C=N/NC(=O)c2cc(C)nc3ccccc23)c(C(=O)OCCOC(=O)c2ccc(-c3c4nc(c(-c5cccc(S(=O)(=O)[O-])c5F)c5ccc([nH]5)c(-c5cccc(S(=O)(=O)[O-])c5F)c5nc(c(-c6cccc(S(=O)(=O)[O-])c6F)c6ccc3[nH]6)C=C5)C=C4)cc2)c1OC
REMARK SMILES IDX 27 1 26 2 24 3 25 4 23 5 3 6 4 7 95 8 5 9 6 10 2 11 1 12
REMARK SMILES IDX 96 13 97 14 7 15 8 16 9 17 10 18 11 20 12 21 13 22 22 23
REMARK SMILES IDX 14 24 17 25 21 26 15 27 16 28 18 29 20 30 19 31 28 32 29 33
REMARK SMILES IDX 30 34 31 35 32 36 33 37 94 38 34 39 93 40 35 41 36 42 37 43
REMARK SMILES IDX 87 44 38 45 92 46 86 47 88 48 39 49 91 50 85 51 84 52 40 54
REMARK SMILES IDX 72 55 52 56 71 57 53 58 56 59 70 60 89 61 54 62 55 63 69 65
REMARK SMILES IDX 90 66 57 67 41 68 42 69 50 70 43 71 45 72 51 73 44 74 46 75
REMARK SMILES IDX 47 76 48 77 49 78 73 79 74 80 82 81 75 82 77 83 83 84 76 85
REMARK SMILES IDX 78 86 79 87 80 88 81 89 58 90 59 91 67 92 60 93 62 94 68 95
REMARK SMILES IDX 61 96 63 97 64 98 65 99 66 100
REMARK H PARENT 9 19 88 53 56 64
REMARK Flexibility Score: inf
ROOT
ATOM      1  C   UNL A   1      43.301  22.907  25.888  1.00  0.00     0.275 C 
ENDROOT
BRANCH   1   2
ATOM      2  O   UNL A   1      42.162  23.729  26.179  1.00  0.00    -0.458 OA
BRANCH   2   3
ATOM      3  C   UNL A   1      41.348  23.329  27.204  1.00  0.00     0.342 C 
ATOM      4  O   UNL A   1      41.767  23.241  28.313  1.00  0.00    -0.246 OA
BRANCH   3   5
ATOM      5  C   UNL A   1      39.878  23.104  26.762  1.00  0.00     0.114 A 
ATOM      6  C   UNL A   1      38.156  21.704  25.655  1.00  0.00     0.161 A 
ATOM      7  C   UNL A   1      37.331  22.837  25.572  1.00  0.00     0.051 A 
ATOM      8  C   UNL A   1      39.461  21.870  26.181  1.00  0.00     0.175 A 
ATOM      9  C   UNL A   1      37.746  24.075  26.099  1.00  0.00     0.015 A 
ATOM     10  C   UNL A   1      38.964  24.178  26.812  1.00  0.00     0.013 A 
BRANCH   6  11
ATOM     11  O   UNL A   1      37.688  20.612  24.957  1.00  0.00    -0.493 OA
ATOM     12  C   UNL A   1      36.289  20.323  25.004  1.00  0.00     0.278 C 
ENDBRANCH   6  11
BRANCH   8  13
ATOM     13  O   UNL A   1      40.489  20.987  26.097  1.00  0.00    -0.492 OA
ATOM     14  C   UNL A   1      40.283  19.615  26.128  1.00  0.00     0.278 C 
ENDBRANCH   8  13
BRANCH  10  15
ATOM     15  C   UNL A   1      39.385  25.449  27.468  1.00  0.00     0.142 C 
ATOM     16  N   UNL A   1      39.294  25.702  28.723  1.00  0.00    -0.180 NA
BRANCH  16  17
ATOM     17  N   UNL A   1      39.552  27.054  29.108  1.00  0.00    -0.243 N 
ATOM     18  C   UNL A   1      40.785  27.725  29.515  1.00  0.00     0.272 C 
ATOM     19  H   UNL A   1      38.759  27.637  29.099  1.00  0.00     0.194 HD
ATOM     20  O   UNL A   1      41.753  27.854  28.781  1.00  0.00    -0.267 OA
BRANCH  18  21
ATOM     21  C   UNL A   1      41.154  28.796  30.532  1.00  0.00     0.052 A 
ATOM     22  C   UNL A   1      41.468  29.878  29.668  1.00  0.00     0.038 A 
ATOM     23  C   UNL A   1      40.468  29.147  32.047  1.00  0.00     0.013 A 
ATOM     24  C   UNL A   1      40.844  31.040  29.998  1.00  0.00     0.039 A 
ATOM     25  C   UNL A   1      40.237  30.482  31.980  1.00  0.00     0.071 A 
ATOM     26  C   UNL A   1      39.823  28.911  33.477  1.00  0.00     0.011 A 
ATOM     27  C   UNL A   1      41.342  32.431  29.990  1.00  0.00     0.067 C 
ATOM     28  N   UNL A   1      39.866  30.973  30.854  1.00  0.00    -0.253 NA
ATOM     29  C   UNL A   1      40.181  31.482  32.954  1.00  0.00     0.029 A 
ATOM     30  C   UNL A   1      39.655  29.932  34.531  1.00  0.00     0.001 A 
ATOM     31  C   UNL A   1      40.005  31.232  34.276  1.00  0.00     0.002 A 
ENDBRANCH  18  21
ENDBRANCH  16  17
ENDBRANCH  10  15
ENDBRANCH   3   5
ENDBRANCH   2   3
ENDBRANCH   1   2
BRANCH   1  32
ATOM     32  C   UNL A   1      44.046  23.361  24.620  1.00  0.00     0.275 C 
BRANCH  32  33
ATOM     33  O   UNL A   1      44.704  24.654  24.730  1.00  0.00    -0.458 OA
BRANCH  33  34
ATOM     34  C   UNL A   1      45.726  24.673  25.630  1.00  0.00     0.338 C 
ATOM     35  O   UNL A   1      46.666  23.883  25.609  1.00  0.00    -0.246 OA
BRANCH  34  36
ATOM     36  C   UNL A   1      45.774  25.823  26.581  1.00  0.00     0.060 A 
ATOM     37  C   UNL A   1      44.745  26.754  26.416  1.00  0.00     0.016 A 
ATOM     38  C   UNL A   1      46.761  26.144  27.500  1.00  0.00     0.016 A 
ATOM     39  C   UNL A   1      44.588  27.933  27.180  1.00  0.00     0.010 A 
ATOM     40  C   UNL A   1      46.618  27.337  28.296  1.00  0.00     0.010 A 
ATOM     41  C   UNL A   1      45.449  28.188  28.247  1.00  0.00    -0.014 A 
BRANCH  41  42
ATOM     42  C   UNL A   1      45.074  29.269  29.334  1.00  0.00     0.031 A 
ATOM     43  C   UNL A   1      44.738  28.586  30.609  1.00  0.00     0.074 A 
ATOM     44  C   UNL A   1      45.036  30.666  29.382  1.00  0.00     0.049 A 
ATOM     45  N   UNL A   1      44.441  29.129  31.748  1.00  0.00    -0.248 NA
ATOM     46  C   UNL A   1      44.694  27.110  30.592  1.00  0.00     0.031 C 
ATOM     47  C   UNL A   1      45.159  31.661  28.338  1.00  0.00     0.029 A 
ATOM     48  N   UNL A   1      44.932  31.598  30.424  1.00  0.00    -0.354 N 
ATOM     49  C   UNL A   1      44.139  28.072  32.569  1.00  0.00     0.074 A 
ATOM     50  C   UNL A   1      44.270  26.851  31.813  1.00  0.00     0.031 C 
ATOM     51  C   UNL A   1      45.584  32.858  28.700  1.00  0.00     0.029 A 
ATOM     52  C   UNL A   1      45.141  32.929  30.030  1.00  0.00     0.049 A 
ATOM     53  H   UNL A   1      44.732  31.340  31.352  1.00  0.00     0.167 HD
ATOM     54  C   UNL A   1      43.773  28.140  33.855  1.00  0.00     0.034 A 
ATOM     55  C   UNL A   1      44.876  34.164  30.483  1.00  0.00     0.034 A 
ATOM     56  C   UNL A   1      43.598  29.363  34.569  1.00  0.00     0.049 A 
ATOM     57  C   UNL A   1      44.343  34.188  31.836  1.00  0.00     0.074 A 
ATOM     58  C   UNL A   1      43.227  29.494  35.888  1.00  0.00     0.029 A 
ATOM     59  N   UNL A   1      43.700  30.639  34.039  1.00  0.00    -0.354 N 
ATOM     60  N   UNL A   1      44.127  33.153  32.592  1.00  0.00    -0.248 NA
ATOM     61  C   UNL A   1      44.077  35.494  32.421  1.00  0.00     0.031 C 
ATOM     62  C   UNL A   1      43.024  30.840  36.143  1.00  0.00     0.029 A 
ATOM     63  C   UNL A   1      43.365  31.560  35.013  1.00  0.00     0.049 A 
ATOM     64  H   UNL A   1      43.968  30.854  33.118  1.00  0.00     0.167 HD
ATOM     65  C   UNL A   1      43.736  33.677  33.788  1.00  0.00     0.074 A 
ATOM     66  C   UNL A   1      43.776  35.124  33.654  1.00  0.00     0.031 C 
ATOM     67  C   UNL A   1      43.385  32.985  34.888  1.00  0.00     0.034 A 
BRANCH  54  68
ATOM     68  C   UNL A   1      43.447  26.859  34.535  1.00  0.00     0.023 A 
ATOM     69  C   UNL A   1      42.127  26.379  34.590  1.00  0.00     0.012 A 
ATOM     70  C   UNL A   1      44.497  26.119  35.100  1.00  0.00     0.148 A 
ATOM     71  C   UNL A   1      41.853  25.189  35.255  1.00  0.00     0.002 A 
ATOM     72  C   UNL A   1      44.230  24.904  35.694  1.00  0.00     0.091 A 
ATOM     73  F   UNL A   1      45.740  26.616  35.027  1.00  0.00    -0.205 F 
ATOM     74  C   UNL A   1      42.907  24.441  35.784  1.00  0.00     0.022 A 
BRANCH  72  75
ATOM     75  S   UNL A   1      45.538  23.903  36.393  1.00  0.00     0.127 S 
ATOM     76  O   UNL A   1      45.725  24.542  37.695  1.00  0.00    -0.237 OA
ATOM     77  O   UNL A   1      44.918  22.580  36.441  1.00  0.00    -0.237 OA
ATOM     78  O   UNL A   1      46.674  24.016  35.488  1.00  0.00    -0.744 OA
ENDBRANCH  72  75
ENDBRANCH  54  68
BRANCH  55  79
ATOM     79  C   UNL A   1      45.060  35.415  29.666  1.00  0.00     0.023 A 
ATOM     80  C   UNL A   1      46.320  36.030  29.649  1.00  0.00     0.012 A 
ATOM     81  C   UNL A   1      44.009  36.002  28.917  1.00  0.00     0.148 A 
ATOM     82  C   UNL A   1      46.500  37.260  29.013  1.00  0.00     0.002 A 
ATOM     83  C   UNL A   1      44.213  37.187  28.219  1.00  0.00     0.091 A 
ATOM     84  F   UNL A   1      42.833  35.364  28.864  1.00  0.00    -0.205 F 
ATOM     85  C   UNL A   1      45.453  37.836  28.295  1.00  0.00     0.022 A 
BRANCH  83  86
ATOM     86  S   UNL A   1      42.915  37.976  27.250  1.00  0.00     0.127 S 
ATOM     87  O   UNL A   1      42.500  36.883  26.374  1.00  0.00    -0.237 OA
ATOM     88  O   UNL A   1      41.942  38.346  28.278  1.00  0.00    -0.237 OA
ATOM     89  O   UNL A   1      43.546  39.103  26.579  1.00  0.00    -0.744 OA
ENDBRANCH  83  86
ENDBRANCH  55  79
BRANCH  67  90
ATOM     90  C   UNL A   1      43.065  33.812  36.077  1.00  0.00     0.023 A 
ATOM     91  C   UNL A   1      44.045  34.043  37.056  1.00  0.00     0.012 A 
ATOM     92  C   UNL A   1      41.762  34.311  36.233  1.00  0.00     0.148 A 
ATOM     93  C   UNL A   1      43.692  34.656  38.248  1.00  0.00     0.002 A 
ATOM     94  C   UNL A   1      41.443  35.006  37.378  1.00  0.00     0.091 A 
ATOM     95  F   UNL A   1      40.863  34.089  35.265  1.00  0.00    -0.205 F 
ATOM     96  C   UNL A   1      42.397  35.154  38.401  1.00  0.00     0.022 A 
BRANCH  94  97
ATOM     97  S   UNL A   1      39.806  35.681  37.638  1.00  0.00     0.127 S 
ATOM     98  O   UNL A   1      39.957  36.310  38.949  1.00  0.00    -0.237 OA
ATOM     99  O   UNL A   1      39.679  36.613  36.520  1.00  0.00    -0.237 OA
ATOM    100  O   UNL A   1      38.883  34.553  37.604  1.00  0.00    -0.744 OA
ENDBRANCH  94  97
ENDBRANCH  67  90
ENDBRANCH  41  42
ENDBRANCH  34  36
ENDBRANCH  33  34
ENDBRANCH  32  33
ENDBRANCH   1  32
TORSDOF 19
ENDMDL
MODEL 3
REMARK VINA RESULT:      -9.7      6.948     16.022
REMARK SMILES COc1ccc(/C=N/NC(=O)c2cc(C)nc3ccccc23)c(C(=O)OCCOC(=O)c2ccc(-c3c4nc(c(-c5cccc(S(=O)(=O)[O-])c5F)c5ccc([nH]5)c(-c5cccc(S(=O)(=O)[O-])c5F)c5nc(c(-c6cccc(S(=O)(=O)[O-])c6F)c6ccc3[nH]6)C=C5)C=C4)cc2)c1OC
REMARK SMILES IDX 27 1 26 2 24 3 25 4 23 5 3 6 4 7 95 8 5 9 6 10 2 11 1 12
REMARK SMILES IDX 96 13 97 14 7 15 8 16 9 17 10 18 11 20 12 21 13 22 22 23
REMARK SMILES IDX 14 24 17 25 21 26 15 27 16 28 18 29 20 30 19 31 28 32 29 33
REMARK SMILES IDX 30 34 31 35 32 36 33 37 94 38 34 39 93 40 35 41 36 42 37 43
REMARK SMILES IDX 87 44 38 45 92 46 86 47 88 48 39 49 91 50 85 51 84 52 40 54
REMARK SMILES IDX 72 55 52 56 71 57 53 58 56 59 70 60 89 61 54 62 55 63 69 65
REMARK SMILES IDX 90 66 57 67 41 68 42 69 50 70 43 71 45 72 51 73 44 74 46 75
REMARK SMILES IDX 47 76 48 77 49 78 73 79 74 80 82 81 75 82 77 83 83 84 76 85
REMARK SMILES IDX 78 86 79 87 80 88 81 89 58 90 59 91 67 92 60 93 62 94 68 95
REMARK SMILES IDX 61 96 63 97 64 98 65 99 66 100
REMARK H PARENT 9 19 88 53 56 64
REMARK Flexibility Score: inf
ROOT
ATOM      1  C   UNL A   1      42.553  43.143  20.603  1.00  0.00     0.275 C 
ENDROOT
BRANCH   1   2
ATOM      2  O   UNL A   1      42.955  44.281  19.828  1.00  0.00    -0.458 OA
BRANCH   2   3
ATOM      3  C   UNL A   1      44.298  44.474  19.653  1.00  0.00     0.342 C 
ATOM      4  O   UNL A   1      45.035  43.548  19.537  1.00  0.00    -0.246 OA
BRANCH   3   5
ATOM      5  C   UNL A   1      44.689  45.972  19.545  1.00  0.00     0.114 A 
ATOM      6  C   UNL A   1      45.046  48.007  18.174  1.00  0.00     0.161 A 
ATOM      7  C   UNL A   1      45.790  48.553  19.233  1.00  0.00     0.051 A 
ATOM      8  C   UNL A   1      44.569  46.681  18.314  1.00  0.00     0.175 A 
ATOM      9  C   UNL A   1      45.959  47.847  20.439  1.00  0.00     0.015 A 
ATOM     10  C   UNL A   1      45.298  46.613  20.645  1.00  0.00     0.013 A 
BRANCH   6  11
ATOM     11  O   UNL A   1      45.104  48.738  17.007  1.00  0.00    -0.493 OA
ATOM     12  C   UNL A   1      44.754  50.123  17.054  1.00  0.00     0.278 C 
ENDBRANCH   6  11
BRANCH   8  13
ATOM     13  O   UNL A   1      44.079  45.886  17.327  1.00  0.00    -0.492 OA
ATOM     14  C   UNL A   1      42.822  46.091  16.776  1.00  0.00     0.278 C 
ENDBRANCH   8  13
BRANCH  10  15
ATOM     15  C   UNL A   1      45.375  45.889  21.946  1.00  0.00     0.142 C 
ATOM     16  N   UNL A   1      46.407  45.268  22.389  1.00  0.00    -0.180 NA
BRANCH  16  17
ATOM     17  N   UNL A   1      46.201  44.462  23.552  1.00  0.00    -0.243 N 
ATOM     18  C   UNL A   1      46.184  44.802  24.973  1.00  0.00     0.272 C 
ATOM     19  H   UNL A   1      46.043  43.509  23.362  1.00  0.00     0.194 HD
ATOM     20  O   UNL A   1      45.364  45.557  25.473  1.00  0.00    -0.267 OA
BRANCH  18  21
ATOM     21  C   UNL A   1      46.653  44.130  26.256  1.00  0.00     0.052 A 
ATOM     22  C   UNL A   1      45.970  44.911  27.224  1.00  0.00     0.038 A 
ATOM     23  C   UNL A   1      46.925  42.487  26.592  1.00  0.00     0.013 A 
ATOM     24  C   UNL A   1      45.288  44.173  28.140  1.00  0.00     0.039 A 
ATOM     25  C   UNL A   1      46.227  42.285  27.738  1.00  0.00     0.071 A 
ATOM     26  C   UNL A   1      47.392  40.984  26.385  1.00  0.00     0.011 A 
ATOM     27  C   UNL A   1      45.128  44.363  29.597  1.00  0.00     0.067 C 
ATOM     28  N   UNL A   1      45.115  42.910  27.883  1.00  0.00    -0.253 NA
ATOM     29  C   UNL A   1      46.393  41.396  28.802  1.00  0.00     0.029 A 
ATOM     30  C   UNL A   1      47.517  39.961  27.443  1.00  0.00     0.001 A 
ATOM     31  C   UNL A   1      47.139  40.265  28.725  1.00  0.00     0.002 A 
ENDBRANCH  18  21
ENDBRANCH  16  17
ENDBRANCH  10  15
ENDBRANCH   3   5
ENDBRANCH   2   3
ENDBRANCH   1   2
BRANCH   1  32
ATOM     32  C   UNL A   1      42.022  43.535  21.993  1.00  0.00     0.275 C 
BRANCH  32  33
ATOM     33  O   UNL A   1      41.864  42.425  22.921  1.00  0.00    -0.458 OA
BRANCH  33  34
ATOM     34  C   UNL A   1      42.608  42.550  24.055  1.00  0.00     0.338 C 
ATOM     35  O   UNL A   1      43.203  43.577  24.369  1.00  0.00    -0.246 OA
BRANCH  34  36
ATOM     36  C   UNL A   1      42.549  41.424  25.035  1.00  0.00     0.060 A 
ATOM     37  C   UNL A   1      43.787  40.852  25.335  1.00  0.00     0.016 A 
ATOM     38  C   UNL A   1      41.431  40.805  25.573  1.00  0.00     0.016 A 
ATOM     39  C   UNL A   1      43.986  39.764  26.216  1.00  0.00     0.010 A 
ATOM     40  C   UNL A   1      41.609  39.699  26.479  1.00  0.00     0.010 A 
ATOM     41  C   UNL A   1      42.907  39.244  26.929  1.00  0.00    -0.014 A 
BRANCH  41  42
ATOM     42  C   UNL A   1      43.152  38.310  28.178  1.00  0.00     0.031 A 
ATOM     43  C   UNL A   1      43.144  39.132  29.414  1.00  0.00     0.074 A 
ATOM     44  C   UNL A   1      43.318  36.936  28.381  1.00  0.00     0.049 A 
ATOM     45  N   UNL A   1      43.249  38.727  30.640  1.00  0.00    -0.248 NA
ATOM     46  C   UNL A   1      43.043  40.596  29.249  1.00  0.00     0.031 C 
ATOM     47  C   UNL A   1      43.515  35.850  27.446  1.00  0.00     0.029 A 
ATOM     48  N   UNL A   1      43.294  36.114  29.516  1.00  0.00    -0.354 N 
ATOM     49  C   UNL A   1      43.266  39.877  31.387  1.00  0.00     0.074 A 
ATOM     50  C   UNL A   1      43.174  41.006  30.495  1.00  0.00     0.031 C 
ATOM     51  C   UNL A   1      43.146  34.645  27.841  1.00  0.00     0.029 A 
ATOM     52  C   UNL A   1      43.306  34.739  29.233  1.00  0.00     0.049 A 
ATOM     53  H   UNL A   1      43.269  36.471  30.433  1.00  0.00     0.167 HD
ATOM     54  C   UNL A   1      43.360  39.961  32.721  1.00  0.00     0.034 A 
ATOM     55  C   UNL A   1      43.592  33.587  29.859  1.00  0.00     0.034 A 
ATOM     56  C   UNL A   1      43.503  38.832  33.581  1.00  0.00     0.049 A 
ATOM     57  C   UNL A   1      43.829  33.741  31.285  1.00  0.00     0.074 A 
ATOM     58  C   UNL A   1      43.600  38.858  34.954  1.00  0.00     0.029 A 
ATOM     59  N   UNL A   1      43.641  37.514  33.181  1.00  0.00    -0.354 N 
ATOM     60  N   UNL A   1      43.779  34.853  31.954  1.00  0.00    -0.248 NA
ATOM     61  C   UNL A   1      44.096  32.530  32.047  1.00  0.00     0.031 C 
ATOM     62  C   UNL A   1      43.879  37.572  35.386  1.00  0.00     0.029 A 
ATOM     63  C   UNL A   1      43.855  36.724  34.294  1.00  0.00     0.049 A 
ATOM     64  H   UNL A   1      43.594  37.191  32.253  1.00  0.00     0.167 HD
ATOM     65  C   UNL A   1      43.960  34.483  33.253  1.00  0.00     0.074 A 
ATOM     66  C   UNL A   1      44.094  33.035  33.268  1.00  0.00     0.031 C 
ATOM     67  C   UNL A   1      44.004  35.301  34.320  1.00  0.00     0.034 A 
BRANCH  54  68
ATOM     68  C   UNL A   1      43.407  41.325  33.311  1.00  0.00     0.023 A 
ATOM     69  C   UNL A   1      42.230  42.011  33.656  1.00  0.00     0.012 A 
ATOM     70  C   UNL A   1      44.664  41.907  33.542  1.00  0.00     0.148 A 
ATOM     71  C   UNL A   1      42.310  43.294  34.184  1.00  0.00     0.002 A 
ATOM     72  C   UNL A   1      44.739  43.150  34.132  1.00  0.00     0.091 A 
ATOM     73  F   UNL A   1      45.760  41.219  33.194  1.00  0.00    -0.205 F 
ATOM     74  C   UNL A   1      43.563  43.853  34.444  1.00  0.00     0.022 A 
BRANCH  72  75
ATOM     75  S   UNL A   1      46.316  43.919  34.487  1.00  0.00     0.127 S 
ATOM     76  O   UNL A   1      45.895  45.245  34.936  1.00  0.00    -0.237 OA
ATOM     77  O   UNL A   1      46.848  43.054  35.538  1.00  0.00    -0.237 OA
ATOM     78  O   UNL A   1      47.070  43.907  33.240  1.00  0.00    -0.744 OA
ENDBRANCH  72  75
ENDBRANCH  54  68
BRANCH  55  79
ATOM     79  C   UNL A   1      43.708  32.259  29.160  1.00  0.00     0.023 A 
ATOM     80  C   UNL A   1      42.663  31.333  29.293  1.00  0.00     0.012 A 
ATOM     81  C   UNL A   1      44.834  31.902  28.375  1.00  0.00     0.148 A 
ATOM     82  C   UNL A   1      42.788  30.044  28.772  1.00  0.00     0.002 A 
ATOM     83  C   UNL A   1      44.920  30.644  27.792  1.00  0.00     0.091 A 
ATOM     84  F   UNL A   1      45.788  32.821  28.178  1.00  0.00    -0.205 F 
ATOM     85  C   UNL A   1      43.910  29.699  28.018  1.00  0.00     0.022 A 
BRANCH  83  86
ATOM     86  S   UNL A   1      46.326  30.137  26.785  1.00  0.00     0.127 S 
ATOM     87  O   UNL A   1      46.235  31.072  25.666  1.00  0.00    -0.237 OA
ATOM     88  O   UNL A   1      47.453  30.365  27.689  1.00  0.00    -0.237 OA
ATOM     89  O   UNL A   1      46.093  28.740  26.446  1.00  0.00    -0.744 OA
ENDBRANCH  83  86
ENDBRANCH  55  79
BRANCH  67  90
ATOM     90  C   UNL A   1      44.149  34.622  35.631  1.00  0.00     0.023 A 
ATOM     91  C   UNL A   1      45.420  34.475  36.209  1.00  0.00     0.012 A 
ATOM     92  C   UNL A   1      43.010  34.087  36.254  1.00  0.00     0.148 A 
ATOM     93  C   UNL A   1      45.573  33.682  37.335  1.00  0.00     0.002 A 
ATOM     94  C   UNL A   1      43.157  33.383  37.429  1.00  0.00     0.091 A 
ATOM     95  F   UNL A   1      41.812  34.270  35.682  1.00  0.00    -0.205 F 
ATOM     96  C   UNL A   1      44.440  33.153  37.956  1.00  0.00     0.022 A 
BRANCH  94  97
ATOM     97  S   UNL A   1      41.748  32.684  38.283  1.00  0.00     0.127 S 
ATOM     98  O   UNL A   1      41.077  33.889  38.767  1.00  0.00    -0.237 OA
ATOM     99  O   UNL A   1      41.054  31.985  37.205  1.00  0.00    -0.237 OA
ATOM    100  O   UNL A   1      42.284  31.822  39.328  1.00  0.00    -0.744 OA
ENDBRANCH  94  97
ENDBRANCH  67  90
ENDBRANCH  41  42
ENDBRANCH  34  36
ENDBRANCH  33  34
ENDBRANCH  32  33
ENDBRANCH   1  32
TORSDOF 19
ENDMDL
