MODEL 1
REMARK VINA RESULT:     -12.0      0.000      0.000
REMARK SMILES Cc1nnc(SCC2=C(C(=O)OCCOC(=O)c3ccc(-c4c5nc(c(-c6cccc(S(=O)(=O)[O-])c6F)c6ccc([nH]6)c(-c6cccc(S(=O)(=O)[O-])c6F)c6nc(c(-c7cccc(S(=O)(=O)[O-])c7F)c7ccc4[nH]7)C=C6)C=C5)cc3)N3C(=O)[C@H](NC(=O)c4cn(C)nc4C)[C@@H]3SC2)s1
REMARK SMILES IDX 13 1 12 2 10 3 11 4 9 5 8 6 97 7 81 8 96 9 82 10 95 11 83 12
REMARK SMILES IDX 84 13 7 14 6 15 5 16 1 17 2 18 3 19 98 20 4 21 85 22 86 23
REMARK SMILES IDX 87 25 88 26 89 27 93 28 90 29 92 30 94 31 91 32 14 33 15 34
REMARK SMILES IDX 16 35 17 36 18 37 19 38 80 39 20 40 79 41 21 42 22 43 23 44
REMARK SMILES IDX 73 45 24 46 78 47 72 48 74 49 25 50 77 51 71 52 70 53 26 55
REMARK SMILES IDX 58 56 38 57 57 58 39 59 42 60 56 61 75 62 40 63 41 64 55 66
REMARK SMILES IDX 76 67 43 68 27 69 28 70 36 71 29 72 31 73 37 74 30 75 32 76
REMARK SMILES IDX 33 77 34 78 35 79 59 80 60 81 68 82 61 83 63 84 69 85 62 86
REMARK SMILES IDX 64 87 65 88 66 89 67 90 44 91 45 92 53 93 46 94 48 95 54 96
REMARK SMILES IDX 47 97 49 98 50 99 51 100 52 101
REMARK H PARENT 85 24 74 54 42 65
REMARK Flexibility Score: inf
ROOT
ATOM      1  C   UNL A   1      36.410  22.539  23.551  1.00  0.00     0.275 C 
ENDROOT
BRANCH   1   2
ATOM      2  O   UNL A   1      35.198  23.084  24.116  1.00  0.00    -0.457 OA
BRANCH   2   3
ATOM      3  C   UNL A   1      34.095  23.099  23.311  1.00  0.00     0.355 C 
ATOM      4  O   UNL A   1      34.084  22.863  22.118  1.00  0.00    -0.244 OA
BRANCH   3   5
ATOM      5  C   UNL A   1      32.883  23.410  24.157  1.00  0.00     0.132 C 
ATOM      6  C   UNL A   1      32.318  22.479  24.977  1.00  0.00    -0.019 C 
ATOM      7  C   UNL A   1      31.059  22.759  25.793  1.00  0.00     0.106 C 
ATOM      8  N   UNL A   1      32.350  24.660  24.066  1.00  0.00    -0.289 N 
ATOM      9  S   UNL A   1      30.731  24.525  26.115  1.00  0.00    -0.129 SA
ATOM     10  C   UNL A   1      32.696  25.885  23.615  1.00  0.00     0.253 C 
ATOM     11  C   UNL A   1      30.975  24.972  24.391  1.00  0.00     0.181 C 
ATOM     12  O   UNL A   1      33.692  26.329  23.106  1.00  0.00    -0.272 OA
ATOM     13  C   UNL A   1      31.287  26.443  24.013  1.00  0.00     0.206 C 
BRANCH   6  14
ATOM     14  C   UNL A   1      32.918  21.084  25.119  1.00  0.00     0.111 C 
BRANCH  14  15
ATOM     15  S   UNL A   1      32.377  19.839  23.914  1.00  0.00    -0.089 SA
BRANCH  15  16
ATOM     16  C   UNL A   1      33.071  18.375  24.570  1.00  0.00     0.174 A 
ATOM     17  C   UNL A   1      35.406  15.437  25.335  1.00  0.00     0.081 C 
ATOM     18  C   UNL A   1      34.364  16.478  25.156  1.00  0.00     0.115 A 
ATOM     19  N   UNL A   1      33.140  16.411  25.634  1.00  0.00    -0.143 NA
ATOM     20  S   UNL A   1      34.696  17.916  24.278  1.00  0.00    -0.091 S 
ATOM     21  N   UNL A   1      32.391  17.521  25.299  1.00  0.00    -0.132 NA
ENDBRANCH  15  16
ENDBRANCH  14  15
ENDBRANCH   6  14
BRANCH  13  22
ATOM     22  N   UNL A   1      31.280  27.480  25.068  1.00  0.00    -0.337 N 
ATOM     23  C   UNL A   1      31.068  28.832  24.910  1.00  0.00     0.255 C 
ATOM     24  H   UNL A   1      31.446  27.169  25.987  1.00  0.00     0.164 HD
ATOM     25  O   UNL A   1      31.379  29.591  25.825  1.00  0.00    -0.269 OA
BRANCH  23  26
ATOM     26  C   UNL A   1      30.475  29.313  23.675  1.00  0.00     0.080 A 
ATOM     27  C   UNL A   1      29.179  29.764  23.477  1.00  0.00     0.122 A 
ATOM     28  C   UNL A   1      31.106  29.512  22.415  1.00  0.00     0.072 A 
ATOM     29  N   UNL A   1      29.111  30.177  22.179  1.00  0.00    -0.275 N 
ATOM     30  N   UNL A   1      30.264  30.040  21.520  1.00  0.00    -0.178 NA
ATOM     31  C   UNL A   1      32.499  29.210  21.998  1.00  0.00     0.069 C 
ATOM     32  C   UNL A   1      27.980  30.749  21.490  1.00  0.00     0.173 C 
ENDBRANCH  23  26
ENDBRANCH  13  22
ENDBRANCH   3   5
ENDBRANCH   2   3
ENDBRANCH   1   2
BRANCH   1  33
ATOM     33  C   UNL A   1      36.909  21.364  24.401  1.00  0.00     0.275 C 
BRANCH  33  34
ATOM     34  O   UNL A   1      37.334  21.832  25.693  1.00  0.00    -0.458 OA
BRANCH  34  35
ATOM     35  C   UNL A   1      38.588  21.465  26.044  1.00  0.00     0.338 C 
ATOM     36  O   UNL A   1      39.159  20.420  25.777  1.00  0.00    -0.246 OA
BRANCH  35  37
ATOM     37  C   UNL A   1      39.286  22.629  26.604  1.00  0.00     0.060 A 
ATOM     38  C   UNL A   1      38.893  23.871  26.111  1.00  0.00     0.016 A 
ATOM     39  C   UNL A   1      40.329  22.532  27.522  1.00  0.00     0.016 A 
ATOM     40  C   UNL A   1      39.556  25.026  26.503  1.00  0.00     0.010 A 
ATOM     41  C   UNL A   1      40.992  23.701  27.925  1.00  0.00     0.010 A 
ATOM     42  C   UNL A   1      40.625  24.955  27.399  1.00  0.00    -0.014 A 
BRANCH  42  43
ATOM     43  C   UNL A   1      41.389  26.194  27.699  1.00  0.00     0.031 A 
ATOM     44  C   UNL A   1      40.749  27.282  28.515  1.00  0.00     0.074 A 
ATOM     45  C   UNL A   1      42.667  26.324  27.294  1.00  0.00     0.049 A 
ATOM     46  N   UNL A   1      41.215  28.461  28.835  1.00  0.00    -0.248 NA
ATOM     47  C   UNL A   1      39.404  27.007  29.046  1.00  0.00     0.031 C 
ATOM     48  C   UNL A   1      43.424  25.320  26.544  1.00  0.00     0.029 A 
ATOM     49  N   UNL A   1      43.551  27.363  27.448  1.00  0.00    -0.354 N 
ATOM     50  C   UNL A   1      40.205  29.090  29.551  1.00  0.00     0.074 A 
ATOM     51  C   UNL A   1      39.100  28.158  29.628  1.00  0.00     0.031 C 
ATOM     52  C   UNL A   1      44.653  25.800  26.290  1.00  0.00     0.029 A 
ATOM     53  C   UNL A   1      44.752  27.159  26.812  1.00  0.00     0.049 A 
ATOM     54  H   UNL A   1      43.345  28.175  27.965  1.00  0.00     0.167 HD
ATOM     55  C   UNL A   1      40.198  30.329  30.097  1.00  0.00     0.034 A 
ATOM     56  C   UNL A   1      45.803  27.986  26.635  1.00  0.00     0.034 A 
ATOM     57  C   UNL A   1      41.311  31.239  30.054  1.00  0.00     0.049 A 
ATOM     58  C   UNL A   1      45.759  29.369  27.228  1.00  0.00     0.074 A 
ATOM     59  C   UNL A   1      41.404  32.507  30.600  1.00  0.00     0.029 A 
ATOM     60  N   UNL A   1      42.521  30.983  29.428  1.00  0.00    -0.354 N 
ATOM     61  N   UNL A   1      44.820  29.928  27.955  1.00  0.00    -0.248 NA
ATOM     62  C   UNL A   1      46.928  30.230  26.997  1.00  0.00     0.031 C 
ATOM     63  C   UNL A   1      42.659  33.033  30.274  1.00  0.00     0.029 A 
ATOM     64  C   UNL A   1      43.361  32.079  29.554  1.00  0.00     0.049 A 
ATOM     65  H   UNL A   1      42.752  30.147  28.963  1.00  0.00     0.167 HD
ATOM     66  C   UNL A   1      45.298  31.189  28.293  1.00  0.00     0.074 A 
ATOM     67  C   UNL A   1      46.618  31.306  27.707  1.00  0.00     0.031 C 
ATOM     68  C   UNL A   1      44.692  32.167  29.011  1.00  0.00     0.034 A 
BRANCH  55  69
ATOM     69  C   UNL A   1      38.935  30.779  30.782  1.00  0.00     0.023 A 
ATOM     70  C   UNL A   1      38.779  30.590  32.169  1.00  0.00     0.012 A 
ATOM     71  C   UNL A   1      37.918  31.424  30.051  1.00  0.00     0.148 A 
ATOM     72  C   UNL A   1      37.614  31.005  32.814  1.00  0.00     0.002 A 
ATOM     73  C   UNL A   1      36.779  31.875  30.709  1.00  0.00     0.091 A 
ATOM     74  F   UNL A   1      38.074  31.572  28.728  1.00  0.00    -0.205 F 
ATOM     75  C   UNL A   1      36.620  31.655  32.086  1.00  0.00     0.022 A 
BRANCH  73  76
ATOM     76  S   UNL A   1      35.479  32.787  29.871  1.00  0.00     0.127 S 
ATOM     77  O   UNL A   1      36.166  34.031  29.527  1.00  0.00    -0.237 OA
ATOM     78  O   UNL A   1      35.180  31.920  28.730  1.00  0.00    -0.237 OA
ATOM     79  O   UNL A   1      34.395  32.914  30.834  1.00  0.00    -0.744 OA
ENDBRANCH  73  76
ENDBRANCH  55  69
BRANCH  56  80
ATOM     80  C   UNL A   1      46.986  27.525  25.856  1.00  0.00     0.023 A 
ATOM     81  C   UNL A   1      47.040  27.751  24.467  1.00  0.00     0.012 A 
ATOM     82  C   UNL A   1      48.069  26.882  26.490  1.00  0.00     0.148 A 
ATOM     83  C   UNL A   1      48.139  27.323  23.721  1.00  0.00     0.002 A 
ATOM     84  C   UNL A   1      49.185  26.509  25.750  1.00  0.00     0.091 A 
ATOM     85  F   UNL A   1      47.989  26.657  27.809  1.00  0.00    -0.205 F 
ATOM     86  C   UNL A   1      49.215  26.713  24.363  1.00  0.00     0.022 A 
BRANCH  84  87
ATOM     87  S   UNL A   1      50.662  25.827  26.511  1.00  0.00     0.127 S 
ATOM     88  O   UNL A   1      51.038  26.892  27.438  1.00  0.00    -0.237 OA
ATOM     89  O   UNL A   1      50.144  24.615  27.145  1.00  0.00    -0.237 OA
ATOM     90  O   UNL A   1      51.594  25.585  25.419  1.00  0.00    -0.744 OA
ENDBRANCH  84  87
ENDBRANCH  56  80
BRANCH  68  91
ATOM     91  C   UNL A   1      45.454  33.449  29.237  1.00  0.00     0.023 A 
ATOM     92  C   UNL A   1      46.335  33.558  30.331  1.00  0.00     0.012 A 
ATOM     93  C   UNL A   1      45.360  34.513  28.318  1.00  0.00     0.148 A 
ATOM     94  C   UNL A   1      47.085  34.716  30.525  1.00  0.00     0.002 A 
ATOM     95  C   UNL A   1      46.148  35.645  28.490  1.00  0.00     0.091 A 
ATOM     96  F   UNL A   1      44.505  34.398  27.290  1.00  0.00    -0.205 F 
ATOM     97  C   UNL A   1      47.002  35.753  29.599  1.00  0.00     0.022 A 
BRANCH  95  98
ATOM     98  S   UNL A   1      46.182  36.986  27.294  1.00  0.00     0.127 S 
ATOM     99  O   UNL A   1      46.594  36.289  26.076  1.00  0.00    -0.237 OA
ATOM    100  O   UNL A   1      44.791  37.440  27.296  1.00  0.00    -0.237 OA
ATOM    101  O   UNL A   1      47.134  37.961  27.810  1.00  0.00    -0.744 OA
ENDBRANCH  95  98
ENDBRANCH  68  91
ENDBRANCH  42  43
ENDBRANCH  35  37
ENDBRANCH  34  35
ENDBRANCH  33  34
ENDBRANCH   1  33
TORSDOF 19
ENDMDL
MODEL 2
REMARK VINA RESULT:     -11.8      5.100     10.539
REMARK SMILES Cc1nnc(SCC2=C(C(=O)OCCOC(=O)c3ccc(-c4c5nc(c(-c6cccc(S(=O)(=O)[O-])c6F)c6ccc([nH]6)c(-c6cccc(S(=O)(=O)[O-])c6F)c6nc(c(-c7cccc(S(=O)(=O)[O-])c7F)c7ccc4[nH]7)C=C6)C=C5)cc3)N3C(=O)[C@H](NC(=O)c4cn(C)nc4C)[C@@H]3SC2)s1
REMARK SMILES IDX 13 1 12 2 10 3 11 4 9 5 8 6 97 7 81 8 96 9 82 10 95 11 83 12
REMARK SMILES IDX 84 13 7 14 6 15 5 16 1 17 2 18 3 19 98 20 4 21 85 22 86 23
REMARK SMILES IDX 87 25 88 26 89 27 93 28 90 29 92 30 94 31 91 32 14 33 15 34
REMARK SMILES IDX 16 35 17 36 18 37 19 38 80 39 20 40 79 41 21 42 22 43 23 44
REMARK SMILES IDX 73 45 24 46 78 47 72 48 74 49 25 50 77 51 71 52 70 53 26 55
REMARK SMILES IDX 58 56 38 57 57 58 39 59 42 60 56 61 75 62 40 63 41 64 55 66
REMARK SMILES IDX 76 67 43 68 27 69 28 70 36 71 29 72 31 73 37 74 30 75 32 76
REMARK SMILES IDX 33 77 34 78 35 79 59 80 60 81 68 82 61 83 63 84 69 85 62 86
REMARK SMILES IDX 64 87 65 88 66 89 67 90 44 91 45 92 53 93 46 94 48 95 54 96
REMARK SMILES IDX 47 97 49 98 50 99 51 100 52 101
REMARK H PARENT 85 24 74 54 42 65
REMARK Flexibility Score: inf
ROOT
ATOM      1  C   UNL A   1      31.402  29.794  25.332  1.00  0.00     0.275 C 
ENDROOT
BRANCH   1   2
ATOM      2  O   UNL A   1      32.248  28.703  25.757  1.00  0.00    -0.457 OA
BRANCH   2   3
ATOM      3  C   UNL A   1      31.647  27.691  26.449  1.00  0.00     0.355 C 
ATOM      4  O   UNL A   1      31.199  27.770  27.577  1.00  0.00    -0.244 OA
BRANCH   3   5
ATOM      5  C   UNL A   1      31.586  26.469  25.563  1.00  0.00     0.132 C 
ATOM      6  C   UNL A   1      30.452  26.119  24.893  1.00  0.00    -0.019 C 
ATOM      7  C   UNL A   1      30.358  24.856  24.041  1.00  0.00     0.106 C 
ATOM      8  N   UNL A   1      32.708  25.702  25.462  1.00  0.00    -0.289 N 
ATOM      9  S   UNL A   1      31.958  24.206  23.454  1.00  0.00    -0.129 SA
ATOM     10  C   UNL A   1      34.030  25.792  25.723  1.00  0.00     0.253 C 
ATOM     11  C   UNL A   1      32.694  24.305  25.091  1.00  0.00     0.181 C 
ATOM     12  O   UNL A   1      34.731  26.668  26.160  1.00  0.00    -0.272 OA
ATOM     13  C   UNL A   1      34.237  24.316  25.241  1.00  0.00     0.206 C 
BRANCH   6  14
ATOM     14  C   UNL A   1      29.195  26.980  24.965  1.00  0.00     0.111 C 
BRANCH  14  15
ATOM     15  S   UNL A   1      28.158  27.033  23.476  1.00  0.00    -0.089 SA
BRANCH  15  16
ATOM     16  C   UNL A   1      28.592  28.577  22.785  1.00  0.00     0.174 A 
ATOM     17  C   UNL A   1      28.550  32.228  21.628  1.00  0.00     0.081 C 
ATOM     18  C   UNL A   1      28.744  30.798  21.975  1.00  0.00     0.115 A 
ATOM     19  N   UNL A   1      29.730  30.043  21.541  1.00  0.00    -0.143 NA
ATOM     20  S   UNL A   1      27.649  29.989  23.021  1.00  0.00    -0.091 S 
ATOM     21  N   UNL A   1      29.645  28.753  22.021  1.00  0.00    -0.132 NA
ENDBRANCH  15  16
ENDBRANCH  14  15
ENDBRANCH   6  14
BRANCH  13  22
ATOM     22  N   UNL A   1      35.085  24.144  24.041  1.00  0.00    -0.337 N 
ATOM     23  C   UNL A   1      35.708  22.990  23.616  1.00  0.00     0.255 C 
ATOM     24  H   UNL A   1      35.220  24.943  23.484  1.00  0.00     0.164 HD
ATOM     25  O   UNL A   1      36.601  23.075  22.776  1.00  0.00    -0.269 OA
BRANCH  23  26
ATOM     26  C   UNL A   1      35.280  21.716  24.164  1.00  0.00     0.080 A 
ATOM     27  C   UNL A   1      34.004  21.174  24.154  1.00  0.00     0.122 A 
ATOM     28  C   UNL A   1      36.081  20.699  24.755  1.00  0.00     0.072 A 
ATOM     29  N   UNL A   1      34.108  19.935  24.715  1.00  0.00    -0.275 N 
ATOM     30  N   UNL A   1      35.354  19.624  25.081  1.00  0.00    -0.178 NA
ATOM     31  C   UNL A   1      37.538  20.694  25.046  1.00  0.00     0.069 C 
ATOM     32  C   UNL A   1      33.062  18.963  24.916  1.00  0.00     0.173 C 
ENDBRANCH  23  26
ENDBRANCH  13  22
ENDBRANCH   3   5
ENDBRANCH   2   3
ENDBRANCH   1   2
BRANCH   1  33
ATOM     33  C   UNL A   1      31.714  31.055  26.147  1.00  0.00     0.275 C 
BRANCH  33  34
ATOM     34  O   UNL A   1      32.883  30.844  26.959  1.00  0.00    -0.458 OA
BRANCH  34  35
ATOM     35  C   UNL A   1      33.491  31.975  27.382  1.00  0.00     0.338 C 
ATOM     36  O   UNL A   1      32.990  33.080  27.524  1.00  0.00    -0.246 OA
BRANCH  35  37
ATOM     37  C   UNL A   1      34.822  31.637  27.900  1.00  0.00     0.060 A 
ATOM     38  C   UNL A   1      34.997  30.321  28.320  1.00  0.00     0.016 A 
ATOM     39  C   UNL A   1      35.851  32.565  28.040  1.00  0.00     0.016 A 
ATOM     40  C   UNL A   1      36.187  29.922  28.914  1.00  0.00     0.010 A 
ATOM     41  C   UNL A   1      37.057  32.159  28.632  1.00  0.00     0.010 A 
ATOM     42  C   UNL A   1      37.224  30.840  29.095  1.00  0.00    -0.014 A 
BRANCH  42  43
ATOM     43  C   UNL A   1      38.433  30.410  29.845  1.00  0.00     0.031 A 
ATOM     44  C   UNL A   1      39.396  29.445  29.213  1.00  0.00     0.074 A 
ATOM     45  C   UNL A   1      38.700  30.922  31.062  1.00  0.00     0.049 A 
ATOM     46  N   UNL A   1      40.472  28.897  29.716  1.00  0.00    -0.248 NA
ATOM     47  C   UNL A   1      39.114  29.042  27.825  1.00  0.00     0.031 C 
ATOM     48  C   UNL A   1      37.878  31.909  31.765  1.00  0.00     0.029 A 
ATOM     49  N   UNL A   1      39.736  30.673  31.928  1.00  0.00    -0.354 N 
ATOM     50  C   UNL A   1      40.961  28.045  28.736  1.00  0.00     0.074 A 
ATOM     51  C   UNL A   1      40.070  28.153  27.600  1.00  0.00     0.031 C 
ATOM     52  C   UNL A   1      38.433  32.168  32.960  1.00  0.00     0.029 A 
ATOM     53  C   UNL A   1      39.617  31.332  33.129  1.00  0.00     0.049 A 
ATOM     54  H   UNL A   1      40.492  30.082  31.709  1.00  0.00     0.167 HD
ATOM     55  C   UNL A   1      42.055  27.247  28.775  1.00  0.00     0.034 A 
ATOM     56  C   UNL A   1      40.355  31.245  34.254  1.00  0.00     0.034 A 
ATOM     57  C   UNL A   1      42.962  27.171  29.888  1.00  0.00     0.049 A 
ATOM     58  C   UNL A   1      41.550  30.329  34.281  1.00  0.00     0.074 A 
ATOM     59  C   UNL A   1      44.110  26.408  30.009  1.00  0.00     0.029 A 
ATOM     60  N   UNL A   1      42.825  27.877  31.073  1.00  0.00    -0.354 N 
ATOM     61  N   UNL A   1      42.036  29.574  33.325  1.00  0.00    -0.248 NA
ATOM     62  C   UNL A   1      42.314  30.268  35.537  1.00  0.00     0.031 C 
ATOM     63  C   UNL A   1      44.648  26.626  31.282  1.00  0.00     0.029 A 
ATOM     64  C   UNL A   1      43.855  27.551  31.941  1.00  0.00     0.049 A 
ATOM     65  H   UNL A   1      42.103  28.517  31.270  1.00  0.00     0.167 HD
ATOM     66  C   UNL A   1      43.175  28.975  33.851  1.00  0.00     0.074 A 
ATOM     67  C   UNL A   1      43.319  29.470  35.204  1.00  0.00     0.031 C 
ATOM     68  C   UNL A   1      44.018  28.086  33.269  1.00  0.00     0.034 A 
BRANCH  55  69
ATOM     69  C   UNL A   1      42.324  26.379  27.575  1.00  0.00     0.023 A 
ATOM     70  C   UNL A   1      43.056  26.889  26.484  1.00  0.00     0.012 A 
ATOM     71  C   UNL A   1      41.882  25.042  27.548  1.00  0.00     0.148 A 
ATOM     72  C   UNL A   1      43.312  26.092  25.369  1.00  0.00     0.002 A 
ATOM     73  C   UNL A   1      42.180  24.240  26.452  1.00  0.00     0.091 A 
ATOM     74  F   UNL A   1      41.166  24.582  28.584  1.00  0.00    -0.205 F 
ATOM     75  C   UNL A   1      42.883  24.767  25.357  1.00  0.00     0.022 A 
BRANCH  73  76
ATOM     76  S   UNL A   1      41.735  22.502  26.377  1.00  0.00     0.127 S 
ATOM     77  O   UNL A   1      42.462  22.063  25.187  1.00  0.00    -0.237 OA
ATOM     78  O   UNL A   1      42.269  21.993  27.641  1.00  0.00    -0.237 OA
ATOM     79  O   UNL A   1      40.283  22.465  26.275  1.00  0.00    -0.744 OA
ENDBRANCH  73  76
ENDBRANCH  55  69
BRANCH  56  80
ATOM     80  C   UNL A   1      39.980  32.049  35.451  1.00  0.00     0.023 A 
ATOM     81  C   UNL A   1      40.552  33.320  35.646  1.00  0.00     0.012 A 
ATOM     82  C   UNL A   1      39.042  31.566  36.387  1.00  0.00     0.148 A 
ATOM     83  C   UNL A   1      40.215  34.086  36.763  1.00  0.00     0.002 A 
ATOM     84  C   UNL A   1      38.669  32.357  37.467  1.00  0.00     0.091 A 
ATOM     85  F   UNL A   1      38.526  30.344  36.194  1.00  0.00    -0.205 F 
ATOM     86  C   UNL A   1      39.267  33.610  37.666  1.00  0.00     0.022 A 
BRANCH  84  87
ATOM     87  S   UNL A   1      37.371  31.875  38.611  1.00  0.00     0.127 S 
ATOM     88  O   UNL A   1      37.975  32.202  39.901  1.00  0.00    -0.237 OA
ATOM     89  O   UNL A   1      36.271  32.750  38.207  1.00  0.00    -0.237 OA
ATOM     90  O   UNL A   1      37.135  30.459  38.367  1.00  0.00    -0.744 OA
ENDBRANCH  84  87
ENDBRANCH  56  80
BRANCH  68  91
ATOM     91  C   UNL A   1      45.195  27.601  34.076  1.00  0.00     0.023 A 
ATOM     92  C   UNL A   1      46.377  28.367  34.122  1.00  0.00     0.012 A 
ATOM     93  C   UNL A   1      45.101  26.431  34.857  1.00  0.00     0.148 A 
ATOM     94  C   UNL A   1      47.457  27.960  34.904  1.00  0.00     0.002 A 
ATOM     95  C   UNL A   1      46.162  26.058  35.673  1.00  0.00     0.091 A 
ATOM     96  F   UNL A   1      43.973  25.707  34.790  1.00  0.00    -0.205 F 
ATOM     97  C   UNL A   1      47.345  26.814  35.688  1.00  0.00     0.022 A 
BRANCH  95  98
ATOM     98  S   UNL A   1      46.069  24.657  36.793  1.00  0.00     0.127 S 
ATOM     99  O   UNL A   1      45.014  25.079  37.714  1.00  0.00    -0.237 OA
ATOM    100  O   UNL A   1      45.692  23.564  35.895  1.00  0.00    -0.237 OA
ATOM    101  O   UNL A   1      47.396  24.522  37.380  1.00  0.00    -0.744 OA
ENDBRANCH  95  98
ENDBRANCH  68  91
ENDBRANCH  42  43
ENDBRANCH  35  37
ENDBRANCH  34  35
ENDBRANCH  33  34
ENDBRANCH   1  33
TORSDOF 19
ENDMDL
MODEL 3
REMARK VINA RESULT:     -11.8      5.045      8.598
REMARK SMILES Cc1nnc(SCC2=C(C(=O)OCCOC(=O)c3ccc(-c4c5nc(c(-c6cccc(S(=O)(=O)[O-])c6F)c6ccc([nH]6)c(-c6cccc(S(=O)(=O)[O-])c6F)c6nc(c(-c7cccc(S(=O)(=O)[O-])c7F)c7ccc4[nH]7)C=C6)C=C5)cc3)N3C(=O)[C@H](NC(=O)c4cn(C)nc4C)[C@@H]3SC2)s1
REMARK SMILES IDX 13 1 12 2 10 3 11 4 9 5 8 6 97 7 81 8 96 9 82 10 95 11 83 12
REMARK SMILES IDX 84 13 7 14 6 15 5 16 1 17 2 18 3 19 98 20 4 21 85 22 86 23
REMARK SMILES IDX 87 25 88 26 89 27 93 28 90 29 92 30 94 31 91 32 14 33 15 34
REMARK SMILES IDX 16 35 17 36 18 37 19 38 80 39 20 40 79 41 21 42 22 43 23 44
REMARK SMILES IDX 73 45 24 46 78 47 72 48 74 49 25 50 77 51 71 52 70 53 26 55
REMARK SMILES IDX 58 56 38 57 57 58 39 59 42 60 56 61 75 62 40 63 41 64 55 66
REMARK SMILES IDX 76 67 43 68 27 69 28 70 36 71 29 72 31 73 37 74 30 75 32 76
REMARK SMILES IDX 33 77 34 78 35 79 59 80 60 81 68 82 61 83 63 84 69 85 62 86
REMARK SMILES IDX 64 87 65 88 66 89 67 90 44 91 45 92 53 93 46 94 48 95 54 96
REMARK SMILES IDX 47 97 49 98 50 99 51 100 52 101
REMARK H PARENT 85 24 74 54 42 65
REMARK Flexibility Score: inf
ROOT
ATOM      1  C   UNL A   1      31.101  29.914  25.320  1.00  0.00     0.275 C 
ENDROOT
BRANCH   1   2
ATOM      2  O   UNL A   1      32.025  28.841  25.603  1.00  0.00    -0.457 OA
BRANCH   2   3
ATOM      3  C   UNL A   1      31.556  27.808  26.364  1.00  0.00     0.355 C 
ATOM      4  O   UNL A   1      31.178  27.891  27.518  1.00  0.00    -0.244 OA
BRANCH   3   5
ATOM      5  C   UNL A   1      31.536  26.556  25.521  1.00  0.00     0.132 C 
ATOM      6  C   UNL A   1      30.407  26.131  24.886  1.00  0.00    -0.019 C 
ATOM      7  C   UNL A   1      30.357  24.837  24.078  1.00  0.00     0.106 C 
ATOM      8  N   UNL A   1      32.691  25.839  25.423  1.00  0.00    -0.289 N 
ATOM      9  S   UNL A   1      31.974  24.242  23.480  1.00  0.00    -0.129 SA
ATOM     10  C   UNL A   1      34.011  26.000  25.653  1.00  0.00     0.253 C 
ATOM     11  C   UNL A   1      32.736  24.431  25.098  1.00  0.00     0.181 C 
ATOM     12  O   UNL A   1      34.678  26.922  26.047  1.00  0.00    -0.272 OA
ATOM     13  C   UNL A   1      34.279  24.519  25.217  1.00  0.00     0.206 C 
BRANCH   6  14
ATOM     14  C   UNL A   1      29.113  26.934  24.955  1.00  0.00     0.111 C 
BRANCH  14  15
ATOM     15  S   UNL A   1      28.137  27.039  23.428  1.00  0.00    -0.089 SA
BRANCH  15  16
ATOM     16  C   UNL A   1      28.620  28.593  22.794  1.00  0.00     0.174 A 
ATOM     17  C   UNL A   1      28.690  32.280  21.761  1.00  0.00     0.081 C 
ATOM     18  C   UNL A   1      28.841  30.835  22.061  1.00  0.00     0.115 A 
ATOM     19  N   UNL A   1      29.810  30.068  21.610  1.00  0.00    -0.143 NA
ATOM     20  S   UNL A   1      27.714  30.022  23.069  1.00  0.00    -0.091 S 
ATOM     21  N   UNL A   1      29.685  28.765  22.046  1.00  0.00    -0.132 NA
ENDBRANCH  15  16
ENDBRANCH  14  15
ENDBRANCH   6  14
BRANCH  13  22
ATOM     22  N   UNL A   1      35.112  24.346  24.006  1.00  0.00    -0.337 N 
ATOM     23  C   UNL A   1      35.762  23.202  23.595  1.00  0.00     0.255 C 
ATOM     24  H   UNL A   1      35.213  25.136  23.429  1.00  0.00     0.164 HD
ATOM     25  O   UNL A   1      36.637  23.295  22.738  1.00  0.00    -0.269 OA
BRANCH  23  26
ATOM     26  C   UNL A   1      35.382  21.928  24.177  1.00  0.00     0.080 A 
ATOM     27  C   UNL A   1      34.131  21.330  24.165  1.00  0.00     0.122 A 
ATOM     28  C   UNL A   1      36.217  20.968  24.814  1.00  0.00     0.072 A 
ATOM     29  N   UNL A   1      34.281  20.115  24.768  1.00  0.00    -0.275 N 
ATOM     30  N   UNL A   1      35.533  19.872  25.163  1.00  0.00    -0.178 NA
ATOM     31  C   UNL A   1      37.667  21.038  25.128  1.00  0.00     0.069 C 
ATOM     32  C   UNL A   1      33.275  19.103  24.984  1.00  0.00     0.173 C 
ENDBRANCH  23  26
ENDBRANCH  13  22
ENDBRANCH   3   5
ENDBRANCH   2   3
ENDBRANCH   1   2
BRANCH   1  33
ATOM     33  C   UNL A   1      31.488  31.169  26.114  1.00  0.00     0.275 C 
BRANCH  33  34
ATOM     34  O   UNL A   1      32.651  30.907  26.919  1.00  0.00    -0.458 OA
BRANCH  34  35
ATOM     35  C   UNL A   1      33.333  32.009  27.305  1.00  0.00     0.338 C 
ATOM     36  O   UNL A   1      32.903  33.146  27.424  1.00  0.00    -0.246 OA
BRANCH  35  37
ATOM     37  C   UNL A   1      34.649  31.602  27.814  1.00  0.00     0.060 A 
ATOM     38  C   UNL A   1      34.789  30.254  28.132  1.00  0.00     0.016 A 
ATOM     39  C   UNL A   1      35.694  32.494  28.043  1.00  0.00     0.016 A 
ATOM     40  C   UNL A   1      35.961  29.785  28.711  1.00  0.00     0.010 A 
ATOM     41  C   UNL A   1      36.881  32.017  28.619  1.00  0.00     0.010 A 
ATOM     42  C   UNL A   1      37.014  30.663  28.979  1.00  0.00    -0.014 A 
BRANCH  42  43
ATOM     43  C   UNL A   1      38.200  30.149  29.712  1.00  0.00     0.031 A 
ATOM     44  C   UNL A   1      38.451  30.593  31.126  1.00  0.00     0.074 A 
ATOM     45  C   UNL A   1      39.019  29.246  29.139  1.00  0.00     0.049 A 
ATOM     46  N   UNL A   1      39.454  30.315  31.917  1.00  0.00    -0.248 NA
ATOM     47  C   UNL A   1      37.433  31.466  31.735  1.00  0.00     0.031 C 
ATOM     48  C   UNL A   1      38.858  28.689  27.794  1.00  0.00     0.029 A 
ATOM     49  N   UNL A   1      40.159  28.646  29.614  1.00  0.00    -0.354 N 
ATOM     50  C   UNL A   1      39.223  31.021  33.090  1.00  0.00     0.074 A 
ATOM     51  C   UNL A   1      37.976  31.735  32.913  1.00  0.00     0.031 C 
ATOM     52  C   UNL A   1      39.871  27.842  27.548  1.00  0.00     0.029 A 
ATOM     53  C   UNL A   1      40.777  27.835  28.692  1.00  0.00     0.049 A 
ATOM     54  H   UNL A   1      40.500  28.781  30.528  1.00  0.00     0.167 HD
ATOM     55  C   UNL A   1      39.977  31.068  34.213  1.00  0.00     0.034 A 
ATOM     56  C   UNL A   1      41.959  27.188  28.745  1.00  0.00     0.034 A 
ATOM     57  C   UNL A   1      41.194  30.326  34.403  1.00  0.00     0.049 A 
ATOM     58  C   UNL A   1      42.792  27.279  29.996  1.00  0.00     0.074 A 
ATOM     59  C   UNL A   1      42.015  30.293  35.517  1.00  0.00     0.029 A 
ATOM     60  N   UNL A   1      41.770  29.492  33.458  1.00  0.00    -0.354 N 
ATOM     61  N   UNL A   1      42.531  27.902  31.120  1.00  0.00    -0.248 NA
ATOM     62  C   UNL A   1      44.075  26.560  29.995  1.00  0.00     0.031 C 
ATOM     63  C   UNL A   1      43.106  29.465  35.233  1.00  0.00     0.029 A 
ATOM     64  C   UNL A   1      42.948  28.956  33.954  1.00  0.00     0.049 A 
ATOM     65  H   UNL A   1      41.398  29.306  32.566  1.00  0.00     0.167 HD
ATOM     66  C   UNL A   1      43.597  27.625  31.968  1.00  0.00     0.074 A 
ATOM     67  C   UNL A   1      44.500  26.762  31.235  1.00  0.00     0.031 C 
ATOM     68  C   UNL A   1      43.815  28.057  33.235  1.00  0.00     0.034 A 
BRANCH  55  69
ATOM     69  C   UNL A   1      39.508  31.967  35.327  1.00  0.00     0.023 A 
ATOM     70  C   UNL A   1      39.799  33.345  35.292  1.00  0.00     0.012 A 
ATOM     71  C   UNL A   1      38.744  31.447  36.390  1.00  0.00     0.148 A 
ATOM     72  C   UNL A   1      39.367  34.186  36.317  1.00  0.00     0.002 A 
ATOM     73  C   UNL A   1      38.280  32.299  37.384  1.00  0.00     0.091 A 
ATOM     74  F   UNL A   1      38.499  30.129  36.419  1.00  0.00    -0.205 F 
ATOM     75  C   UNL A   1      38.601  33.665  37.357  1.00  0.00     0.022 A 
BRANCH  73  76
ATOM     76  S   UNL A   1      37.224  31.735  38.724  1.00  0.00     0.127 S 
ATOM     77  O   UNL A   1      36.125  32.697  38.657  1.00  0.00    -0.237 OA
ATOM     78  O   UNL A   1      36.876  30.381  38.292  1.00  0.00    -0.237 OA
ATOM     79  O   UNL A   1      38.040  31.796  39.928  1.00  0.00    -0.744 OA
ENDBRANCH  73  76
ENDBRANCH  55  69
BRANCH  56  80
ATOM     80  C   UNL A   1      42.425  26.397  27.571  1.00  0.00     0.023 A 
ATOM     81  C   UNL A   1      43.232  27.008  26.593  1.00  0.00     0.012 A 
ATOM     82  C   UNL A   1      42.088  25.035  27.431  1.00  0.00     0.148 A 
ATOM     83  C   UNL A   1      43.675  26.284  25.485  1.00  0.00     0.002 A 
ATOM     84  C   UNL A   1      42.578  24.306  26.355  1.00  0.00     0.091 A 
ATOM     85  F   UNL A   1      41.300  24.478  28.362  1.00  0.00    -0.205 F 
ATOM     86  C   UNL A   1      43.358  24.932  25.372  1.00  0.00     0.022 A 
BRANCH  84  87
ATOM     87  S   UNL A   1      42.319  22.536  26.193  1.00  0.00     0.127 S 
ATOM     88  O   UNL A   1      43.020  22.245  24.944  1.00  0.00    -0.237 OA
ATOM     89  O   UNL A   1      42.971  22.022  27.397  1.00  0.00    -0.237 OA
ATOM     90  O   UNL A   1      40.875  22.349  26.163  1.00  0.00    -0.744 OA
ENDBRANCH  84  87
ENDBRANCH  56  80
BRANCH  68  91
ATOM     91  C   UNL A   1      45.066  27.588  33.933  1.00  0.00     0.023 A 
ATOM     92  C   UNL A   1      46.224  28.391  33.913  1.00  0.00     0.012 A 
ATOM     93  C   UNL A   1      45.069  26.392  34.680  1.00  0.00     0.148 A 
ATOM     94  C   UNL A   1      47.373  27.997  34.596  1.00  0.00     0.002 A 
ATOM     95  C   UNL A   1      46.202  26.030  35.399  1.00  0.00     0.091 A 
ATOM     96  F   UNL A   1      43.963  25.633  34.675  1.00  0.00    -0.205 F 
ATOM     97  C   UNL A   1      47.358  26.825  35.349  1.00  0.00     0.022 A 
BRANCH  95  98
ATOM     98  S   UNL A   1      46.240  24.593  36.477  1.00  0.00     0.127 S 
ATOM     99  O   UNL A   1      45.921  23.512  35.544  1.00  0.00    -0.237 OA
ATOM    100  O   UNL A   1      47.624  24.598  36.953  1.00  0.00    -0.237 OA
ATOM    101  O   UNL A   1      45.246  24.840  37.513  1.00  0.00    -0.744 OA
ENDBRANCH  95  98
ENDBRANCH  68  91
ENDBRANCH  42  43
ENDBRANCH  35  37
ENDBRANCH  34  35
ENDBRANCH  33  34
ENDBRANCH   1  33
TORSDOF 19
ENDMDL
